data_PCOD9087782
_publ_section_title
;
Structure prediction by ZEFSAII (Michael W. Deem and Ramdas Pophale) SiO2 
 PCOD9087782
Probable space group: P -1
;
_chemical_formula_sum "Si O2"
_cell_formula_units_Z 14
_cell_length_a 9.627627
_cell_length_b 7.589620
_cell_length_c 11.262616
_cell_angle_alpha 131.601717
_cell_angle_beta 99.548638
_cell_angle_gamma 76.463911
_cell_volume 598.235201
_symmetry_space_group_name_H-M "P -1"
_symmetry_group_IT_number 2
_symmetry_cell_setting 'triclinic'
loop_
_space_group_symop_operation_xyz
x,y,z
-x,-y,-z
loop_
_atom_site_type_symbol
_atom_site_label
_atom_site_fract_x
_atom_site_fract_y
_atom_site_fract_z
Si Si1 0.378594 0.411432 0.367759
Si Si2 0.304591 0.225584 0.650370
Si Si3 0.426903 0.904709 0.061694
Si Si4 0.273503 0.387642 0.981080
Si Si5 0.362428 0.746773 0.303833
Si Si6 0.139342 0.003149 0.939244
Si Si7 0.853170 0.421526 0.413787
O O1 0.500000 0.500000 0.500000
O O2 0.385679 0.509446 0.281746
O O3 0.233935 0.538194 0.460403
O O4 0.396622 0.127016 0.247138
O O5 0.236601 0.311858 0.807741
O O6 0.475922 0.214987 0.681619
O O7 0.236938 0.413023 0.624636
O O8 0.290649 0.968012 0.475047
O O9 0.554619 0.706700 0.034223
O O10 0.274227 0.869348 0.975360
O O11 0.500000 0.000000 0.000000
O O12 0.185862 0.246976 0.000714
O O13 0.269602 0.664745 0.144789
O O14 0.125892 0.843986 0.751280
O O15 0.000000 0.000000 0.000000
O O16 0.000000 0.500000 0.500000
#
# Coordination Sequence:
#
# PCOD9087782 Si02
#       7
#     2   2   2   2   2   2   2
#     4  12  20  39  70  99 135 177 235 283 332 403
#     4  11  25  44  66 108 144 177 229 287 357 416
#     4  10  19  36  68 101 132 170 229 283 330 399
#     4  11  23  44  72 105 139 179 229 295 351 404
#     4  11  22  41  71 106 141 179 223 290 353 408
#     4  11  23  45  69  98 135 182 239 278 337 419
#     4  12  27  45  69  98 135 186 233 289 342 416
#
# _framework density 23.402166999999999
#
# number of rings (size 3 to 8) (size 9 to 14) (size 15 to 20)
#    0.000    0.857    4.286    5.571    2.000    0.000 
#    2.571    3.571    0.000    0.000    0.000    0.000 
#    0.000    0.000    0.000    0.000    0.000    0.000 
#
# Total GULP energy -78200.013682 kJ/mol
# GULP energy per Si atom -5585.715263 kJ/mol
# Density = 2.334890 g / cm^3
# Si number density = 23.402167 Si / 1000 Ang^3
#
#
#
# Elastic Constant Matrix: (Units=GPa)
#
#
# Indices 1 2 3 4 5 6 
#
# 1 117.5761 -6.8588 35.8863 3.7504 -1.5624 20.1246
# 2 -6.8588 63.5369 15.8157 -4.2928 -2.1838 20.1988
# 3 35.8863 15.8157 196.3353 20.5571 9.3450 18.8320
# 4 3.7504 -4.2928 20.5571 44.6201 8.6224 2.8957
# 5 -1.5624 -2.1838 9.3450 8.6224 39.0220 -3.9026
# 6 20.1246 20.1988 18.8320 2.8957 -3.9026 20.5495
#
#
#
# Elastic Compliance Matrix: (Units=1/GPa)
#
#
# Indices 1 2 3 4 5 6 
#
# 1 0.012601 0.007936 -0.001202 0.001735 -0.001096 -0.019492
# 2 0.007936 0.028662 -0.000674 0.005307 -0.002750 -0.036597
# 3 -0.001202 -0.000674 0.006015 -0.002230 -0.001396 -0.003623
# 4 0.001735 0.005307 -0.002230 0.025524 -0.005694 -0.009550
# 5 -0.001096 -0.002750 -0.001396 -0.005694 0.028142 0.011202
# 6 -0.019492 -0.036597 -0.003623 -0.009550 0.011202 0.110518
#
#
# Mechanical properties :
#
#
# Convention : Reuss Voigt Hill
#
# Bulk Modulus (GPa) = 16.83576 51.90383 34.36980
# Shear Modulus (GPa) = 22.81627 43.01199 32.91413
#
# Velocity S-wave (km/s) = 3.12583 4.29178 3.75434
# Velocity P-wave (km/s) = 4.49861 6.84006 5.78895
#
# Compressibility (1/GPa) = 0.05939736
#
# Stress axis : x y z
#
# Youngs Moduli (GPa) = 79.35573 34.88955 166.25543
#
# Poissons Ratio (x) = -0.27688 0.19991
# Poissons Ratio (y) = -0.62976 0.11204
# Poissons Ratio (z) = 0.09542 0.02351
#
# Static dielectric constant tensor:
#      x y z
#    x 2.035370 0.297410 -0.180730 
#    y 0.297410 2.294210 -0.227290 
#    z -0.180730 -0.227290 2.113310 
# 
# From -- ./inp_files/186863.got.cif
#   From: 2010.05.17/outbox.cif.g08.bks.cpg/sg2_94_cif.got.tgz:186863.got - 2010.06.03 11:33:40.
