data_PCOD9087933
_publ_section_title
;
Structure prediction by ZEFSAII (Michael W. Deem and Ramdas Pophale) SiO2 
 PCOD9087933
Probable space group: P -1
;
_chemical_formula_sum "Si O2"
_cell_formula_units_Z 14
_cell_length_a 7.048894
_cell_length_b 7.644628
_cell_length_c 17.509620
_cell_angle_alpha 106.213911
_cell_angle_beta 41.470730
_cell_angle_gamma 115.721328
_cell_volume 561.253506
_symmetry_space_group_name_H-M "P -1"
_symmetry_group_IT_number 2
_symmetry_cell_setting 'triclinic'
loop_
_space_group_symop_operation_xyz
x,y,z
-x,-y,-z
loop_
_atom_site_type_symbol
_atom_site_label
_atom_site_fract_x
_atom_site_fract_y
_atom_site_fract_z
Si Si1 0.024720 0.474847 0.650001
Si Si2 0.942290 0.110885 0.724907
Si Si3 0.565477 0.067711 0.248752
Si Si4 0.563117 0.486684 0.114280
Si Si5 0.320899 0.200383 0.483234
Si Si6 0.931897 0.815534 0.128188
Si Si7 0.743150 0.781220 0.955567
O O1 0.107818 0.331800 0.547373
O O2 0.337717 0.654749 0.584232
O O3 0.973658 0.332069 0.721166
O O4 0.738108 0.544587 0.746852
O O5 0.189767 0.085370 0.587175
O O6 0.990098 0.122016 0.800910
O O7 0.626997 0.952128 0.772100
O O8 0.361808 0.090368 0.382737
O O9 0.912698 0.220903 0.164293
O O10 0.621883 0.864570 0.215555
O O11 0.844751 0.595209 0.100283
O O12 0.475692 0.300267 0.061264
O O13 0.619741 0.652663 0.051159
O O14 0.820015 0.011261 0.972849
#
# Coordination Sequence:
#
# PCOD9087933 Si02
#       7
#     2   2   2   2   2   2   2
#     4   9  17  34  57  79 111 149 188 228 279 336
#     4  10  20  34  57  86 113 151 184 232 288 327
#     4  10  19  37  57  82 118 148 188 233 279 336
#     4  11  18  40  62  78 118 151 185 239 285 328
#     4   9  18  34  57  82 112 152 190 226 282 339
#     4  10  21  37  58  87 116 145 193 230 282 342
#     4   9  22  36  61  86 107 154 192 228 287 341
#
# _framework density 24.944165000000002
#
# number of rings (size 3 to 8) (size 9 to 14) (size 15 to 20)
#    1.714    0.571    2.857    0.857    0.000    0.571 
#    2.571    3.571    0.000    3.429    0.000    0.000 
#    0.000    0.000    0.000    0.000    0.000    0.000 
#
# Total GULP energy -77989.652901 kJ/mol
# GULP energy per Si atom -5570.689493 kJ/mol
# Density = 2.488739 g / cm^3
# Si number density = 24.944165 Si / 1000 Ang^3
#
#
#
# Elastic Constant Matrix: (Units=GPa)
#
#
# Indices 1 2 3 4 5 6 
#
# 1 63.0708 34.4659 33.0785 4.6773 8.1721 28.3806
# 2 34.4659 90.4057 32.7623 12.5719 -5.6507 39.9417
# 3 33.0785 32.7623 149.8018 22.8432 -13.3525 14.2325
# 4 4.6773 12.5719 22.8432 45.3073 7.7354 0.7738
# 5 8.1721 -5.6507 -13.3525 7.7354 29.4205 4.7741
# 6 28.3806 39.9417 14.2325 0.7738 4.7741 44.3423
#
#
#
# Elastic Compliance Matrix: (Units=1/GPa)
#
#
# Indices 1 2 3 4 5 6 
#
# 1 0.026925 -0.004992 -0.005277 0.003151 -0.010036 -0.010017
# 2 -0.004992 0.022737 -0.000086 -0.007245 0.010584 -0.018271
# 3 -0.005277 -0.000086 0.009330 -0.005348 0.007125 -0.000214
# 4 0.003151 -0.007245 -0.005348 0.028615 -0.013381 0.007168
# 5 -0.010036 0.010584 0.007125 -0.013381 0.047225 -0.010249
# 6 -0.010017 -0.018271 -0.000214 0.007168 -0.010249 0.046467
#
#
# Mechanical properties :
#
#
# Convention : Reuss Voigt Hill
#
# Bulk Modulus (GPa) = 26.12229 55.98795 41.05512
# Shear Modulus (GPa) = 23.28059 37.34547 30.31303
#
# Velocity S-wave (km/s) = 3.05832 3.87352 3.48980
# Velocity P-wave (km/s) = 4.79230 6.51917 5.72126
#
# Compressibility (1/GPa) = 0.03828149
#
# Stress axis : x y z
#
# Youngs Moduli (GPa) = 37.14037 43.98139 107.17597
#
# Poissons Ratio (x) = 0.21957 0.56555
# Poissons Ratio (y) = 0.18542 0.00923
# Poissons Ratio (z) = 0.19598 0.00379
#
# Static dielectric constant tensor:
#      x y z
#    x 2.140360 -0.045120 -0.025560 
#    y -0.045120 2.038600 -0.011740 
#    z -0.025560 -0.011740 1.952280 
# 
# From -- ./inp_files/498102.got.cif
#   From: 2010.05.17/outbox.cif.g08.bks.cpg/sg2_250_cif.got.tgz:498102.got - 2010.06.03 11:33:40.
