data_PCOD9087131
_publ_section_title
;
Structure prediction by ZEFSAII (Michael W. Deem and Ramdas Pophale) SiO2 
 PCOD9087131
Probable space group: P -1
;
_chemical_formula_sum "Si O2"
_cell_formula_units_Z 14
_cell_length_a 8.107413
_cell_length_b 5.766352
_cell_length_c 12.824426
_cell_angle_alpha 92.755182
_cell_angle_beta 66.331349
_cell_angle_gamma 104.342177
_cell_volume 531.105951
_symmetry_space_group_name_H-M "P -1"
_symmetry_group_IT_number 2
_symmetry_cell_setting 'triclinic'
loop_
_space_group_symop_operation_xyz
x,y,z
-x,-y,-z
loop_
_atom_site_type_symbol
_atom_site_label
_atom_site_fract_x
_atom_site_fract_y
_atom_site_fract_z
Si Si1 0.046080 0.330357 0.574945
Si Si2 0.352638 0.928355 0.134398
Si Si3 0.000252 0.981854 0.834742
Si Si4 0.313482 0.022712 0.413213
Si Si5 0.727113 0.232347 0.366790
Si Si6 0.542543 0.540403 0.866319
Si Si7 0.149270 0.351013 0.966201
O O1 0.000000 0.500000 0.500000
O O2 0.203869 0.210230 0.488729
O O3 0.144441 0.495081 0.650539
O O4 0.846401 0.132489 0.628655
O O5 0.358107 0.191373 0.187397
O O6 0.142153 0.854608 0.145377
O O7 0.397186 0.704264 0.179046
O O8 0.500000 0.000000 0.000000
O O9 0.130784 0.920472 0.712474
O O10 0.128145 0.111968 0.898610
O O11 0.869820 0.739728 0.911735
O O12 0.533656 0.160282 0.349205
O O13 0.324563 0.840999 0.501870
O O14 0.335820 0.516016 0.878424
O O15 0.500000 0.500000 0.000000
O O16 0.000000 0.500000 0.000000
#
# Coordination Sequence:
#
# PCOD9087131 Si02
#       7
#     2   2   2   2   2   2   2
#     4   9  18  37  66  90 123 162 198 248 320 383
#     4  10  19  38  61  84 113 161 214 261 320 376
#     4  11  24  38  59  87 120 162 214 264 318 376
#     4   9  19  39  67  91 125 164 199 251 320 390
#     4  10  21  39  61  95 125 160 208 260 315 377
#     4  10  19  36  62  82 109 160 212 261 321 372
#     4  11  23  39  59  80 122 167 209 267 318 375
#
# _framework density 26.360088999999999
#
# number of rings (size 3 to 8) (size 9 to 14) (size 15 to 20)
#    0.000    2.000    2.857    2.143    2.000    1.143 
#    2.571    2.857    0.000    0.000    0.000    0.000 
#    0.000    0.000    0.000    0.000    0.000    0.000 
#
# Total GULP energy -78071.114487 kJ/mol
# GULP energy per Si atom -5576.508178 kJ/mol
# Density = 2.630009 g / cm^3
# Si number density = 26.360089 Si / 1000 Ang^3
#
#
#
# Elastic Constant Matrix: (Units=GPa)
#
#
# Indices 1 2 3 4 5 6 
#
# 1 125.7910 50.4751 41.6007 -2.9028 -41.0330 10.6632
# 2 50.4751 176.3661 38.8835 -8.7288 -23.4385 7.4391
# 3 41.6007 38.8835 94.3482 -1.3099 -28.6898 11.7100
# 4 -2.9028 -8.7288 -1.3099 47.0305 -6.0160 -7.6588
# 5 -41.0330 -23.4385 -28.6898 -6.0160 44.6765 1.7294
# 6 10.6632 7.4391 11.7100 -7.6588 1.7294 57.1810
#
#
#
# Elastic Compliance Matrix: (Units=1/GPa)
#
#
# Indices 1 2 3 4 5 6 
#
# 1 0.012607 -0.001804 -0.001550 0.001354 0.009894 -0.001917
# 2 -0.001804 0.006746 -0.001661 0.001209 0.000981 -0.000069
# 3 -0.001550 -0.001661 0.014478 0.000491 0.007169 -0.002611
# 4 0.001354 0.001209 0.000491 0.022628 0.005148 0.002365
# 5 0.009894 0.000981 0.007169 0.005148 0.037432 -0.003883
# 6 -0.001917 -0.000069 -0.002611 0.002365 -0.003883 0.018824
#
#
# Mechanical properties :
#
#
# Convention : Reuss Voigt Hill
#
# Bulk Modulus (GPa) = 42.01554 73.15822 57.58688
# Shear Modulus (GPa) = 38.26197 47.48068 42.87133
#
# Velocity S-wave (km/s) = 3.81400 4.24870 4.03721
# Velocity P-wave (km/s) = 5.94720 7.20293 6.60498
#
# Compressibility (1/GPa) = 0.02380072
#
# Stress axis : x y z
#
# Youngs Moduli (GPa) = 79.31993 148.24602 69.06993
#
# Poissons Ratio (x) = 0.26738 0.10708
# Poissons Ratio (y) = 0.14306 0.11473
# Poissons Ratio (z) = 0.12297 0.24625
#
# Static dielectric constant tensor:
#      x y z
#    x 1.955790 0.007470 0.078340 
#    y 0.007470 2.074700 -0.026370 
#    z 0.078340 -0.026370 2.083670 
# 
# From -- ./inp_files/351593.got.cif
#   From: 2010.05.17/outbox.cif.g08.bks.cpg/sg2_176_cif.got.tgz:351593.got - 2010.06.03 11:33:40.
