data_PCOD9087811
_publ_section_title
;
Structure prediction by ZEFSAII (Michael W. Deem and Ramdas Pophale) SiO2 
 PCOD9087811
Probable space group: P -1
;
_chemical_formula_sum "Si O2"
_cell_formula_units_Z 16
_cell_length_a 11.966674
_cell_length_b 9.819862
_cell_length_c 7.699567
_cell_angle_alpha 105.468795
_cell_angle_beta 101.892107
_cell_angle_gamma 121.732029
_cell_volume 672.203844
_symmetry_space_group_name_H-M "P -1"
_symmetry_group_IT_number 2
_symmetry_cell_setting 'triclinic'
loop_
_space_group_symop_operation_xyz
x,y,z
-x,-y,-z
loop_
_atom_site_type_symbol
_atom_site_label
_atom_site_fract_x
_atom_site_fract_y
_atom_site_fract_z
Si Si1 0.014053 0.846610 0.237815
Si Si2 0.912647 0.356626 0.270381
Si Si3 0.384544 0.411926 0.278604
Si Si4 0.360669 0.799084 0.080516
Si Si5 0.887110 0.031533 0.303068
Si Si6 0.172031 0.484206 0.155535
Si Si7 0.577477 0.747867 0.246209
Si Si8 0.671420 0.926391 0.719715
O O1 0.034446 0.865675 0.456886
O O2 0.978801 0.981004 0.220726
O O3 0.885521 0.648420 0.071407
O O4 0.161867 0.912360 0.216681
O O5 0.874109 0.166016 0.241622
O O6 0.000000 0.500000 0.500000
O O7 0.032587 0.442358 0.187378
O O8 0.760576 0.306558 0.143425
O O9 0.500000 0.500000 0.500000
O O10 0.259280 0.433081 0.276840
O O11 0.473334 0.535985 0.182710
O O12 0.329195 0.209926 0.200733
O O13 0.280555 0.685770 0.192931
O O14 0.495216 0.796780 0.114489
O O15 0.401026 0.992733 0.188990
O O16 0.735921 0.845832 0.251828
O O17 0.603547 0.836304 0.478117
#
# Coordination Sequence:
#
# PCOD9087811 Si02
#       8
#     2   2   2   2   2   2   2   2
#     4  10  21  40  68  94 122 169 210 266 314 379
#     4  12  26  40  62  95 134 163 210 268 322 370
#     4   9  20  39  61  96 122 160 219 262 307 364
#     4  11  23  40  66  93 125 173 214 255 316 383
#     4  10  23  41  64  94 135 164 206 261 326 373
#     4  11  23  41  68  91 125 165 222 258 317 375
#     4   9  21  41  63  92 131 169 207 254 323 378
#     4  10  19  36  69  95 123 159 221 267 303 375
#
# _framework density 23.802302000000001
#
# number of rings (size 3 to 8) (size 9 to 14) (size 15 to 20)
#    0.000    1.750    1.250    2.250    5.250    2.500 
#    0.000    3.750    0.000    0.000    0.000    0.000 
#    0.000    0.000    0.000    0.000    0.000    0.000 
#
# Total GULP energy -89530.189131 kJ/mol
# GULP energy per Si atom -5595.636821 kJ/mol
# Density = 2.374813 g / cm^3
# Si number density = 23.802302 Si / 1000 Ang^3
#
#
#
# Elastic Constant Matrix: (Units=GPa)
#
#
# Indices 1 2 3 4 5 6 
#
# 1 63.9124 -2.5122 21.4416 -10.1968 19.1612 -12.8660
# 2 -2.5122 83.5033 -4.3815 1.9522 1.1588 -23.2739
# 3 21.4416 -4.3815 82.3120 -10.4200 11.0064 -7.8198
# 4 -10.1968 1.9522 -10.4200 23.8978 -4.8673 10.0230
# 5 19.1612 1.1588 11.0064 -4.8673 35.6999 -6.6946
# 6 -12.8660 -23.2739 -7.8198 10.0230 -6.6946 36.9473
#
#
#
# Elastic Compliance Matrix: (Units=1/GPa)
#
#
# Indices 1 2 3 4 5 6 
#
# 1 0.021118 0.002019 -0.003264 0.003335 -0.008924 0.005413
# 2 0.002019 0.015555 0.000832 -0.005148 -0.000292 0.012021
# 3 -0.003264 0.000832 0.013863 0.003807 -0.001851 0.000953
# 4 0.003335 -0.005148 0.003807 0.051984 0.001457 -0.015114
# 5 -0.008924 -0.000292 -0.001851 0.001457 0.033969 0.002076
# 6 0.005413 0.012021 0.000953 -0.015114 0.002076 0.041201
#
#
# Mechanical properties :
#
#
# Convention : Reuss Voigt Hill
#
# Bulk Modulus (GPa) = 20.11712 28.75814 24.43763
# Shear Modulus (GPa) = 25.62953 33.65433 29.64193
#
# Velocity S-wave (km/s) = 3.28497 3.76428 3.53276
# Velocity P-wave (km/s) = 4.78102 5.56789 5.18939
#
# Compressibility (1/GPa) = 0.04970890
#
# Stress axis : x y z
#
# Youngs Moduli (GPa) = 47.35297 64.28890 72.13195
#
# Poissons Ratio (x) = -0.12978 0.23543
# Poissons Ratio (y) = -0.09559 -0.05998
# Poissons Ratio (z) = 0.15456 -0.05346
#
# Static dielectric constant tensor:
#      x y z
#    x 1.856360 -0.033220 0.008280 
#    y -0.033220 1.933800 0.004750 
#    z 0.008280 0.004750 1.946060 
# 
# From -- ./inp_files/186049.got.cif
#   From: 2010.05.17/outbox.cif.g08.bks.cpg/sg2_94_cif.got.tgz:186049.got - 2010.06.03 11:33:40.
