data_PCOD9087959
_publ_section_title
;
Structure prediction by ZEFSAII (Michael W. Deem and Ramdas Pophale) SiO2 
 PCOD9087959
Probable space group: P -1
;
_chemical_formula_sum "Si O2"
_cell_formula_units_Z 16
_cell_length_a 11.660171
_cell_length_b 9.847434
_cell_length_c 11.392241
_cell_angle_alpha 57.006369
_cell_angle_beta 36.802081
_cell_angle_gamma 63.587638
_cell_volume 657.140487
_symmetry_space_group_name_H-M "P -1"
_symmetry_group_IT_number 2
_symmetry_cell_setting 'triclinic'
loop_
_space_group_symop_operation_xyz
x,y,z
-x,-y,-z
loop_
_atom_site_type_symbol
_atom_site_label
_atom_site_fract_x
_atom_site_fract_y
_atom_site_fract_z
Si Si1 0.136601 0.794099 0.865127
Si Si2 0.205309 0.433452 0.409263
Si Si3 0.124666 0.925350 0.308450
Si Si4 0.233285 0.231705 0.921772
Si Si5 0.554221 0.290980 0.797359
Si Si6 0.028582 0.834002 0.182953
Si Si7 0.513316 0.082396 0.578345
Si Si8 0.307322 0.176026 0.268184
O O1 0.058258 0.983129 0.835029
O O2 0.328538 0.781970 0.639511
O O3 0.964645 0.692356 0.999454
O O4 0.157563 0.776761 0.995575
O O5 0.338164 0.554963 0.312398
O O6 0.148464 0.285471 0.610050
O O7 0.298291 0.348334 0.260400
O O8 0.000000 0.500000 0.500000
O O9 0.281028 0.843471 0.304192
O O10 0.137862 0.824812 0.221155
O O11 0.909895 0.886605 0.545569
O O12 0.168040 0.101547 0.136596
O O13 0.404447 0.325805 0.799403
O O14 0.327519 0.147117 0.768838
O O15 0.434408 0.204275 0.038140
O O16 0.599452 0.950836 0.659194
O O17 0.500000 0.000000 0.500000
#
# Coordination Sequence:
#
# PCOD9087959 Si02
#       8
#     2   2   2   2   2   2   2   2
#     4  10  20  39  59  90 123 152 206 268 308 348
#     4  11  21  41  63  90 125 167 208 254 304 368
#     4  10  19  37  57  88 123 159 200 257 303 353
#     4  11  24  37  59  93 130 164 199 255 319 366
#     4  12  24  39  58  90 133 168 202 244 312 389
#     4   9  17  35  65  83 113 160 200 257 311 337
#     4  12  22  36  67  97 119 157 214 263 307 363
#     4  11  23  38  63  94 118 164 209 256 312 355
#
# _framework density 24.347913999999999
#
# number of rings (size 3 to 8) (size 9 to 14) (size 15 to 20)
#    0.000    1.250    7.500    3.000    0.000    1.500 
#    0.000    0.625    0.000    0.750    0.000    0.000 
#    0.000    0.000    0.000    0.000    0.000    0.000 
#
# Total GULP energy -89421.914956 kJ/mol
# GULP energy per Si atom -5588.869685 kJ/mol
# Density = 2.429250 g / cm^3
# Si number density = 24.347914 Si / 1000 Ang^3
#
#
#
# Elastic Constant Matrix: (Units=GPa)
#
#
# Indices 1 2 3 4 5 6 
#
# 1 107.6499 11.4595 36.1521 -4.1094 -22.2505 22.4773
# 2 11.4595 35.4154 13.7824 0.4308 -11.2119 16.4178
# 3 36.1521 13.7824 124.9796 20.6518 -13.8323 11.5350
# 4 -4.1094 0.4308 20.6518 28.0575 5.8084 -10.1721
# 5 -22.2505 -11.2119 -13.8323 5.8084 40.5095 -7.4188
# 6 22.4773 16.4178 11.5350 -10.1721 -7.4188 24.1794
#
#
#
# Elastic Compliance Matrix: (Units=1/GPa)
#
#
# Indices 1 2 3 4 5 6 
#
# 1 0.013576 0.005098 -0.001941 -0.003220 0.005979 -0.014675
# 2 0.005098 0.050710 0.001698 -0.019983 0.012098 -0.044675
# 3 -0.001941 0.001698 0.011821 -0.013174 0.003603 -0.009424
# 4 -0.003220 -0.019983 -0.013174 0.064500 -0.012600 0.046115
# 5 0.005979 0.012098 0.003603 -0.012600 0.032366 -0.010862
# 6 -0.014675 -0.044675 -0.009424 0.046115 -0.010862 0.105898
#
#
# Mechanical properties :
#
#
# Convention : Reuss Voigt Hill
#
# Bulk Modulus (GPa) = 11.65291 43.42588 27.53940
# Shear Modulus (GPa) = 16.79166 32.32602 24.55884
#
# Velocity S-wave (km/s) = 2.62898 3.64767 3.17939
# Velocity P-wave (km/s) = 3.74323 5.96783 4.98130
#
# Compressibility (1/GPa) = 0.08581544
#
# Stress axis : x y z
#
# Youngs Moduli (GPa) = 73.66141 19.72000 84.59496
#
# Poissons Ratio (x) = -0.10053 0.16419
# Poissons Ratio (y) = -0.37551 -0.14361
# Poissons Ratio (z) = 0.14297 -0.03348
#
# Static dielectric constant tensor:
#      x y z
#    x 2.042220 0.039820 -0.033880 
#    y 0.039820 1.968730 -0.024690 
#    z -0.033880 -0.024690 1.955790 
# 
# From -- ./inp_files/425420.got.cif
#   From: 2010.05.17/outbox.cif.g08.bks.cpg/sg2_213_cif.got.tgz:425420.got - 2010.06.03 11:33:40.
