data_PCOD9087713
_publ_section_title
;
Structure prediction by ZEFSAII (Michael W. Deem and Ramdas Pophale) SiO2 
 PCOD9087713
Probable space group: P -1
;
_chemical_formula_sum "Si O2"
_cell_formula_units_Z 16
_cell_length_a 11.114132
_cell_length_b 15.047171
_cell_length_c 15.044422
_cell_angle_alpha 146.816140
_cell_angle_beta 147.336313
_cell_angle_gamma 53.752569
_cell_volume 686.379593
_symmetry_space_group_name_H-M "P -1"
_symmetry_group_IT_number 2
_symmetry_cell_setting 'triclinic'
loop_
_space_group_symop_operation_xyz
x,y,z
-x,-y,-z
loop_
_atom_site_type_symbol
_atom_site_label
_atom_site_fract_x
_atom_site_fract_y
_atom_site_fract_z
Si Si1 0.101919 0.289542 0.060154
Si Si2 0.344344 0.473273 0.640400
Si Si3 0.372025 0.710479 0.585230
Si Si4 0.869081 0.115837 0.061688
Si Si5 0.763423 0.328988 0.732834
Si Si6 0.714774 0.470845 0.152831
Si Si7 0.294074 0.878860 0.208916
Si Si8 0.230052 0.764817 0.718248
O O1 0.195205 0.501925 0.310835
O O2 0.359907 0.271306 0.204081
O O3 0.894240 0.244924 0.815801
O O4 0.963005 0.148634 0.932393
O O5 0.550918 0.392379 0.690449
O O6 0.353407 0.567414 0.818827
O O7 0.354226 0.624943 0.704144
O O8 0.078326 0.313267 0.340791
O O9 0.338112 0.752622 0.496117
O O10 0.299243 0.821519 0.707525
O O11 0.763818 0.110859 0.090393
O O12 0.654377 0.068159 0.816760
O O13 0.000000 0.000000 0.000000
O O14 0.000000 0.500000 0.000000
O O15 0.949306 0.644040 0.439932
O O16 0.500000 0.500000 0.000000
O O17 0.739273 0.321351 0.982811
O O18 0.500000 0.000000 0.500000
#
# Coordination Sequence:
#
# PCOD9087713 Si02
#       8
#     2   2   2   2   2   2   2   2
#     4  10  20  38  59  96 128 163 211 261 317 376
#     4  11  20  39  63  85 124 162 203 270 308 363
#     4  10  19  36  66  90 123 166 211 270 310 365
#     4  11  24  40  60  90 122 167 213 251 323 385
#     4  10  21  33  59  98 125 155 207 265 317 369
#     4  11  22  36  59  92 123 160 209 262 315 373
#     4  12  24  40  60  93 133 165 200 261 328 387
#     4  11  20  40  64  89 121 158 211 269 310 366
#
# _framework density 23.310718000000001
#
# number of rings (size 3 to 8) (size 9 to 14) (size 15 to 20)
#    0.000    1.250    3.750    4.500    7.000    0.000 
#    0.000    0.000    0.000    5.250    0.000    0.000 
#    0.000    0.000    0.000    0.000    0.000    0.000 
#
# Total GULP energy -89091.907632 kJ/mol
# GULP energy per Si atom -5568.244227 kJ/mol
# Density = 2.325766 g / cm^3
# Si number density = 23.310718 Si / 1000 Ang^3
#
#
#
# Elastic Constant Matrix: (Units=GPa)
#
#
# Indices 1 2 3 4 5 6 
#
# 1 153.7415 28.1463 75.3854 -19.0045 -29.9324 -9.2750
# 2 28.1463 58.6211 38.6517 -27.8478 -18.2282 -4.1152
# 3 75.3854 38.6517 163.3834 -21.9133 -27.4319 -9.7925
# 4 -19.0045 -27.8478 -21.9133 42.5414 -0.9741 3.1496
# 5 -29.9324 -18.2282 -27.4319 -0.9741 41.3758 -2.9188
# 6 -9.2750 -4.1152 -9.7925 3.1496 -2.9188 25.5666
#
#
#
# Elastic Compliance Matrix: (Units=1/GPa)
#
#
# Indices 1 2 3 4 5 6 
#
# 1 0.009461 0.000845 -0.003076 0.003125 0.005436 0.002626
# 2 0.000845 0.032830 -0.002866 0.020447 0.013908 0.003562
# 3 -0.003076 -0.002866 0.008946 0.001271 0.002614 0.001991
# 4 0.003125 0.020447 0.001271 0.039125 0.013145 0.001593
# 5 0.005436 0.013908 0.002614 0.013145 0.036821 0.007796
# 6 0.002626 0.003562 0.001991 0.001593 0.007796 0.042096
#
#
# Mechanical properties :
#
#
# Convention : Reuss Voigt Hill
#
# Bulk Modulus (GPa) = 24.36379 73.34587 48.85483
# Shear Modulus (GPa) = 25.88592 37.46759 31.67675
#
# Velocity S-wave (km/s) = 3.33599 4.01348 3.69031
# Velocity P-wave (km/s) = 5.03119 7.28080 6.25791
#
# Compressibility (1/GPa) = 0.04104451
#
# Stress axis : x y z
#
# Youngs Moduli (GPa) = 105.69569 30.45955 111.77597
#
# Poissons Ratio (x) = -0.02573 0.34382
# Poissons Ratio (y) = -0.08929 0.32030
# Poissons Ratio (z) = 0.32512 0.08728
#
# Static dielectric constant tensor:
#      x y z
#    x 1.920760 0.144320 -0.035360 
#    y 0.144320 2.113670 -0.057890 
#    z -0.035360 -0.057890 1.858940 
# 
# From -- ./inp_files/331686.got.cif
#   From: 2010.05.17/outbox.cif.g08.bks.cpg/sg2_166_cif.got.tgz:331686.got - 2010.06.03 11:33:40.
