data_PCOD9087621
_publ_section_title
;
Structure prediction by ZEFSAII (Michael W. Deem and Ramdas Pophale) SiO2 
 PCOD9087621
Probable space group: P -1
;
_chemical_formula_sum "Si O2"
_cell_formula_units_Z 16
_cell_length_a 18.794511
_cell_length_b 8.333956
_cell_length_c 11.317475
_cell_angle_alpha 106.776452
_cell_angle_beta 32.133759
_cell_angle_gamma 85.470329
_cell_volume 697.365133
_symmetry_space_group_name_H-M "P -1"
_symmetry_group_IT_number 2
_symmetry_cell_setting 'triclinic'
loop_
_space_group_symop_operation_xyz
x,y,z
-x,-y,-z
loop_
_atom_site_type_symbol
_atom_site_label
_atom_site_fract_x
_atom_site_fract_y
_atom_site_fract_z
Si Si1 0.760878 0.626368 0.540184
Si Si2 0.520930 0.030047 0.133556
Si Si3 0.439933 0.925067 0.463727
Si Si4 0.889693 0.922311 0.175351
Si Si5 0.701834 0.329091 0.667130
Si Si6 0.362897 0.524666 0.785790
Si Si7 0.218450 0.877254 0.255507
Si Si8 0.036996 0.666256 0.150909
O O1 0.678502 0.763247 0.565481
O O2 0.768628 0.425350 0.512122
O O3 0.944853 0.564409 0.285294
O O4 0.617064 0.816338 0.872188
O O5 0.528016 0.946093 0.233591
O O6 0.620957 0.121951 0.981450
O O7 0.234460 0.057870 0.748383
O O8 0.528218 0.676337 0.318928
O O9 0.500000 0.000000 0.500000
O O10 0.743318 0.117490 0.508352
O O11 0.005925 0.730621 0.068676
O O12 0.000000 0.000000 0.000000
O O13 0.776136 0.267896 0.681218
O O14 0.500000 0.500000 0.000000
O O15 0.500000 0.500000 0.500000
O O16 0.243930 0.754735 0.072188
O O17 0.233159 0.520256 0.885960
O O18 0.068664 0.118498 0.569271
#
# Coordination Sequence:
#
# PCOD9087621 Si02
#       8
#     2   2   2   2   2   2   2   2
#     4  10  19  36  65 101 127 161 220 272 331 378
#     4  10  19  37  65  95 131 167 211 275 326 393
#     4  12  26  44  64  94 137 182 221 269 342 407
#     4  11  24  44  66  95 131 174 224 281 331 391
#     4  11  20  36  67 102 129 164 224 278 322 394
#     4  12  25  44  67  96 137 180 223 269 338 406
#     4  10  21  39  68 100 133 172 221 273 336 392
#     4  10  23  43  66  98 134 172 221 281 331 393
#
# _framework density 22.943504999999998
#
# number of rings (size 3 to 8) (size 9 to 14) (size 15 to 20)
#    0.000    1.250    2.500    4.125    0.000    1.000 
#    2.250    9.375    0.000    0.000    0.000    0.000 
#    0.000    0.000    0.000    0.000    0.000    0.000 
#
# Total GULP energy -89263.410391 kJ/mol
# GULP energy per Si atom -5578.963149 kJ/mol
# Density = 2.289128 g / cm^3
# Si number density = 22.943505 Si / 1000 Ang^3
#
#
#
# Elastic Constant Matrix: (Units=GPa)
#
#
# Indices 1 2 3 4 5 6 
#
# 1 119.9537 33.8752 40.1017 -3.5246 -15.2308 -1.9547
# 2 33.8752 118.1990 30.8823 -9.7221 -4.0856 -13.5589
# 3 40.1017 30.8823 79.3526 -6.6451 -19.0393 -7.6830
# 4 -3.5246 -9.7221 -6.6451 35.5842 1.4873 5.0770
# 5 -15.2308 -4.0856 -19.0393 1.4873 44.6594 -3.1683
# 6 -1.9547 -13.5589 -7.6830 5.0770 -3.1683 33.9013
#
#
#
# Elastic Compliance Matrix: (Units=1/GPa)
#
#
# Indices 1 2 3 4 5 6 
#
# 1 0.010495 -0.001965 -0.004290 -0.000222 0.001508 -0.000979
# 2 -0.001965 0.010193 -0.002717 0.001682 -0.000737 0.003027
# 3 -0.004290 -0.002717 0.017678 0.001454 0.005990 0.003015
# 4 -0.000222 0.001682 0.001454 0.029326 -0.000524 -0.003451
# 5 0.001508 -0.000737 0.005990 -0.000524 0.025667 0.003627
# 6 -0.000979 0.003027 0.003015 -0.003451 0.003627 0.032191
#
#
# Mechanical properties :
#
#
# Convention : Reuss Voigt Hill
#
# Bulk Modulus (GPa) = 48.96723 58.58040 53.77382
# Shear Modulus (GPa) = 33.26624 37.00540 35.13582
#
# Velocity S-wave (km/s) = 3.81191 4.02044 3.91756
# Velocity P-wave (km/s) = 6.38460 6.86584 6.62959
#
# Compressibility (1/GPa) = 0.02042182
#
# Stress axis : x y z
#
# Youngs Moduli (GPa) = 95.28459 98.10185 56.56622
#
# Poissons Ratio (x) = 0.19279 0.24269
# Poissons Ratio (y) = 0.18726 0.15368
# Poissons Ratio (z) = 0.40880 0.26653
#
# Static dielectric constant tensor:
#      x y z
#    x 1.951050 0.000410 -0.006430 
#    y 0.000410 1.833640 0.074300 
#    z -0.006430 0.074300 1.867720 
# 
# From -- ./inp_files/469431.got.cif
#   From: 2010.05.17/outbox.cif.g08.bks.cpg/sg2_235_cif.got.tgz:469431.got - 2010.06.03 11:33:40.
