data_PCOD9087077
_publ_section_title
;
Structure prediction by ZEFSAII (Michael W. Deem and Ramdas Pophale) SiO2 
 PCOD9087077
Probable space group: P -1
;
_chemical_formula_sum "Si O2"
_cell_formula_units_Z 16
_cell_length_a 18.136074
_cell_length_b 10.128638
_cell_length_c 5.548323
_cell_angle_alpha 81.434189
_cell_angle_beta 101.747876
_cell_angle_gamma 140.617326
_cell_volume 633.070041
_symmetry_space_group_name_H-M "P -1"
_symmetry_group_IT_number 2
_symmetry_cell_setting 'triclinic'
loop_
_space_group_symop_operation_xyz
x,y,z
-x,-y,-z
loop_
_atom_site_type_symbol
_atom_site_label
_atom_site_fract_x
_atom_site_fract_y
_atom_site_fract_z
Si Si1 0.744128 0.333435 0.017812
Si Si2 0.553298 0.836947 0.081544
Si Si3 0.811718 0.709259 0.089041
Si Si4 0.475904 0.126276 0.456495
Si Si5 0.240828 0.092712 0.773609
Si Si6 0.949344 0.051753 0.695059
Si Si7 0.794700 0.287897 0.554922
Si Si8 0.935983 0.288961 0.895369
O O1 0.629955 0.080835 0.030482
O O2 0.736542 0.477201 0.043427
O O3 0.815240 0.378944 0.286061
O O4 0.797945 0.384630 0.772094
O O5 0.476068 0.752007 0.293183
O O6 0.637867 0.824769 0.196862
O O7 0.494262 0.755223 0.800060
O O8 0.920486 0.825991 0.317882
O O9 0.741012 0.741875 0.123359
O O10 0.877968 0.844909 0.853262
O O11 0.336070 0.947876 0.448884
O O12 0.500000 0.000000 0.500000
O O13 0.145575 0.007789 0.528701
O O14 0.169998 0.894577 0.950125
O O15 0.985730 0.215059 0.872291
O O16 0.882299 0.285752 0.628390
O O17 0.000000 0.500000 0.000000
#
# Coordination Sequence:
#
# PCOD9087077 Si02
#       8
#     2   2   2   2   2   2   2   2
#     4  10  20  36  57  78 114 147 186 240 283 336
#     4  10  21  37  60  90 118 143 193 238 287 360
#     4  10  23  36  52  77 109 160 202 242 287 333
#     4  10  19  36  61  92 121 145 179 242 304 347
#     4  11  22  37  54  79 117 153 198 246 281 347
#     4  10  22  36  51  73 113 152 212 244 280 336
#     4  10  21  36  56  89 115 143 197 238 283 352
#     4  11  22  34  55  81 113 159 193 244 291 335
#
# _framework density 25.273667
#
# number of rings (size 3 to 8) (size 9 to 14) (size 15 to 20)
#    0.000    1.750    2.500    3.000    5.250    0.500 
#    0.000    0.000    0.000    0.000    0.000   21.000 
#    0.000    0.000    0.000    0.000    0.000    0.000 
#
# Total GULP energy -89271.258778 kJ/mol
# GULP energy per Si atom -5579.453674 kJ/mol
# Density = 2.521614 g / cm^3
# Si number density = 25.273667 Si / 1000 Ang^3
#
#
#
# Elastic Constant Matrix: (Units=GPa)
#
#
# Indices 1 2 3 4 5 6 
#
# 1 118.6049 22.8642 37.3100 11.8645 16.6460 -31.8354
# 2 22.8642 79.0784 8.7161 -4.3402 11.5438 -32.8379
# 3 37.3100 8.7161 170.4865 9.1343 13.1780 -14.6448
# 4 11.8645 -4.3402 9.1343 16.4015 -5.2200 -6.5167
# 5 16.6460 11.5438 13.1780 -5.2200 45.1565 4.7825
# 6 -31.8354 -32.8379 -14.6448 -6.5167 4.7825 43.4483
#
#
#
# Elastic Compliance Matrix: (Units=1/GPa)
#
#
# Indices 1 2 3 4 5 6 
#
# 1 0.012655 0.000854 -0.001182 -0.006605 -0.006279 0.009220
# 2 0.000854 0.022253 0.000350 0.010782 -0.006972 0.019947
# 3 -0.001182 0.000350 0.006533 -0.002778 -0.002030 0.001407
# 4 -0.006605 0.010782 -0.002778 0.077962 0.008106 0.013174
# 5 -0.006279 -0.006972 -0.002030 0.008106 0.029100 -0.012541
# 6 0.009220 0.019947 0.001407 0.013174 -0.012541 0.048678
#
#
# Mechanical properties :
#
#
# Convention : Reuss Voigt Hill
#
# Bulk Modulus (GPa) = 24.10495 56.21672 40.16084
# Shear Modulus (GPa) = 23.70056 40.95324 32.32690
#
# Velocity S-wave (km/s) = 3.06560 4.02978 3.58029
# Velocity P-wave (km/s) = 4.69988 6.62900 5.74598
#
# Compressibility (1/GPa) = 0.04148525
#
# Stress axis : x y z
#
# Youngs Moduli (GPa) = 79.01814 44.93827 153.06882
#
# Poissons Ratio (x) = -0.03838 0.18093
# Poissons Ratio (y) = -0.06748 -0.05359
# Poissons Ratio (z) = 0.09340 -0.01573
#
# Static dielectric constant tensor:
#      x y z
#    x 2.084300 0.082790 0.079690 
#    y 0.082790 0.950700 -0.898560 
#    z 0.079690 -0.898560 1.151880 
# 
# From -- ./inp_files/39210.got.cif
#   From: 2010.05.17/outbox.cif.g08.bks.cpg/sg2_20_cif.got.tgz:39210.got - 2010.06.03 11:33:40.
