data_PCOD9087059
_publ_section_title
;
Structure prediction by ZEFSAII (Michael W. Deem and Ramdas Pophale) SiO2 
 PCOD9087059
Probable space group: P -1
;
_chemical_formula_sum "Si O2"
_cell_formula_units_Z 16
_cell_length_a 15.662725
_cell_length_b 12.317938
_cell_length_c 11.250537
_cell_angle_alpha 51.805819
_cell_angle_beta 60.355138
_cell_angle_gamma 27.713572
_cell_volume 785.024139
_symmetry_space_group_name_H-M "P -1"
_symmetry_group_IT_number 2
_symmetry_cell_setting 'triclinic'
loop_
_space_group_symop_operation_xyz
x,y,z
-x,-y,-z
loop_
_atom_site_type_symbol
_atom_site_label
_atom_site_fract_x
_atom_site_fract_y
_atom_site_fract_z
Si Si1 0.870459 0.047132 0.786371
Si Si2 0.333364 0.044231 0.459576
Si Si3 0.447788 0.960257 0.696354
Si Si4 0.429609 0.449687 0.513462
Si Si5 0.346251 0.794408 0.941081
Si Si6 0.071799 0.582280 0.511526
Si Si7 0.921758 0.249113 0.370171
Si Si8 0.031915 0.065936 0.820964
O O1 0.708775 0.329098 0.643525
O O2 0.030009 0.959118 0.786878
O O3 0.770688 0.098037 0.933094
O O4 0.969537 0.831863 0.767099
O O5 0.389817 0.129407 0.318196
O O6 0.411299 0.832105 0.464286
O O7 0.451149 0.902114 0.597343
O O8 0.115443 0.283032 0.468605
O O9 0.253394 0.275371 0.618334
O O10 0.435923 0.836747 0.863926
O O11 0.500000 0.500000 0.500000
O O12 0.299521 0.508760 0.646060
O O13 0.207150 0.945665 0.822735
O O14 0.500000 0.500000 0.000000
O O15 0.098806 0.657314 0.331742
O O16 0.038592 0.709554 0.568534
O O17 0.000000 0.000000 0.500000
O O18 0.000000 0.000000 0.000000
#
# Coordination Sequence:
#
# PCOD9087059 Si02
#       8
#     2   2   2   2   2   2   2   2
#     4  10  21  38  59  96 126 167 219 265 333 392
#     4  11  22  36  62  95 126 166 220 268 328 385
#     4  11  24  41  63  94 132 172 219 277 333 402
#     4  11  21  36  65  94 129 167 219 280 325 378
#     4  11  24  42  63  93 134 170 215 278 342 395
#     4  12  21  41  65  94 136 169 224 269 332 394
#     4  10  19  36  61  90 127 166 218 273 310 389
#     4  10  21  37  63  93 132 167 212 264 335 384
#
# _framework density 20.381539
#
# number of rings (size 3 to 8) (size 9 to 14) (size 15 to 20)
#    0.000    1.250    5.000    2.625    0.000    3.000 
#    2.250    0.625    0.000    1.500    0.000    0.000 
#    0.000    0.000    0.000    0.000    0.000    0.000 
#
# Total GULP energy -89172.796835 kJ/mol
# GULP energy per Si atom -5573.299802 kJ/mol
# Density = 2.033515 g / cm^3
# Si number density = 20.381539 Si / 1000 Ang^3
#
#
#
# Elastic Constant Matrix: (Units=GPa)
#
#
# Indices 1 2 3 4 5 6 
#
# 1 128.8959 34.5875 30.9360 9.7678 -10.5420 -0.2783
# 2 34.5875 111.6424 32.0556 8.5232 -6.5337 12.0786
# 3 30.9360 32.0556 75.4141 8.6725 -14.0317 5.3776
# 4 9.7678 8.5232 8.6725 24.1558 -1.6568 -1.8812
# 5 -10.5420 -6.5337 -14.0317 -1.6568 34.8437 5.3938
# 6 -0.2783 12.0786 5.3776 -1.8812 5.3938 35.8867
#
#
#
# Elastic Compliance Matrix: (Units=1/GPa)
#
#
# Indices 1 2 3 4 5 6 
#
# 1 0.009140 -0.001981 -0.002530 -0.001944 0.001153 0.000841
# 2 -0.001981 0.011091 -0.003299 -0.002157 0.000584 -0.003455
# 3 -0.002530 -0.003299 0.017419 -0.003868 0.005849 -0.002602
# 4 -0.001944 -0.002157 -0.003868 0.044559 -0.001017 0.003779
# 5 0.001153 0.000584 0.005849 -0.001017 0.032392 -0.005986
# 6 0.000841 -0.003455 -0.002602 0.003779 -0.005986 0.030522
#
#
# Mechanical properties :
#
#
# Convention : Reuss Voigt Hill
#
# Bulk Modulus (GPa) = 45.38843 56.79005 51.08924
# Shear Modulus (GPa) = 29.74714 33.53548 31.64131
#
# Velocity S-wave (km/s) = 3.82450 4.06073 3.94439
# Velocity P-wave (km/s) = 6.46685 7.06470 6.77238
#
# Compressibility (1/GPa) = 0.02203205
#
# Stress axis : x y z
#
# Youngs Moduli (GPa) = 109.40699 90.16723 57.40992
#
# Poissons Ratio (x) = 0.17858 0.14522
# Poissons Ratio (y) = 0.21668 0.18937
# Poissons Ratio (z) = 0.27675 0.29742
#
# Static dielectric constant tensor:
#      x y z
#    x 1.766930 -0.041140 -0.065220 
#    y -0.041140 1.795670 0.107380 
#    z -0.065220 0.107380 1.921810 
# 
# From -- ./inp_files/432676.got.cif
#   From: 2010.05.17/outbox.cif.g08.bks.cpg/sg2_217_cif.got.tgz:432676.got - 2010.06.03 11:33:40.
