data_PCOD9087530
_publ_section_title
;
Structure prediction by ZEFSAII (Michael W. Deem and Ramdas Pophale) SiO2 
 PCOD9087530
Probable space group: P -1
;
_chemical_formula_sum "Si O2"
_cell_formula_units_Z 16
_cell_length_a 12.013418
_cell_length_b 14.206527
_cell_length_c 12.065853
_cell_angle_alpha 49.634626
_cell_angle_beta 143.348274
_cell_angle_gamma 141.107782
_cell_volume 770.328146
_symmetry_space_group_name_H-M "P -1"
_symmetry_group_IT_number 2
_symmetry_cell_setting 'triclinic'
loop_
_space_group_symop_operation_xyz
x,y,z
-x,-y,-z
loop_
_atom_site_type_symbol
_atom_site_label
_atom_site_fract_x
_atom_site_fract_y
_atom_site_fract_z
Si Si1 0.075655 0.748793 0.628922
Si Si2 0.464354 0.498109 0.127020
Si Si3 0.856624 0.702673 0.147295
Si Si4 0.491618 0.763732 0.036006
Si Si5 0.609607 0.737866 0.615077
Si Si6 0.011624 0.938474 0.255901
Si Si7 0.903254 0.445083 0.589049
Si Si8 0.620557 0.674175 0.431235
O O1 0.099545 0.860704 0.466030
O O2 0.983231 0.585381 0.626552
O O3 0.875865 0.731242 0.557774
O O4 0.309109 0.802695 0.838652
O O5 0.732907 0.604237 0.235584
O O6 0.413033 0.623038 0.998097
O O7 0.380127 0.404590 0.243034
O O8 0.360916 0.368440 0.050858
O O9 0.991541 0.870359 0.169846
O O10 0.995862 0.652861 0.231255
O O11 0.507796 0.707734 0.213749
O O12 0.756476 0.886684 0.123401
O O13 0.365306 0.674257 0.521082
O O14 0.617521 0.757228 0.475267
O O15 0.810992 0.886038 0.721247
O O16 0.000000 0.500000 0.500000
O O17 0.500000 0.500000 0.500000
#
# Coordination Sequence:
#
# PCOD9087530 Si02
#       8
#     2   2   2   2   2   2   2   2
#     4  11  22  42  68  93 124 167 212 257 310 371
#     4  10  19  36  64  89 122 159 209 260 302 366
#     4  10  20  37  60  92 121 164 208 248 312 374
#     4  10  21  41  67  93 121 165 214 258 307 370
#     4  12  24  42  61  92 131 166 203 262 318 368
#     4  10  24  42  61  92 135 168 199 252 324 378
#     4  12  20  37  66  91 120 162 213 256 307 371
#     4  11  22  42  66  95 126 160 212 267 309 356
#
# _framework density 20.770368999999999
#
# number of rings (size 3 to 8) (size 9 to 14) (size 15 to 20)
#    0.000    1.250    6.250    0.750    0.000    3.500 
#    4.500    1.250    0.000    0.000    0.000    0.000 
#    0.000    0.000    0.000    0.000    0.000    0.000 
#
# Total GULP energy -89088.185576 kJ/mol
# GULP energy per Si atom -5568.011599 kJ/mol
# Density = 2.072309 g / cm^3
# Si number density = 20.770369 Si / 1000 Ang^3
#
#
#
# Elastic Constant Matrix: (Units=GPa)
#
#
# Indices 1 2 3 4 5 6 
#
# 1 86.4629 21.4420 34.8411 11.7937 -0.4441 0.8560
# 2 21.4420 84.7440 27.7200 22.0208 6.1459 5.8566
# 3 34.8411 27.7200 118.6740 10.7970 20.8839 6.1694
# 4 11.7937 22.0208 10.7970 29.4680 -6.5986 -3.5944
# 5 -0.4441 6.1459 20.8839 -6.5986 36.3238 5.3868
# 6 0.8560 5.8566 6.1694 -3.5944 5.3868 15.4621
#
#
#
# Elastic Compliance Matrix: (Units=1/GPa)
#
#
# Indices 1 2 3 4 5 6 
#
# 1 0.013891 -0.001848 -0.003849 -0.002242 0.002265 0.000157
# 2 -0.001848 0.016844 -0.001197 -0.013110 -0.003431 -0.007652
# 3 -0.003849 -0.001197 0.011470 -0.003566 -0.006732 -0.002394
# 4 -0.002242 -0.013110 -0.003566 0.050194 0.011244 0.014264
# 5 0.002265 -0.003431 -0.006732 0.011244 0.034894 -0.005683
# 6 0.000157 -0.007652 -0.002394 0.014264 -0.005683 0.073815
#
#
# Mechanical properties :
#
#
# Convention : Reuss Voigt Hill
#
# Bulk Modulus (GPa) = 35.19298 50.87636 43.03467
# Shear Modulus (GPa) = 22.28470 29.97596 26.13033
#
# Velocity S-wave (km/s) = 3.27908 3.80308 3.55076
# Velocity P-wave (km/s) = 5.59617 6.62060 6.12983
#
# Compressibility (1/GPa) = 0.02841476
#
# Stress axis : x y z
#
# Youngs Moduli (GPa) = 71.98926 59.36832 87.18521
#
# Poissons Ratio (x) = 0.10973 0.33561
# Poissons Ratio (y) = 0.13305 0.10440
# Poissons Ratio (z) = 0.27711 0.07109
#
# Static dielectric constant tensor:
#      x y z
#    x 1.784510 0.011430 -0.039100 
#    y 0.011430 1.754790 -0.074140 
#    z -0.039100 -0.074140 1.967610 
# 
# From -- ./inp_files/433860.got.cif
#   From: 2010.05.17/outbox.cif.g08.bks.cpg/sg2_217_cif.got.tgz:433860.got - 2010.06.03 11:33:40.
