data_PCOD9087002
_publ_section_title
;
Structure prediction by ZEFSAII (Michael W. Deem and Ramdas Pophale) SiO2 
 PCOD9087002
Probable space group: P -1
;
_chemical_formula_sum "Si O2"
_cell_formula_units_Z 16
_cell_length_a 28.425397
_cell_length_b 19.910234
_cell_length_c 27.636718
_cell_angle_alpha 159.599839
_cell_angle_beta 169.798619
_cell_angle_gamma 19.361970
_cell_volume 908.152230
_symmetry_space_group_name_H-M "P -1"
_symmetry_group_IT_number 2
_symmetry_cell_setting 'triclinic'
loop_
_space_group_symop_operation_xyz
x,y,z
-x,-y,-z
loop_
_atom_site_type_symbol
_atom_site_label
_atom_site_fract_x
_atom_site_fract_y
_atom_site_fract_z
Si Si1 0.841117 0.027048 0.452700
Si Si2 0.539088 0.440053 0.372895
Si Si3 0.575997 0.129742 0.121094
Si Si4 0.901776 0.059810 0.240429
Si Si5 0.562614 0.114055 0.799005
Si Si6 0.309229 0.285654 0.763701
Si Si7 0.903710 0.728558 0.939116
Si Si8 0.028080 0.664033 0.679052
O O1 0.630004 0.251545 0.375581
O O2 0.114455 0.974154 0.658493
O O3 0.954316 0.014877 0.613156
O O4 0.667631 0.870797 0.163651
O O5 0.570138 0.336573 0.281336
O O6 0.223525 0.592262 0.161457
O O7 0.736686 0.572894 0.671423
O O8 0.500000 0.000000 0.000000
O O9 0.088438 0.174352 0.479088
O O10 0.892730 0.870500 0.070562
O O11 0.580687 0.215378 0.025814
O O12 0.449809 0.201512 0.797148
O O13 0.280437 0.163306 0.514640
O O14 0.749823 0.237617 0.049785
O O15 0.756881 0.882486 0.850559
O O16 0.145946 0.526373 0.752650
O O17 0.000000 0.500000 0.500000
#
# Coordination Sequence:
#
# PCOD9087002 Si02
#       8
#     2   2   2   2   2   2   2   2
#     4  11  22  37  56  76 101 136 176 217 257 298
#     4  11  21  35  55  74 100 137 175 215 254 298
#     4  10  20  38  58  76  94 124 178 234 268 282
#     4  11  22  34  49  75 113 143 166 203 252 312
#     4  10  18  29  45  69 102 137 170 205 245 297
#     4  10  18  31  47  70 103 140 173 205 248 298
#     4  11  21  33  49  76 112 141 165 201 253 312
#     4  10  16  27  47  68  94 136 178 204 241 296
#
# _framework density 17.618192000000001
#
# number of rings (size 3 to 8) (size 9 to 14) (size 15 to 20)
#    0.000    1.500    0.000   12.000    0.000    1.000 
#    0.000    0.000    0.000    0.000    0.000    0.000 
#    0.000   70.000    0.000    0.000    0.000    0.000 
#
# Total GULP energy -89223.887717 kJ/mol
# GULP energy per Si atom -5576.492982 kJ/mol
# Density = 1.757809 g / cm^3
# Si number density = 17.618192 Si / 1000 Ang^3
#
#
#
# Elastic Constant Matrix: (Units=GPa)
#
#
# Indices 1 2 3 4 5 6 
#
# 1 47.2080 59.3727 38.4372 1.4564 -4.0467 3.1816
# 2 59.3727 100.9060 42.9805 -28.7076 -17.6423 23.7421
# 3 38.4372 42.9805 128.8921 -13.1607 -0.1193 10.7102
# 4 1.4564 -28.7076 -13.1607 42.4131 1.3457 2.5507
# 5 -4.0467 -17.6423 -0.1193 1.3457 24.8217 -1.4973
# 6 3.1816 23.7421 10.7102 2.5507 -1.4973 14.9993
#
#
#
# Elastic Compliance Matrix: (Units=1/GPa)
#
#
# Indices 1 2 3 4 5 6 
#
# 1 -0.020455 0.035385 0.001840 0.028059 0.016921 -0.056068
# 2 0.035385 -0.025235 -0.007908 -0.022955 -0.008479 0.041142
# 3 0.001840 -0.007908 0.009090 -0.002782 -0.004786 0.005631
# 4 0.028059 -0.022955 -0.002782 0.004699 -0.010166 0.030555
# 5 0.016921 -0.008479 -0.004786 -0.010166 0.038684 0.018840
# 6 -0.056068 0.041142 0.005631 0.030555 0.018840 0.006104
#
#
# Mechanical properties :
#
#
# Convention : Reuss Voigt Hill
#
# Bulk Modulus (GPa) = 45.38279 62.06522 53.72401
# Shear Modulus (GPa) = -130.19621 25.52786 -52.33418
#
# Velocity S-wave (km/s) = -8.60576 3.81064 -5.45611
# Velocity P-wave (km/s) = 8.53994 7.39362 3.02200
#
# Compressibility (1/GPa) = 0.02203478
#
# Stress axis : x y z
#
# Youngs Moduli (GPa) = -48.88818 -39.62676 110.00741
#
# Poissons Ratio (x) = 1.40220 -0.20240
# Poissons Ratio (y) = 1.72991 0.86989
# Poissons Ratio (z) = 0.08995 -0.31335
#
# Static dielectric constant tensor:
#      x y z
#    x 1.611710 0.029230 -0.019600 
#    y 0.029230 1.637900 -0.030280 
#    z -0.019600 -0.030280 1.613650 
# 
# From -- ./inp_files/439271.got.cif
#   From: 2010.05.17/outbox.cif.g08.bks.cpg/sg2_220_cif.got.tgz:439271.got - 2010.06.03 11:33:40.
