data_PCOD9087669
_publ_section_title
;
Structure prediction by ZEFSAII (Michael W. Deem and Ramdas Pophale) SiO2 
 PCOD9087669
Probable space group: P -1
;
_chemical_formula_sum "Si O2"
_cell_formula_units_Z 14
_cell_length_a 6.388261
_cell_length_b 16.614416
_cell_length_c 7.868035
_cell_angle_alpha 120.580684
_cell_angle_beta 56.933419
_cell_angle_gamma 117.025878
_cell_volume 584.126904
_symmetry_space_group_name_H-M "P -1"
_symmetry_group_IT_number 2
_symmetry_cell_setting 'triclinic'
loop_
_space_group_symop_operation_xyz
x,y,z
-x,-y,-z
loop_
_atom_site_type_symbol
_atom_site_label
_atom_site_fract_x
_atom_site_fract_y
_atom_site_fract_z
Si Si1 0.594511 0.128977 0.471490
Si Si2 0.295944 0.546567 0.367172
Si Si3 0.240263 0.970163 0.275209
Si Si4 0.380171 0.257837 0.431402
Si Si5 0.801011 0.230828 0.806613
Si Si6 0.276501 0.569691 0.996959
Si Si7 0.857815 0.908615 0.850462
O O1 0.495284 0.193823 0.447301
O O2 0.579428 0.175616 0.712035
O O3 0.891052 0.130146 0.337199
O O4 0.457396 0.019737 0.365036
O O5 0.431142 0.636595 0.523292
O O6 0.295945 0.581113 0.206791
O O7 0.000000 0.500000 0.500000
O O8 0.482475 0.472806 0.209801
O O9 0.186877 0.855847 0.162892
O O10 0.269740 0.029002 0.154032
O O11 0.000000 0.000000 0.500000
O O12 0.343568 0.196892 0.205005
O O13 0.095422 0.261294 0.631858
O O14 0.733305 0.330679 0.980140
O O15 0.000000 0.500000 0.000000
O O16 0.000000 0.000000 0.000000
#
# Coordination Sequence:
#
# PCOD9087669 Si02
#       7
#     2   2   2   2   2   2   2
#     4  10  19  36  65  91 131 176 224 283 348 406
#     4  11  25  47  76 105 142 186 245 300 363 434
#     4  11  20  34  63  99 126 178 236 279 335 433
#     4  10  20  39  70  94 135 186 233 285 361 423
#     4  11  20  37  67  97 134 178 237 284 351 420
#     4  11  24  45  75 104 142 186 239 307 361 420
#     4  10  23  40  62  94 141 184 224 286 357 418
#
# _framework density 23.967395
#
# number of rings (size 3 to 8) (size 9 to 14) (size 15 to 20)
#    0.000    1.429    7.143    0.429    0.000    2.857 
#    0.000    4.286    0.000    0.000    0.000    0.000 
#    0.000    0.000    0.000    0.000    0.000    0.000 
#
# Total GULP energy -77954.316102 kJ/mol
# GULP energy per Si atom -5568.165436 kJ/mol
# Density = 2.391284 g / cm^3
# Si number density = 23.967395 Si / 1000 Ang^3
#
#
#
# Elastic Constant Matrix: (Units=GPa)
#
#
# Indices 1 2 3 4 5 6 
#
# 1 135.6112 60.4549 53.8081 14.1067 -14.4132 19.2974
# 2 60.4549 175.2423 65.7627 50.2204 -13.4355 22.5033
# 3 53.8081 65.7627 108.9921 34.6722 -8.1201 9.6599
# 4 14.1067 50.2204 34.6722 40.8887 9.0923 -0.1316
# 5 -14.4132 -13.4355 -8.1201 9.0923 57.0340 12.4309
# 6 19.2974 22.5033 9.6599 -0.1316 12.4309 49.1206
#
#
#
# Elastic Compliance Matrix: (Units=1/GPa)
#
#
# Indices 1 2 3 4 5 6 
#
# 1 0.010310 -0.002161 -0.004114 0.002188 0.001748 -0.002688
# 2 -0.002161 0.012295 -0.000461 -0.015341 0.006098 -0.006277
# 3 -0.004114 -0.000461 0.015838 -0.012239 0.003541 -0.002216
# 4 0.002188 -0.015341 -0.012239 0.056668 -0.016658 0.012943
# 5 0.001748 0.006098 0.003541 -0.016658 0.024863 -0.010513
# 6 -0.002688 -0.006277 -0.002216 0.012943 -0.010513 0.027421
#
#
# Mechanical properties :
#
#
# Convention : Reuss Voigt Hill
#
# Bulk Modulus (GPa) = 40.04522 86.65522 63.35022
# Shear Modulus (GPa) = 29.55277 45.39666 37.47472
#
# Velocity S-wave (km/s) = 3.51528 4.35685 3.95849
# Velocity P-wave (km/s) = 5.76374 7.84496 6.88346
#
# Compressibility (1/GPa) = 0.02497177
#
# Stress axis : x y z
#
# Youngs Moduli (GPa) = 96.99035 81.33626 63.14104
#
# Poissons Ratio (x) = 0.17576 0.25975
# Poissons Ratio (y) = 0.20959 0.02908
# Poissons Ratio (z) = 0.39900 0.03746
#
# Static dielectric constant tensor:
#      x y z
#    x 1.857800 0.054640 -0.033100 
#    y 0.054640 1.936570 -0.009480 
#    z -0.033100 -0.009480 1.964220 
# 
# From -- ./inp_files/139488.got.cif
#   From: 2010.05.17/outbox.cif.g08.bks.cpg/sg2_70_cif.got.tgz:139488.got - 2010.06.03 11:33:40.
