data_PCOD9087401
_publ_section_title
;
Structure prediction by ZEFSAII (Michael W. Deem and Ramdas Pophale) SiO2 
 PCOD9087401
Probable space group: P -1
;
_chemical_formula_sum "Si O2"
_cell_formula_units_Z 14
_cell_length_a 17.658716
_cell_length_b 8.866478
_cell_length_c 13.242239
_cell_angle_alpha 33.042176
_cell_angle_beta 36.531559
_cell_angle_gamma 58.388421
_cell_volume 597.404288
_symmetry_space_group_name_H-M "P -1"
_symmetry_group_IT_number 2
_symmetry_cell_setting 'triclinic'
loop_
_space_group_symop_operation_xyz
x,y,z
-x,-y,-z
loop_
_atom_site_type_symbol
_atom_site_label
_atom_site_fract_x
_atom_site_fract_y
_atom_site_fract_z
Si Si1 0.436099 0.139719 0.739181
Si Si2 0.166288 0.233187 0.671491
Si Si3 0.910162 0.837393 0.785654
Si Si4 0.283486 0.885831 0.232681
Si Si5 0.701074 0.113765 0.386031
Si Si6 0.831324 0.395842 0.741885
Si Si7 0.208909 0.117563 0.383423
O O1 0.500000 0.500000 0.500000
O O2 0.545300 0.088593 0.578280
O O3 0.417937 0.984527 0.958323
O O4 0.285635 0.963922 0.938547
O O5 0.221091 0.520883 0.529235
O O6 0.183858 0.421946 0.442348
O O7 0.256218 0.044475 0.663066
O O8 0.000000 0.000000 0.000000
O O9 0.817291 0.023981 0.783338
O O10 0.810778 0.477642 0.074773
O O11 0.000000 0.000000 0.500000
O O12 0.035740 0.892343 0.698821
O O13 0.283113 0.066361 0.233114
O O14 0.720611 0.953961 0.556289
O O15 0.788173 0.548355 0.796461
O O16 0.000000 0.500000 0.500000
#
# Coordination Sequence:
#
# PCOD9087401 Si02
#       7
#     2   2   2   2   2   2   2
#     4  11  23  44  65  91 131 176 216 258 333 389
#     4  10  21  39  61  97 128 168 214 260 325 380
#     4  10  19  36  63  90 125 170 213 258 314 384
#     4  10  21  39  64  89 129 172 213 257 320 391
#     4  11  23  38  65  90 130 172 215 270 321 380
#     4  10  23  42  67  94 128 169 219 269 315 385
#     4  10  21  37  63  96 124 160 221 269 319 365
#
# _framework density 23.434715000000001
#
# number of rings (size 3 to 8) (size 9 to 14) (size 15 to 20)
#    0.000    1.714    1.429    3.857    0.000    8.000 
#    0.000    0.714    0.000    0.000    0.000    0.000 
#    0.000    0.000    0.000    0.000    0.000    0.000 
#
# Total GULP energy -78036.179349 kJ/mol
# GULP energy per Si atom -5574.012811 kJ/mol
# Density = 2.338138 g / cm^3
# Si number density = 23.434715 Si / 1000 Ang^3
#
#
#
# Elastic Constant Matrix: (Units=GPa)
#
#
# Indices 1 2 3 4 5 6 
#
# 1 32.3880 11.4836 5.9519 -2.7380 -17.2030 -0.9965
# 2 11.4836 197.1622 59.6110 -1.7144 -20.3569 11.7892
# 3 5.9519 59.6110 105.9539 -21.5879 -20.3697 9.2549
# 4 -2.7380 -1.7144 -21.5879 33.4267 4.9303 3.2029
# 5 -17.2030 -20.3569 -20.3697 4.9303 28.6243 0.9692
# 6 -0.9965 11.7892 9.2549 3.2029 0.9692 33.9257
#
#
#
# Elastic Compliance Matrix: (Units=1/GPa)
#
#
# Indices 1 2 3 4 5 6 
#
# 1 0.046448 -0.000792 0.004037 0.002010 0.029896 -0.000506
# 2 -0.000792 0.006447 -0.003548 -0.002212 0.002004 -0.001144
# 3 0.004037 -0.003548 0.015152 0.008939 0.009278 -0.003891
# 4 0.002010 -0.002212 0.008939 0.036233 -0.000074 -0.005030
# 5 0.029896 0.002004 0.009278 -0.000074 0.061081 -0.004087
# 6 -0.000506 -0.001144 -0.003891 -0.005030 -0.004087 0.031512
#
#
# Mechanical properties :
#
#
# Convention : Reuss Voigt Hill
#
# Bulk Modulus (GPa) = 14.82734 54.39970 34.61352
# Shear Modulus (GPa) = 22.73151 36.42587 29.57869
#
# Velocity S-wave (km/s) = 3.11785 3.94681 3.55656
# Velocity P-wave (km/s) = 4.39342 6.63577 5.62741
#
# Compressibility (1/GPa) = 0.06744297
#
# Stress axis : x y z
#
# Youngs Moduli (GPa) = 21.52941 155.11360 65.99673
#
# Poissons Ratio (x) = 0.12278 -0.26646
# Poissons Ratio (y) = 0.01704 0.23416
# Poissons Ratio (z) = -0.08692 0.55035
#
# Static dielectric constant tensor:
#      x y z
#    x 2.001060 -0.040150 -0.123030 
#    y -0.040150 2.013180 0.024010 
#    z -0.123030 0.024010 1.937330 
# 
# From -- ./inp_files/244933.got.cif
#   From: 2010.05.17/outbox.cif.g08.bks.cpg/sg2_123_cif.got.tgz:244933.got - 2010.06.03 11:33:40.
