data_PCOD9087463
_publ_section_title
;
Structure prediction by ZEFSAII (Michael W. Deem and Ramdas Pophale) SiO2 
 PCOD9087463
Probable space group: P -1
;
_chemical_formula_sum "Si O2"
_cell_formula_units_Z 14
_cell_length_a 8.916802
_cell_length_b 13.606993
_cell_length_c 13.842934
_cell_angle_alpha 39.431621
_cell_angle_beta 32.374521
_cell_angle_gamma 41.717330
_cell_volume 548.911823
_symmetry_space_group_name_H-M "P -1"
_symmetry_group_IT_number 2
_symmetry_cell_setting 'triclinic'
loop_
_space_group_symop_operation_xyz
x,y,z
-x,-y,-z
loop_
_atom_site_type_symbol
_atom_site_label
_atom_site_fract_x
_atom_site_fract_y
_atom_site_fract_z
Si Si1 0.221331 0.411763 0.629835
Si Si2 0.672809 0.407305 0.826070
Si Si3 0.235592 0.909321 0.861994
Si Si4 0.730919 0.943604 0.650704
Si Si5 0.734588 0.254296 0.580650
Si Si6 0.876893 0.298458 0.073348
Si Si7 0.560287 0.796717 0.039875
O O1 0.523568 0.273892 0.586521
O O2 0.308106 0.574217 0.475496
O O3 0.007326 0.409151 0.659557
O O4 0.033757 0.386438 0.843732
O O5 0.443597 0.582470 0.826635
O O6 0.579989 0.331486 0.838160
O O7 0.638799 0.274256 0.025551
O O8 0.476604 0.007129 0.662743
O O9 0.128856 0.870789 0.844738
O O10 0.000000 0.000000 0.000000
O O11 0.933655 0.792234 0.596566
O O12 0.566229 0.915944 0.858181
O O13 0.000000 0.000000 0.500000
O O14 0.624418 0.151684 0.800625
O O15 0.099798 0.270481 0.063069
#
# Coordination Sequence:
#
# PCOD9087463 Si02
#       7
#     2   2   2   2   2   2   2
#     4   9  18  33  61  91 129 166 205 264 322 384
#     4  10  19  36  63  95 129 171 216 264 329 386
#     4  10  22  40  66  96 130 177 218 265 328 388
#     4  11  25  43  66  91 128 176 222 262 324 396
#     4  10  21  39  61  96 129 168 216 265 325 380
#     4  10  19  37  67  92 132 170 216 268 329 383
#     4  10  23  40  64  99 128 167 217 278 321 387
#
# _framework density 25.505009000000001
#
# number of rings (size 3 to 8) (size 9 to 14) (size 15 to 20)
#    0.000    2.000    0.000    4.714    6.000    3.429 
#    2.571    2.143    0.000    0.000    0.000    0.000 
#    0.000    0.000    0.000    0.000    0.000    0.000 
#
# Total GULP energy -78049.590150 kJ/mol
# GULP energy per Si atom -5574.970725 kJ/mol
# Density = 2.544696 g / cm^3
# Si number density = 25.505009 Si / 1000 Ang^3
#
#
#
# Elastic Constant Matrix: (Units=GPa)
#
#
# Indices 1 2 3 4 5 6 
#
# 1 162.7180 25.2414 38.3015 9.6099 -51.1393 -1.6768
# 2 25.2414 60.6623 8.2339 18.0101 -16.4809 -9.6845
# 3 38.3015 8.2339 81.7090 4.1666 -26.6282 -4.1350
# 4 9.6099 18.0101 4.1666 35.2710 -7.8000 -14.2847
# 5 -51.1393 -16.4809 -26.6282 -7.8000 53.1538 7.1646
# 6 -1.6768 -9.6845 -4.1350 -14.2847 7.1646 32.5487
#
#
#
# Elastic Compliance Matrix: (Units=1/GPa)
#
#
# Indices 1 2 3 4 5 6 
#
# 1 0.009256 -0.001680 -0.001733 -0.000655 0.007721 -0.002230
# 2 -0.001680 0.020986 0.000364 -0.008900 0.003563 0.001514
# 3 -0.001733 0.000364 0.014953 0.000085 0.005859 0.000666
# 4 -0.000655 -0.008900 0.000085 0.038967 0.000439 0.014334
# 5 0.007721 0.003563 0.005859 0.000439 0.030941 -0.004416
# 6 -0.002230 0.001514 0.000666 0.014334 -0.004416 0.038406
#
#
# Mechanical properties :
#
#
# Convention : Reuss Voigt Hill
#
# Bulk Modulus (GPa) = 25.57656 49.84923 37.71289
# Shear Modulus (GPa) = 28.96179 39.74887 34.35533
#
# Velocity S-wave (km/s) = 3.37342 3.95203 3.67414
# Velocity P-wave (km/s) = 5.02226 6.35705 5.72866
#
# Compressibility (1/GPa) = 0.03909831
#
# Stress axis : x y z
#
# Youngs Moduli (GPa) = 108.03296 47.64976 66.87602
#
# Poissons Ratio (x) = 0.08006 0.11589
# Poissons Ratio (y) = 0.18152 -0.02437
# Poissons Ratio (z) = 0.18721 -0.01736
#
# Static dielectric constant tensor:
#      x y z
#    x 2.115090 -0.026350 -0.073620 
#    y -0.026350 2.264480 0.106200 
#    z -0.073620 0.106200 2.179620 
# 
# From -- ./inp_files/316194.got.cif
#   From: 2010.05.17/outbox.cif.g08.bks.cpg/sg2_159_cif.got.tgz:316194.got - 2010.06.03 11:33:40.
