data_PCOD9087173
_publ_section_title
;
Structure prediction by ZEFSAII (Michael W. Deem and Ramdas Pophale) SiO2 
 PCOD9087173
Probable space group: P -1
;
_chemical_formula_sum "Si O2"
_cell_formula_units_Z 14
_cell_length_a 8.317240
_cell_length_b 7.565278
_cell_length_c 18.158421
_cell_angle_alpha 145.647289
_cell_angle_beta 59.376685
_cell_angle_gamma 128.626111
_cell_volume 503.644234
_symmetry_space_group_name_H-M "P -1"
_symmetry_group_IT_number 2
_symmetry_cell_setting 'triclinic'
loop_
_space_group_symop_operation_xyz
x,y,z
-x,-y,-z
loop_
_atom_site_type_symbol
_atom_site_label
_atom_site_fract_x
_atom_site_fract_y
_atom_site_fract_z
Si Si1 0.699769 0.032887 0.506729
Si Si2 0.993853 0.761018 0.347790
Si Si3 0.382462 0.748879 0.874659
Si Si4 0.909564 0.289718 0.852746
Si Si5 0.243765 0.239905 0.009266
Si Si6 0.500797 0.769385 0.259797
Si Si7 0.018792 0.751027 0.710909
O O1 0.633338 0.038695 0.609826
O O2 0.890563 0.404395 0.573895
O O3 0.500000 0.000000 0.500000
O O4 0.768887 0.733161 0.366549
O O5 0.993051 0.415944 0.263580
O O6 0.118108 0.863330 0.277478
O O7 0.000000 0.000000 0.500000
O O8 0.489643 0.487359 0.767071
O O9 0.148128 0.548507 0.887439
O O10 0.500000 0.000000 0.000000
O O11 0.357943 0.983071 0.894224
O O12 0.780537 0.519693 0.967981
O O13 0.903371 0.997313 0.809531
O O14 0.381324 0.527524 0.136432
O O15 0.000000 0.000000 0.000000
O O16 0.737681 0.041588 0.288457
#
# Coordination Sequence:
#
# PCOD9087173 Si02
#       7
#     2   2   2   2   2   2   2
#     4  11  23  38  60  89 118 157 201 238 292 356
#     4  10  22  38  57  87 122 155 196 241 292 354
#     4   8  16  32  58  85 114 154 193 236 298 352
#     4  10  19  36  62  86 117 158 193 243 297 337
#     4   9  17  32  60  88 112 154 198 235 296 354
#     4  10  20  37  61  86 119 159 191 242 301 338
#     4  10  23  40  60  86 123 156 200 246 287 353
#
# _framework density 27.7974
#
# number of rings (size 3 to 8) (size 9 to 14) (size 15 to 20)
#    0.000    2.286    0.000    3.429    0.000    6.857 
#    0.000    0.000    0.000  108.000    0.000    0.000 
#    0.000    0.000    0.000    0.000    0.000    0.000 
#
# Total GULP energy -78095.128259 kJ/mol
# GULP energy per Si atom -5578.223447 kJ/mol
# Density = 2.773413 g / cm^3
# Si number density = 27.797400 Si / 1000 Ang^3
#
#
#
# Elastic Constant Matrix: (Units=GPa)
#
#
# Indices 1 2 3 4 5 6 
#
# 1 146.8067 45.3608 51.5220 26.5022 -13.4362 -19.2408
# 2 45.3608 118.8027 40.9134 24.1541 -0.4460 32.5002
# 3 51.5220 40.9134 126.9732 5.6485 -17.3484 -11.2470
# 4 26.5022 24.1541 5.6485 38.9795 -4.4812 7.3625
# 5 -13.4362 -0.4460 -17.3484 -4.4812 89.5063 20.4114
# 6 -19.2408 32.5002 -11.2470 7.3625 20.4114 60.4313
#
#
#
# Elastic Compliance Matrix: (Units=1/GPa)
#
#
# Indices 1 2 3 4 5 6 
#
# 1 0.010489 -0.003565 -0.002419 -0.005698 -0.000489 0.005666
# 2 -0.003565 0.014485 -0.003765 -0.004152 0.000736 -0.009369
# 3 -0.002419 -0.003765 0.010358 0.002131 0.001155 0.002533
# 4 -0.005698 -0.004152 0.002131 0.032761 0.002060 -0.003872
# 5 -0.000489 0.000736 0.001155 0.002060 0.012529 -0.004819
# 6 0.005666 -0.009369 0.002533 -0.003872 -0.004819 0.025961
#
#
# Mechanical properties :
#
#
# Convention : Reuss Voigt Hill
#
# Bulk Modulus (GPa) = 63.15942 74.24168 68.70055
# Shear Modulus (GPa) = 38.06382 54.76918 46.41650
#
# Velocity S-wave (km/s) = 3.70446 4.44362 4.09077
# Velocity P-wave (km/s) = 6.40843 7.28655 6.86155
#
# Compressibility (1/GPa) = 0.01583295
#
# Stress axis : x y z
#
# Youngs Moduli (GPa) = 95.34204 69.03597 96.54615
#
# Poissons Ratio (x) = 0.24613 0.23351
# Poissons Ratio (y) = 0.33991 0.36354
# Poissons Ratio (z) = 0.23060 0.25995
#
# Static dielectric constant tensor:
#      x y z
#    x 2.489960 -0.010760 0.133160 
#    y -0.010760 2.196350 -0.018190 
#    z 0.133160 -0.018190 2.339950 
# 
# From -- ./inp_files/556079.got.cif
#   From: 2010.05.17/outbox.cif.g08.bks.cpg/sg2_279_cif.got.tgz:556079.got - 2010.06.03 11:33:40.
