data_PCOD9087616
_publ_section_title
;
Structure prediction by ZEFSAII (Michael W. Deem and Ramdas Pophale) SiO2 
 PCOD9087616
Probable space group: P -1
;
_chemical_formula_sum "Si O2"
_cell_formula_units_Z 12
_cell_length_a 17.711859
_cell_length_b 7.861812
_cell_length_c 5.534648
_cell_angle_alpha 121.790432
_cell_angle_beta 128.677861
_cell_angle_gamma 48.396522
_cell_volume 441.551365
_symmetry_space_group_name_H-M "P -1"
_symmetry_group_IT_number 2
_symmetry_cell_setting 'triclinic'
loop_
_space_group_symop_operation_xyz
x,y,z
-x,-y,-z
loop_
_atom_site_type_symbol
_atom_site_label
_atom_site_fract_x
_atom_site_fract_y
_atom_site_fract_z
Si Si1 0.105197 0.123419 0.802050
Si Si2 0.914570 0.884323 0.737447
Si Si3 0.407657 0.868553 0.695840
Si Si4 0.324643 0.150096 0.244733
Si Si5 0.658828 0.508691 0.793807
Si Si6 0.119965 0.543382 0.631755
O O1 0.125695 0.979064 0.490375
O O2 0.197949 0.199356 0.050712
O O3 0.976781 0.328787 0.667404
O O4 0.109538 0.001873 0.967775
O O5 0.865093 0.710964 0.505436
O O6 0.046692 0.702223 0.830648
O O7 0.539350 0.683335 0.805491
O O8 0.342326 0.726893 0.427855
O O9 0.377026 0.990192 0.988128
O O10 0.381225 0.024593 0.516161
O O11 0.331181 0.374759 0.348216
O O12 0.759123 0.485710 0.144046
#
# Coordination Sequence:
#
# PCOD9087616 Si02
#       6
#     2   2   2   2   2   2
#     4  10  19  36  64  98 132 175 224 280 338 420
#     4   9  17  33  55 103 126 164 235 259 336 423
#     4  11  29  47  69 109 137 183 246 283 336 427
#     4  12  24  49  73 101 143 184 231 290 352 408
#     4  11  24  50  73 101 143 189 228 295 347 406
#     4   9  19  35  64 100 128 182 223 274 350 408
#
# _framework density 27.176905999999999
#
# number of rings (size 3 to 8) (size 9 to 14) (size 15 to 20)
#    1.000    0.667    1.667    2.500    0.000    4.000 
#    6.000    1.667    0.000    0.000    0.000    0.000 
#    0.000    0.000    0.000    0.000    0.000    0.000 
#
# Total GULP energy -67165.837487 kJ/mol
# GULP energy per Si atom -5597.153124 kJ/mol
# Density = 2.711505 g / cm^3
# Si number density = 27.176906 Si / 1000 Ang^3
#
#
#
# Elastic Constant Matrix: (Units=GPa)
#
#
# Indices 1 2 3 4 5 6 
#
# 1 167.2179 54.3324 98.7619 5.3769 -14.4698 3.4987
# 2 54.3324 102.3702 48.4111 -6.3880 -3.7309 13.8514
# 3 98.7619 48.4111 139.4417 -12.5865 2.8497 -0.0870
# 4 5.3769 -6.3880 -12.5865 28.9792 8.9526 21.9089
# 5 -14.4698 -3.7309 2.8497 8.9526 95.0522 -0.5601
# 6 3.4987 13.8514 -0.0870 21.9089 -0.5601 52.9995
#
#
#
# Elastic Compliance Matrix: (Units=1/GPa)
#
#
# Indices 1 2 3 4 5 6 
#
# 1 0.013330 -0.004103 -0.009207 -0.012470 0.003350 0.005367
# 2 -0.004103 0.013966 -0.001113 0.009032 -0.000936 -0.007124
# 3 -0.009207 -0.001113 0.015236 0.012154 -0.003071 -0.004133
# 4 -0.012470 0.009032 0.012154 0.069796 -0.008661 -0.030461
# 5 0.003350 -0.000936 -0.003071 -0.008661 0.011924 0.003725
# 6 0.005367 -0.007124 -0.004133 -0.030461 0.003725 0.033000
#
#
# Mechanical properties :
#
#
# Convention : Reuss Voigt Hill
#
# Bulk Modulus (GPa) = 73.06746 90.22671 81.64709
# Shear Modulus (GPa) = 26.22469 49.24115 37.73292
#
# Velocity S-wave (km/s) = 3.10975 4.26123 3.73019
# Velocity P-wave (km/s) = 6.31176 7.58173 6.97571
#
# Compressibility (1/GPa) = 0.01368598
#
# Stress axis : x y z
#
# Youngs Moduli (GPa) = 75.01919 71.60401 65.63248
#
# Poissons Ratio (x) = 0.29378 0.60430
# Poissons Ratio (y) = 0.30779 0.07304
# Poissons Ratio (z) = 0.69073 0.07968
#
# Static dielectric constant tensor:
#      x y z
#    x 2.132470 -0.004030 -0.008410 
#    y -0.004030 2.114780 0.011700 
#    z -0.008410 0.011700 2.134620 
# 
# From -- ./inp_files/104199.got.cif
#   From: 2010.05.17/outbox.cif.g08.bks.cpg/sg2_53_cif.got.tgz:104199.got - 2010.06.03 11:33:40.
