data_PCOD9087329
_publ_section_title
;
Structure prediction by ZEFSAII (Michael W. Deem and Ramdas Pophale) SiO2 
 PCOD9087329
Probable space group: P -1
;
_chemical_formula_sum "Si O2"
_cell_formula_units_Z 16
_cell_length_a 18.886698
_cell_length_b 22.922589
_cell_length_c 14.313049
_cell_angle_alpha 22.438880
_cell_angle_beta 30.028104
_cell_angle_gamma 18.067363
_cell_volume 729.146241
_symmetry_space_group_name_H-M "P -1"
_symmetry_group_IT_number 2
_symmetry_cell_setting 'triclinic'
loop_
_space_group_symop_operation_xyz
x,y,z
-x,-y,-z
loop_
_atom_site_type_symbol
_atom_site_label
_atom_site_fract_x
_atom_site_fract_y
_atom_site_fract_z
Si Si1 0.981041 0.719999 0.951993
Si Si2 0.204333 0.371433 0.384507
Si Si3 0.707020 0.834619 0.932659
Si Si4 0.802472 0.344799 0.905835
Si Si5 0.345858 0.923734 0.905529
Si Si6 0.563342 0.274057 0.377757
Si Si7 0.406394 0.564942 0.705412
Si Si8 0.502872 0.250132 0.801831
O O1 0.924045 0.691806 0.959870
O O2 0.152238 0.717250 0.751004
O O3 0.745502 0.977784 0.887433
O O4 0.095511 0.504412 0.212451
O O5 0.295172 0.450551 0.209685
O O6 0.000000 0.500000 0.500000
O O7 0.364282 0.087102 0.619625
O O8 0.644652 0.031085 0.647964
O O9 0.696252 0.687927 0.104317
O O10 0.500000 0.000000 0.000000
O O11 0.694520 0.489555 0.716857
O O12 0.715037 0.251804 0.170334
O O13 0.075423 0.119389 0.933048
O O14 0.448288 0.711966 0.032131
O O15 0.474232 0.783117 0.064631
O O16 0.588613 0.323577 0.378613
O O17 0.509896 0.570298 0.492150
#
# Coordination Sequence:
#
# PCOD9087329 Si02
#       8
#     2   2   2   2   2   2   2   2
#     4  11  21  38  64  93 110 159 205 250 289 345
#     4  10  19  36  63  84 113 155 204 238 288 351
#     4  10  22  35  65  91 113 150 203 258 284 339
#     4  10  22  38  63  87 115 161 203 248 288 356
#     4  11  24  38  61  87 126 162 190 247 306 357
#     4  11  21  38  62  90 118 150 209 247 294 348
#     4  12  24  38  61  92 126 154 198 247 303 358
#     4  11  21  41  63  88 118 161 206 240 296 354
#
# _framework density 21.943472
#
# number of rings (size 3 to 8) (size 9 to 14) (size 15 to 20)
#    0.000    1.250    6.250    1.500    7.000    1.000 
#    0.000    0.625    2.750    0.000    0.000    0.000 
#    0.000    0.000    0.000    0.000    0.000    0.000 
#
# Total GULP energy -89428.002203 kJ/mol
# GULP energy per Si atom -5589.250138 kJ/mol
# Density = 2.189353 g / cm^3
# Si number density = 21.943472 Si / 1000 Ang^3
#
#
#
# Elastic Constant Matrix: (Units=GPa)
#
#
# Indices 1 2 3 4 5 6 
#
# 1 94.0642 20.6353 22.3580 4.5601 9.1716 -26.5684
# 2 20.6353 25.3408 14.6904 -3.8778 -5.5722 -2.9658
# 3 22.3580 14.6904 129.7059 4.3253 -0.4304 -5.7258
# 4 4.5601 -3.8778 4.3253 20.9917 1.1445 0.6672
# 5 9.1716 -5.5722 -0.4304 1.1445 38.7541 -5.8583
# 6 -26.5684 -2.9658 -5.7258 0.6672 -5.8583 26.3268
#
#
#
# Elastic Compliance Matrix: (Units=1/GPa)
#
#
# Indices 1 2 3 4 5 6 
#
# 1 0.019985 -0.015918 -0.000634 -0.007481 -0.004159 0.017502
# 2 -0.015918 0.058770 -0.004755 0.014997 0.010431 -0.008536
# 3 -0.000634 -0.004755 0.008469 -0.002493 -0.000265 0.000671
# 4 -0.007481 0.014997 -0.002493 0.052718 0.001213 -0.007468
# 5 -0.004159 0.010431 -0.000265 0.001213 0.028746 0.003286
# 6 0.017502 -0.008536 0.000671 -0.007468 0.003286 0.055751
#
#
# Mechanical properties :
#
#
# Convention : Reuss Voigt Hill
#
# Bulk Modulus (GPa) = 22.41547 40.49758 31.45653
# Shear Modulus (GPa) = 17.73538 29.97634 23.85586
#
# Velocity S-wave (km/s) = 2.84602 3.70005 3.30077
# Velocity P-wave (km/s) = 4.58662 6.06212 5.37524
#
# Compressibility (1/GPa) = 0.04461204
#
# Stress axis : x y z
#
# Youngs Moduli (GPa) = 50.03731 17.01556 118.07228
#
# Poissons Ratio (x) = 0.27085 0.07484
# Poissons Ratio (y) = 0.79647 0.56140
# Poissons Ratio (z) = 0.03172 0.08090
#
# Static dielectric constant tensor:
#      x y z
#    x 1.817310 0.005720 -0.002030 
#    y 0.005720 1.828730 0.012930 
#    z -0.002030 0.012930 1.810400 
# 
# From -- ./inp_files/539270.got.cif
#   From: 2010.05.17/outbox.cif.g08.bks.cpg/sg2_270_cif.got.tgz:539270.got - 2010.06.03 11:33:40.
