data_PCOD9087557
_publ_section_title
;
Structure prediction by ZEFSAII (Michael W. Deem and Ramdas Pophale) SiO2 
 PCOD9087557
Probable space group: P -1
;
_chemical_formula_sum "Si O2"
_cell_formula_units_Z 14
_cell_length_a 16.869061
_cell_length_b 10.756189
_cell_length_c 9.306881
_cell_angle_alpha 50.710350
_cell_angle_beta 69.471641
_cell_angle_gamma 29.460105
_cell_volume 546.193875
_symmetry_space_group_name_H-M "P -1"
_symmetry_group_IT_number 2
_symmetry_cell_setting 'triclinic'
loop_
_space_group_symop_operation_xyz
x,y,z
-x,-y,-z
loop_
_atom_site_type_symbol
_atom_site_label
_atom_site_fract_x
_atom_site_fract_y
_atom_site_fract_z
Si Si1 0.637843 0.560667 0.278327
Si Si2 0.474112 0.409190 0.386230
Si Si3 0.109207 0.247789 0.977330
Si Si4 0.789338 0.090448 0.292909
Si Si5 0.070696 0.691805 0.173843
Si Si6 0.589982 0.680646 0.775458
Si Si7 0.301116 0.224364 0.781391
O O1 0.526704 0.655224 0.405225
O O2 0.786760 0.203995 0.353700
O O3 0.748077 0.516894 0.319611
O O4 0.478215 0.884362 0.027148
O O5 0.670459 0.138674 0.388509
O O6 0.398860 0.402353 0.330961
O O7 0.316043 0.818283 0.186797
O O8 0.998998 0.299138 0.920473
O O9 0.147263 0.347305 0.796299
O O10 0.000000 0.500000 0.000000
O O11 0.983441 0.755942 0.324228
O O12 0.661044 0.406975 0.025838
O O13 0.288064 0.365672 0.247452
O O14 0.000000 0.000000 0.000000
O O15 0.387937 0.067327 0.684121
#
# Coordination Sequence:
#
# PCOD9087557 Si02
#       7
#     2   2   2   2   2   2   2
#     4  10  23  37  69  94 130 166 220 263 318 381
#     4  12  21  40  65 100 122 173 220 266 308 385
#     4  12  25  38  67  97 129 163 219 266 318 376
#     4  10  19  36  64  91 127 166 217 252 314 385
#     4  10  21  37  63  98 124 174 215 254 314 396
#     4  10  20  37  69  88 129 169 220 247 325 385
#     4  10  23  43  65  93 129 174 209 263 329 378
#
# _framework density 25.631926
#
# number of rings (size 3 to 8) (size 9 to 14) (size 15 to 20)
#    0.000    1.429    5.714    1.714    8.000    0.571 
#    0.000    2.857    0.000    2.571    0.000    0.000 
#    0.000    0.000    0.000    0.000    0.000    0.000 
#
# Total GULP energy -78315.033297 kJ/mol
# GULP energy per Si atom -5593.930950 kJ/mol
# Density = 2.557359 g / cm^3
# Si number density = 25.631926 Si / 1000 Ang^3
#
#
#
# Elastic Constant Matrix: (Units=GPa)
#
#
# Indices 1 2 3 4 5 6 
#
# 1 188.0988 51.4225 9.0628 12.2283 13.2912 5.1329
# 2 51.4225 134.0437 17.6222 34.7414 13.1745 -8.7199
# 3 9.0628 17.6222 80.8513 18.5915 -1.5158 5.8817
# 4 12.2283 34.7414 18.5915 38.3488 5.0376 1.6310
# 5 13.2912 13.1745 -1.5158 5.0376 28.8007 15.5139
# 6 5.1329 -8.7199 5.8817 1.6310 15.5139 46.2578
#
#
#
# Elastic Compliance Matrix: (Units=1/GPa)
#
#
# Indices 1 2 3 4 5 6 
#
# 1 0.006050 -0.002306 -0.000283 0.000523 -0.001535 -0.000574
# 2 -0.002306 0.011545 -0.000630 -0.008937 -0.005138 0.004551
# 3 -0.000283 -0.000630 0.014371 -0.006699 0.003968 -0.003009
# 4 0.000523 -0.008937 -0.006699 0.037618 -0.002308 -0.001443
# 5 -0.001535 -0.005138 0.003968 -0.002308 0.047661 -0.017206
# 6 -0.000574 0.004551 -0.003009 -0.001443 -0.017206 0.028743
#
#
# Mechanical properties :
#
#
# Convention : Reuss Voigt Hill
#
# Bulk Modulus (GPa) = 39.17178 62.13432 50.65305
# Shear Modulus (GPa) = 31.06809 44.34055 37.70432
#
# Velocity S-wave (km/s) = 3.48528 4.16371 3.83951
# Velocity P-wave (km/s) = 5.61354 6.88542 6.28175
#
# Compressibility (1/GPa) = 0.02552858
#
# Stress axis : x y z
#
# Youngs Moduli (GPa) = 165.27584 86.61774 69.58337
#
# Poissons Ratio (x) = 0.19973 0.01968
# Poissons Ratio (y) = 0.38112 0.04386
# Poissons Ratio (z) = 0.04675 0.05459
#
# Static dielectric constant tensor:
#      x y z
#    x 1.991020 -0.023650 -0.008540 
#    y -0.023650 2.037040 -0.120700 
#    z -0.008540 -0.120700 2.114580 
# 
# From -- ./inp_files/331698.got.cif
#   From: 2010.05.17/outbox.cif.g08.bks.cpg/sg2_166_cif.got.tgz:331698.got - 2010.06.03 11:33:40.
