data_PCOD9087536
_publ_section_title
;
Structure prediction by ZEFSAII (Michael W. Deem and Ramdas Pophale) SiO2 
 PCOD9087536
Probable space group: P -1
;
_chemical_formula_sum "Si O2"
_cell_formula_units_Z 16
_cell_length_a 7.679864
_cell_length_b 7.720385
_cell_length_c 10.464738
_cell_angle_alpha 81.482037
_cell_angle_beta 75.067074
_cell_angle_gamma 101.798886
_cell_volume 573.469254
_symmetry_space_group_name_H-M "P -1"
_symmetry_group_IT_number 2
_symmetry_cell_setting 'triclinic'
loop_
_space_group_symop_operation_xyz
x,y,z
-x,-y,-z
loop_
_atom_site_type_symbol
_atom_site_label
_atom_site_fract_x
_atom_site_fract_y
_atom_site_fract_z
Si Si1 0.854940 0.098002 0.126310
Si Si2 0.416098 0.247362 0.842060
Si Si3 0.259971 0.301790 0.126398
Si Si4 0.718057 0.158963 0.415910
Si Si5 0.924107 0.398151 0.892055
Si Si6 0.329788 0.982092 0.292503
Si Si7 0.978390 0.705865 0.475035
Si Si8 0.291900 0.448155 0.641632
O O1 0.729767 0.128272 0.267009
O O2 0.064099 0.173202 0.126893
O O3 0.787138 0.886744 0.136748
O O4 0.828585 0.202199 0.989621
O O5 0.549439 0.115856 0.808823
O O6 0.441316 0.395130 0.710088
O O7 0.394407 0.325265 0.975561
O O8 0.213365 0.489794 0.152906
O O9 0.335284 0.182993 0.227058
O O10 0.627993 0.025579 0.562949
O O11 0.940509 0.206177 0.415441
O O12 0.656083 0.343277 0.429373
O O13 0.103053 0.425245 0.765220
O O14 0.000000 0.500000 0.000000
O O15 0.125022 0.841233 0.340463
O O16 0.000000 0.500000 0.500000
O O17 0.777355 0.681346 0.452914
#
# Coordination Sequence:
#
# PCOD9087536 Si02
#       8
#     2   2   2   2   2   2   2   2
#     4  11  21  37  65  92 113 155 206 251 282 348
#     4  12  24  36  62  91 123 157 195 243 300 355
#     4  11  21  41  62  87 118 163 197 246 293 342
#     4   9  20  40  61  86 121 153 198 244 297 347
#     4  10  19  36  64  90 114 150 204 259 281 332
#     4  10  24  40  57  88 129 158 186 244 303 359
#     4   8  19  38  63  85 113 155 201 243 284 353
#     4  11  18  40  66  89 112 152 211 243 291 342
#
# _framework density 27.900361
#
# number of rings (size 3 to 8) (size 9 to 14) (size 15 to 20)
#    0.750    1.000    5.000    1.500    1.750    1.500 
#    0.000    0.625    2.750    0.000    0.000    0.000 
#    0.000    0.000    0.000    0.000    0.000    0.000 
#
# Total GULP energy -89573.595015 kJ/mol
# GULP energy per Si atom -5598.349688 kJ/mol
# Density = 2.783686 g / cm^3
# Si number density = 27.900361 Si / 1000 Ang^3
#
#
#
# Elastic Constant Matrix: (Units=GPa)
#
#
# Indices 1 2 3 4 5 6 
#
# 1 78.1288 24.3034 51.3442 -8.1345 -0.4637 -18.2793
# 2 24.3034 84.3610 50.5969 -9.8263 -0.1720 -31.7147
# 3 51.3442 50.5969 172.8270 -13.6632 3.1723 -32.0939
# 4 -8.1345 -9.8263 -13.6632 45.2932 -16.3934 14.4573
# 5 -0.4637 -0.1720 3.1723 -16.3934 48.8834 -6.8953
# 6 -18.2793 -31.7147 -32.0939 14.4573 -6.8953 46.7331
#
#
#
# Elastic Compliance Matrix: (Units=1/GPa)
#
#
# Indices 1 2 3 4 5 6 
#
# 1 0.016561 -0.001217 -0.003990 0.001042 0.001150 0.002759
# 2 -0.001217 0.017668 -0.003040 0.000243 0.001683 0.009600
# 3 -0.003990 -0.003040 0.008249 0.000453 -0.000167 0.001876
# 4 0.001042 0.000243 0.000453 0.027502 0.008302 -0.006400
# 5 0.001150 0.001683 -0.000167 0.008302 0.023606 0.002392
# 6 0.002759 0.009600 0.001876 -0.006400 0.002392 0.032613
#
#
# Mechanical properties :
#
#
# Convention : Reuss Voigt Hill
#
# Bulk Modulus (GPa) = 38.48529 65.31174 51.89852
# Shear Modulus (GPa) = 33.03478 42.12011 37.57744
#
# Velocity S-wave (km/s) = 3.44470 3.88965 3.67392
# Velocity P-wave (km/s) = 5.44473 6.60547 6.05299
#
# Compressibility (1/GPa) = 0.02598395
#
# Stress axis : x y z
#
# Youngs Moduli (GPa) = 60.38299 56.59807 121.22907
#
# Poissons Ratio (x) = 0.06888 0.48372
# Poissons Ratio (y) = 0.07348 0.36855
# Poissons Ratio (z) = 0.24093 0.17206
#
# Static dielectric constant tensor:
#      x y z
#    x 2.306490 0.032470 0.024110 
#    y 0.032470 2.133720 0.008450 
#    z 0.024110 0.008450 2.178800 
# 
# From -- ./inp_files/378240.got.cif
#   From: 2010.05.17/outbox.cif.g08.bks.cpg/sg2_190_cif.got.tgz:378240.got - 2010.06.03 11:33:40.
