data_PCOD9087247
_publ_section_title
;
Structure prediction by ZEFSAII (Michael W. Deem and Ramdas Pophale) SiO2 
 PCOD9087247
Probable space group: P -1
;
_chemical_formula_sum "Si O2"
_cell_formula_units_Z 14
_cell_length_a 16.364702
_cell_length_b 16.096418
_cell_length_c 9.112770
_cell_angle_alpha 59.653582
_cell_angle_beta 45.221948
_cell_angle_gamma 25.623512
_cell_volume 667.682425
_symmetry_space_group_name_H-M "P -1"
_symmetry_group_IT_number 2
_symmetry_cell_setting 'triclinic'
loop_
_space_group_symop_operation_xyz
x,y,z
-x,-y,-z
loop_
_atom_site_type_symbol
_atom_site_label
_atom_site_fract_x
_atom_site_fract_y
_atom_site_fract_z
Si Si1 0.766113 0.269476 0.448429
Si Si2 0.372476 0.450758 0.923137
Si Si3 0.496284 0.187937 0.490102
Si Si4 0.155951 0.579066 0.757328
Si Si5 0.588945 0.938279 0.110435
Si Si6 0.281144 0.328050 0.324932
Si Si7 0.986115 0.109306 0.006078
O O1 0.500000 0.500000 0.500000
O O2 0.665296 0.257371 0.685508
O O3 0.862475 0.295140 0.379426
O O4 0.949408 0.111921 0.221693
O O5 0.229401 0.526305 0.884692
O O6 0.330369 0.398273 0.138985
O O7 0.242474 0.647596 0.962687
O O8 0.377229 0.362007 0.581782
O O9 0.509171 0.084606 0.666324
O O10 0.322465 0.294421 0.475960
O O11 0.761878 0.020058 0.234129
O O12 0.892624 0.721405 0.934296
O O13 0.470743 0.116662 0.186640
O O14 0.500000 0.000000 0.000000
O O15 0.000000 0.500000 0.500000
O O16 0.000000 0.000000 0.000000
#
# Coordination Sequence:
#
# PCOD9087247 Si02
#       7
#     2   2   2   2   2   2   2
#     4   8  17  35  59  86 116 154 192 233 291 356
#     4  10  20  39  63  89 121 160 196 239 298 362
#     4  12  23  39  61  89 120 156 199 252 299 345
#     4  10  20  40  62  85 118 158 197 242 295 358
#     4  12  25  41  60  86 118 162 204 242 296 362
#     4  12  24  40  60  90 122 155 199 252 297 347
#     4  10  19  36  62  91 120 155 196 248 298 344
#
# _framework density 20.968053999999999
#
# number of rings (size 3 to 8) (size 9 to 14) (size 15 to 20)
#    0.000    1.714    0.000    8.571    0.000    0.000 
#    0.000    7.143    0.000    0.000    0.000    0.000 
#    0.000    0.000    0.000    0.000    0.000    0.000 
#
# Total GULP energy -78249.677019 kJ/mol
# GULP energy per Si atom -5589.262644 kJ/mol
# Density = 2.092033 g / cm^3
# Si number density = 20.968054 Si / 1000 Ang^3
#
#
#
# Elastic Constant Matrix: (Units=GPa)
#
#
# Indices 1 2 3 4 5 6 
#
# 1 84.7807 36.8742 22.7561 -14.2428 10.9730 11.9808
# 2 36.8742 72.5558 51.9274 -22.9637 17.8201 18.3533
# 3 22.7561 51.9274 135.6292 -5.1252 -17.8499 4.2070
# 4 -14.2428 -22.9637 -5.1252 37.6917 3.6535 7.0343
# 5 10.9730 17.8201 -17.8499 3.6535 43.3399 6.5348
# 6 11.9808 18.3533 4.2070 7.0343 6.5348 40.3730
#
#
#
# Elastic Compliance Matrix: (Units=1/GPa)
#
#
# Indices 1 2 3 4 5 6 
#
# 1 0.015371 -0.005489 -0.000527 0.002982 -0.001765 -0.002245
# 2 -0.005489 0.061991 -0.024964 0.040345 -0.033939 -0.025486
# 3 -0.000527 -0.024964 0.018466 -0.016418 0.017949 0.009536
# 4 0.002982 0.040345 -0.016418 0.056816 -0.025381 -0.023306
# 5 -0.001765 -0.033939 0.017949 -0.025381 0.045323 0.011168
# 6 -0.002245 -0.025486 0.009536 -0.023306 0.011168 0.038281
#
#
# Mechanical properties :
#
#
# Convention : Reuss Voigt Hill
#
# Bulk Modulus (GPa) = 29.52874 57.34234 43.43554
# Shear Modulus (GPa) = 16.15526 36.37477 26.26502
#
# Velocity S-wave (km/s) = 2.77875 4.16958 3.54308
# Velocity P-wave (km/s) = 4.94050 7.11248 6.12356
#
# Compressibility (1/GPa) = 0.03386531
#
# Stress axis : x y z
#
# Youngs Moduli (GPa) = 65.05863 16.13147 54.15484
#
# Poissons Ratio (x) = 0.08855 0.02856
# Poissons Ratio (y) = 0.35711 1.35195
# Poissons Ratio (z) = 0.03430 0.40271
#
# Static dielectric constant tensor:
#      x y z
#    x 1.769410 -0.028330 -0.038830 
#    y -0.028330 1.810330 0.016230 
#    z -0.038830 0.016230 1.785700 
# 
# From -- ./inp_files/296957.got.cif
#   From: 2010.05.17/outbox.cif.g08.bks.cpg/sg2_149_cif.got.tgz:296957.got - 2010.06.03 11:33:40.
