data_PCOD9087564
_publ_section_title
;
Structure prediction by ZEFSAII (Michael W. Deem and Ramdas Pophale) SiO2 
 PCOD9087564
Probable space group: P -1
;
_chemical_formula_sum "Si O2"
_cell_formula_units_Z 16
_cell_length_a 21.547428
_cell_length_b 8.102261
_cell_length_c 11.931528
_cell_angle_alpha 129.991243
_cell_angle_beta 152.860539
_cell_angle_gamma 49.019092
_cell_volume 706.698039
_symmetry_space_group_name_H-M "P -1"
_symmetry_group_IT_number 2
_symmetry_cell_setting 'triclinic'
loop_
_space_group_symop_operation_xyz
x,y,z
-x,-y,-z
loop_
_atom_site_type_symbol
_atom_site_label
_atom_site_fract_x
_atom_site_fract_y
_atom_site_fract_z
Si Si1 0.467429 0.021024 0.325058
Si Si2 0.359150 0.669105 0.302403
Si Si3 0.962706 0.352960 0.543006
Si Si4 0.274809 0.703229 0.519414
Si Si5 0.201146 0.428955 0.095290
Si Si6 0.590028 0.632707 0.951833
Si Si7 0.323259 0.663713 0.843161
Si Si8 0.842393 0.814735 0.423078
O O1 0.601147 0.096636 0.522793
O O2 0.327179 0.218617 0.177620
O O3 0.500000 0.000000 0.500000
O O4 0.427682 0.812880 0.113497
O O5 0.500000 0.500000 0.500000
O O6 0.229934 0.621871 0.142528
O O7 0.352158 0.587710 0.127398
O O8 0.065861 0.220026 0.556759
O O9 0.832824 0.250891 0.319285
O O10 0.904240 0.601093 0.506317
O O11 0.055138 0.375760 0.809027
O O12 0.219645 0.513350 0.285690
O O13 0.424124 0.706991 0.704258
O O14 0.303923 0.655468 0.676294
O O15 0.170111 0.943265 0.442159
O O16 0.620140 0.567652 0.101416
O O17 0.681764 0.800490 0.134146
#
# Coordination Sequence:
#
# PCOD9087564 Si02
#       8
#     2   2   2   2   2   2   2   2
#     4  11  21  38  63  95 124 163 208 256 309 376
#     4  10  19  36  64  92 122 162 208 259 308 364
#     4  10  23  46  64  87 125 175 218 250 299 383
#     4  12  24  38  61  98 131 162 203 265 328 368
#     4  11  23  40  66  90 129 168 210 260 309 370
#     4  11  20  41  64  95 129 159 206 266 324 364
#     4  11  25  40  64  93 133 168 208 252 314 386
#     4  10  23  39  69  92 119 166 217 267 305 366
#
# _framework density 22.640502999999999
#
# number of rings (size 3 to 8) (size 9 to 14) (size 15 to 20)
#    0.000    1.250    5.000    1.500    1.750    4.000 
#    0.000    1.250    0.000    0.000    0.000    0.000 
#    0.000    0.000    0.000    0.000    0.000    0.000 
#
# Total GULP energy -89448.578074 kJ/mol
# GULP energy per Si atom -5590.536130 kJ/mol
# Density = 2.258897 g / cm^3
# Si number density = 22.640503 Si / 1000 Ang^3
#
#
#
# Elastic Constant Matrix: (Units=GPa)
#
#
# Indices 1 2 3 4 5 6 
#
# 1 87.7291 12.7416 17.3681 5.8470 -11.2112 -0.5477
# 2 12.7416 35.8819 -4.1637 -0.8818 1.8607 -9.9682
# 3 17.3681 -4.1637 74.6833 1.7489 1.6200 -5.8697
# 4 5.8470 -0.8818 1.7489 21.6378 3.1150 -3.3084
# 5 -11.2112 1.8607 1.6200 3.1150 36.8084 4.2918
# 6 -0.5477 -9.9682 -5.8697 -3.3084 4.2918 24.9418
#
#
#
# Elastic Compliance Matrix: (Units=1/GPa)
#
#
# Indices 1 2 3 4 5 6 
#
# 1 0.014455 -0.007605 -0.004219 -0.005593 0.006088 -0.005504
# 2 -0.007605 0.036664 0.005207 0.006872 -0.007060 0.017838
# 3 -0.004219 0.005207 0.015187 0.001531 -0.003080 0.006295
# 4 -0.005593 0.006872 0.001531 0.050677 -0.007693 0.011030
# 5 0.006088 -0.007060 -0.003080 -0.007693 0.031311 -0.009821
# 6 -0.005504 0.017838 0.006295 0.011030 -0.009821 0.051736
#
#
# Mechanical properties :
#
#
# Convention : Reuss Voigt Hill
#
# Bulk Modulus (GPa) = 18.84234 27.79848 23.32041
# Shear Modulus (GPa) = 21.64923 28.16747 24.90835
#
# Velocity S-wave (km/s) = 3.09563 3.53103 3.32048
# Velocity P-wave (km/s) = 4.59540 5.37858 5.00234
#
# Compressibility (1/GPa) = 0.05307197
#
# Stress axis : x y z
#
# Youngs Moduli (GPa) = 69.18057 27.27448 65.84514
#
# Poissons Ratio (x) = 0.20742 0.27782
# Poissons Ratio (y) = 0.52610 -0.34285
# Poissons Ratio (z) = 0.29189 -0.14201
#
# Static dielectric constant tensor:
#      x y z
#    x 1.868620 0.027320 -0.007510 
#    y 0.027320 1.869750 -0.002400 
#    z -0.007510 -0.002400 1.847540 
# 
# From -- ./inp_files/203170.got.cif
#   From: 2010.05.17/outbox.cif.g08.bks.cpg/sg2_102_cif.got.tgz:203170.got - 2010.06.03 11:33:40.
