data_PCOD9087048
_publ_section_title
;
Structure prediction by ZEFSAII (Michael W. Deem and Ramdas Pophale) SiO2 
 PCOD9087048
Probable space group: P -1
;
_chemical_formula_sum "Si O2"
_cell_formula_units_Z 16
_cell_length_a 12.603186
_cell_length_b 11.997464
_cell_length_c 7.119021
_cell_angle_alpha 74.421224
_cell_angle_beta 54.599056
_cell_angle_gamma 54.951121
_cell_volume 714.993168
_symmetry_space_group_name_H-M "P -1"
_symmetry_group_IT_number 2
_symmetry_cell_setting 'triclinic'
loop_
_space_group_symop_operation_xyz
x,y,z
-x,-y,-z
loop_
_atom_site_type_symbol
_atom_site_label
_atom_site_fract_x
_atom_site_fract_y
_atom_site_fract_z
Si Si1 0.687380 0.355301 0.520826
Si Si2 0.526316 0.917099 0.319300
Si Si3 0.405313 0.365459 0.707837
Si Si4 0.856696 0.824612 0.061215
Si Si5 0.069712 0.532089 0.130935
Si Si6 0.930467 0.371613 0.504113
Si Si7 0.801478 0.905081 0.528260
Si Si8 0.069496 0.917983 0.770867
O O1 0.540841 0.343155 0.720982
O O2 0.623531 0.508252 0.446086
O O3 0.809145 0.337606 0.561353
O O4 0.784329 0.239263 0.313907
O O5 0.533634 0.775134 0.401707
O O6 0.696939 0.871419 0.107451
O O7 0.500000 0.000000 0.500000
O O8 0.380864 0.010369 0.294638
O O9 0.237296 0.416545 0.938791
O O10 0.824143 0.867601 0.296930
O O11 0.979817 0.661978 0.025151
O O12 0.932692 0.899831 0.854438
O O13 0.106584 0.581519 0.263868
O O14 0.952760 0.483793 0.325800
O O15 0.098879 0.235213 0.401684
O O16 0.874309 0.997518 0.438408
O O17 0.000000 0.000000 0.000000
#
# Coordination Sequence:
#
# PCOD9087048 Si02
#       8
#     2   2   2   2   2   2   2   2
#     4  11  23  39  63  95 120 157 205 251 305 354
#     4  10  20  36  59  88 121 154 196 248 302 351
#     4  11  23  39  63  91 123 154 205 262 294 352
#     4   9  18  33  62  90 109 154 202 249 290 346
#     4  10  21  41  62  88 122 156 205 251 301 359
#     4  10  23  40  62  86 122 165 199 245 304 367
#     4   9  19  38  56  81 125 158 190 239 301 360
#     4  10  19  36  61  90 121 154 200 249 297 355
#
# _framework density 22.377835999999999
#
# number of rings (size 3 to 8) (size 9 to 14) (size 15 to 20)
#    0.000    2.000    2.500    0.750    1.750    3.000 
#    0.000    1.875    0.000    0.000    0.000    0.000 
#    0.000    0.000    0.000    0.000    0.000    0.000 
#
# Total GULP energy -89260.546724 kJ/mol
# GULP energy per Si atom -5578.784170 kJ/mol
# Density = 2.232690 g / cm^3
# Si number density = 22.377836 Si / 1000 Ang^3
#
#
#
# Elastic Constant Matrix: (Units=GPa)
#
#
# Indices 1 2 3 4 5 6 
#
# 1 127.5784 50.9649 57.3119 7.3447 -25.8215 5.6405
# 2 50.9649 123.1460 13.3548 19.2646 -4.8860 7.9267
# 3 57.3119 13.3548 52.8499 17.3555 -17.0219 -1.4313
# 4 7.3447 19.2646 17.3555 33.6677 6.9630 -1.4332
# 5 -25.8215 -4.8860 -17.0219 6.9630 50.4142 7.3791
# 6 5.6405 7.9267 -1.4313 -1.4332 7.3791 29.7050
#
#
#
# Elastic Compliance Matrix: (Units=1/GPa)
#
#
# Indices 1 2 3 4 5 6 
#
# 1 0.022681 -0.008402 -0.026927 0.013573 0.000241 -0.002767
# 2 -0.008402 0.012471 0.010300 -0.011181 0.002269 -0.002339
# 3 -0.026927 0.010300 0.060549 -0.033733 0.012219 0.000619
# 4 0.013573 -0.011181 -0.033733 0.053545 -0.013611 0.004746
# 5 0.000241 0.002269 0.012219 -0.013611 0.027282 -0.007497
# 6 -0.002767 -0.002339 0.000619 0.004746 -0.007497 0.036935
#
#
# Mechanical properties :
#
#
# Convention : Reuss Voigt Hill
#
# Bulk Modulus (GPa) = 21.90995 60.75971 41.33483
# Shear Modulus (GPa) = 17.93807 34.88690 26.41248
#
# Velocity S-wave (km/s) = 2.83433 3.95269 3.43927
# Velocity P-wave (km/s) = 4.53027 6.93126 5.85516
#
# Compressibility (1/GPa) = 0.04564136
#
# Stress axis : x y z
#
# Youngs Moduli (GPa) = 44.08943 80.18897 16.51541
#
# Poissons Ratio (x) = 0.67377 0.44472
# Poissons Ratio (y) = 0.37045 -0.17010
# Poissons Ratio (z) = 1.18722 -0.82593
#
# Static dielectric constant tensor:
#      x y z
#    x 1.866090 0.031800 0.004580 
#    y 0.031800 1.858120 0.047420 
#    z 0.004580 0.047420 1.839820 
# 
# From -- ./inp_files/257903.got.cif
#   From: 2010.05.17/outbox.cif.g08.bks.cpg/sg2_129_cif.got.tgz:257903.got - 2010.06.03 11:33:40.
