data_PCOD9087891
_publ_section_title
;
Structure prediction by ZEFSAII (Michael W. Deem and Ramdas Pophale) SiO2 
 PCOD9087891
Probable space group: P -1
;
_chemical_formula_sum "Si O2"
_cell_formula_units_Z 14
_cell_length_a 7.912607
_cell_length_b 15.772833
_cell_length_c 6.547601
_cell_angle_alpha 131.381827
_cell_angle_beta 122.149573
_cell_angle_gamma 78.925915
_cell_volume 502.449730
_symmetry_space_group_name_H-M "P -1"
_symmetry_group_IT_number 2
_symmetry_cell_setting 'triclinic'
loop_
_space_group_symop_operation_xyz
x,y,z
-x,-y,-z
loop_
_atom_site_type_symbol
_atom_site_label
_atom_site_fract_x
_atom_site_fract_y
_atom_site_fract_z
Si Si1 0.752966 0.909173 0.035953
Si Si2 0.558485 0.687430 0.785285
Si Si3 0.857389 0.270612 0.613739
Si Si4 0.659471 0.465504 0.283576
Si Si5 0.066150 0.417282 0.670241
Si Si6 0.631861 0.116706 0.531739
Si Si7 0.915924 0.152387 0.096998
O O1 0.727895 0.802269 0.010749
O O2 0.585480 0.879619 0.696262
O O3 0.965719 0.924777 0.076540
O O4 0.694909 0.009937 0.290890
O O5 0.347840 0.709902 0.594647
O O6 0.603150 0.577513 0.522761
O O7 0.512038 0.648337 0.929915
O O8 0.032090 0.383132 0.833742
O O9 0.796100 0.233828 0.742330
O O10 0.900901 0.160371 0.343340
O O11 0.869722 0.453381 0.508182
O O12 0.728032 0.494436 0.138965
O O13 0.043039 0.287173 0.357169
O O14 0.682858 0.118743 0.805678
#
# Coordination Sequence:
#
# PCOD9087891 Si02
#       7
#     2   2   2   2   2   2   2
#     4  10  20  36  55  83 111 144 183 223 269 331
#     4   9  15  28  51  81 105 140 186 212 268 325
#     4   8  18  33  53  81 111 138 182 222 263 331
#     4   9  14  26  54  79 104 148 175 222 277 313
#     4   8  16  29  52  85 104 138 191 213 272 331
#     4  10  21  37  58  78 114 146 176 226 278 313
#     4  10  19  37  56  81 114 140 182 228 264 328
#
# _framework density 27.863482000000001
#
# number of rings (size 3 to 8) (size 9 to 14) (size 15 to 20)
#    0.857    2.000    1.429    0.429    0.000    0.571 
#    0.000    9.286    0.000   17.143    0.000    0.000 
#    0.000    0.000    0.000    0.000    0.000    0.000 
#
# Total GULP energy -78277.513959 kJ/mol
# GULP energy per Si atom -5591.250997 kJ/mol
# Density = 2.780006 g / cm^3
# Si number density = 27.863482 Si / 1000 Ang^3
#
#
#
# Elastic Constant Matrix: (Units=GPa)
#
#
# Indices 1 2 3 4 5 6 
#
# 1 82.4672 16.5517 -2.4522 -0.7871 12.4000 -9.2964
# 2 16.5517 65.0095 34.3161 11.1643 3.1960 -7.8179
# 3 -2.4522 34.3161 54.1435 -2.3472 -8.4551 -6.6737
# 4 -0.7871 11.1643 -2.3472 53.1562 -4.7059 -3.4211
# 5 12.4000 3.1960 -8.4551 -4.7059 26.6800 6.8554
# 6 -9.2964 -7.8179 -6.6737 -3.4211 6.8554 43.8766
#
#
#
# Elastic Compliance Matrix: (Units=1/GPa)
#
#
# Indices 1 2 3 4 5 6 
#
# 1 0.014527 -0.004946 0.003387 0.001125 -0.005841 0.003712
# 2 -0.004946 0.029582 -0.020583 -0.007924 -0.009676 0.001986
# 3 0.003387 -0.020583 0.034059 0.007055 0.012726 0.000792
# 4 0.001125 -0.007924 0.007055 0.021399 0.006286 0.000586
# 5 -0.005841 -0.009676 0.012726 0.006286 0.048585 -0.008127
# 6 0.003712 0.001986 0.000792 0.000586 -0.008127 0.025368
#
#
# Mechanical properties :
#
#
# Convention : Reuss Voigt Hill
#
# Bulk Modulus (GPa) = 29.51237 33.16125 31.33681
# Shear Modulus (GPa) = 21.82477 34.95618 28.39047
#
# Velocity S-wave (km/s) = 2.80174 3.54581 3.19551
# Velocity P-wave (km/s) = 4.59142 5.35638 4.98858
#
# Compressibility (1/GPa) = 0.03388410
#
# Stress axis : x y z
#
# Youngs Moduli (GPa) = 68.83747 33.80453 29.36091
#
# Poissons Ratio (x) = 0.16720 -0.09945
# Poissons Ratio (y) = 0.34048 0.60433
# Poissons Ratio (z) = -0.23315 0.69579
#
# Static dielectric constant tensor:
#      x y z
#    x 2.189560 0.030320 0.035380 
#    y 0.030320 2.195550 0.049820 
#    z 0.035380 0.049820 2.124690 
# 
# From -- ./inp_files/406051.got.cif
#   From: 2010.05.17/outbox.cif.g08.bks.cpg/sg2_204_cif.got.tgz:406051.got - 2010.06.03 11:33:40.
