data_PCOD9087451
_publ_section_title
;
Structure prediction by ZEFSAII (Michael W. Deem and Ramdas Pophale) SiO2 
 PCOD9087451
Probable space group: P -1
;
_chemical_formula_sum "Si O2"
_cell_formula_units_Z 16
_cell_length_a 11.144270
_cell_length_b 8.148631
_cell_length_c 19.837122
_cell_angle_alpha 125.819570
_cell_angle_beta 149.799933
_cell_angle_gamma 43.995475
_cell_volume 625.967032
_symmetry_space_group_name_H-M "P -1"
_symmetry_group_IT_number 2
_symmetry_cell_setting 'triclinic'
loop_
_space_group_symop_operation_xyz
x,y,z
-x,-y,-z
loop_
_atom_site_type_symbol
_atom_site_label
_atom_site_fract_x
_atom_site_fract_y
_atom_site_fract_z
Si Si1 0.283673 0.274390 0.110019
Si Si2 0.033711 0.595761 0.698950
Si Si3 0.207182 0.587976 0.916204
Si Si4 0.479362 0.290800 0.601242
Si Si5 0.395899 0.861787 0.143950
Si Si6 0.560091 0.043741 0.398893
Si Si7 0.227720 0.516979 0.280726
Si Si8 0.197246 0.731707 0.672918
O O1 0.328476 0.353867 0.223914
O O2 0.569472 0.197703 0.191698
O O3 0.264501 0.048683 0.064053
O O4 0.000000 0.500000 0.000000
O O5 0.010324 0.722136 0.788688
O O6 0.283542 0.325155 0.764611
O O7 0.125865 0.689483 0.702990
O O8 0.767843 0.593276 0.544813
O O9 0.083834 0.427248 0.841418
O O10 0.500000 0.500000 0.000000
O O11 0.226500 0.725722 0.023632
O O12 0.495085 0.060364 0.584592
O O13 0.736330 0.271162 0.678483
O O14 0.361341 0.479014 0.651582
O O15 0.431316 0.959711 0.255762
O O16 0.903163 0.905664 0.533478
O O17 0.431807 0.323960 0.389291
#
# Coordination Sequence:
#
# PCOD9087451 Si02
#       8
#     2   2   2   2   2   2   2   2
#     4  10  24  36  61  96 128 156 206 268 306 367
#     4  10  19  38  65  85 125 169 204 244 309 378
#     4  10  24  40  59  84 125 177 211 238 300 384
#     4  10  19  36  65  95 124 151 202 274 311 359
#     4  10  20  38  63  88 123 168 204 247 312 369
#     4  10  19  37  65  98 120 153 206 263 324 365
#     4  10  24  37  62  93 122 161 205 267 310 366
#     4  10  19  36  63  94 125 155 200 267 317 361
#
# _framework density 25.560451
#
# number of rings (size 3 to 8) (size 9 to 14) (size 15 to 20)
#    0.000    2.000    2.500    0.750    5.250    6.000 
#    0.000    3.125    5.500    0.000    0.000    0.000 
#    0.000    0.000    0.000    0.000    0.000    0.000 
#
# Total GULP energy -89243.118562 kJ/mol
# GULP energy per Si atom -5577.694910 kJ/mol
# Density = 2.550227 g / cm^3
# Si number density = 25.560451 Si / 1000 Ang^3
#
#
#
# Elastic Constant Matrix: (Units=GPa)
#
#
# Indices 1 2 3 4 5 6 
#
# 1 145.5836 27.9208 43.6624 13.4862 20.1021 22.6412
# 2 27.9208 98.0762 32.1860 -17.1816 10.3740 15.0670
# 3 43.6624 32.1860 107.0228 -3.7639 10.3192 22.4953
# 4 13.4862 -17.1816 -3.7639 38.8790 -0.0929 -7.6481
# 5 20.1021 10.3740 10.3192 -0.0929 59.7658 13.3478
# 6 22.6412 15.0670 22.4953 -7.6481 13.3478 38.1872
#
#
#
# Elastic Compliance Matrix: (Units=1/GPa)
#
#
# Indices 1 2 3 4 5 6 
#
# 1 0.009235 -0.001986 -0.002413 -0.005057 -0.001514 -0.003754
# 2 -0.001986 0.012884 -0.002584 0.005959 -0.000919 -0.000869
# 3 -0.002413 -0.002584 0.012081 -0.000072 0.000238 -0.004764
# 4 -0.005057 0.005959 -0.000072 0.031540 -0.000908 0.007323
# 5 -0.001514 -0.000919 0.000238 -0.000908 0.018601 -0.005563
# 6 -0.003754 -0.000869 -0.004764 0.007323 -0.005563 0.034973
#
#
# Mechanical properties :
#
#
# Convention : Reuss Voigt Hill
#
# Bulk Modulus (GPa) = 49.42038 62.02455 55.72246
# Shear Modulus (GPa) = 35.70804 43.82729 39.76767
#
# Velocity S-wave (km/s) = 3.74171 4.14533 3.94868
# Velocity P-wave (km/s) = 6.16797 6.87242 6.52970
#
# Compressibility (1/GPa) = 0.02023457
#
# Stress axis : x y z
#
# Youngs Moduli (GPa) = 108.28583 77.61437 82.77317
#
# Poissons Ratio (x) = 0.15415 0.19974
# Poissons Ratio (y) = 0.21507 0.21385
# Poissons Ratio (z) = 0.26130 0.20052
#
# Static dielectric constant tensor:
#      x y z
#    x 2.115640 -0.034850 0.057030 
#    y -0.034850 2.176280 0.054010 
#    z 0.057030 0.054010 2.111100 
# 
# From -- ./inp_files/593023.got.cif
#   From: 2010.05.17/outbox.cif.g08.bks.cpg/sg2_297_cif.got.tgz:593023.got - 2010.06.03 11:33:40.
