data_PCOD9087591
_publ_section_title
;
Structure prediction by ZEFSAII (Michael W. Deem and Ramdas Pophale) SiO2 
 PCOD9087591
Probable space group: P -1
;
_chemical_formula_sum "Si O2"
_cell_formula_units_Z 10
_cell_length_a 14.298637
_cell_length_b 5.298567
_cell_length_c 9.952256
_cell_angle_alpha 66.782044
_cell_angle_beta 141.729109
_cell_angle_gamma 111.164794
_cell_volume 427.430093
_symmetry_space_group_name_H-M "P -1"
_symmetry_group_IT_number 2
_symmetry_cell_setting 'triclinic'
loop_
_space_group_symop_operation_xyz
x,y,z
-x,-y,-z
loop_
_atom_site_type_symbol
_atom_site_label
_atom_site_fract_x
_atom_site_fract_y
_atom_site_fract_z
Si Si1 0.439711 0.296642 0.356766
Si Si2 0.319610 0.955896 0.783388
Si Si3 0.073573 0.807031 0.735057
Si Si4 0.917601 0.819817 0.065040
Si Si5 0.621474 0.455443 0.262713
O O1 0.500000 0.500000 0.500000
O O2 0.520704 0.402964 0.289729
O O3 0.500000 0.000000 0.500000
O O4 0.258645 0.255153 0.156413
O O5 0.240147 0.805525 0.852700
O O6 0.291385 0.790817 0.647957
O O7 0.272840 0.265188 0.656235
O O8 0.500000 0.000000 0.000000
O O9 0.024214 0.482820 0.775012
O O10 0.077491 0.985054 0.838401
O O11 0.000000 0.000000 0.500000
O O12 0.000000 0.000000 0.000000
O O13 0.500000 0.500000 0.000000
#
# Coordination Sequence:
#
# PCOD9087591 Si02
#       5
#     2   2   2   2   2
#     4  12  26  45  71 105 142 187 239 292 356 432
#     4  10  19  36  64  95 127 165 217 284 343 395
#     4  12  26  46  73 106 141 189 244 296 355 431
#     4  12  27  50  71 103 151 195 235 296 363 431
#     4  10  20  37  64  95 127 168 219 284 344 399
#
# _framework density 23.39564
#
# number of rings (size 3 to 8) (size 9 to 14) (size 15 to 20)
#    0.000    0.800    0.000    9.600    0.000    4.800 
#    0.000    0.000    0.000    0.000    0.000    0.000 
#    0.000    0.000    0.000    0.000    0.000    0.000 
#
# Total GULP energy -55906.067599 kJ/mol
# GULP energy per Si atom -5590.606760 kJ/mol
# Density = 2.334239 g / cm^3
# Si number density = 23.395640 Si / 1000 Ang^3
#
#
#
# Elastic Constant Matrix: (Units=GPa)
#
#
# Indices 1 2 3 4 5 6 
#
# 1 194.5425 118.5503 76.3895 8.9157 -51.6104 7.9698
# 2 118.5503 244.7652 75.7656 -2.7798 -22.2015 -15.7081
# 3 76.3895 75.7656 112.9229 -3.5453 -16.7192 -3.5671
# 4 8.9157 -2.7798 -3.5453 41.3307 -10.8731 -13.5261
# 5 -51.6104 -22.2015 -16.7192 -10.8731 54.6287 -3.6018
# 6 7.9698 -15.7081 -3.5671 -13.5261 -3.6018 69.0740
#
#
#
# Elastic Compliance Matrix: (Units=1/GPa)
#
#
# Indices 1 2 3 4 5 6 
#
# 1 0.011022 -0.003578 -0.004121 -0.001829 0.007183 -0.002282
# 2 -0.003578 0.006488 -0.001959 0.001461 -0.000919 0.002025
# 3 -0.004121 -0.001959 0.013034 0.002193 -0.000190 0.001123
# 4 -0.001829 0.001461 0.002193 0.028497 0.005640 0.006531
# 5 0.007183 -0.000919 -0.000190 0.005640 0.025875 0.001406
# 6 -0.002282 0.002025 0.001123 0.006531 0.001406 0.016611
#
#
# Mechanical properties :
#
#
# Convention : Reuss Voigt Hill
#
# Bulk Modulus (GPa) = 89.06777 121.51573 105.29175
# Shear Modulus (GPa) = 40.13264 51.77502 45.95383
#
# Velocity S-wave (km/s) = 4.14622 4.70938 4.43674
# Velocity P-wave (km/s) = 7.81501 9.03456 8.44682
#
# Compressibility (1/GPa) = 0.01122741
#
# Stress axis : x y z
#
# Youngs Moduli (GPa) = 90.72771 154.12348 76.72314
#
# Poissons Ratio (x) = 0.55152 0.31619
# Poissons Ratio (y) = 0.32466 0.15028
# Poissons Ratio (z) = 0.37390 0.30190
#
# Static dielectric constant tensor:
#      x y z
#    x 2.011400 -0.055500 0.111310 
#    y -0.055500 1.940820 -0.101550 
#    z 0.111310 -0.101550 1.768010 
# 
# From -- ./inp_files/22873.got.cif
#   From: 2010.05.17/outbox.cif.g08.bks.cpg/sg2_12_cif.got.tgz:22873.got - 2010.06.03 11:33:40.
