data_PCOD9087747
_publ_section_title
;
Structure prediction by ZEFSAII (Michael W. Deem and Ramdas Pophale) SiO2 
 PCOD9087747
Probable space group: P -1
;
_chemical_formula_sum "Si O2"
_cell_formula_units_Z 16
_cell_length_a 7.269878
_cell_length_b 9.156543
_cell_length_c 11.642355
_cell_angle_alpha 61.773738
_cell_angle_beta 87.257026
_cell_angle_gamma 79.325137
_cell_volume 670.314078
_symmetry_space_group_name_H-M "P -1"
_symmetry_group_IT_number 2
_symmetry_cell_setting 'triclinic'
loop_
_space_group_symop_operation_xyz
x,y,z
-x,-y,-z
loop_
_atom_site_type_symbol
_atom_site_label
_atom_site_fract_x
_atom_site_fract_y
_atom_site_fract_z
Si Si1 0.962350 0.387646 0.934336
Si Si2 0.194421 0.328309 0.313192
Si Si3 0.903058 0.037617 0.160676
Si Si4 0.706605 0.532191 0.509018
Si Si5 0.696301 0.200577 0.747713
Si Si6 0.124236 0.843434 0.621802
Si Si7 0.290171 0.265067 0.794255
Si Si8 0.619994 0.043636 0.584292
O O1 0.155106 0.334353 0.877835
O O2 0.801637 0.504981 0.820374
O O3 0.000000 0.500000 0.000000
O O4 0.893813 0.216345 0.033528
O O5 0.269023 0.341203 0.434491
O O6 0.976770 0.313366 0.322209
O O7 0.275542 0.148710 0.319743
O O8 0.119069 0.936891 0.177011
O O9 0.767224 0.916114 0.164898
O O10 0.854509 0.086917 0.277747
O O11 0.500000 0.500000 0.500000
O O12 0.787923 0.350975 0.632227
O O13 0.767672 0.613339 0.360744
O O14 0.514381 0.256480 0.813862
O O15 0.583259 0.123166 0.678657
O O16 0.294068 0.813444 0.540666
O O17 0.000000 0.000000 0.500000
O O18 0.500000 0.000000 0.500000
#
# Coordination Sequence:
#
# PCOD9087747 Si02
#       8
#     2   2   2   2   2   2   2   2
#     4  12  26  46  69  99 139 194 244 279 338 429
#     4  11  22  43  67 100 139 181 230 284 350 415
#     4  12  23  45  71  99 141 191 241 280 344 423
#     4  10  23  41  67 106 141 170 221 295 365 414
#     4  11  23  42  67 103 138 175 231 295 351 415
#     4  10  19  36  67 101 131 179 224 283 351 407
#     4  11  26  44  70 102 140 182 236 294 357 418
#     4  11  21  37  68 103 139 174 226 290 359 418
#
# _framework density 23.869409000000001
#
# number of rings (size 3 to 8) (size 9 to 14) (size 15 to 20)
#    0.000    1.000    3.750    4.875    1.750    1.500 
#    0.000    1.250    0.000    9.000    0.000    0.000 
#    0.000    0.000    0.000    0.000    0.000    0.000 
#
# Total GULP energy -89211.116170 kJ/mol
# GULP energy per Si atom -5575.694761 kJ/mol
# Density = 2.381508 g / cm^3
# Si number density = 23.869409 Si / 1000 Ang^3
#
#
#
# Elastic Constant Matrix: (Units=GPa)
#
#
# Indices 1 2 3 4 5 6 
#
# 1 62.0859 23.4592 13.4907 -2.4309 -14.7223 5.9526
# 2 23.4592 139.2196 45.4783 -8.1369 -17.6336 2.9995
# 3 13.4907 45.4783 114.9550 -22.6625 -19.9184 -9.3012
# 4 -2.4309 -8.1369 -22.6625 60.5308 -0.9277 -0.6114
# 5 -14.7223 -17.6336 -19.9184 -0.9277 29.4138 0.8264
# 6 5.9526 2.9995 -9.3012 -0.6114 0.8264 34.6399
#
#
#
# Elastic Compliance Matrix: (Units=1/GPa)
#
#
# Indices 1 2 3 4 5 6 
#
# 1 0.019247 -0.002018 -0.000169 0.000534 0.008421 -0.003369
# 2 -0.002018 0.008806 -0.002944 0.000023 0.002312 -0.001261
# 3 -0.000169 -0.002944 0.012111 0.004265 0.006389 0.003459
# 4 0.000534 0.000023 0.004265 0.018212 0.003707 0.001284
# 5 0.008421 0.002312 0.006389 0.003707 0.044068 -0.000918
# 6 -0.003369 -0.001261 0.003459 0.001284 -0.000918 0.030530
#
#
# Mechanical properties :
#
#
# Convention : Reuss Voigt Hill
#
# Bulk Modulus (GPa) = 33.44140 53.45744 43.44942
# Shear Modulus (GPa) = 32.63676 40.50571 36.57124
#
# Velocity S-wave (km/s) = 3.70172 4.12390 3.91850
# Velocity P-wave (km/s) = 5.68427 6.71713 6.22217
#
# Compressibility (1/GPa) = 0.02990305
#
# Stress axis : x y z
#
# Youngs Moduli (GPa) = 51.95741 113.56042 82.56788
#
# Poissons Ratio (x) = 0.22912 0.01394
# Poissons Ratio (y) = 0.10483 0.24307
# Poissons Ratio (z) = 0.00877 0.33430
#
# Static dielectric constant tensor:
#      x y z
#    x 1.601470 -0.131510 0.224740 
#    y -0.131510 1.884740 -0.020410 
#    z 0.224740 -0.020410 1.842570 
# 
# From -- ./inp_files/377974.got.cif
#   From: 2010.05.17/outbox.cif.g08.bks.cpg/sg2_189_cif.got.tgz:377974.got - 2010.06.03 11:33:40.
