data_PCOD9087056
_publ_section_title
;
Structure prediction by ZEFSAII (Michael W. Deem and Ramdas Pophale) SiO2 
 PCOD9087056
Probable space group: P -1
;
_chemical_formula_sum "Si O2"
_cell_formula_units_Z 14
_cell_length_a 12.198105
_cell_length_b 8.630346
_cell_length_c 7.355512
_cell_angle_alpha 117.711140
_cell_angle_beta 104.470411
_cell_angle_gamma 60.067132
_cell_volume 593.925598
_symmetry_space_group_name_H-M "P -1"
_symmetry_group_IT_number 2
_symmetry_cell_setting 'triclinic'
loop_
_space_group_symop_operation_xyz
x,y,z
-x,-y,-z
loop_
_atom_site_type_symbol
_atom_site_label
_atom_site_fract_x
_atom_site_fract_y
_atom_site_fract_z
Si Si1 0.020649 0.155642 0.467849
Si Si2 0.009564 0.447987 0.185119
Si Si3 0.234232 0.016698 0.062945
Si Si4 0.547113 0.904753 0.772383
Si Si5 0.716627 0.054917 0.397334
Si Si6 0.356976 0.527886 0.472827
Si Si7 0.821859 0.313964 0.179578
O O1 0.962125 0.386599 0.617557
O O2 0.943433 0.161490 0.260719
O O3 0.169084 0.094516 0.516763
O O4 0.000000 0.000000 0.500000
O O5 0.876575 0.447578 0.180457
O O6 0.119421 0.231719 0.152144
O O7 0.000000 0.500000 0.000000
O O8 0.255529 0.987101 0.833292
O O9 0.213692 0.834577 0.027372
O O10 0.359266 0.008356 0.203421
O O11 0.421361 0.936177 0.628125
O O12 0.634321 0.672711 0.707509
O O13 0.500000 0.000000 0.000000
O O14 0.716382 0.264814 0.542541
O O15 0.500000 0.500000 0.500000
O O16 0.295052 0.564043 0.667558
#
# Coordination Sequence:
#
# PCOD9087056 Si02
#       7
#     2   2   2   2   2   2   2
#     4  12  21  38  61  94 133 163 210 263 319 387
#     4  12  24  40  63  92 129 174 215 270 316 370
#     4  10  19  36  61  90 125 162 212 262 316 374
#     4   9  18  32  58  95 122 167 211 252 314 385
#     4   9  18  34  57  92 124 167 207 254 313 386
#     4   9  17  34  60  90 125 168 207 254 317 383
#     4  11  23  39  62  97 131 168 215 258 321 388
#
# _framework density 23.571975999999999
#
# number of rings (size 3 to 8) (size 9 to 14) (size 15 to 20)
#    0.000    1.714    4.286    2.571    0.000    0.000 
#    0.000    0.000    0.000    8.571    0.000    0.000 
#    0.000    0.000    0.000    0.000    0.000    0.000 
#
# Total GULP energy -78151.155412 kJ/mol
# GULP energy per Si atom -5582.225387 kJ/mol
# Density = 2.351833 g / cm^3
# Si number density = 23.571976 Si / 1000 Ang^3
#
#
#
# Elastic Constant Matrix: (Units=GPa)
#
#
# Indices 1 2 3 4 5 6 
#
# 1 184.7120 37.8715 45.5576 8.5098 11.1801 15.6067
# 2 37.8715 71.6227 40.4239 23.3685 -0.8126 2.8610
# 3 45.5576 40.4239 76.1878 30.5338 11.3693 8.5776
# 4 8.5098 23.3685 30.5338 51.2118 5.7651 2.8244
# 5 11.1801 -0.8126 11.3693 5.7651 45.2810 9.4292
# 6 15.6067 2.8610 8.5776 2.8244 9.4292 45.3449
#
#
#
# Elastic Compliance Matrix: (Units=1/GPa)
#
#
# Indices 1 2 3 4 5 6 
#
# 1 0.006809 -0.002327 -0.003397 0.002133 -0.000826 -0.001515
# 2 -0.002327 0.021757 -0.008892 -0.004687 0.003661 0.000641
# 3 -0.003397 -0.008892 0.024396 -0.009398 -0.003942 -0.001480
# 4 0.002133 -0.004687 -0.009398 0.027106 -0.001703 0.000005
# 5 -0.000826 0.003661 -0.003942 -0.001703 0.024430 -0.004175
# 6 -0.001515 0.000641 -0.001480 0.000005 -0.004175 0.023682
#
#
# Mechanical properties :
#
#
# Convention : Reuss Voigt Hill
#
# Bulk Modulus (GPa) = 42.14488 64.46984 53.30736
# Shear Modulus (GPa) = 30.24395 42.27883 36.26139
#
# Velocity S-wave (km/s) = 3.58585 4.23969 3.92641
# Velocity P-wave (km/s) = 5.92136 7.16772 6.57414
#
# Compressibility (1/GPa) = 0.02372767
#
# Stress axis : x y z
#
# Youngs Moduli (GPa) = 146.87086 45.96325 40.98980
#
# Poissons Ratio (x) = 0.10698 0.13926
# Poissons Ratio (y) = 0.34183 0.36449
# Poissons Ratio (z) = 0.49898 0.40871
#
# Static dielectric constant tensor:
#      x y z
#    x 2.103180 0.110910 0.071360 
#    y 0.110910 1.932710 0.110390 
#    z 0.071360 0.110390 2.053080 
# 
# From -- ./inp_files/221345.got.cif
#   From: 2010.05.17/outbox.cif.g08.bks.cpg/sg2_111_cif.got.tgz:221345.got - 2010.06.03 11:33:40.
