data_PCOD9087412
_publ_section_title
;
Structure prediction by ZEFSAII (Michael W. Deem and Ramdas Pophale) SiO2 
 PCOD9087412
Probable space group: P -1
;
_chemical_formula_sum "Si O2"
_cell_formula_units_Z 16
_cell_length_a 9.903529
_cell_length_b 14.962859
_cell_length_c 15.065379
_cell_angle_alpha 153.456524
_cell_angle_beta 66.036437
_cell_angle_gamma 125.620455
_cell_volume 769.359180
_symmetry_space_group_name_H-M "P -1"
_symmetry_group_IT_number 2
_symmetry_cell_setting 'triclinic'
loop_
_space_group_symop_operation_xyz
x,y,z
-x,-y,-z
loop_
_atom_site_type_symbol
_atom_site_label
_atom_site_fract_x
_atom_site_fract_y
_atom_site_fract_z
Si Si1 0.843615 0.542517 0.560578
Si Si2 0.282814 0.159829 0.624898
Si Si3 0.065950 0.536249 0.712875
Si Si4 0.982707 0.722796 0.211470
Si Si5 0.796341 0.104060 0.859057
Si Si6 0.033266 0.963949 0.095564
Si Si7 0.528712 0.148697 0.407423
Si Si8 0.753162 0.993937 0.305620
O O1 0.809410 0.469271 0.399782
O O2 0.906185 0.817003 0.790727
O O3 0.683632 0.375830 0.518014
O O4 0.000000 0.500000 0.500000
O O5 0.443225 0.211028 0.566260
O O6 0.210631 0.329052 0.773683
O O7 0.116405 0.903174 0.409561
O O8 0.312845 0.143768 0.706387
O O9 0.900050 0.271931 0.532426
O O10 0.153747 0.654541 0.888638
O O11 0.009847 0.717329 0.854554
O O12 0.055683 0.851695 0.211709
O O13 0.000000 0.500000 0.000000
O O14 0.811678 0.951927 0.797507
O O15 0.621443 0.994391 0.752634
O O16 0.857562 0.910794 0.143923
O O17 0.603456 0.997784 0.293947
#
# Coordination Sequence:
#
# PCOD9087412 Si02
#       8
#     2   2   2   2   2   2   2   2
#     4  11  21  40  62  89 123 160 208 253 308 364
#     4  10  21  36  61  90 126 162 197 248 312 354
#     4   9  20  38  65  86 112 169 205 241 301 370
#     4  10  19  36  63  91 122 163 202 246 295 378
#     4   9  20  40  59  90 122 152 209 251 303 353
#     4   9  20  39  64  86 114 167 208 249 296 373
#     4  11  23  38  59  97 128 154 206 264 298 356
#     4  11  19  40  66  88 123 165 203 245 310 374
#
# _framework density 20.796527000000001
#
# number of rings (size 3 to 8) (size 9 to 14) (size 15 to 20)
#    0.750    1.250    3.750    1.125    0.000    1.500 
#    0.000    5.000    0.000    6.000    0.000    0.000 
#    0.000    0.000    0.000    0.000    0.000    0.000 
#
# Total GULP energy -89235.357824 kJ/mol
# GULP energy per Si atom -5577.209864 kJ/mol
# Density = 2.074919 g / cm^3
# Si number density = 20.796527 Si / 1000 Ang^3
#
#
#
# Elastic Constant Matrix: (Units=GPa)
#
#
# Indices 1 2 3 4 5 6 
#
# 1 106.0758 35.4564 21.4308 -7.9893 -11.9706 6.7303
# 2 35.4564 72.0486 12.9419 -15.2761 -1.9996 14.8234
# 3 21.4308 12.9419 80.1805 -10.2768 -25.1612 6.9493
# 4 -7.9893 -15.2761 -10.2768 21.4627 -6.8534 -4.8175
# 5 -11.9706 -1.9996 -25.1612 -6.8534 31.6870 -2.6547
# 6 6.7303 14.8234 6.9493 -4.8175 -2.6547 31.1914
#
#
#
# Elastic Compliance Matrix: (Units=1/GPa)
#
#
# Indices 1 2 3 4 5 6 
#
# 1 0.011932 -0.005438 -0.001023 0.001447 0.003731 0.000779
# 2 -0.005438 0.020379 0.000921 0.012064 0.002013 -0.006682
# 3 -0.001023 0.000921 0.021010 0.016535 0.019876 -0.000652
# 4 0.001447 0.012064 0.016535 0.074498 0.030920 0.004408
# 5 0.003731 0.002013 0.019876 0.030920 0.055845 0.003339
# 6 0.000779 -0.006682 -0.000652 0.004408 0.003339 0.036178
#
#
# Mechanical properties :
#
#
# Convention : Reuss Voigt Hill
#
# Bulk Modulus (GPa) = 23.67355 44.21812 33.94584
# Shear Modulus (GPa) = 20.40801 29.43327 24.92064
#
# Velocity S-wave (km/s) = 3.13600 3.76613 3.46541
# Velocity P-wave (km/s) = 4.95185 6.34193 5.68950
#
# Compressibility (1/GPa) = 0.04224123
#
# Stress axis : x y z
#
# Youngs Moduli (GPa) = 83.80690 49.07061 47.59702
#
# Poissons Ratio (x) = 0.26685 0.04868
# Poissons Ratio (y) = 0.45575 -0.04384
# Poissons Ratio (z) = 0.08571 -0.04520
#
# Static dielectric constant tensor:
#      x y z
#    x 1.764500 -0.044750 0.016590 
#    y -0.044750 1.749590 -0.023130 
#    z 0.016590 -0.023130 1.779780 
# 
# From -- ./inp_files/504616.got.cif
#   From: 2010.05.17/outbox.cif.g08.bks.cpg/sg2_253_cif.got.tgz:504616.got - 2010.06.03 11:33:40.
