data_PCOD9087685
_publ_section_title
;
Structure prediction by ZEFSAII (Michael W. Deem and Ramdas Pophale) SiO2 
 PCOD9087685
Probable space group: P -1
;
_chemical_formula_sum "Si O2"
_cell_formula_units_Z 12
_cell_length_a 9.853935
_cell_length_b 9.304595
_cell_length_c 9.623089
_cell_angle_alpha 109.127859
_cell_angle_beta 43.686811
_cell_angle_gamma 122.232603
_cell_volume 512.960507
_symmetry_space_group_name_H-M "P -1"
_symmetry_group_IT_number 2
_symmetry_cell_setting 'triclinic'
loop_
_space_group_symop_operation_xyz
x,y,z
-x,-y,-z
loop_
_atom_site_type_symbol
_atom_site_label
_atom_site_fract_x
_atom_site_fract_y
_atom_site_fract_z
Si Si1 0.783433 0.997558 0.093649
Si Si2 0.369207 0.112046 0.114779
Si Si3 0.591370 0.499191 0.085284
Si Si4 0.537702 0.758187 0.422249
Si Si5 0.944590 0.457927 0.189479
Si Si6 0.963141 0.804339 0.277668
O O1 0.616294 0.926264 0.321736
O O2 0.656899 0.863311 0.022473
O O3 0.000000 0.000000 0.000000
O O4 0.895793 0.162746 0.962622
O O5 0.485558 0.300238 0.150572
O O6 0.121709 0.976739 0.294846
O O7 0.500000 0.000000 0.000000
O O8 0.541418 0.611845 0.270908
O O9 0.500000 0.500000 0.000000
O O10 0.854938 0.566750 0.902787
O O11 0.727274 0.789350 0.405475
O O12 0.297185 0.690830 0.644790
O O13 0.946772 0.632868 0.301262
O O14 0.000000 0.500000 0.000000
#
# Coordination Sequence:
#
# PCOD9087685 Si02
#       6
#     2   2   2   2   2   2
#     4   8  17  36  65  86 125 169 206 261 316 376
#     4  10  19  36  65  94 133 170 205 264 329 384
#     4  12  23  40  67  98 136 170 207 274 334 383
#     4  11  22  41  70  96 126 172 225 266 320 388
#     4  12  25  41  68  96 128 173 227 269 316 386
#     4   9  19  39  67  88 127 169 214 268 313 382
#
# _framework density 23.393615
#
# number of rings (size 3 to 8) (size 9 to 14) (size 15 to 20)
#    1.000    0.667    5.000    0.500    0.000    0.667 
#    0.000    1.667    3.667    0.000    0.000    0.000 
#    0.000    0.000    0.000    0.000    0.000    0.000 
#
# Total GULP energy -66877.221001 kJ/mol
# GULP energy per Si atom -5573.101750 kJ/mol
# Density = 2.334037 g / cm^3
# Si number density = 23.393615 Si / 1000 Ang^3
#
#
#
# Elastic Constant Matrix: (Units=GPa)
#
#
# Indices 1 2 3 4 5 6 
#
# 1 92.9621 15.4287 58.3876 -11.5184 -23.8190 17.0264
# 2 15.4287 122.4817 51.2252 -25.6112 -12.8144 -7.8705
# 3 58.3876 51.2252 185.5021 -36.2008 -16.3900 8.4236
# 4 -11.5184 -25.6112 -36.2008 37.2243 5.1624 -2.1631
# 5 -23.8190 -12.8144 -16.3900 5.1624 18.3827 -19.3654
# 6 17.0264 -7.8705 8.4236 -2.1631 -19.3654 31.5220
#
#
#
# Elastic Compliance Matrix: (Units=1/GPa)
#
#
# Indices 1 2 3 4 5 6 
#
# 1 0.022656 0.006924 -0.005135 0.000447 0.056367 0.025523
# 2 0.006924 0.017569 -0.002644 0.006219 0.053827 0.034848
# 3 -0.005135 -0.002644 0.008396 0.005437 -0.006467 -0.003730
# 4 0.000447 0.006219 0.005437 0.036096 0.005913 0.005968
# 5 0.056367 0.053827 -0.006467 0.005913 0.402097 0.232154
# 6 0.025523 0.034848 -0.003730 0.005968 0.232154 0.170668
#
#
# Mechanical properties :
#
#
# Convention : Reuss Voigt Hill
#
# Bulk Modulus (GPa) = 21.31604 72.33656 46.82630
# Shear Modulus (GPa) = 7.40928 35.81943 21.61435
#
# Velocity S-wave (km/s) = 1.78160 3.91725 3.04294
# Velocity P-wave (km/s) = 3.65566 7.17276 5.69264
#
# Compressibility (1/GPa) = 0.04691303
#
# Stress axis : x y z
#
# Youngs Moduli (GPa) = 44.13824 56.91713 119.10150
#
# Poissons Ratio (x) = -0.39412 0.61155
# Poissons Ratio (y) = -0.30563 0.31491
# Poissons Ratio (z) = 0.22664 0.15049
#
# Static dielectric constant tensor:
#      x y z
#    x 1.841490 0.001360 0.017530 
#    y 0.001360 1.978050 0.015560 
#    z 0.017530 0.015560 1.879910 
# 
# From -- ./inp_files/423989.got.cif
#   From: 2010.05.17/outbox.cif.g08.bks.cpg/sg2_212_cif.got.tgz:423989.got - 2010.06.03 11:33:40.
