data_PCOD9087643
_publ_section_title
;
Structure prediction by ZEFSAII (Michael W. Deem and Ramdas Pophale) SiO2 
 PCOD9087643
Probable space group: P -1
;
_chemical_formula_sum "Si O2"
_cell_formula_units_Z 12
_cell_length_a 14.089337
_cell_length_b 13.512453
_cell_length_c 7.965045
_cell_angle_alpha 138.193295
_cell_angle_beta 141.817867
_cell_angle_gamma 29.957293
_cell_volume 457.796022
_symmetry_space_group_name_H-M "P -1"
_symmetry_group_IT_number 2
_symmetry_cell_setting 'triclinic'
loop_
_space_group_symop_operation_xyz
x,y,z
-x,-y,-z
loop_
_atom_site_type_symbol
_atom_site_label
_atom_site_fract_x
_atom_site_fract_y
_atom_site_fract_z
Si Si1 0.467094 0.810248 0.076478
Si Si2 0.373478 0.543338 0.545857
Si Si3 0.666717 0.628208 0.452916
Si Si4 0.953017 0.199646 0.143658
Si Si5 0.901061 0.609487 0.319231
Si Si6 0.970704 0.850969 0.206947
O O1 0.540350 0.801705 0.356412
O O2 0.675059 0.684962 0.093718
O O3 0.382178 0.698528 0.841723
O O4 0.275388 0.019324 0.985787
O O5 0.500000 0.500000 0.500000
O O6 0.454280 0.355226 0.534101
O O7 0.134004 0.662374 0.316090
O O8 0.750783 0.419060 0.214085
O O9 0.892968 0.554232 0.714090
O O10 0.128391 0.193504 0.459150
O O11 0.950381 0.213846 0.957018
O O12 0.000000 0.000000 0.000000
O O13 0.000000 0.500000 0.500000
O O14 0.000000 0.000000 0.500000
#
# Coordination Sequence:
#
# PCOD9087643 Si02
#       6
#     2   2   2   2   2   2
#     4  10  19  39  62  87 122 163 205 258 297 370
#     4  11  22  36  60  88 124 165 206 251 317 368
#     4   9  20  39  62  87 117 161 217 247 296 371
#     4  10  19  36  65  88 122 161 213 254 296 363
#     4   8  19  37  65  88 122 159 212 255 301 355
#     4  10  22  35  56  91 131 155 200 255 317 357
#
# _framework density 26.212547000000001
#
# number of rings (size 3 to 8) (size 9 to 14) (size 15 to 20)
#    1.000    1.333    0.000    3.500    0.000    2.000 
#    0.000    1.667    0.000    0.000    0.000    0.000 
#    0.000    0.000    0.000    0.000    0.000    0.000 
#
# Total GULP energy -66957.780957 kJ/mol
# GULP energy per Si atom -5579.815080 kJ/mol
# Density = 2.615289 g / cm^3
# Si number density = 26.212547 Si / 1000 Ang^3
#
#
#
# Elastic Constant Matrix: (Units=GPa)
#
#
# Indices 1 2 3 4 5 6 
#
# 1 87.9654 11.6865 21.3921 -14.9560 19.1515 -6.2605
# 2 11.6865 110.4768 48.6962 -18.0922 19.8694 4.9811
# 3 21.3921 48.6962 131.6249 -26.0920 27.3281 -3.5221
# 4 -14.9560 -18.0922 -26.0920 55.1836 -8.2060 4.5606
# 5 19.1515 19.8694 27.3281 -8.2060 32.8634 3.5133
# 6 -6.2605 4.9811 -3.5221 4.5606 3.5133 33.1786
#
#
#
# Elastic Compliance Matrix: (Units=1/GPa)
#
#
# Indices 1 2 3 4 5 6 
#
# 1 0.013665 0.000263 -0.000176 0.002308 -0.007722 0.003021
# 2 0.000263 0.011508 -0.003182 0.001933 -0.003781 -0.001881
# 3 -0.000176 -0.003182 0.010753 0.002888 -0.006393 0.001866
# 4 0.002308 0.001933 0.002888 0.021043 0.000607 -0.002505
# 5 -0.007722 -0.003781 -0.006393 0.000607 0.043350 -0.006242
# 6 0.003021 -0.001881 0.001866 -0.002505 -0.006242 0.032196
#
#
# Mechanical properties :
#
#
# Convention : Reuss Voigt Hill
#
# Bulk Modulus (GPa) = 33.63157 54.84632 44.23894
# Shear Modulus (GPa) = 33.64316 40.79795 37.22056
#
# Velocity S-wave (km/s) = 3.58645 3.94944 3.77231
# Velocity P-wave (km/s) = 5.47799 6.46270 5.99061
#
# Compressibility (1/GPa) = 0.02973397
#
# Stress axis : x y z
#
# Youngs Moduli (GPa) = 73.18108 86.89648 92.99487
#
# Poissons Ratio (x) = -0.02285 0.01641
# Poissons Ratio (y) = -0.01924 0.29595
# Poissons Ratio (z) = 0.01291 0.27655
#
# Static dielectric constant tensor:
#      x y z
#    x 2.093080 -0.042850 0.000710 
#    y -0.042850 2.092020 0.034570 
#    z 0.000710 0.034570 2.183080 
# 
# From -- ./inp_files/310435.got.cif
#   From: 2010.05.17/outbox.cif.g08.bks.cpg/sg2_156_cif.got.tgz:310435.got - 2010.06.03 11:33:40.
