data_PCOD9087550
_publ_section_title
;
Structure prediction by ZEFSAII (Michael W. Deem and Ramdas Pophale) SiO2 
 PCOD9087550
Probable space group: P -1
;
_chemical_formula_sum "Si O2"
_cell_formula_units_Z 14
_cell_length_a 9.859006
_cell_length_b 12.365441
_cell_length_c 8.742450
_cell_angle_alpha 98.875174
_cell_angle_beta 60.992370
_cell_angle_gamma 60.303737
_cell_volume 691.944213
_symmetry_space_group_name_H-M "P -1"
_symmetry_group_IT_number 2
_symmetry_cell_setting 'triclinic'
loop_
_space_group_symop_operation_xyz
x,y,z
-x,-y,-z
loop_
_atom_site_type_symbol
_atom_site_label
_atom_site_fract_x
_atom_site_fract_y
_atom_site_fract_z
Si Si1 0.029714 0.687127 0.180856
Si Si2 0.621774 0.809543 0.333115
Si Si3 0.901922 0.165417 0.568386
Si Si4 0.910985 0.554381 0.728865
Si Si5 0.589261 0.616346 0.116578
Si Si6 0.482643 0.054704 0.260403
Si Si7 0.843175 0.825119 0.801771
O O1 0.029468 0.784806 0.322512
O O2 0.325617 0.371721 0.088102
O O3 0.831522 0.784600 0.203528
O O4 0.265921 0.557138 0.971603
O O5 0.649799 0.675915 0.225287
O O6 0.981151 0.590274 0.262506
O O7 0.536847 0.858041 0.562757
O O8 0.653853 0.283023 0.730156
O O9 0.985857 0.178574 0.368334
O O10 0.000000 0.000000 0.500000
O O11 0.932010 0.670884 0.788093
O O12 0.000000 0.500000 0.500000
O O13 0.471809 0.940215 0.322643
O O14 0.302289 0.148234 0.254409
O O15 0.692631 0.959168 0.027530
#
# Coordination Sequence:
#
# PCOD9087550 Si02
#       7
#     2   2   2   2   2   2   2
#     4  10  22  38  65  91 123 164 206 253 306 377
#     4  11  19  39  63  96 122 161 212 256 313 369
#     4  12  24  39  60  95 130 169 201 256 318 377
#     4  10  19  36  64  91 118 158 218 256 298 358
#     4  10  23  37  62  94 122 164 201 258 319 362
#     4  10  21  32  65  90 126 156 210 262 299 355
#     4  11  20  40  60  97 120 167 212 261 296 374
#
# _framework density 20.232844
#
# number of rings (size 3 to 8) (size 9 to 14) (size 15 to 20)
#    0.857    0.571    4.286    1.714    4.000    0.000 
#    0.000    0.714    0.000    1.714    0.000    0.000 
#    0.000    0.000    0.000    0.000    0.000    0.000 
#
# Total GULP energy -77973.236112 kJ/mol
# GULP energy per Si atom -5569.516865 kJ/mol
# Density = 2.018679 g / cm^3
# Si number density = 20.232844 Si / 1000 Ang^3
#
#
#
# Elastic Constant Matrix: (Units=GPa)
#
#
# Indices 1 2 3 4 5 6 
#
# 1 85.4937 19.9532 47.2722 8.5888 -7.5477 -0.2996
# 2 19.9532 70.5344 19.9619 17.4236 -1.6316 8.9696
# 3 47.2722 19.9619 161.7387 12.6785 -12.6926 4.6870
# 4 8.5888 17.4236 12.6785 39.7121 4.4188 2.6267
# 5 -7.5477 -1.6316 -12.6926 4.4188 42.9671 -2.0299
# 6 -0.2996 8.9696 4.6870 2.6267 -2.0299 21.3469
#
#
#
# Elastic Compliance Matrix: (Units=1/GPa)
#
#
# Indices 1 2 3 4 5 6 
#
# 1 0.014786 -0.003172 -0.003810 -0.000940 0.001573 0.002642
# 2 -0.003172 0.017667 -0.000530 -0.006500 0.000317 -0.006522
# 3 -0.003810 -0.000530 0.007643 -0.001492 0.001667 -0.001167
# 4 -0.000940 -0.006500 -0.001492 0.029207 -0.003900 -0.000919
# 5 0.001573 0.000317 0.001667 -0.003900 0.024566 0.002339
# 6 0.002642 -0.006522 -0.001167 -0.000919 0.002339 0.050214
#
#
# Mechanical properties :
#
#
# Convention : Reuss Voigt Hill
#
# Bulk Modulus (GPa) = 39.88305 54.68237 47.28271
# Shear Modulus (GPa) = 29.85700 36.17719 33.01709
#
# Velocity S-wave (km/s) = 3.84561 4.23311 4.04401
# Velocity P-wave (km/s) = 6.28277 7.13986 6.72498
#
# Compressibility (1/GPa) = 0.02507331
#
# Stress axis : x y z
#
# Youngs Moduli (GPa) = 67.63129 56.60216 130.83464
#
# Poissons Ratio (x) = 0.17955 0.49842
# Poissons Ratio (y) = 0.21453 0.06933
# Poissons Ratio (z) = 0.25765 0.02999
#
# Static dielectric constant tensor:
#      x y z
#    x 1.721540 -0.048180 -0.030790 
#    y -0.048180 1.794350 0.032930 
#    z -0.030790 0.032930 1.768840 
# 
# From -- ./inp_files/189134.got.cif
#   From: 2010.05.17/outbox.cif.g08.bks.cpg/sg2_95_cif.got.tgz:189134.got - 2010.06.03 11:33:40.
