data_PCOD9087587
_publ_section_title
;
Structure prediction by ZEFSAII (Michael W. Deem and Ramdas Pophale) SiO2 
 PCOD9087587
Probable space group: P -1
;
_chemical_formula_sum "Si O2"
_cell_formula_units_Z 12
_cell_length_a 19.087986
_cell_length_b 7.128443
_cell_length_c 17.179705
_cell_angle_alpha 47.652392
_cell_angle_beta 158.765728
_cell_angle_gamma 142.122894
_cell_volume 499.119977
_symmetry_space_group_name_H-M "P -1"
_symmetry_group_IT_number 2
_symmetry_cell_setting 'triclinic'
loop_
_space_group_symop_operation_xyz
x,y,z
-x,-y,-z
loop_
_atom_site_type_symbol
_atom_site_label
_atom_site_fract_x
_atom_site_fract_y
_atom_site_fract_z
Si Si1 0.394751 0.321614 0.025898
Si Si2 0.078764 0.564297 0.883147
Si Si3 0.068713 0.789194 0.438071
Si Si4 0.757389 0.401630 0.731942
Si Si5 0.473975 0.230668 0.632573
Si Si6 0.857943 0.726037 0.494076
O O1 0.597176 0.484270 0.255016
O O2 0.500000 0.500000 0.000000
O O3 0.181079 0.340738 0.825657
O O4 0.246457 0.942029 0.972361
O O5 0.830578 0.355643 0.735381
O O6 0.993116 0.576839 0.704803
O O7 0.276407 0.511922 0.131710
O O8 0.000000 0.500000 0.500000
O O9 0.298006 0.915346 0.588121
O O10 0.145995 0.088350 0.488141
O O11 0.549548 0.174455 0.643219
O O12 0.692186 0.648677 0.585320
O O13 0.000000 0.500000 0.000000
O O14 0.000000 0.000000 0.500000
#
# Coordination Sequence:
#
# PCOD9087587 Si02
#       6
#     2   2   2   2   2   2
#     4  11  20  38  58  84 129 169 205 251 308 372
#     4  10  20  38  62  89 124 164 209 257 313 369
#     4  11  23  38  60  95 129 162 208 257 313 375
#     4   9  18  36  66  94 116 162 212 257 315 371
#     4  10  19  36  64  95 121 160 212 257 312 373
#     4  11  22  38  59  88 128 174 208 251 315 372
#
# _framework density 24.042317000000001
#
# number of rings (size 3 to 8) (size 9 to 14) (size 15 to 20)
#    0.000    1.667    6.667    1.000    0.000    0.667 
#    0.000    0.000    0.000   13.000    0.000    0.000 
#    0.000    0.000    0.000    0.000    0.000    0.000 
#
# Total GULP energy -66869.949984 kJ/mol
# GULP energy per Si atom -5572.495832 kJ/mol
# Density = 2.398760 g / cm^3
# Si number density = 24.042317 Si / 1000 Ang^3
#
#
#
# Elastic Constant Matrix: (Units=GPa)
#
#
# Indices 1 2 3 4 5 6 
#
# 1 118.4160 34.3265 56.5408 12.9469 18.5415 36.0290
# 2 34.3265 40.0503 27.1978 -1.0121 0.3877 16.9770
# 3 56.5408 27.1978 214.9692 -4.0564 -1.8182 -7.7649
# 4 12.9469 -1.0121 -4.0564 37.3253 3.3134 0.4849
# 5 18.5415 0.3877 -1.8182 3.3134 53.8643 6.9441
# 6 36.0290 16.9770 -7.7649 0.4849 6.9441 50.9933
#
#
#
# Elastic Compliance Matrix: (Units=1/GPa)
#
#
# Indices 1 2 3 4 5 6 
#
# 1 0.016662 -0.007919 -0.003856 -0.005916 -0.004273 -0.009085
# 2 -0.007919 0.036898 -0.002771 0.003266 0.003142 -0.007570
# 3 -0.003856 -0.002771 0.006219 0.001803 0.000872 0.004458
# 4 -0.005916 0.003266 0.001803 0.029098 -0.000117 0.003106
# 5 -0.004273 0.003142 0.000872 -0.000117 0.020132 -0.000634
# 6 -0.009085 -0.007570 0.004458 0.003106 -0.000634 0.029285
#
#
# Mechanical properties :
#
#
# Convention : Reuss Voigt Hill
#
# Bulk Modulus (GPa) = 32.58679 67.72951 50.15815
# Shear Modulus (GPa) = 28.15066 45.46128 36.80597
#
# Velocity S-wave (km/s) = 3.42552 4.35315 3.91689
# Velocity P-wave (km/s) = 5.40638 7.31428 6.43147
#
# Compressibility (1/GPa) = 0.03068728
#
# Stress axis : x y z
#
# Youngs Moduli (GPa) = 60.01781 27.10141 160.79418
#
# Poissons Ratio (x) = 0.21461 0.62008
# Poissons Ratio (y) = 0.47527 0.44554
# Poissons Ratio (z) = 0.23145 0.07509
#
# Static dielectric constant tensor:
#      x y z
#    x 1.992390 0.002270 -0.014030 
#    y 0.002270 1.970820 -0.051470 
#    z -0.014030 -0.051470 2.002530 
# 
# From -- ./inp_files/577271.got.cif
#   From: 2010.05.17/outbox.cif.g08.bks.cpg/sg2_289_cif.got.tgz:577271.got - 2010.06.03 11:33:40.
