data_PCOD9087639
_publ_section_title
;
Structure prediction by ZEFSAII (Michael W. Deem and Ramdas Pophale) SiO2 
 PCOD9087639
Probable space group: P -1
;
_chemical_formula_sum "Si O2"
_cell_formula_units_Z 12
_cell_length_a 10.239111
_cell_length_b 14.070356
_cell_length_c 5.068285
_cell_angle_alpha 80.872209
_cell_angle_beta 133.427852
_cell_angle_gamma 97.792484
_cell_volume 523.210887
_symmetry_space_group_name_H-M "P -1"
_symmetry_group_IT_number 2
_symmetry_cell_setting 'triclinic'
loop_
_space_group_symop_operation_xyz
x,y,z
-x,-y,-z
loop_
_atom_site_type_symbol
_atom_site_label
_atom_site_fract_x
_atom_site_fract_y
_atom_site_fract_z
Si Si1 0.166269 0.072581 0.277324
Si Si2 0.877244 0.410227 0.279971
Si Si3 0.028504 0.779476 0.712985
Si Si4 0.341842 0.901784 0.873894
Si Si5 0.307623 0.659252 0.433309
Si Si6 0.460191 0.167515 0.320406
O O1 0.110441 0.156857 0.358633
O O2 0.263335 0.125266 0.140398
O O3 0.300657 0.004669 0.652429
O O4 0.000000 0.000000 0.000000
O O5 0.008972 0.321055 0.445533
O O6 0.000000 0.500000 0.500000
O O7 0.733380 0.380909 0.318740
O O8 0.758945 0.417959 0.845539
O O9 0.149957 0.845567 0.659336
O O10 0.164000 0.742306 0.144112
O O11 0.467004 0.848705 0.863761
O O12 0.420687 0.893351 0.280857
O O13 0.494991 0.718565 0.616624
#
# Coordination Sequence:
#
# PCOD9087639 Si02
#       6
#     2   2   2   2   2   2
#     4  12  25  38  60  93 127 164 206 250 296 342
#     4  10  19  36  65  88 110 147 201 251 298 359
#     4   9  22  36  59  87 124 147 200 254 295 339
#     4  11  22  42  59  84 122 170 209 235 289 365
#     4   9  18  37  59  85 115 152 199 238 299 360
#     4  11  22  42  60  83 125 170 202 243 288 363
#
# _framework density 22.935303000000001
#
# number of rings (size 3 to 8) (size 9 to 14) (size 15 to 20)
#    1.000    0.667    1.667    4.000    0.000    2.667 
#    0.000    0.000    0.000    2.000    0.000    0.000 
#    0.000    0.000    0.000    0.000    0.000    0.000 
#
# Total GULP energy -66969.018552 kJ/mol
# GULP energy per Si atom -5580.751546 kJ/mol
# Density = 2.288310 g / cm^3
# Si number density = 22.935303 Si / 1000 Ang^3
#
#
#
# Elastic Constant Matrix: (Units=GPa)
#
#
# Indices 1 2 3 4 5 6 
#
# 1 124.3544 28.6271 13.3655 12.2702 -10.2237 9.2843
# 2 28.6271 87.5829 0.3076 32.5289 7.7509 0.4384
# 3 13.3655 0.3076 58.0994 15.4586 -6.8216 -4.1935
# 4 12.2702 32.5289 15.4586 26.6726 9.3360 -6.1374
# 5 -10.2237 7.7509 -6.8216 9.3360 35.0864 10.2216
# 6 9.2843 0.4384 -4.1935 -6.1374 10.2216 23.4258
#
#
#
# Elastic Compliance Matrix: (Units=1/GPa)
#
#
# Indices 1 2 3 4 5 6 
#
# 1 0.010699 -0.000187 0.000785 -0.011030 0.009488 -0.011126
# 2 -0.000187 0.032147 0.016393 -0.059835 0.018122 -0.021177
# 3 0.000785 0.016393 0.031446 -0.049901 0.021020 -0.017235
# 4 -0.011030 -0.059835 -0.049901 0.187405 -0.072020 0.077082
# 5 0.009488 0.018122 0.021020 -0.072020 0.064279 -0.047253
# 6 -0.011126 -0.021177 -0.017235 0.077082 -0.047253 0.085222
#
#
# Mechanical properties :
#
#
# Convention : Reuss Voigt Hill
#
# Bulk Modulus (GPa) = 9.23589 39.40413 24.32001
# Shear Modulus (GPa) = 12.09753 32.21939 22.15846
#
# Velocity S-wave (km/s) = 2.29915 3.75213 3.11163
# Velocity P-wave (km/s) = 3.32923 5.99909 4.85144
#
# Compressibility (1/GPa) = 0.10827322
#
# Stress axis : x y z
#
# Youngs Moduli (GPa) = 93.46440 31.10712 31.80066
#
# Poissons Ratio (x) = 0.00583 -0.02497
# Poissons Ratio (y) = 0.01751 -0.52130
# Poissons Ratio (z) = -0.07340 -0.50993
#
# Static dielectric constant tensor:
#      x y z
#    x 1.855550 0.008930 0.058020 
#    y 0.008930 1.876640 0.053540 
#    z 0.058020 0.053540 1.966690 
# 
# From -- ./inp_files/40984.got.cif
#   From: 2010.05.17/outbox.cif.g08.bks.cpg/sg2_21_cif.got.tgz:40984.got - 2010.06.03 11:33:40.
