data_PCOD9087369
_publ_section_title
;
Structure prediction by ZEFSAII (Michael W. Deem and Ramdas Pophale) SiO2 
 PCOD9087369
Probable space group: P -1
;
_chemical_formula_sum "Si O2"
_cell_formula_units_Z 15
_cell_length_a 7.183253
_cell_length_b 16.413400
_cell_length_c 7.267444
_cell_angle_alpha 77.978902
_cell_angle_beta 95.026327
_cell_angle_gamma 47.525506
_cell_volume 586.374167
_symmetry_space_group_name_H-M "P -1"
_symmetry_group_IT_number 2
_symmetry_cell_setting 'triclinic'
loop_
_space_group_symop_operation_xyz
x,y,z
-x,-y,-z
loop_
_atom_site_type_symbol
_atom_site_label
_atom_site_fract_x
_atom_site_fract_y
_atom_site_fract_z
Si Si1 0.138392 0.576327 0.007188
Si Si2 0.355968 0.668572 0.769225
Si Si3 0.018014 0.564745 0.625680
Si Si4 0.462440 0.239338 0.010064
Si Si5 0.721873 0.000396 0.001133
Si Si6 0.416327 0.199489 0.650196
Si Si7 0.500000 0.500000 0.500000
Si Si8 0.083565 0.761501 0.321651
O O1 0.228931 0.634621 0.895439
O O2 0.119621 0.516924 0.862448
O O3 0.846170 0.681094 0.009448
O O4 0.364951 0.464812 0.214645
O O5 0.416959 0.727552 0.872158
O O6 0.187192 0.750899 0.540668
O O7 0.231536 0.559933 0.561936
O O8 0.000000 0.500000 0.500000
O O9 0.730855 0.702400 0.567236
O O10 0.638778 0.098917 0.091939
O O11 0.449898 0.258951 0.781273
O O12 0.991117 0.868883 0.139696
O O13 0.500000 0.000000 0.000000
O O14 0.678698 0.059424 0.769991
O O15 0.182697 0.209652 0.686030
O O16 0.324597 0.631824 0.322736
#
# Coordination Sequence:
#
# PCOD9087369 Si02
#       8
#     2   2   2   2   2   2   1   2
#     4  11  24  38  58  97 132 155 195 265 314 351
#     4  11  23  36  59  93 130 153 201 254 309 363
#     4  11  22  36  63  89 122 160 206 245 301 369
#     4  10  22  39  66  85 123 167 203 246 311 363
#     4   8  18  38  66  86 113 167 214 242 297 372
#     4   8  18  38  59  85 114 162 203 237 295 365
#     4  10  22  36  60  90 116 154 202 244 302 352
#     4  10  19  36  63  88 117 158 205 248 298 363
#
# _framework density 25.580939000000001
#
# number of rings (size 3 to 8) (size 9 to 14) (size 15 to 20)
#    0.800    1.333    2.667    1.200    5.600    0.533 
#    0.000    0.667    0.000    1.600    0.000    0.000 
#    0.000    0.000    0.000    0.000    0.000    0.000 
#
# Total GULP energy -83557.054127 kJ/mol
# GULP energy per Si atom -5570.470275 kJ/mol
# Density = 2.552272 g / cm^3
# Si number density = 25.580939 Si / 1000 Ang^3
#
#
#
# Elastic Constant Matrix: (Units=GPa)
#
#
# Indices 1 2 3 4 5 6 
#
# 1 96.9216 33.0260 31.0445 -1.7001 19.7656 4.5551
# 2 33.0260 118.4870 54.8173 -53.1793 5.0529 20.2725
# 3 31.0445 54.8173 143.2384 -46.1977 4.8107 11.1684
# 4 -1.7001 -53.1793 -46.1977 62.2610 10.8974 -1.8329
# 5 19.7656 5.0529 4.8107 10.8974 39.8764 3.1630
# 6 4.5551 20.2725 11.1684 -1.8329 3.1630 41.7847
#
#
#
# Elastic Compliance Matrix: (Units=1/GPa)
#
#
# Indices 1 2 3 4 5 6 
#
# 1 0.013589 -0.004851 -0.002640 -0.004874 -0.004607 0.001712
# 2 -0.004851 0.018433 -0.000172 0.015909 -0.003672 -0.007393
# 3 -0.002640 -0.000172 0.010316 0.007707 -0.001869 -0.001907
# 4 -0.004874 0.015909 0.007707 0.036790 -0.010038 -0.006873
# 5 -0.004607 -0.003672 -0.001869 -0.010038 0.030794 0.000012
# 6 0.001712 -0.007393 -0.001907 -0.006873 0.000012 0.027539
#
#
# Mechanical properties :
#
#
# Convention : Reuss Voigt Hill
#
# Bulk Modulus (GPa) = 37.01800 66.26918 51.64359
# Shear Modulus (GPa) = 30.90382 44.76837 37.83610
#
# Velocity S-wave (km/s) = 3.47952 4.18792 3.85005
# Velocity P-wave (km/s) = 5.53580 7.02473 6.32423
#
# Compressibility (1/GPa) = 0.02701388
#
# Stress axis : x y z
#
# Youngs Moduli (GPa) = 73.58644 54.24965 96.93323
#
# Poissons Ratio (x) = 0.26314 0.25588
# Poissons Ratio (y) = 0.35694 0.01670
# Poissons Ratio (z) = 0.19425 0.00935
#
# Static dielectric constant tensor:
#      x y z
#    x 2.001230 -0.031280 0.129750 
#    y -0.031280 1.945680 0.035480 
#    z 0.129750 0.035480 1.640600 
# 
# From -- ./inp_files/219610.got.cif
#   From: 2010.05.17/outbox.cif.g08.bks.cpg/sg2_110_cif.got.tgz:219610.got - 2010.06.03 11:33:40.
