data_PCOD9087896
_publ_section_title
;
Structure prediction by ZEFSAII (Michael W. Deem and Ramdas Pophale) SiO2 
 PCOD9087896
Probable space group: P -1
;
_chemical_formula_sum "Si O2"
_cell_formula_units_Z 14
_cell_length_a 11.338072
_cell_length_b 5.278819
_cell_length_c 20.001376
_cell_angle_alpha 82.473273
_cell_angle_beta 30.765683
_cell_angle_gamma 87.076647
_cell_volume 602.593352
_symmetry_space_group_name_H-M "P -1"
_symmetry_group_IT_number 2
_symmetry_cell_setting 'triclinic'
loop_
_space_group_symop_operation_xyz
x,y,z
-x,-y,-z
loop_
_atom_site_type_symbol
_atom_site_label
_atom_site_fract_x
_atom_site_fract_y
_atom_site_fract_z
Si Si1 0.802759 0.273670 0.353277
Si Si2 0.777964 0.015443 0.652378
Si Si3 0.337197 0.686218 0.038845
Si Si4 0.318365 0.180211 0.825366
Si Si5 0.201940 0.983759 0.211007
Si Si6 0.677468 0.349177 0.100400
Si Si7 0.344862 0.208039 0.655110
O O1 0.622075 0.242228 0.504195
O O2 0.752512 0.537332 0.334181
O O3 0.055218 0.217955 0.257579
O O4 0.740605 0.045550 0.337442
O O5 0.863173 0.116399 0.680355
O O6 0.603933 0.745616 0.757080
O O7 0.597774 0.185937 0.700710
O O8 0.000000 0.000000 0.500000
O O9 0.172836 0.786249 0.170949
O O10 0.479314 0.064558 0.077887
O O11 0.500000 0.500000 0.000000
O O12 0.247986 0.580703 0.014289
O O13 0.255756 0.422301 0.888826
O O14 0.281797 0.179313 0.764328
O O15 0.222409 0.909360 0.915818
#
# Coordination Sequence:
#
# PCOD9087896 Si02
#       7
#     2   2   2   2   2   2   2
#     4  10  22  38  59  90 117 160 199 245 288 358
#     4   9  19  34  55  89 118 149 185 243 302 364
#     4  10  21  37  61  86 120 161 197 250 299 353
#     4  10  19  37  56  83 111 156 187 243 288 357
#     4  10  21  37  58  93 119 155 198 248 301 353
#     4   9  21  34  57  84 111 152 195 233 298 348
#     4  10  21  39  61  84 123 159 199 238 298 349
#
# _framework density 23.232911999999999
#
# number of rings (size 3 to 8) (size 9 to 14) (size 15 to 20)
#    0.857    1.429    0.000    2.571    4.000    0.571 
#    0.000    0.000    0.000    5.143    0.000    0.000 
#    0.000    0.000    0.000    0.000    0.000    0.000 
#
# Total GULP energy -78170.083279 kJ/mol
# GULP energy per Si atom -5583.577377 kJ/mol
# Density = 2.318003 g / cm^3
# Si number density = 23.232912 Si / 1000 Ang^3
#
#
#
# Elastic Constant Matrix: (Units=GPa)
#
#
# Indices 1 2 3 4 5 6 
#
# 1 70.7933 21.1021 58.1496 9.3775 14.2694 -11.0291
# 2 21.1021 116.0605 34.8123 22.4666 7.1521 1.5933
# 3 58.1496 34.8123 133.0652 23.8774 26.9539 7.0512
# 4 9.3775 22.4666 23.8774 26.8459 -2.6336 1.6870
# 5 14.2694 7.1521 26.9539 -2.6336 55.0054 8.4709
# 6 -11.0291 1.5933 7.0512 1.6870 8.4709 30.7273
#
#
#
# Elastic Compliance Matrix: (Units=1/GPa)
#
#
# Indices 1 2 3 4 5 6 
#
# 1 0.026467 -0.001599 -0.011435 0.001155 -0.002997 0.012970
# 2 -0.001599 0.010669 -0.000394 -0.008112 -0.001124 -0.000282
# 3 -0.011435 -0.000394 0.015455 -0.009447 -0.004086 -0.005986
# 4 0.001155 -0.008112 -0.009447 0.052984 0.008257 -0.002182
# 5 -0.002997 -0.001124 -0.004086 0.008257 0.022540 -0.006747
# 6 0.012970 -0.000282 -0.005986 -0.002182 -0.006747 0.040568
#
#
# Mechanical properties :
#
#
# Convention : Reuss Voigt Hill
#
# Bulk Modulus (GPa) = 38.85895 60.89411 49.87653
# Shear Modulus (GPa) = 24.49566 36.23938 30.36752
#
# Velocity S-wave (km/s) = 3.25060 3.95375 3.61929
# Velocity P-wave (km/s) = 5.55434 6.86368 6.24343
#
# Compressibility (1/GPa) = 0.02573410
#
# Stress axis : x y z
#
# Youngs Moduli (GPa) = 37.78331 93.73348 64.70202
#
# Poissons Ratio (x) = 0.14990 0.73988
# Poissons Ratio (y) = 0.06042 0.02549
# Poissons Ratio (z) = 0.43206 0.03693
#
# Static dielectric constant tensor:
#      x y z
#    x 1.932990 0.058660 -0.078780 
#    y 0.058660 1.898100 -0.070690 
#    z -0.078780 -0.070690 1.909540 
# 
# From -- ./inp_files/564154.got.cif
#   From: 2010.05.17/outbox.cif.g08.bks.cpg/sg2_283_cif.got.tgz:564154.got - 2010.06.03 11:33:40.
