data_PCOD9087633
_publ_section_title
;
Structure prediction by ZEFSAII (Michael W. Deem and Ramdas Pophale) SiO2 
 PCOD9087633
Probable space group: P -1
;
_chemical_formula_sum "Si O2"
_cell_formula_units_Z 14
_cell_length_a 9.400183
_cell_length_b 11.700537
_cell_length_c 9.058580
_cell_angle_alpha 81.865154
_cell_angle_beta 99.889476
_cell_angle_gamma 134.902477
_cell_volume 694.928761
_symmetry_space_group_name_H-M "P -1"
_symmetry_group_IT_number 2
_symmetry_cell_setting 'triclinic'
loop_
_space_group_symop_operation_xyz
x,y,z
-x,-y,-z
loop_
_atom_site_type_symbol
_atom_site_label
_atom_site_fract_x
_atom_site_fract_y
_atom_site_fract_z
Si Si1 0.171323 0.355530 0.718508
Si Si2 0.462395 0.082530 0.299749
Si Si3 0.726702 0.039377 0.236531
Si Si4 0.397823 0.297463 0.236471
Si Si5 0.980315 0.853625 0.985040
Si Si6 0.164261 0.774315 0.507953
Si Si7 0.226479 0.165566 0.554079
O O1 0.382538 0.526191 0.774088
O O2 0.213677 0.270349 0.635171
O O3 0.030073 0.363038 0.596761
O O4 0.050384 0.239327 0.858320
O O5 0.400189 0.166955 0.201766
O O6 0.222256 0.267674 0.127832
O O7 0.538449 0.021895 0.218666
O O8 0.289244 0.937103 0.401957
O O9 0.832301 0.082180 0.092126
O O10 0.883100 0.188070 0.352945
O O11 0.000000 0.000000 0.500000
O O12 0.680945 0.889097 0.326318
O O13 0.661302 0.216991 0.413755
O O14 0.343550 0.256370 0.407442
O O15 0.000000 0.000000 0.000000
#
# Coordination Sequence:
#
# PCOD9087633 Si02
#       7
#     2   2   2   2   2   2   2
#     4  12  24  35  57  93 124 153 185 243 309 339
#     4   9  18  37  65  84 112 148 203 246 282 332
#     4  10  19  36  65  86 108 147 208 246 270 334
#     4  12  23  38  59  90 124 148 189 249 299 349
#     4  12  23  39  61  84 117 161 199 235 284 355
#     4   9  17  38  63  86 110 150 202 241 278 339
#     4  12  17  37  63  87 109 148 206 241 274 336
#
# _framework density 20.145951
#
# number of rings (size 3 to 8) (size 9 to 14) (size 15 to 20)
#    0.857    0.286    5.714    1.714    0.000    0.571 
#    0.000    3.571    0.000    0.000    0.000    0.000 
#    0.000    0.000    0.000    0.000    0.000    0.000 
#
# Total GULP energy -78116.648905 kJ/mol
# GULP energy per Si atom -5579.760636 kJ/mol
# Density = 2.010010 g / cm^3
# Si number density = 20.145951 Si / 1000 Ang^3
#
#
#
# Elastic Constant Matrix: (Units=GPa)
#
#
# Indices 1 2 3 4 5 6 
#
# 1 85.2578 -1.4712 34.4616 0.5454 -15.1340 -3.6788
# 2 -1.4712 40.4308 12.0044 1.0673 -11.6466 9.3355
# 3 34.4616 12.0044 87.9771 -7.7379 -17.4051 8.5109
# 4 0.5454 1.0673 -7.7379 21.3227 7.3695 1.9000
# 5 -15.1340 -11.6466 -17.4051 7.3695 43.1795 -1.1129
# 6 -3.6788 9.3355 8.5109 1.9000 -1.1129 18.8143
#
#
#
# Elastic Compliance Matrix: (Units=1/GPa)
#
#
# Indices 1 2 3 4 5 6 
#
# 1 0.015459 0.002669 -0.006483 -0.004919 0.004504 0.005394
# 2 0.002669 0.031212 -0.002747 -0.004493 0.008685 -0.012755
# 3 -0.006483 -0.002747 0.015983 0.006020 0.002206 -0.007612
# 4 -0.004919 -0.004493 0.006020 0.053494 -0.009831 -0.007440
# 5 0.004504 0.008685 0.002206 -0.009831 0.029604 -0.001683
# 6 0.005394 -0.012755 -0.007612 -0.007440 -0.001683 0.064630
#
#
# Mechanical properties :
#
#
# Convention : Reuss Voigt Hill
#
# Bulk Modulus (GPa) = 20.18924 33.73948 26.96436
# Shear Modulus (GPa) = 20.83187 27.90802 24.36994
#
# Velocity S-wave (km/s) = 3.21915 3.72599 3.48180
# Velocity P-wave (km/s) = 4.88472 5.94092 5.43852
#
# Compressibility (1/GPa) = 0.04953133
#
# Stress axis : x y z
#
# Youngs Moduli (GPa) = 64.68536 32.03896 62.56524
#
# Poissons Ratio (x) = -0.08552 0.40563
# Poissons Ratio (y) = -0.17265 0.17190
# Poissons Ratio (z) = 0.41938 0.08803
#
# Static dielectric constant tensor:
#      x y z
#    x 1.734960 0.004960 0.029460 
#    y 0.004960 1.689910 0.032390 
#    z 0.029460 0.032390 1.722280 
# 
# From -- ./inp_files/177989.got.cif
#   From: 2010.05.17/outbox.cif.g08.bks.cpg/sg2_89_cif.got.tgz:177989.got - 2010.06.03 11:33:40.
