data_PCOD9087487
_publ_section_title
;
Structure prediction by ZEFSAII (Michael W. Deem and Ramdas Pophale) SiO2 
 PCOD9087487
Probable space group: P -1
;
_chemical_formula_sum "Si O2"
_cell_formula_units_Z 16
_cell_length_a 7.450818
_cell_length_b 5.535704
_cell_length_c 21.415328
_cell_angle_alpha 122.476521
_cell_angle_beta 130.459710
_cell_angle_gamma 66.848906
_cell_volume 565.579389
_symmetry_space_group_name_H-M "P -1"
_symmetry_group_IT_number 2
_symmetry_cell_setting 'triclinic'
loop_
_space_group_symop_operation_xyz
x,y,z
-x,-y,-z
loop_
_atom_site_type_symbol
_atom_site_label
_atom_site_fract_x
_atom_site_fract_y
_atom_site_fract_z
Si Si1 0.522933 0.691263 0.825451
Si Si2 0.058390 0.168272 0.143960
Si Si3 0.956763 0.994124 0.348755
Si Si4 0.706436 0.754325 0.999711
Si Si5 0.228569 0.288407 0.848306
Si Si6 0.548364 0.814488 0.673842
Si Si7 0.083165 0.420521 0.617846
Si Si8 0.557492 0.843106 0.426687
O O1 0.756691 0.675034 0.834343
O O2 0.309021 0.534102 0.723607
O O3 0.441307 0.034038 0.858252
O O4 0.605709 0.571955 0.895521
O O5 0.217926 0.076694 0.226453
O O6 0.842838 0.388662 0.147161
O O7 0.937731 0.904235 0.049150
O O8 0.946945 0.864148 0.259433
O O9 0.051563 0.760657 0.387929
O O10 0.688706 0.066925 0.325550
O O11 0.056349 0.301805 0.403575
O O12 0.772752 0.641768 0.067908
O O13 0.500000 0.000000 0.000000
O O14 0.545240 0.471849 0.633555
O O15 0.535515 0.943493 0.620123
O O16 0.182838 0.241916 0.556353
O O17 0.500000 0.000000 0.500000
#
# Coordination Sequence:
#
# PCOD9087487 Si02
#       8
#     2   2   2   2   2   2   2   2
#     4  10  21  45  58  88 131 169 231 279 332 393
#     4  12  23  40  64  90 131 175 228 279 330 392
#     4   9  18  36  60  84 126 160 217 262 313 391
#     4  10  25  41  59  92 130 172 236 280 334 386
#     4  10  23  38  60  90 122 178 220 281 331 381
#     4  10  21  38  64  97 133 173 223 258 337 407
#     4   9  18  35  62  90 119 173 207 261 325 395
#     4  10  19  36  64 103 136 162 212 278 327 403
#
# _framework density 28.289572
#
# number of rings (size 3 to 8) (size 9 to 14) (size 15 to 20)
#    0.000    2.000    3.750    0.750    7.000    2.500 
#    2.250    0.000    0.000    0.000    0.000   33.250 
#    0.000    0.000    0.000    0.000    0.000    0.000 
#
# Total GULP energy -89450.846740 kJ/mol
# GULP energy per Si atom -5590.677921 kJ/mol
# Density = 2.822518 g / cm^3
# Si number density = 28.289572 Si / 1000 Ang^3
#
#
#
# Elastic Constant Matrix: (Units=GPa)
#
#
# Indices 1 2 3 4 5 6 
#
# 1 124.4056 48.1099 37.9740 -0.0338 -6.4755 -1.2653
# 2 48.1099 135.3122 32.2367 -20.7764 -3.9038 20.4336
# 3 37.9740 32.2367 134.5257 -9.0090 -29.7886 16.4130
# 4 -0.0338 -20.7764 -9.0090 47.2961 12.0015 -8.1219
# 5 -6.4755 -3.9038 -29.7886 12.0015 51.6369 -6.2719
# 6 -1.2653 20.4336 16.4130 -8.1219 -6.2719 32.4891
#
#
#
# Elastic Compliance Matrix: (Units=1/GPa)
#
#
# Indices 1 2 3 4 5 6 
#
# 1 0.010361 -0.003906 -0.002466 -0.001636 0.000421 0.003778
# 2 -0.003906 0.010371 -0.000828 0.003877 -0.001768 -0.005629
# 3 -0.002466 -0.000828 0.009849 -0.000379 0.004950 -0.003690
# 4 -0.001636 0.003877 -0.000379 0.024653 -0.005522 0.002786
# 5 0.000421 -0.001768 0.004950 -0.005522 0.023644 0.001812
# 6 0.003778 -0.005629 -0.003690 0.002786 0.001812 0.037377
#
#
# Mechanical properties :
#
#
# Convention : Reuss Voigt Hill
#
# Bulk Modulus (GPa) = 61.80095 70.09833 65.94964
# Shear Modulus (GPa) = 36.75155 44.67929 40.71542
#
# Velocity S-wave (km/s) = 3.60824 3.97842 3.79784
# Velocity P-wave (km/s) = 6.26518 6.77764 6.52644
#
# Compressibility (1/GPa) = 0.01618098
#
# Stress axis : x y z
#
# Youngs Moduli (GPa) = 96.51159 96.42652 101.53398
#
# Poissons Ratio (x) = 0.37665 0.25041
# Poissons Ratio (y) = 0.37698 0.08404
# Poissons Ratio (z) = 0.23802 0.07981
#
# Static dielectric constant tensor:
#      x y z
#    x 2.171490 0.028970 -0.003820 
#    y 0.028970 2.208590 -0.033340 
#    z -0.003820 -0.033340 2.182250 
# 
# From -- ./inp_files/585889.got.cif
#   From: 2010.05.17/outbox.cif.g08.bks.cpg/sg2_293_cif.got.tgz:585889.got - 2010.06.03 11:33:40.
