data_PCOD9087293
_publ_section_title
;
Structure prediction by ZEFSAII (Michael W. Deem and Ramdas Pophale) SiO2 
 PCOD9087293
Probable space group: P -1
;
_chemical_formula_sum "Si O2"
_cell_formula_units_Z 14
_cell_length_a 17.549452
_cell_length_b 9.841571
_cell_length_c 7.743059
_cell_angle_alpha 62.787406
_cell_angle_beta 93.599383
_cell_angle_gamma 39.881737
_cell_volume 524.850971
_symmetry_space_group_name_H-M "P -1"
_symmetry_group_IT_number 2
_symmetry_cell_setting 'triclinic'
loop_
_space_group_symop_operation_xyz
x,y,z
-x,-y,-z
loop_
_atom_site_type_symbol
_atom_site_label
_atom_site_fract_x
_atom_site_fract_y
_atom_site_fract_z
Si Si1 0.888266 0.840496 0.368090
Si Si2 0.258033 0.878172 0.145543
Si Si3 0.611624 0.709528 0.987209
Si Si4 0.769966 0.516502 0.794598
Si Si5 0.891350 0.611490 0.775019
Si Si6 0.890816 0.259444 0.573685
Si Si7 0.531245 0.201267 0.795636
O O1 0.000000 0.500000 0.500000
O O2 0.815393 0.889319 0.497492
O O3 0.022557 0.736168 0.474956
O O4 0.734620 0.166698 0.031002
O O5 0.367868 0.574321 0.462003
O O6 0.319195 0.943969 0.135863
O O7 0.053171 0.228853 0.935981
O O8 0.781723 0.391143 0.320856
O O9 0.492878 0.791813 0.007513
O O10 0.637746 0.662477 0.813445
O O11 0.560134 0.977882 0.863653
O O12 0.782476 0.477088 0.611451
O O13 0.757049 0.718856 0.722075
O O14 0.950897 0.130204 0.121954
O O15 0.000000 0.500000 0.000000
#
# Coordination Sequence:
#
# PCOD9087293 Si02
#       7
#     2   2   2   2   2   2   2
#     4  10  19  36  62  94 119 158 198 263 326 360
#     4  10  20  40  63  86 124 165 214 249 314 372
#     4  11  23  42  63  91 128 169 216 247 318 382
#     4  11  23  38  64 104 124 157 203 272 335 366
#     4  11  21  37  68  98 123 155 206 277 325 372
#     4  11  22  39  68  97 129 156 202 279 332 370
#     4  10  23  39  64  84 125 185 206 250 295 379
#
# _framework density 26.674239
#
# number of rings (size 3 to 8) (size 9 to 14) (size 15 to 20)
#    0.000    1.429    2.857    4.714    2.000    1.143 
#    0.000    2.857    6.286    3.429    0.000    0.000 
#    0.000    0.000    0.000    0.000    0.000    0.000 
#
# Total GULP energy -78246.574684 kJ/mol
# GULP energy per Si atom -5589.041049 kJ/mol
# Density = 2.661353 g / cm^3
# Si number density = 26.674239 Si / 1000 Ang^3
#
#
#
# Elastic Constant Matrix: (Units=GPa)
#
#
# Indices 1 2 3 4 5 6 
#
# 1 146.7933 23.5227 22.9318 3.2824 -36.5140 -20.8654
# 2 23.5227 65.9972 22.3686 27.1512 -22.2212 -15.7600
# 3 22.9318 22.3686 138.0532 17.1591 -21.8905 -16.2762
# 4 3.2824 27.1512 17.1591 28.2565 -8.8700 -4.1152
# 5 -36.5140 -22.2212 -21.8905 -8.8700 51.8866 9.4294
# 6 -20.8654 -15.7600 -16.2762 -4.1152 9.4294 36.3367
#
#
#
# Elastic Compliance Matrix: (Units=1/GPa)
#
#
# Indices 1 2 3 4 5 6 
#
# 1 0.008832 -0.001721 -0.000350 0.002950 0.005265 0.003136
# 2 -0.001721 0.030262 0.000519 -0.026146 0.006075 0.007832
# 3 -0.000350 0.000519 0.008457 -0.004481 0.002285 0.002712
# 4 0.002950 -0.026146 -0.004481 0.062363 0.000507 -0.004722
# 5 0.005265 0.006075 0.002285 0.000507 0.026663 -0.000180
# 6 0.003136 0.007832 0.002712 -0.004722 -0.000180 0.033444
#
#
# Mechanical properties :
#
#
# Convention : Reuss Voigt Hill
#
# Bulk Modulus (GPa) = 22.49968 54.27666 38.38817
# Shear Modulus (GPa) = 26.60399 42.09732 34.35066
#
# Velocity S-wave (km/s) = 3.16154 3.97697 3.59246
# Velocity P-wave (km/s) = 4.66695 6.44054 5.62410
#
# Compressibility (1/GPa) = 0.04444508
#
# Stress axis : x y z
#
# Youngs Moduli (GPa) = 113.22105 33.04511 118.25029
#
# Poissons Ratio (x) = 0.05688 0.04143
# Poissons Ratio (y) = 0.19490 -0.06137
# Poissons Ratio (z) = 0.03966 -0.01715
#
# Static dielectric constant tensor:
#      x y z
#    x 2.057780 -0.016200 0.008650 
#    y -0.016200 2.509870 0.085980 
#    z 0.008650 0.085980 2.110610 
# 
# From -- ./inp_files/207336.got.cif
#   From: 2010.05.17/outbox.cif.g08.bks.cpg/sg2_104_cif.got.tgz:207336.got - 2010.06.03 11:33:40.
