data_PCOD9087027
_publ_section_title
;
Structure prediction by ZEFSAII (Michael W. Deem and Ramdas Pophale) SiO2 
 PCOD9087027
Probable space group: P -1
;
_chemical_formula_sum "Si O2"
_cell_formula_units_Z 14
_cell_length_a 10.673661
_cell_length_b 24.017621
_cell_length_c 18.720426
_cell_angle_alpha 156.757901
_cell_angle_beta 153.494399
_cell_angle_gamma 23.444302
_cell_volume 711.108096
_symmetry_space_group_name_H-M "P -1"
_symmetry_group_IT_number 2
_symmetry_cell_setting 'triclinic'
loop_
_space_group_symop_operation_xyz
x,y,z
-x,-y,-z
loop_
_atom_site_type_symbol
_atom_site_label
_atom_site_fract_x
_atom_site_fract_y
_atom_site_fract_z
Si Si1 0.014526 0.576586 0.022123
Si Si2 0.116157 0.018224 0.002043
Si Si3 0.259310 0.459620 0.486471
Si Si4 0.289577 0.033761 0.672744
Si Si5 0.125462 0.209187 0.418577
Si Si6 0.248146 0.619287 0.818813
Si Si7 0.224813 0.584693 0.396791
O O1 0.398011 0.475273 0.073929
O O2 0.872411 0.769834 0.189832
O O3 0.000000 0.500000 0.000000
O O4 0.812352 0.545930 0.822970
O O5 0.092829 0.874798 0.781809
O O6 0.458752 0.008386 0.181322
O O7 0.000000 0.000000 0.000000
O O8 0.864606 0.197254 0.049576
O O9 0.303484 0.507077 0.644514
O O10 0.614364 0.349023 0.498632
O O11 0.049001 0.636859 0.545562
O O12 0.042727 0.377508 0.281840
O O13 0.522328 0.925402 0.596703
O O14 0.000000 0.000000 0.500000
O O15 0.109767 0.285102 0.577850
O O16 0.500000 0.500000 0.500000
#
# Coordination Sequence:
#
# PCOD9087027 Si02
#       7
#     2   2   2   2   2   2   2
#     4  12  23  38  63  96 119 158 214 254 294 366
#     4  10  19  37  60  86 120 163 207 240 302 368
#     4  10  19  36  61  89 117 162 199 251 306 355
#     4  11  22  36  59  94 124 156 202 256 304 360
#     4  10  20  40  62  84 120 167 205 243 302 373
#     4  11  21  35  62  91 122 150 209 261 295 349
#     4  10  22  40  63  89 124 167 205 247 308 375
#
# _framework density 19.687583
#
# number of rings (size 3 to 8) (size 9 to 14) (size 15 to 20)
#    0.000    1.429    4.286    4.286    2.000    0.000 
#    0.000   11.429    0.000    0.000    0.000    0.000 
#    0.000    0.000    0.000    0.000    0.000    0.000 
#
# Total GULP energy -78068.289957 kJ/mol
# GULP energy per Si atom -5576.306425 kJ/mol
# Density = 1.964277 g / cm^3
# Si number density = 19.687583 Si / 1000 Ang^3
#
#
#
# Elastic Constant Matrix: (Units=GPa)
#
#
# Indices 1 2 3 4 5 6 
#
# 1 80.3417 28.2000 51.1325 2.1590 5.3602 -23.2739
# 2 28.2000 95.7911 34.1387 7.5883 5.5700 -9.1497
# 3 51.1325 34.1387 104.9696 1.0088 8.3850 -10.6124
# 4 2.1590 7.5883 1.0088 30.3598 -7.9214 0.9795
# 5 5.3602 5.5700 8.3850 -7.9214 24.3154 -7.3913
# 6 -23.2739 -9.1497 -10.6124 0.9795 -7.3913 21.5493
#
#
#
# Elastic Compliance Matrix: (Units=1/GPa)
#
#
# Indices 1 2 3 4 5 6 
#
# 1 0.026364 -0.002106 -0.010115 -0.000372 0.005484 0.024496
# 2 -0.002106 0.012548 -0.002729 -0.003528 -0.002289 0.001085
# 3 -0.010115 -0.002729 0.015059 0.000004 -0.004193 -0.006106
# 4 -0.000372 -0.003528 0.000004 0.037295 0.013337 0.000982
# 5 0.005484 -0.002289 -0.004193 0.013337 0.052387 0.020249
# 6 0.024496 0.001085 -0.006106 0.000982 0.020249 0.077216
#
#
# Mechanical properties :
#
#
# Convention : Reuss Voigt Hill
#
# Bulk Modulus (GPa) = 41.54372 56.44942 48.99657
# Shear Modulus (GPa) = 19.32044 26.42032 22.87038
#
# Velocity S-wave (km/s) = 3.13605 3.66728 3.41202
# Velocity P-wave (km/s) = 5.85324 6.83131 6.36110
#
# Compressibility (1/GPa) = 0.02407103
#
# Stress axis : x y z
#
# Youngs Moduli (GPa) = 37.93013 79.69392 66.40547
#
# Poissons Ratio (x) = 0.16784 0.67172
# Poissons Ratio (y) = 0.07988 0.18120
# Poissons Ratio (z) = 0.38368 0.21746
#
# Static dielectric constant tensor:
#      x y z
#    x 1.721270 -0.045020 0.003050 
#    y -0.045020 1.754860 -0.032610 
#    z 0.003050 -0.032610 1.754610 
# 
# From -- ./inp_files/199718.got.cif
#   From: 2010.05.17/outbox.cif.g08.bks.cpg/sg2_100_cif.got.tgz:199718.got - 2010.06.03 11:33:40.
