data_PCOD9087340
_publ_section_title
;
Structure prediction by ZEFSAII (Michael W. Deem and Ramdas Pophale) SiO2 
 PCOD9087340
Probable space group: P -1
;
_chemical_formula_sum "Si O2"
_cell_formula_units_Z 14
_cell_length_a 17.756129
_cell_length_b 8.975857
_cell_length_c 12.207799
_cell_angle_alpha 127.467103
_cell_angle_beta 149.385758
_cell_angle_gamma 48.812158
_cell_volume 741.251984
_symmetry_space_group_name_H-M "P -1"
_symmetry_group_IT_number 2
_symmetry_cell_setting 'triclinic'
loop_
_space_group_symop_operation_xyz
x,y,z
-x,-y,-z
loop_
_atom_site_type_symbol
_atom_site_label
_atom_site_fract_x
_atom_site_fract_y
_atom_site_fract_z
Si Si1 0.335656 0.175821 0.488490
Si Si2 0.327062 0.067819 0.177283
Si Si3 0.064981 0.432129 0.929700
Si Si4 0.210649 0.689945 0.861818
Si Si5 0.455545 0.541851 0.835718
Si Si6 0.997271 0.793319 0.852739
Si Si7 0.878134 0.225311 0.452040
O O1 0.303512 0.122570 0.300792
O O2 0.386763 0.370960 0.634665
O O3 0.182419 0.198901 0.376551
O O4 0.488398 0.003831 0.646195
O O5 0.227714 0.254727 0.067053
O O6 0.266753 0.882115 0.001924
O O7 0.076457 0.618270 0.959914
O O8 0.949035 0.343013 0.679101
O O9 0.000000 0.500000 0.000000
O O10 0.138894 0.673951 0.645462
O O11 0.085410 0.742578 0.825313
O O12 0.368232 0.507828 0.012625
O O13 0.304060 0.741922 0.727580
O O14 0.500000 0.500000 0.000000
O O15 0.000000 0.000000 0.000000
O O16 0.000000 0.000000 0.500000
#
# Coordination Sequence:
#
# PCOD9087340 Si02
#       7
#     2   2   2   2   2   2   2
#     4  10  19  36  63  85 118 162 206 240 307 365
#     4  10  19  37  62  87 116 160 207 252 291 368
#     4  12  22  39  63  91 122 160 209 253 302 368
#     4  10  21  38  62  89 127 158 203 253 309 360
#     4   9  19  37  58  88 115 162 206 244 294 376
#     4  12  23  39  61  93 128 163 200 261 310 358
#     4  11  21  37  65  95 118 159 209 256 300 363
#
# _framework density 18.886965
#
# number of rings (size 3 to 8) (size 9 to 14) (size 15 to 20)
#    0.000    1.429    5.714    0.000    0.000    0.571 
#    0.000    2.143    0.000    1.714    0.000    0.000 
#    0.000    0.000    0.000    0.000    0.000    0.000 
#
# Total GULP energy -78061.868219 kJ/mol
# GULP energy per Si atom -5575.847730 kJ/mol
# Density = 1.884398 g / cm^3
# Si number density = 18.886965 Si / 1000 Ang^3
#
#
#
# Elastic Constant Matrix: (Units=GPa)
#
#
# Indices 1 2 3 4 5 6 
#
# 1 113.4003 30.9931 41.1345 -18.8648 7.8415 -23.2284
# 2 30.9931 120.1854 40.4125 -39.3184 6.7374 -9.9311
# 3 41.1345 40.4125 100.3840 -19.7656 -11.3949 -11.6366
# 4 -18.8648 -39.3184 -19.7656 47.4483 -19.9294 5.2706
# 5 7.8415 6.7374 -11.3949 -19.9294 34.6455 -4.9947
# 6 -23.2284 -9.9311 -11.6366 5.2706 -4.9947 30.9582
#
#
#
# Elastic Compliance Matrix: (Units=1/GPa)
#
#
# Indices 1 2 3 4 5 6 
#
# 1 0.012199 -0.000889 -0.004026 0.000590 -0.002587 0.006837
# 2 -0.000889 0.012602 -0.002142 0.010403 0.003220 0.001319
# 3 -0.004026 -0.002142 0.015506 0.007450 0.011094 0.002642
# 4 0.000590 0.010403 0.007450 0.043499 0.025797 0.003337
# 5 -0.002587 0.003220 0.011094 0.025797 0.048271 0.006658
# 6 0.006837 0.001319 0.002642 0.003337 0.006658 0.039354
#
#
# Mechanical properties :
#
#
# Convention : Reuss Voigt Hill
#
# Bulk Modulus (GPa) = 38.17797 62.11666 50.14731
# Shear Modulus (GPa) = 25.73654 37.37237 31.55445
#
# Velocity S-wave (km/s) = 3.69543 4.45313 4.09185
# Velocity P-wave (km/s) = 6.20210 7.70717 6.99523
#
# Compressibility (1/GPa) = 0.02619312
#
# Stress axis : x y z
#
# Youngs Moduli (GPa) = 81.97273 79.35393 64.48958
#
# Poissons Ratio (x) = 0.07055 0.25962
# Poissons Ratio (y) = 0.07288 0.13815
# Poissons Ratio (z) = 0.33001 0.16999
#
# Static dielectric constant tensor:
#      x y z
#    x 1.729180 -0.142830 -0.197110 
#    y -0.142830 1.802760 0.222820 
#    z -0.197110 0.222820 2.283840 
# 
# From -- ./inp_files/166356.got.cif
#   From: 2010.05.17/outbox.cif.g08.bks.cpg/sg2_84_cif.got.tgz:166356.got - 2010.06.03 11:33:40.
