data_PCOD9087512
_publ_section_title
;
Structure prediction by ZEFSAII (Michael W. Deem and Ramdas Pophale) SiO2 
 PCOD9087512
Probable space group: P -1
;
_chemical_formula_sum "Si O2"
_cell_formula_units_Z 16
_cell_length_a 7.617730
_cell_length_b 17.199295
_cell_length_c 22.104554
_cell_angle_alpha 24.370207
_cell_angle_beta 51.183914
_cell_angle_gamma 37.501056
_cell_volume 672.486379
_symmetry_space_group_name_H-M "P -1"
_symmetry_group_IT_number 2
_symmetry_cell_setting 'triclinic'
loop_
_space_group_symop_operation_xyz
x,y,z
-x,-y,-z
loop_
_atom_site_type_symbol
_atom_site_label
_atom_site_fract_x
_atom_site_fract_y
_atom_site_fract_z
Si Si1 0.343460 0.464667 0.326297
Si Si2 0.360482 0.937107 0.364939
Si Si3 0.796880 0.166409 0.736941
Si Si4 0.294006 0.349644 0.622035
Si Si5 0.789059 0.438346 0.080316
Si Si6 0.465613 0.783844 0.801716
Si Si7 0.423974 0.262998 0.328067
Si Si8 0.124309 0.786257 0.041448
O O1 0.572552 0.302048 0.448219
O O2 0.530577 0.270100 0.366518
O O3 0.193916 0.734176 0.135428
O O4 0.042763 0.519676 0.374776
O O5 0.583872 0.839773 0.327407
O O6 0.424760 0.069165 0.304871
O O7 0.013703 0.149711 0.263237
O O8 0.532344 0.208064 0.727207
O O9 0.714883 0.433656 0.556476
O O10 0.120957 0.960565 0.776957
O O11 0.871651 0.051253 0.870571
O O12 0.463884 0.643473 0.041158
O O13 0.701875 0.506619 0.980795
O O14 0.000000 0.500000 0.000000
O O15 0.473857 0.750146 0.752737
O O16 0.097504 0.575390 0.180194
O O17 0.500000 0.000000 0.500000
#
# Coordination Sequence:
#
# PCOD9087512 Si02
#       8
#     2   2   2   2   2   2   2   2
#     4  10  22  39  57  89 123 164 197 243 312 357
#     4  11  21  37  63  86 122 162 200 247 308 365
#     4  10  22  40  61  92 113 161 220 250 297 356
#     4  11  23  38  65  85 121 164 213 253 290 365
#     4   9  21  37  61  92 122 155 201 254 308 367
#     4  10  19  38  63  88 119 153 203 253 305 364
#     4  10  19  36  64  87 123 159 194 253 314 362
#     4   9  22  39  64  88 125 157 203 259 309 355
#
# _framework density 23.792303
#
# number of rings (size 3 to 8) (size 9 to 14) (size 15 to 20)
#    0.750    1.250    2.500    0.375    3.500    2.000 
#    0.000    0.625    0.000    0.000    0.000    0.000 
#    0.000    0.000    0.000    0.000    0.000    0.000 
#
# Total GULP energy -89069.367007 kJ/mol
# GULP energy per Si atom -5566.835438 kJ/mol
# Density = 2.373815 g / cm^3
# Si number density = 23.792303 Si / 1000 Ang^3
#
#
#
# Elastic Constant Matrix: (Units=GPa)
#
#
# Indices 1 2 3 4 5 6 
#
# 1 67.9056 27.2095 36.2055 -1.1768 30.2395 4.9660
# 2 27.2095 79.4535 38.4935 22.5206 19.3390 23.2183
# 3 36.2055 38.4935 212.3373 19.8839 43.1405 0.3171
# 4 -1.1768 22.5206 19.8839 42.3742 8.8912 3.8118
# 5 30.2395 19.3390 43.1405 8.8912 48.0596 -1.8750
# 6 4.9660 23.2183 0.3171 3.8118 -1.8750 17.8783
#
#
#
# Elastic Compliance Matrix: (Units=1/GPa)
#
#
# Indices 1 2 3 4 5 6 
#
# 1 0.023703 -0.006055 -0.000976 0.007205 -0.012997 -0.001602
# 2 -0.006055 0.031254 -0.002301 -0.011077 -0.006100 -0.037144
# 3 -0.000976 -0.002301 0.006138 -0.001195 -0.003631 0.003024
# 4 0.007205 -0.011077 -0.001195 0.030701 -0.004473 0.005391
# 5 -0.012997 -0.006100 -0.003631 -0.004473 0.036165 0.016344
# 6 -0.001602 -0.037144 0.003024 0.005391 0.016344 0.105128
#
#
# Mechanical properties :
#
#
# Convention : Reuss Voigt Hill
#
# Bulk Modulus (GPa) = 23.56795 62.61260 43.09028
# Shear Modulus (GPa) = 18.80443 38.84829 28.82636
#
# Velocity S-wave (km/s) = 2.81438 4.04519 3.48456
# Velocity P-wave (km/s) = 4.52639 6.94201 5.86002
#
# Compressibility (1/GPa) = 0.04243050
#
# Stress axis : x y z
#
# Youngs Moduli (GPa) = 42.18941 31.99641 162.91843
#
# Poissons Ratio (x) = 0.19375 0.15893
# Poissons Ratio (y) = 0.25547 0.37489
# Poissons Ratio (z) = 0.04116 0.07363
#
# Static dielectric constant tensor:
#      x y z
#    x 2.038610 0.089580 -0.081860 
#    y 0.089580 2.992860 0.194120 
#    z -0.081860 0.194120 2.077270 
# 
# From -- ./inp_files/590965.got.cif
#   From: 2010.05.17/outbox.cif.g08.bks.cpg/sg2_296_cif.got.tgz:590965.got - 2010.06.03 11:33:40.
