data_PCOD9087291
_publ_section_title
;
Structure prediction by ZEFSAII (Michael W. Deem and Ramdas Pophale) SiO2 
 PCOD9087291
Probable space group: P -1
;
_chemical_formula_sum "Si O2"
_cell_formula_units_Z 16
_cell_length_a 10.784084
_cell_length_b 8.292427
_cell_length_c 11.747308
_cell_angle_alpha 82.901259
_cell_angle_beta 99.611094
_cell_angle_gamma 136.448054
_cell_volume 713.654219
_symmetry_space_group_name_H-M "P -1"
_symmetry_group_IT_number 2
_symmetry_cell_setting 'triclinic'
loop_
_space_group_symop_operation_xyz
x,y,z
-x,-y,-z
loop_
_atom_site_type_symbol
_atom_site_label
_atom_site_fract_x
_atom_site_fract_y
_atom_site_fract_z
Si Si1 0.555338 0.388447 0.580783
Si Si2 0.224211 0.535558 0.716559
Si Si3 0.721193 0.141511 0.476687
Si Si4 0.259982 0.381719 0.946473
Si Si5 0.840126 0.299403 0.741130
Si Si6 0.704753 0.503017 0.816752
Si Si7 0.935998 0.759190 0.498830
Si Si8 0.173401 0.047617 0.117442
O O1 0.500000 0.500000 0.500000
O O2 0.538860 0.376674 0.715633
O O3 0.767820 0.573406 0.571080
O O4 0.437527 0.135413 0.533591
O O5 0.318288 0.750407 0.627414
O O6 0.325526 0.522399 0.827361
O O7 0.130311 0.325093 0.632786
O O8 0.057387 0.477559 0.753079
O O9 0.764178 0.227757 0.606193
O O10 0.904548 0.220440 0.458532
O O11 0.328738 0.548661 0.049935
O O12 0.283358 0.217188 0.008697
O O13 0.038690 0.179932 0.923617
O O14 0.793965 0.419425 0.792488
O O15 0.764354 0.063276 0.808419
O O16 0.810234 0.777304 0.812492
O O17 0.000000 0.000000 0.500000
#
# Coordination Sequence:
#
# PCOD9087291 Si02
#       8
#     2   2   2   2   2   2   2   2
#     4  12  24  40  67  96 128 169 215 267 320 386
#     4  10  21  38  57  90 134 167 208 265 320 383
#     4  11  23  42  60  97 134 160 212 265 324 381
#     4   8  18  36  56  87 127 171 209 264 317 372
#     4  10  19  36  62  93 129 167 214 269 318 379
#     4  10  20  35  59  93 122 167 218 258 320 380
#     4  11  23  39  64  94 126 168 209 261 324 378
#     4   8  17  33  55  88 125 163 213 268 306 371
#
# _framework density 22.419822
#
# number of rings (size 3 to 8) (size 9 to 14) (size 15 to 20)
#    0.750    1.250    1.250    3.750    3.500    4.000 
#    0.000    0.625    0.000    0.750    0.000    0.000 
#    0.000    0.000    0.000    0.000    0.000    0.000 
#
# Total GULP energy -89221.091657 kJ/mol
# GULP energy per Si atom -5576.318229 kJ/mol
# Density = 2.236879 g / cm^3
# Si number density = 22.419822 Si / 1000 Ang^3
#
#
#
# Elastic Constant Matrix: (Units=GPa)
#
#
# Indices 1 2 3 4 5 6 
#
# 1 86.8937 54.6096 46.2730 -11.3576 7.6674 -26.2284
# 2 54.6096 116.2788 49.6141 -8.6187 4.4867 -22.6413
# 3 46.2730 49.6141 127.7103 -24.4466 25.5203 -26.8014
# 4 -11.3576 -8.6187 -24.4466 38.1336 -14.2233 5.4931
# 5 7.6674 4.4867 25.5203 -14.2233 27.8955 -7.0870
# 6 -26.2284 -22.6413 -26.8014 5.4931 -7.0870 38.5777
#
#
#
# Elastic Compliance Matrix: (Units=1/GPa)
#
#
# Indices 1 2 3 4 5 6 
#
# 1 0.019416 -0.006349 -0.002887 0.001861 0.001159 0.007416
# 2 -0.006349 0.013093 -0.002973 -0.000059 0.002792 0.001824
# 3 -0.002887 -0.002973 0.012979 0.003296 -0.008069 0.003358
# 4 0.001861 -0.000059 0.003296 0.033961 0.014124 0.001279
# 5 0.001159 0.002792 -0.008069 0.014124 0.050712 0.004126
# 6 0.007416 0.001824 0.003358 0.001279 0.004126 0.034943
#
#
# Mechanical properties :
#
#
# Convention : Reuss Voigt Hill
#
# Bulk Modulus (GPa) = 47.46104 70.20847 58.83476
# Shear Modulus (GPa) = 25.43950 32.94712 29.19331
#
# Velocity S-wave (km/s) = 3.37217 3.83763 3.61241
# Velocity P-wave (km/s) = 6.03135 7.14282 6.61049
#
# Compressibility (1/GPa) = 0.02106991
#
# Stress axis : x y z
#
# Youngs Moduli (GPa) = 51.50518 76.37515 77.04711
#
# Poissons Ratio (x) = 0.48492 0.22245
# Poissons Ratio (y) = 0.32702 0.22902
# Poissons Ratio (z) = 0.14871 0.22703
#
# Static dielectric constant tensor:
#      x y z
#    x 1.913050 0.018400 0.000330 
#    y 0.018400 1.826300 -0.034770 
#    z 0.000330 -0.034770 1.905590 
# 
# From -- ./inp_files/417159.got.cif
#   From: 2010.05.17/outbox.cif.g08.bks.cpg/sg2_209_cif.got.tgz:417159.got - 2010.06.03 11:33:40.
