data_PCOD9087499
_publ_section_title
;
Structure prediction by ZEFSAII (Michael W. Deem and Ramdas Pophale) SiO2 
 PCOD9087499
Probable space group: P -1
;
_chemical_formula_sum "Si O2"
_cell_formula_units_Z 16
_cell_length_a 8.492158
_cell_length_b 14.283294
_cell_length_c 8.008203
_cell_angle_alpha 122.027384
_cell_angle_beta 124.132766
_cell_angle_gamma 63.708407
_cell_volume 666.871439
_symmetry_space_group_name_H-M "P -1"
_symmetry_group_IT_number 2
_symmetry_cell_setting 'triclinic'
loop_
_space_group_symop_operation_xyz
x,y,z
-x,-y,-z
loop_
_atom_site_type_symbol
_atom_site_label
_atom_site_fract_x
_atom_site_fract_y
_atom_site_fract_z
Si Si1 0.970069 0.873643 0.830676
Si Si2 0.401796 0.819667 0.979783
Si Si3 0.689763 0.070043 0.300556
Si Si4 0.110908 0.134933 0.577882
Si Si5 0.784169 0.649503 0.014934
Si Si6 0.702865 0.536399 0.183270
Si Si7 0.554170 0.236633 0.669594
Si Si8 0.947550 0.321331 0.080478
O O1 0.833897 0.883187 0.599866
O O2 0.181717 0.801181 0.834278
O O3 0.929963 0.797481 0.886918
O O4 0.000000 0.000000 0.000000
O O5 0.385953 0.916439 0.921406
O O6 0.562011 0.713898 0.914246
O O7 0.444301 0.828104 0.211302
O O8 0.567374 0.155408 0.442038
O O9 0.901852 0.104114 0.450208
O O10 0.739268 0.946677 0.292762
O O11 0.111048 0.260855 0.746194
O O12 0.777011 0.555693 0.058927
O O13 0.902481 0.629250 0.897622
O O14 0.632169 0.658637 0.343354
O O15 0.850681 0.427661 0.240985
O O16 0.500000 0.500000 0.000000
O O17 0.757623 0.284539 0.845816
#
# Coordination Sequence:
#
# PCOD9087499 Si02
#       8
#     2   2   2   2   2   2   2   2
#     4  10  21  40  63  87 123 169 204 238 309 379
#     4   9  21  35  58  85 125 155 202 244 302 365
#     4  10  19  37  60  87 122 170 200 242 313 373
#     4  10  21  35  60  91 125 158 206 253 298 367
#     4  11  21  38  59  95 123 151 206 264 305 351
#     4   9  20  38  64  85 117 166 205 252 311 371
#     4   9  17  37  62  86 116 161 209 244 301 369
#     4  10  19  36  64  85 119 160 205 251 309 358
#
# _framework density 23.992632
#
# number of rings (size 3 to 8) (size 9 to 14) (size 15 to 20)
#    0.000    2.250    1.250    2.625    3.500    0.500 
#    4.500    3.750    5.500    8.250    0.000    0.000 
#    0.000    0.000    0.000    0.000    0.000    0.000 
#
# Total GULP energy -89253.358314 kJ/mol
# GULP energy per Si atom -5578.334895 kJ/mol
# Density = 2.393802 g / cm^3
# Si number density = 23.992632 Si / 1000 Ang^3
#
#
#
# Elastic Constant Matrix: (Units=GPa)
#
#
# Indices 1 2 3 4 5 6 
#
# 1 115.3122 46.3380 15.4939 -2.7988 -5.2295 2.0124
# 2 46.3380 131.2242 14.2329 -12.8981 -8.0067 14.5456
# 3 15.4939 14.2329 56.5732 -8.9212 2.1451 -1.7723
# 4 -2.7988 -12.8981 -8.9212 14.0088 -2.7456 1.6813
# 5 -5.2295 -8.0067 2.1451 -2.7456 33.1850 -1.2757
# 6 2.0124 14.5456 -1.7723 1.6813 -1.2757 35.1772
#
#
#
# Elastic Compliance Matrix: (Units=1/GPa)
#
#
# Indices 1 2 3 4 5 6 
#
# 1 0.010456 -0.003791 -0.002360 -0.002892 0.000685 0.001014
# 2 -0.003791 0.010634 -0.000320 0.009895 0.002632 -0.004574
# 3 -0.002360 -0.000320 0.020339 0.011956 -0.000748 0.000693
# 4 -0.002892 0.009895 0.011956 0.090041 0.008327 -0.007325
# 5 0.000685 0.002632 -0.000748 0.008327 0.031598 -0.000417
# 6 0.001014 -0.004574 0.000693 -0.007325 -0.000417 0.030631
#
#
# Mechanical properties :
#
#
# Convention : Reuss Voigt Hill
#
# Bulk Modulus (GPa) = 35.10424 50.58215 42.84320
# Shear Modulus (GPa) = 23.13358 31.61052 27.37205
#
# Velocity S-wave (km/s) = 3.10852 3.63369 3.38131
# Velocity P-wave (km/s) = 5.24851 6.22359 5.75673
#
# Compressibility (1/GPa) = 0.02848658
#
# Stress axis : x y z
#
# Youngs Moduli (GPa) = 95.64056 94.03788 49.16764
#
# Poissons Ratio (x) = 0.35649 0.11604
# Poissons Ratio (y) = 0.36257 0.01573
# Poissons Ratio (z) = 0.22572 0.03008
#
# Static dielectric constant tensor:
#      x y z
#    x 2.021230 0.031420 -0.058530 
#    y 0.031420 1.948320 -0.049620 
#    z -0.058530 -0.049620 1.972510 
# 
# From -- ./inp_files/203796.got.cif
#   From: 2010.05.17/outbox.cif.g08.bks.cpg/sg2_102_cif.got.tgz:203796.got - 2010.06.03 11:33:40.
