data_PCOD9087528
_publ_section_title
;
Structure prediction by ZEFSAII (Michael W. Deem and Ramdas Pophale) SiO2 
 PCOD9087528
Probable space group: P -1
;
_chemical_formula_sum "Si O2"
_cell_formula_units_Z 14
_cell_length_a 10.425263
_cell_length_b 5.574535
_cell_length_c 14.567296
_cell_angle_alpha 76.598485
_cell_angle_beta 137.002248
_cell_angle_gamma 104.506834
_cell_volume 557.429152
_symmetry_space_group_name_H-M "P -1"
_symmetry_group_IT_number 2
_symmetry_cell_setting 'triclinic'
loop_
_space_group_symop_operation_xyz
x,y,z
-x,-y,-z
loop_
_atom_site_type_symbol
_atom_site_label
_atom_site_fract_x
_atom_site_fract_y
_atom_site_fract_z
Si Si1 0.832012 0.957969 0.992337
Si Si2 0.975449 0.281010 0.736203
Si Si3 0.853357 0.969406 0.554733
Si Si4 0.305537 0.440075 0.350412
Si Si5 0.708341 0.911917 0.288233
Si Si6 0.228185 0.509451 0.105252
Si Si7 0.356640 0.549466 0.840990
O O1 0.738373 0.680579 0.941272
O O2 0.717352 0.195603 0.906721
O O3 0.916665 0.932354 0.140773
O O4 0.000000 0.000000 0.000000
O O5 0.830399 0.345423 0.731591
O O6 0.143926 0.487142 0.776933
O O7 0.845285 0.226093 0.582551
O O8 0.805093 0.778186 0.628582
O O9 0.070740 0.011062 0.632577
O O10 0.719322 0.893843 0.405829
O O11 0.500000 0.500000 0.500000
O O12 0.319595 0.402921 0.252959
O O13 0.616303 0.159884 0.194579
O O14 0.642930 0.655207 0.222839
O O15 0.000000 0.500000 0.000000
O O16 0.500000 0.500000 0.000000
#
# Coordination Sequence:
#
# PCOD9087528 Si02
#       7
#     2   2   2   2   2   2   2
#     4  10  19  36  64  89 119 171 218 263 320 386
#     4  11  23  41  70  93 137 179 225 281 344 401
#     4  10  23  42  68  97 132 183 221 275 346 405
#     4  12  25  42  64  98 139 182 229 282 334 407
#     4  10  23  43  74  98 137 171 226 278 343 409
#     4  10  20  39  61  86 126 168 223 266 322 383
#     4  11  24  45  69 105 133 170 224 287 344 404
#
# _framework density 25.115300000000001
#
# number of rings (size 3 to 8) (size 9 to 14) (size 15 to 20)
#    0.000    1.429    4.286    2.143    2.000    2.286 
#    5.143    0.000    0.000    0.000    0.000    0.000 
#    0.000    0.000    0.000    0.000    0.000    0.000 
#
# Total GULP energy -78247.294242 kJ/mol
# GULP energy per Si atom -5589.092446 kJ/mol
# Density = 2.505814 g / cm^3
# Si number density = 25.115300 Si / 1000 Ang^3
#
#
#
# Elastic Constant Matrix: (Units=GPa)
#
#
# Indices 1 2 3 4 5 6 
#
# 1 62.1286 30.7688 18.1151 10.8965 -7.1576 -7.7134
# 2 30.7688 156.9508 68.1247 9.3355 -16.7858 -3.8932
# 3 18.1151 68.1247 150.9043 27.8665 -36.5487 -6.2100
# 4 10.8965 9.3355 27.8665 46.0359 -2.8136 -5.5861
# 5 -7.1576 -16.7858 -36.5487 -2.8136 43.2392 -1.1770
# 6 -7.7134 -3.8932 -6.2100 -5.5861 -1.1770 39.3486
#
#
#
# Elastic Compliance Matrix: (Units=1/GPa)
#
#
# Indices 1 2 3 4 5 6 
#
# 1 0.018884 -0.003443 0.000603 -0.003641 0.002143 0.003003
# 2 -0.003443 0.008572 -0.003803 0.001325 -0.000377 -0.000250
# 3 0.000603 -0.003803 0.011222 -0.005574 0.007772 0.000954
# 4 -0.003641 0.001325 -0.005574 0.025757 -0.003066 0.002103
# 5 0.002143 -0.000377 0.007772 -0.003066 0.029762 0.002064
# 6 0.003003 -0.000250 0.000954 0.002103 0.002064 0.026489
#
#
# Mechanical properties :
#
#
# Convention : Reuss Voigt Hill
#
# Bulk Modulus (GPa) = 39.38452 67.11122 53.24787
# Shear Modulus (GPa) = 35.10382 42.58975 38.84679
#
# Velocity S-wave (km/s) = 3.74265 4.12244 3.93713
# Velocity P-wave (km/s) = 5.86448 7.03126 6.47421
#
# Compressibility (1/GPa) = 0.02539069
#
# Stress axis : x y z
#
# Youngs Moduli (GPa) = 52.95619 116.66436 89.11046
#
# Poissons Ratio (x) = 0.40170 -0.05370
# Poissons Ratio (y) = 0.18234 0.33885
# Poissons Ratio (z) = -0.03191 0.44363
#
# Static dielectric constant tensor:
#      x y z
#    x 2.062960 0.001760 0.012300 
#    y 0.001760 2.210900 0.056120 
#    z 0.012300 0.056120 1.940590 
# 
# From -- ./inp_files/68220.got.cif
#   From: 2010.05.17/outbox.cif.g08.bks.cpg/sg2_35_cif.got.tgz:68220.got - 2010.06.03 11:33:40.
