data_PCOD9087982
_publ_section_title
;
Structure prediction by ZEFSAII (Michael W. Deem and Ramdas Pophale) SiO2 
 PCOD9087982
Probable space group: P -1
;
_chemical_formula_sum "Si O2"
_cell_formula_units_Z 16
_cell_length_a 14.915933
_cell_length_b 13.982202
_cell_length_c 8.349478
_cell_angle_alpha 100.231727
_cell_angle_beta 89.487273
_cell_angle_gamma 150.593562
_cell_volume 802.191746
_symmetry_space_group_name_H-M "P -1"
_symmetry_group_IT_number 2
_symmetry_cell_setting 'triclinic'
loop_
_space_group_symop_operation_xyz
x,y,z
-x,-y,-z
loop_
_atom_site_type_symbol
_atom_site_label
_atom_site_fract_x
_atom_site_fract_y
_atom_site_fract_z
Si Si1 0.051861 0.965217 0.367059
Si Si2 0.067200 0.797969 0.537206
Si Si3 0.025823 0.865241 0.879933
Si Si4 0.559934 0.947118 0.465635
Si Si5 0.657197 0.423921 0.803197
Si Si6 0.724877 0.753718 0.816722
Si Si7 0.628256 0.384192 0.436044
Si Si8 0.364110 0.481166 0.849209
O O1 0.080942 0.888659 0.420954
O O2 0.855265 0.766539 0.207218
O O3 0.246913 0.187191 0.348082
O O4 0.000000 0.000000 0.500000
O O5 0.106010 0.901218 0.723689
O O6 0.847254 0.555129 0.482243
O O7 0.221086 0.862082 0.528722
O O8 0.888165 0.648409 0.883662
O O9 0.873487 0.807997 0.847374
O O10 0.190612 0.070101 0.042534
O O11 0.433736 0.768991 0.280190
O O12 0.513033 0.840993 0.597576
O O13 0.500000 0.000000 0.500000
O O14 0.613327 0.424766 0.622769
O O15 0.588441 0.413252 0.959707
O O16 0.515675 0.540971 0.828622
O O17 0.615117 0.433996 0.289102
#
# Coordination Sequence:
#
# PCOD9087982 Si02
#       8
#     2   2   2   2   2   2   2   2
#     4  11  22  36  55  88 117 157 200 233 282 346
#     4  10  19  37  58  78 120 154 182 245 292 334
#     4  10  20  38  51  84 117 154 199 236 283 341
#     4  10  21  38  63  90 111 148 197 242 300 355
#     4   9  20  39  57  83 117 149 194 240 287 349
#     4  11  22  34  56  83 118 155 204 234 274 343
#     4   8  21  38  57  87 113 146 191 238 288 353
#     4  11  21  39  60  83 117 162 190 237 291 335
#
# _framework density 19.945356
#
# number of rings (size 3 to 8) (size 9 to 14) (size 15 to 20)
#    0.750    1.250    2.500    1.500    0.000    2.500 
#    0.000    0.625    0.000    3.000    0.000    0.000 
#    0.000    0.000    0.000    0.000    0.000    0.000 
#
# Total GULP energy -89073.143097 kJ/mol
# GULP energy per Si atom -5567.071444 kJ/mol
# Density = 1.989996 g / cm^3
# Si number density = 19.945356 Si / 1000 Ang^3
#
#
#
# Elastic Constant Matrix: (Units=GPa)
#
#
# Indices 1 2 3 4 5 6 
#
# 1 99.2481 33.0980 37.1593 -4.7011 -19.3600 25.6493
# 2 33.0980 65.9406 25.3126 -11.3765 -7.8244 14.6756
# 3 37.1593 25.3126 79.4525 -15.6859 -15.8651 6.1399
# 4 -4.7011 -11.3765 -15.6859 31.7230 -0.5229 -1.2608
# 5 -19.3600 -7.8244 -15.8651 -0.5229 17.3055 -1.9627
# 6 25.6493 14.6756 6.1399 -1.2608 -1.9627 25.3026
#
#
#
# Elastic Compliance Matrix: (Units=1/GPa)
#
#
# Indices 1 2 3 4 5 6 
#
# 1 0.019685 -0.003049 -0.004110 -0.000599 0.015036 -0.016052
# 2 -0.003049 0.020799 -0.003082 0.005214 0.002443 -0.007775
# 3 -0.004110 -0.003082 0.019355 0.008163 0.012296 0.002618
# 4 -0.000599 0.005214 0.008163 0.037437 0.010104 -0.001749
# 5 0.015036 0.002443 0.012296 0.010104 0.085873 -0.012478
# 6 -0.016052 -0.007775 0.002618 -0.001749 -0.012478 0.058613
#
#
# Mechanical properties :
#
#
# Convention : Reuss Voigt Hill
#
# Bulk Modulus (GPa) = 25.40987 48.42009 36.91498
# Shear Modulus (GPa) = 18.15787 24.80430 21.48109
#
# Velocity S-wave (km/s) = 3.02053 3.53032 3.28532
# Velocity P-wave (km/s) = 4.99321 6.39895 5.73928
#
# Compressibility (1/GPa) = 0.03935479
#
# Stress axis : x y z
#
# Youngs Moduli (GPa) = 50.80102 48.08003 51.66689
#
# Poissons Ratio (x) = 0.14661 0.21236
# Poissons Ratio (y) = 0.15491 0.15924
# Poissons Ratio (z) = 0.20881 0.14818
#
# Static dielectric constant tensor:
#      x y z
#    x 1.692900 0.005880 0.035960 
#    y 0.005880 1.798150 -0.004130 
#    z 0.035960 -0.004130 1.784610 
# 
# From -- ./inp_files/311611.got.cif
#   From: 2010.05.17/outbox.cif.g08.bks.cpg/sg2_156_cif.got.tgz:311611.got - 2010.06.03 11:33:40.
