data_PCOD9087285
_publ_section_title
;
Structure prediction by ZEFSAII (Michael W. Deem and Ramdas Pophale) SiO2 
 PCOD9087285
Probable space group: P -1
;
_chemical_formula_sum "Si O2"
_cell_formula_units_Z 16
_cell_length_a 18.212633
_cell_length_b 9.248098
_cell_length_c 8.907814
_cell_angle_alpha 118.484980
_cell_angle_beta 130.179112
_cell_angle_gamma 95.360753
_cell_volume 808.052719
_symmetry_space_group_name_H-M "P -1"
_symmetry_group_IT_number 2
_symmetry_cell_setting 'triclinic'
loop_
_space_group_symop_operation_xyz
x,y,z
-x,-y,-z
loop_
_atom_site_type_symbol
_atom_site_label
_atom_site_fract_x
_atom_site_fract_y
_atom_site_fract_z
Si Si1 0.728124 0.690847 0.764986
Si Si2 0.562160 0.661769 0.294217
Si Si3 0.722991 0.054534 0.011022
Si Si4 0.970053 0.809133 0.267901
Si Si5 0.072655 0.717524 0.117678
Si Si6 0.960853 0.441695 0.589843
Si Si7 0.454246 0.695672 0.469124
Si Si8 0.690861 0.119804 0.657502
O O1 0.677301 0.683330 0.528422
O O2 0.615667 0.494413 0.604571
O O3 0.760734 0.902333 0.981871
O O4 0.844672 0.701707 0.959723
O O5 0.481552 0.626825 0.315963
O O6 0.600982 0.878115 0.389086
O O7 0.500000 0.500000 0.000000
O O8 0.730156 0.127020 0.885122
O O9 0.583303 0.899173 0.793645
O O10 0.819777 0.257932 0.329957
O O11 0.066185 0.866173 0.291761
O O12 0.971781 0.651098 0.300438
O O13 0.000000 0.000000 0.500000
O O14 0.203012 0.793032 0.277798
O O15 0.000000 0.500000 0.000000
O O16 0.999922 0.645685 0.830268
O O17 0.000000 0.500000 0.500000
O O18 0.371040 0.768050 0.371236
#
# Coordination Sequence:
#
# PCOD9087285 Si02
#       8
#     2   2   2   2   2   2   2   2
#     4  10  21  41  63  90 125 162 210 255 313 379
#     4  10  22  41  62  94 130 159 201 261 318 370
#     4  10  19  36  62  93 122 163 202 255 308 376
#     4  11  23  42  64  91 124 168 212 258 314 371
#     4  10  22  39  60  91 124 162 208 264 306 369
#     4  11  21  39  63  90 128 167 207 253 319 369
#     4  10  20  39  68  89 121 166 211 251 314 376
#     4  10  20  41  64  87 125 161 209 255 310 371
#
# _framework density 19.800688999999998
#
# number of rings (size 3 to 8) (size 9 to 14) (size 15 to 20)
#    0.000    2.000    2.500    4.500    0.000    1.000 
#    9.000    6.250    0.000    0.000    0.000    0.000 
#    0.000    0.000    0.000    0.000    0.000    0.000 
#
# Total GULP energy -89150.531974 kJ/mol
# GULP energy per Si atom -5571.908248 kJ/mol
# Density = 1.975562 g / cm^3
# Si number density = 19.800689 Si / 1000 Ang^3
#
#
#
# Elastic Constant Matrix: (Units=GPa)
#
#
# Indices 1 2 3 4 5 6 
#
# 1 78.0210 24.7422 31.6648 -13.3717 1.7017 -15.2617
# 2 24.7422 86.3325 11.2224 -10.5080 -4.7136 -12.1122
# 3 31.6648 11.2224 88.4281 -2.8706 -15.5953 -19.6012
# 4 -13.3717 -10.5080 -2.8706 22.2276 -8.0222 3.1774
# 5 1.7017 -4.7136 -15.5953 -8.0222 33.7218 1.0354
# 6 -15.2617 -12.1122 -19.6012 3.1774 1.0354 23.5999
#
#
#
# Elastic Compliance Matrix: (Units=1/GPa)
#
#
# Indices 1 2 3 4 5 6 
#
# 1 0.018155 -0.003057 -0.005141 0.007328 -0.002131 0.005009
# 2 -0.003057 0.013927 0.001395 0.005560 0.003903 0.005410
# 3 -0.005141 0.001395 0.016868 0.001146 0.008194 0.010888
# 4 0.007328 0.005560 0.001146 0.057415 0.014591 0.000174
# 5 -0.002131 0.003903 0.008194 0.014591 0.037451 0.003823
# 6 0.005009 0.005410 0.010888 0.000174 0.003823 0.057241
#
#
# Mechanical properties :
#
#
# Convention : Reuss Voigt Hill
#
# Bulk Modulus (GPa) = 28.29267 43.11560 35.70413
# Shear Modulus (GPa) = 22.08068 28.25332 25.16700
#
# Velocity S-wave (km/s) = 3.34300 3.78151 3.56900
# Velocity P-wave (km/s) = 5.40561 6.39441 5.92069
#
# Compressibility (1/GPa) = 0.03534484
#
# Stress axis : x y z
#
# Youngs Moduli (GPa) = 55.08151 71.80508 59.28346
#
# Poissons Ratio (x) = 0.21948 0.30477
# Poissons Ratio (y) = 0.16836 -0.08270
# Poissons Ratio (z) = 0.28317 -0.10017
#
# Static dielectric constant tensor:
#      x y z
#    x 1.786770 -0.003680 -0.003080 
#    y -0.003680 1.704460 -0.012740 
#    z -0.003080 -0.012740 1.770540 
# 
# From -- ./inp_files/329487.got.cif
#   From: 2010.05.17/outbox.cif.g08.bks.cpg/sg2_165_cif.got.tgz:329487.got - 2010.06.03 11:33:40.
