data_PCOD9087902
_publ_section_title
;
Structure prediction by ZEFSAII (Michael W. Deem and Ramdas Pophale) SiO2 
 PCOD9087902
Probable space group: P -1
;
_chemical_formula_sum "Si O2"
_cell_formula_units_Z 14
_cell_length_a 13.907366
_cell_length_b 12.050258
_cell_length_c 8.395025
_cell_angle_alpha 99.542201
_cell_angle_beta 88.473450
_cell_angle_gamma 29.876812
_cell_volume 648.229785
_symmetry_space_group_name_H-M "P -1"
_symmetry_group_IT_number 2
_symmetry_cell_setting 'triclinic'
loop_
_space_group_symop_operation_xyz
x,y,z
-x,-y,-z
loop_
_atom_site_type_symbol
_atom_site_label
_atom_site_fract_x
_atom_site_fract_y
_atom_site_fract_z
Si Si1 0.353934 0.924648 0.620325
Si Si2 0.894091 0.760021 0.596970
Si Si3 0.683416 0.429062 0.820258
Si Si4 0.115459 0.976555 0.828340
Si Si5 0.289037 0.841264 0.121879
Si Si6 0.343281 0.558709 0.540261
Si Si7 0.648414 0.803853 0.590746
O O1 0.258499 0.928045 0.737760
O O2 0.527557 0.677995 0.448910
O O3 0.488301 0.880927 0.693235
O O4 0.177531 0.151783 0.563764
O O5 0.744297 0.813722 0.676104
O O6 0.135283 0.480316 0.535588
O O7 0.836363 0.933914 0.729295
O O8 0.653445 0.323911 0.808558
O O9 0.714960 0.420412 0.630231
O O10 0.493889 0.674629 0.985657
O O11 0.888347 0.247164 0.859557
O O12 0.164071 0.806631 0.701297
O O13 0.164330 0.920087 0.997234
O O14 0.500000 0.500000 0.500000
O O15 0.500000 0.000000 0.500000
#
# Coordination Sequence:
#
# PCOD9087902 Si02
#       7
#     2   2   2   2   2   2   2
#     4  10  21  36  62  87 117 149 200 246 285 342
#     4  10  22  39  66  87 114 153 196 244 303 342
#     4  11  23  37  57  84 130 163 193 230 287 351
#     4  11  23  36  55  90 122 161 198 234 286 350
#     4  11  23  38  56  87 126 160 192 236 289 352
#     4  10  19  37  56  84 122 156 199 237 276 343
#     4   9  21  42  64  90 109 145 203 253 293 349
#
# _framework density 21.597277999999999
#
# number of rings (size 3 to 8) (size 9 to 14) (size 15 to 20)
#    0.000    1.714    2.857    2.571    6.000    2.286 
#    0.000    0.714    0.000    8.571    0.000    0.000 
#    0.000    0.000    0.000    0.000    0.000    0.000 
#
# Total GULP energy -78073.227361 kJ/mol
# GULP energy per Si atom -5576.659097 kJ/mol
# Density = 2.154812 g / cm^3
# Si number density = 21.597278 Si / 1000 Ang^3
#
#
#
# Elastic Constant Matrix: (Units=GPa)
#
#
# Indices 1 2 3 4 5 6 
#
# 1 89.7432 13.6957 11.2608 4.2335 -8.8546 -7.3539
# 2 13.6957 122.1780 27.0802 3.2978 -2.0526 -18.8194
# 3 11.2608 27.0802 59.1834 -1.3616 -6.5900 -1.3189
# 4 4.2335 3.2978 -1.3616 24.8637 -1.1308 1.8351
# 5 -8.8546 -2.0526 -6.5900 -1.1308 20.9801 3.4058
# 6 -7.3539 -18.8194 -1.3189 1.8351 3.4058 43.5198
#
#
#
# Elastic Compliance Matrix: (Units=1/GPa)
#
#
# Indices 1 2 3 4 5 6 
#
# 1 0.012064 -0.000663 -0.001537 -0.001967 0.004201 0.001459
# 2 -0.000663 0.009944 -0.004541 -0.001837 -0.001522 0.004247
# 3 -0.001537 -0.004541 0.019901 0.002370 0.005637 -0.002161
# 4 -0.001967 -0.001837 0.002370 0.041259 0.002443 -0.002986
# 5 0.004201 -0.001522 0.005637 0.002443 0.051829 -0.003936
# 6 0.001459 0.004247 -0.002161 -0.002986 -0.003936 0.025430
#
#
# Mechanical properties :
#
#
# Convention : Reuss Voigt Hill
#
# Bulk Modulus (GPa) = 35.17840 41.68646 38.43243
# Shear Modulus (GPa) = 27.26521 32.47725 29.87123
#
# Velocity S-wave (km/s) = 3.55693 3.88205 3.72304
# Velocity P-wave (km/s) = 5.76131 6.27992 6.02620
#
# Compressibility (1/GPa) = 0.02842654
#
# Stress axis : x y z
#
# Youngs Moduli (GPa) = 82.89242 100.56558 50.24932
#
# Poissons Ratio (x) = 0.06670 0.07723
# Poissons Ratio (y) = 0.05498 0.22817
# Poissons Ratio (z) = 0.12740 0.45665
#
# Static dielectric constant tensor:
#      x y z
#    x 1.877150 0.019160 -0.050140 
#    y 0.019160 1.846630 0.005920 
#    z -0.050140 0.005920 1.798540 
# 
# From -- ./inp_files/307717.got.cif
#   From: 2010.05.17/outbox.cif.g08.bks.cpg/sg2_154_cif.got.tgz:307717.got - 2010.06.03 11:33:40.
