data_PCOD9087964
_publ_section_title
;
Structure prediction by ZEFSAII (Michael W. Deem and Ramdas Pophale) SiO2 
 PCOD9087964
Probable space group: P -1
;
_chemical_formula_sum "Si O2"
_cell_formula_units_Z 14
_cell_length_a 7.690737
_cell_length_b 11.900303
_cell_length_c 8.558263
_cell_angle_alpha 77.686081
_cell_angle_beta 52.021065
_cell_angle_gamma 93.097678
_cell_volume 585.480993
_symmetry_space_group_name_H-M "P -1"
_symmetry_group_IT_number 2
_symmetry_cell_setting 'triclinic'
loop_
_space_group_symop_operation_xyz
x,y,z
-x,-y,-z
loop_
_atom_site_type_symbol
_atom_site_label
_atom_site_fract_x
_atom_site_fract_y
_atom_site_fract_z
Si Si1 0.983810 0.283093 0.628106
Si Si2 0.209792 0.163313 0.975707
Si Si3 0.793544 0.881577 0.644950
Si Si4 0.636679 0.377074 0.598430
Si Si5 0.963297 0.333909 0.948403
Si Si6 0.356866 0.935674 0.950417
Si Si7 0.344915 0.536794 0.793252
O O1 0.862596 0.348467 0.550488
O O2 0.150913 0.213896 0.476233
O O3 0.069912 0.361135 0.709310
O O4 0.792501 0.182530 0.853150
O O5 0.213833 0.166628 0.160030
O O6 0.432785 0.258692 0.764646
O O7 0.989595 0.205498 0.025157
O O8 0.225447 0.034485 0.946521
O O9 0.552270 0.912029 0.735961
O O10 0.000000 0.000000 0.500000
O O11 0.559096 0.479869 0.710444
O O12 0.646572 0.408568 0.401115
O O13 0.132988 0.421379 0.945937
O O14 0.723231 0.368538 0.082402
O O15 0.500000 0.000000 0.000000
#
# Coordination Sequence:
#
# PCOD9087964 Si02
#       7
#     2   2   2   2   2   2   2
#     4  12  22  37  62  95 121 150 204 247 291 347
#     4  10  19  39  62  84 125 162 194 233 303 361
#     4  11  19  36  63  85 119 164 195 234 288 356
#     4  10  19  38  66  85 113 163 199 246 294 362
#     4  10  23  39  60  89 118 157 200 253 294 353
#     4  10  19  37  57  89 122 153 196 236 284 369
#     4   9  21  43  60  82 120 158 203 242 310 349
#
# _framework density 23.911963
#
# number of rings (size 3 to 8) (size 9 to 14) (size 15 to 20)
#    0.000    1.714    5.714    0.857    0.000    1.714 
#    7.714    0.714    0.000    0.000    0.000    0.000 
#    0.000    0.000    0.000    0.000    0.000    0.000 
#
# Total GULP energy -78228.288589 kJ/mol
# GULP energy per Si atom -5587.734899 kJ/mol
# Density = 2.385754 g / cm^3
# Si number density = 23.911963 Si / 1000 Ang^3
#
#
#
# Elastic Constant Matrix: (Units=GPa)
#
#
# Indices 1 2 3 4 5 6 
#
# 1 49.0810 35.8420 7.8471 13.1631 -1.8131 -24.3022
# 2 35.8420 158.0525 49.8141 39.2096 -6.1694 -42.7517
# 3 7.8471 49.8141 94.3959 18.0232 -9.5179 -13.4156
# 4 13.1631 39.2096 18.0232 64.3230 -4.4999 -13.2537
# 5 -1.8131 -6.1694 -9.5179 -4.4999 31.5886 1.1316
# 6 -24.3022 -42.7517 -13.4156 -13.2537 1.1316 45.0217
#
#
#
# Elastic Compliance Matrix: (Units=1/GPa)
#
#
# Indices 1 2 3 4 5 6 
#
# 1 0.029244 -0.003205 0.001477 -0.001785 0.000791 0.012636
# 2 -0.003205 0.010902 -0.003889 -0.003577 0.000034 0.006409
# 3 0.001477 -0.003889 0.013161 -0.001286 0.003087 0.000570
# 4 -0.001785 -0.003577 -0.001286 0.018704 0.001450 0.000726
# 5 0.000791 0.000034 0.003087 0.001450 0.032811 0.000981
# 6 0.012636 0.006409 0.000570 0.000726 0.000981 0.035478
#
#
# Mechanical properties :
#
#
# Convention : Reuss Voigt Hill
#
# Bulk Modulus (GPa) = 23.76910 54.28178 39.02544
# Shear Modulus (GPa) = 30.20077 42.05507 36.12792
#
# Velocity S-wave (km/s) = 3.55772 4.19829 3.89121
# Velocity P-wave (km/s) = 5.18058 6.80080 6.04521
#
# Compressibility (1/GPa) = 0.04207143
#
# Stress axis : x y z
#
# Youngs Moduli (GPa) = 34.19505 91.72526 75.98129
#
# Poissons Ratio (x) = 0.29402 -0.11222
# Poissons Ratio (y) = 0.10961 0.29553
# Poissons Ratio (z) = -0.05051 0.35676
#
# Static dielectric constant tensor:
#      x y z
#    x 2.004500 0.048060 -0.041360 
#    y 0.048060 2.050750 0.032800 
#    z -0.041360 0.032800 1.883400 
# 
# From -- ./inp_files/175783.got.cif
#   From: 2010.05.17/outbox.cif.g08.bks.cpg/sg2_88_cif.got.tgz:175783.got - 2010.06.03 11:33:40.
