data_PCOD9087181
_publ_section_title
;
Structure prediction by ZEFSAII (Michael W. Deem and Ramdas Pophale) SiO2 
 PCOD9087181
Probable space group: P -1
;
_chemical_formula_sum "Si O2"
_cell_formula_units_Z 16
_cell_length_a 9.770329
_cell_length_b 11.497360
_cell_length_c 11.250288
_cell_angle_alpha 112.239529
_cell_angle_beta 135.611337
_cell_angle_gamma 49.627942
_cell_volume 665.008839
_symmetry_space_group_name_H-M "P -1"
_symmetry_group_IT_number 2
_symmetry_cell_setting 'triclinic'
loop_
_space_group_symop_operation_xyz
x,y,z
-x,-y,-z
loop_
_atom_site_type_symbol
_atom_site_label
_atom_site_fract_x
_atom_site_fract_y
_atom_site_fract_z
Si Si1 0.739882 0.562044 0.743929
Si Si2 0.968275 0.003309 0.671022
Si Si3 0.607440 0.296098 0.899031
Si Si4 0.396119 0.901222 0.742686
Si Si5 0.843463 0.471150 0.148454
Si Si6 0.593762 0.029575 0.762366
Si Si7 0.390426 0.659209 0.338243
Si Si8 0.847525 0.790196 0.613390
O O1 0.591654 0.717510 0.789974
O O2 0.581411 0.607647 0.542162
O O3 0.731966 0.429656 0.749300
O O4 0.999820 0.515585 0.847008
O O5 0.789280 0.052093 0.465156
O O6 0.815112 0.156986 0.713830
O O7 0.998693 0.854556 0.688747
O O8 0.221050 0.963175 0.769711
O O9 0.408976 0.375883 0.910359
O O10 0.717702 0.115811 0.896881
O O11 0.490459 0.372011 0.727846
O O12 0.788472 0.345358 0.037838
O O13 0.529895 0.978988 0.822044
O O14 0.009576 0.387705 0.334861
O O15 0.348040 0.157632 0.590229
O O16 0.713550 0.888251 0.688595
#
# Coordination Sequence:
#
# PCOD9087181 Si02
#       8
#     2   2   2   2   2   2   2   2
#     4  10  21  38  61  88 116 149 193 241 291 345
#     4   9  18  33  55  87 118 142 178 236 296 342
#     4  11  25  41  57  82 120 161 199 238 285 345
#     4   9  18  33  55  87 118 142 178 236 296 342
#     4  11  25  41  57  82 120 161 199 238 285 345
#     4  10  19  36  62  87 113 145 191 247 293 339
#     4  10  21  38  61  88 116 149 193 241 291 345
#     4  10  19  36  62  87 113 145 191 247 293 339
#
# _framework density 24.059832
#
# number of rings (size 3 to 8) (size 9 to 14) (size 15 to 20)
#    0.000    2.000    2.500    0.750    3.500    3.000 
#    0.000    0.000    0.000    1.500    0.000    0.000 
#    0.000    0.000    0.000    0.000    0.000    0.000 
#
# Total GULP energy -89476.495159 kJ/mol
# GULP energy per Si atom -5592.280947 kJ/mol
# Density = 2.400507 g / cm^3
# Si number density = 24.059832 Si / 1000 Ang^3
#
#
#
# Elastic Constant Matrix: (Units=GPa)
#
#
# Indices 1 2 3 4 5 6 
#
# 1 147.9327 27.9606 16.5769 12.6040 34.6142 4.3005
# 2 27.9606 47.8906 20.6493 7.1553 18.2611 20.4087
# 3 16.5769 20.6493 53.1166 6.5193 11.0449 -2.8196
# 4 12.6040 7.1553 6.5193 25.6416 9.1565 4.2542
# 5 34.6142 18.2611 11.0449 9.1565 26.0115 1.0859
# 6 4.3005 20.4087 -2.8196 4.2542 1.0859 22.6120
#
#
#
# Elastic Compliance Matrix: (Units=1/GPa)
#
#
# Indices 1 2 3 4 5 6 
#
# 1 0.009863 -0.000310 -0.000373 0.000049 -0.012723 -0.001041
# 2 -0.000310 0.082253 -0.027944 0.014099 -0.047172 -0.078051
# 3 -0.000373 -0.027944 0.030578 -0.007887 0.008648 0.030174
# 4 0.000049 0.014099 -0.007887 0.048840 -0.022897 -0.021807
# 5 -0.012723 -0.047172 0.008648 -0.022897 0.090959 0.046013
# 6 -0.001041 -0.078051 0.030174 -0.021807 0.046013 0.120523
#
#
# Mechanical properties :
#
#
# Convention : Reuss Voigt Hill
#
# Bulk Modulus (GPa) = 15.28143 42.14595 28.71369
# Shear Modulus (GPa) = 10.82051 27.10321 18.96186
#
# Velocity S-wave (km/s) = 2.12299 3.35997 2.81038
# Velocity P-wave (km/s) = 3.51777 5.71031 4.74249
#
# Compressibility (1/GPa) = 0.06543891
#
# Stress axis : x y z
#
# Youngs Moduli (GPa) = 101.38525 12.15766 32.70314
#
# Poissons Ratio (x) = 0.00377 0.01221
# Poissons Ratio (y) = 0.03142 0.91387
# Poissons Ratio (z) = 0.03786 0.33974
#
# Static dielectric constant tensor:
#      x y z
#    x 1.880140 0.006660 0.004270 
#    y 0.006660 1.863880 0.000420 
#    z 0.004270 0.000420 2.039610 
# 
# From -- ./inp_files/180376.got.cif
#   From: 2010.05.17/outbox.cif.g08.bks.cpg/sg2_91_cif.got.tgz:180376.got - 2010.06.03 11:33:40.
