data_PCOD9087220
_publ_section_title
;
Structure prediction by ZEFSAII (Michael W. Deem and Ramdas Pophale) SiO2 
 PCOD9087220
Probable space group: P -1
;
_chemical_formula_sum "Si O2"
_cell_formula_units_Z 16
_cell_length_a 11.548134
_cell_length_b 10.829314
_cell_length_c 7.991962
_cell_angle_alpha 61.804442
_cell_angle_beta 130.686963
_cell_angle_gamma 98.542861
_cell_volume 648.649456
_symmetry_space_group_name_H-M "P -1"
_symmetry_group_IT_number 2
_symmetry_cell_setting 'triclinic'
loop_
_space_group_symop_operation_xyz
x,y,z
-x,-y,-z
loop_
_atom_site_type_symbol
_atom_site_label
_atom_site_fract_x
_atom_site_fract_y
_atom_site_fract_z
Si Si1 0.153954 0.249293 0.586281
Si Si2 0.991572 0.242055 0.915703
Si Si3 0.242604 0.381844 0.246758
Si Si4 0.588750 0.357648 0.025643
Si Si5 0.755560 0.492612 0.345793
Si Si6 0.841272 0.277179 0.080577
Si Si7 0.508816 0.217517 0.382503
Si Si8 0.736644 0.949753 0.900746
O O1 0.233097 0.295772 0.464943
O O2 0.156683 0.378600 0.637021
O O3 0.979463 0.246284 0.368450
O O4 0.244176 0.104188 0.855500
O O5 0.859440 0.349669 0.615940
O O6 0.914985 0.190725 0.041885
O O7 0.110014 0.336406 0.036647
O O8 0.096146 0.114313 0.987822
O O9 0.412133 0.328127 0.355972
O O10 0.195103 0.553714 0.117529
O O11 0.702732 0.458531 0.132533
O O12 0.681598 0.261440 0.027594
O O13 0.566783 0.276157 0.228275
O O14 0.414068 0.447937 0.761799
O O15 0.382488 0.132560 0.250483
O O16 0.653941 0.113034 0.677674
#
# Coordination Sequence:
#
# PCOD9087220 Si02
#       8
#     2   2   2   2   2   2   2   2
#     4  11  20  37  63  93 111 156 197 240 288 348
#     4  10  20  37  59  89 117 153 196 240 286 347
#     4  10  19  36  62  89 122 143 196 249 286 343
#     4  11  24  36  56  87 129 153 184 242 300 350
#     4  11  20  37  57  92 120 148 190 237 302 351
#     4  11  21  37  59  93 124 147 184 250 301 344
#     4  10  22  42  55  85 119 160 198 239 283 342
#     4  10  22  38  66  80 112 162 208 235 274 345
#
# _framework density 24.666637999999999
#
# number of rings (size 3 to 8) (size 9 to 14) (size 15 to 20)
#    0.000    1.500    3.750    3.000    1.750    2.000 
#    2.250    3.125    0.000    0.000    0.000    0.000 
#    0.000    0.000    0.000    0.000    0.000    0.000 
#
# Total GULP energy -89582.226018 kJ/mol
# GULP energy per Si atom -5598.889126 kJ/mol
# Density = 2.461050 g / cm^3
# Si number density = 24.666638 Si / 1000 Ang^3
#
#
#
# Elastic Constant Matrix: (Units=GPa)
#
#
# Indices 1 2 3 4 5 6 
#
# 1 132.1557 8.7883 65.9039 -16.3675 -1.0160 -21.0861
# 2 8.7883 32.2631 27.8549 7.0709 6.7852 1.1224
# 3 65.9039 27.8549 210.3010 -21.9088 11.9311 -14.2349
# 4 -16.3675 7.0709 -21.9088 36.9826 3.6048 6.1469
# 5 -1.0160 6.7852 11.9311 3.6048 30.2459 -2.3748
# 6 -21.0861 1.1224 -14.2349 6.1469 -2.3748 30.5447
#
#
#
# Elastic Compliance Matrix: (Units=1/GPa)
#
#
# Indices 1 2 3 4 5 6 
#
# 1 0.010072 -0.001730 -0.002420 0.002246 0.001852 0.005580
# 2 -0.001730 0.040184 -0.005817 -0.010720 -0.005789 -0.003675
# 3 -0.002420 -0.005817 0.006880 0.004179 -0.001929 0.000758
# 4 0.002246 -0.010720 0.004179 0.033404 -0.003392 -0.003094
# 5 0.001852 -0.005789 -0.001929 -0.003392 0.035908 0.004067
# 6 0.005580 -0.003675 0.000758 -0.003094 0.004067 0.038018
#
#
# Mechanical properties :
#
#
# Convention : Reuss Voigt Hill
#
# Bulk Modulus (GPa) = 26.88135 64.42378 45.65256
# Shear Modulus (GPa) = 25.40639 37.69949 31.55294
#
# Velocity S-wave (km/s) = 3.21283 3.91367 3.58044
# Velocity P-wave (km/s) = 4.96835 6.82619 5.96998
#
# Compressibility (1/GPa) = 0.03720052
#
# Stress axis : x y z
#
# Youngs Moduli (GPa) = 99.28810 24.88575 145.34307
#
# Poissons Ratio (x) = 0.04304 0.35180
# Poissons Ratio (y) = 0.17172 0.84553
# Poissons Ratio (z) = 0.24033 0.14477
#
# Static dielectric constant tensor:
#      x y z
#    x 2.000590 0.035500 -0.005770 
#    y 0.035500 2.019110 0.013500 
#    z -0.005770 0.013500 1.905360 
# 
# From -- ./inp_files/269884.got.cif
#   From: 2010.05.17/outbox.cif.g08.bks.cpg/sg2_135_cif.got.tgz:269884.got - 2010.06.03 11:33:40.
