data_PCOD9087454
_publ_section_title
;
Structure prediction by ZEFSAII (Michael W. Deem and Ramdas Pophale) SiO2 
 PCOD9087454
Probable space group: P -1
;
_chemical_formula_sum "Si O2"
_cell_formula_units_Z 16
_cell_length_a 9.912912
_cell_length_b 8.339257
_cell_length_c 15.324482
_cell_angle_alpha 92.984875
_cell_angle_beta 122.009937
_cell_angle_gamma 43.660887
_cell_volume 611.351371
_symmetry_space_group_name_H-M "P -1"
_symmetry_group_IT_number 2
_symmetry_cell_setting 'triclinic'
loop_
_space_group_symop_operation_xyz
x,y,z
-x,-y,-z
loop_
_atom_site_type_symbol
_atom_site_label
_atom_site_fract_x
_atom_site_fract_y
_atom_site_fract_z
Si Si1 0.796081 0.194953 0.020234
Si Si2 0.726862 0.948372 0.556705
Si Si3 0.089878 0.269930 0.138628
Si Si4 0.446745 0.391506 0.354541
Si Si5 0.706357 0.371321 0.259425
Si Si6 0.036826 0.280121 0.913229
Si Si7 0.550290 0.712588 0.368000
Si Si8 0.902521 0.253940 0.586623
O O1 0.508779 0.516927 0.113540
O O2 0.919196 0.252887 0.107351
O O3 0.803480 0.016341 0.065655
O O4 0.000000 0.000000 0.000000
O O5 0.058043 0.683191 0.669842
O O6 0.500000 0.000000 0.500000
O O7 0.637793 0.082164 0.435471
O O8 0.646241 0.143282 0.610065
O O9 0.942543 0.561166 0.119856
O O10 0.397705 0.989594 0.276454
O O11 0.102314 0.253752 0.036975
O O12 0.284911 0.498479 0.212301
O O13 0.668158 0.340825 0.460020
O O14 0.197709 0.609236 0.347999
O O15 0.524845 0.600627 0.280995
O O16 0.850501 0.081906 0.327484
O O17 0.858209 0.446543 0.512275
#
# Coordination Sequence:
#
# PCOD9087454 Si02
#       8
#     2   2   2   2   2   2   2   2
#     4  10  20  39  64  92 131 173 222 273 325 388
#     4  10  23  41  62  93 131 169 216 279 337 397
#     4  10  21  36  64  97 125 179 223 267 337 388
#     4   9  18  36  61  89 129 174 211 271 342 387
#     4  11  22  40  65  98 126 174 228 263 339 407
#     4  10  19  36  63  94 129 175 221 272 328 395
#     4  11  20  40  67  92 133 171 215 278 331 399
#     4   9  20  35  60  97 128 165 221 274 331 406
#
# _framework density 26.171529
#
# number of rings (size 3 to 8) (size 9 to 14) (size 15 to 20)
#    0.000    2.000    2.500    2.625    1.750    0.500 
#    0.000    5.000    0.000    2.250    0.000    0.000 
#    0.000    0.000    0.000    0.000    0.000    0.000 
#
# Total GULP energy -89072.423823 kJ/mol
# GULP energy per Si atom -5567.026489 kJ/mol
# Density = 2.611196 g / cm^3
# Si number density = 26.171529 Si / 1000 Ang^3
#
#
#
# Elastic Constant Matrix: (Units=GPa)
#
#
# Indices 1 2 3 4 5 6 
#
# 1 69.4706 43.6193 30.2756 -9.7502 16.8775 31.0802
# 2 43.6193 113.4675 49.6740 -22.2050 2.3727 29.5352
# 3 30.2756 49.6740 166.9465 -44.0401 7.3215 13.0275
# 4 -9.7502 -22.2050 -44.0401 45.7641 9.8634 -10.1146
# 5 16.8775 2.3727 7.3215 9.8634 36.2007 2.5611
# 6 31.0802 29.5352 13.0275 -10.1146 2.5611 50.3498
#
#
#
# Elastic Compliance Matrix: (Units=1/GPa)
#
#
# Indices 1 2 3 4 5 6 
#
# 1 0.027242 -0.006302 -0.001260 0.001391 -0.011568 -0.011925
# 2 -0.006302 0.013314 -0.002187 0.001850 0.002223 -0.003095
# 3 -0.001260 -0.002187 0.009178 0.008631 -0.003590 0.001602
# 4 0.001391 0.001850 0.008631 0.034742 -0.012224 0.003424
# 5 -0.011568 0.002223 -0.003590 -0.012224 0.036755 0.002441
# 6 -0.011925 -0.003095 0.001602 0.003424 0.002441 0.029187
#
#
# Mechanical properties :
#
#
# Convention : Reuss Voigt Hill
#
# Bulk Modulus (GPa) = 33.07323 66.33582 49.70452
# Shear Modulus (GPa) = 27.77829 41.55062 34.66446
#
# Velocity S-wave (km/s) = 3.26144 3.98883 3.64333
# Velocity P-wave (km/s) = 5.18143 6.82758 6.06065
#
# Compressibility (1/GPa) = 0.03023593
#
# Stress axis : x y z
#
# Youngs Moduli (GPa) = 36.70845 75.10639 108.95145
#
# Poissons Ratio (x) = 0.47336 0.13731
# Poissons Ratio (y) = 0.23135 0.23823
# Poissons Ratio (z) = 0.04626 0.16423
#
# Static dielectric constant tensor:
#      x y z
#    x 2.342340 0.130490 -0.125970 
#    y 0.130490 2.224870 -0.058120 
#    z -0.125970 -0.058120 2.043570 
# 
# From -- ./inp_files/514449.got.cif
#   From: 2010.05.17/outbox.cif.g08.bks.cpg/sg2_258_cif.got.tgz:514449.got - 2010.06.03 11:33:40.
