data_PCOD9087043
_publ_section_title
;
Structure prediction by ZEFSAII (Michael W. Deem and Ramdas Pophale) SiO2 
 PCOD9087043
Probable space group: P -1
;
_chemical_formula_sum "Si O2"
_cell_formula_units_Z 10
_cell_length_a 6.866669
_cell_length_b 9.178144
_cell_length_c 9.389463
_cell_angle_alpha 58.564101
_cell_angle_beta 108.267511
_cell_angle_gamma 71.366308
_cell_volume 384.949063
_symmetry_space_group_name_H-M "P -1"
_symmetry_group_IT_number 2
_symmetry_cell_setting 'triclinic'
loop_
_space_group_symop_operation_xyz
x,y,z
-x,-y,-z
loop_
_atom_site_type_symbol
_atom_site_label
_atom_site_fract_x
_atom_site_fract_y
_atom_site_fract_z
Si Si1 0.252985 0.035677 0.003662
Si Si2 0.452471 0.579270 0.285472
Si Si3 0.605447 0.612881 0.892377
Si Si4 0.566758 0.951172 0.375951
Si Si5 0.061071 0.484717 0.723458
O O1 0.249407 0.834883 0.076821
O O2 0.329235 0.002747 0.204223
O O3 0.050170 0.285660 0.796118
O O4 0.500000 0.000000 0.000000
O O5 0.500000 0.500000 0.500000
O O6 0.385907 0.448065 0.238963
O O7 0.713792 0.537353 0.305848
O O8 0.406747 0.863243 0.751690
O O9 0.500000 0.500000 0.000000
O O10 0.854912 0.534876 0.081638
O O11 0.809209 0.717074 0.518879
O O12 0.500000 0.000000 0.500000
#
# Coordination Sequence:
#
# PCOD9087043 Si02
#       5
#     2   2   2   2   2
#     4   9  20  38  59  84 118 149 187 235 285 340
#     4  10  19  36  61  90 117 144 187 239 287 341
#     4   9  20  38  59  84 118 149 187 235 285 340
#     4  11  22  39  61  84 112 153 201 233 269 340
#     4   9  21  40  61  81 114 158 188 229 287 334
#
# _framework density 25.977461000000002
#
# number of rings (size 3 to 8) (size 9 to 14) (size 15 to 20)
#    0.000    2.400    0.000    2.400    0.000    9.600 
#    0.000    6.000    0.000   21.600    0.000    0.000 
#    0.000    0.000    0.000    0.000    0.000    0.000 
#
# Total GULP energy -55932.832928 kJ/mol
# GULP energy per Si atom -5593.283293 kJ/mol
# Density = 2.591833 g / cm^3
# Si number density = 25.977461 Si / 1000 Ang^3
#
#
#
# Elastic Constant Matrix: (Units=GPa)
#
#
# Indices 1 2 3 4 5 6 
#
# 1 85.7745 38.2246 52.9624 -19.1909 -14.1005 10.9396
# 2 38.2246 164.4901 94.0128 -22.9581 4.7001 18.8851
# 3 52.9624 94.0128 175.3756 -26.1398 6.0919 1.8798
# 4 -19.1909 -22.9581 -26.1398 97.0253 -5.3161 -15.9986
# 5 -14.1005 4.7001 6.0919 -5.3161 48.6249 -5.4519
# 6 10.9396 18.8851 1.8798 -15.9986 -5.4519 43.6772
#
#
#
# Elastic Compliance Matrix: (Units=1/GPa)
#
#
# Indices 1 2 3 4 5 6 
#
# 1 0.016290 -0.000994 -0.004284 0.001768 0.005308 -0.002156
# 2 -0.000994 0.009456 -0.004677 0.000111 -0.001022 -0.003725
# 3 -0.004284 -0.004677 0.009682 0.001041 -0.001568 0.002864
# 4 0.001768 0.000111 0.001041 0.011743 0.002107 0.004029
# 5 0.005308 -0.001022 -0.001568 0.002107 0.022946 0.002816
# 6 -0.002156 -0.003725 0.002864 0.004029 0.002816 0.026750
#
#
# Mechanical properties :
#
#
# Convention : Reuss Voigt Hill
#
# Bulk Modulus (GPa) = 64.44545 88.44886 76.44715
# Shear Modulus (GPa) = 41.00069 53.89483 47.44776
#
# Velocity S-wave (km/s) = 3.97711 4.55980 4.27839
# Velocity P-wave (km/s) = 6.77879 7.86414 7.34155
#
# Compressibility (1/GPa) = 0.01551700
#
# Stress axis : x y z
#
# Youngs Moduli (GPa) = 61.38711 105.75627 103.28686
#
# Poissons Ratio (x) = 0.10516 0.44251
# Poissons Ratio (y) = 0.06104 0.48304
# Poissons Ratio (z) = 0.26300 0.49459
#
# Static dielectric constant tensor:
#      x y z
#    x 2.112780 -0.053480 -0.022510 
#    y -0.053480 2.109350 0.030200 
#    z -0.022510 0.030200 2.083440 
# 
# From -- ./inp_files/15784.got.cif
#   From: 2010.05.17/outbox.cif.g08.bks.cpg/sg2_8_cif.got.tgz:15784.got - 2010.06.03 11:33:40.
