data_PCOD9087341
_publ_section_title
;
Structure prediction by ZEFSAII (Michael W. Deem and Ramdas Pophale) SiO2 
 PCOD9087341
Probable space group: P -1
;
_chemical_formula_sum "Si O2"
_cell_formula_units_Z 14
_cell_length_a 6.969309
_cell_length_b 7.311647
_cell_length_c 15.497428
_cell_angle_alpha 73.627865
_cell_angle_beta 108.384801
_cell_angle_gamma 61.542872
_cell_volume 563.570991
_symmetry_space_group_name_H-M "P -1"
_symmetry_group_IT_number 2
_symmetry_cell_setting 'triclinic'
loop_
_space_group_symop_operation_xyz
x,y,z
-x,-y,-z
loop_
_atom_site_type_symbol
_atom_site_label
_atom_site_fract_x
_atom_site_fract_y
_atom_site_fract_z
Si Si1 0.667686 0.864228 0.748028
Si Si2 0.707741 0.587198 0.444253
Si Si3 0.217971 0.747472 0.822288
Si Si4 0.299836 0.277994 0.402132
Si Si5 0.868193 0.221319 0.384160
Si Si6 0.373109 0.802200 0.017183
Si Si7 0.236943 0.228699 0.040566
O O1 0.656976 0.706992 0.694338
O O2 0.595859 0.864209 0.836066
O O3 0.960318 0.772403 0.799855
O O4 0.481585 0.136518 0.650309
O O5 0.675599 0.571137 0.544138
O O6 0.669781 0.442599 0.389687
O O7 0.000000 0.500000 0.500000
O O8 0.183746 0.845458 0.706735
O O9 0.493321 0.471511 0.895471
O O10 0.228336 0.859221 0.898125
O O11 0.037922 0.307933 0.368983
O O12 0.500000 0.000000 0.500000
O O13 0.000000 0.000000 0.500000
O O14 0.218678 0.018560 0.036097
O O15 0.630718 0.760086 0.026109
O O16 0.000000 0.500000 0.000000
#
# Coordination Sequence:
#
# PCOD9087341 Si02
#       7
#     2   2   2   2   2   2   2
#     4  10  19  36  63  85 120 157 204 250 299 364
#     4   9  18  35  58  84 113 162 202 238 298 361
#     4  10  21  41  58  89 122 168 200 245 317 365
#     4   8  17  34  55  78 109 151 192 235 287 354
#     4  10  20  35  56  82 118 149 199 251 295 353
#     4  10  23  41  64  86 129 161 203 253 301 371
#     4  11  22  41  62  95 119 157 209 256 299 358
#
# _framework density 24.84159
#
# number of rings (size 3 to 8) (size 9 to 14) (size 15 to 20)
#    0.000    2.286    1.429    0.857    0.000    4.000 
#    5.143    6.429    0.000    0.000    0.000    0.000 
#    0.000    0.000    0.000    0.000    0.000    0.000 
#
# Total GULP energy -77994.215598 kJ/mol
# GULP energy per Si atom -5571.015400 kJ/mol
# Density = 2.478505 g / cm^3
# Si number density = 24.841590 Si / 1000 Ang^3
#
#
#
# Elastic Constant Matrix: (Units=GPa)
#
#
# Indices 1 2 3 4 5 6 
#
# 1 61.5102 10.1065 7.3655 3.5168 -1.0625 -10.8107
# 2 10.1065 176.6571 69.3322 36.4350 7.1013 -1.6251
# 3 7.3655 69.3322 149.8275 33.2094 -9.3946 0.7404
# 4 3.5168 36.4350 33.2094 40.7991 -5.4873 3.4388
# 5 -1.0625 7.1013 -9.3946 -5.4873 42.0775 9.3566
# 6 -10.8107 -1.6251 0.7404 3.4388 9.3566 23.8385
#
#
#
# Elastic Compliance Matrix: (Units=1/GPa)
#
#
# Indices 1 2 3 4 5 6 
#
# 1 0.018060 -0.000277 -0.000495 -0.001940 -0.001910 0.009216
# 2 -0.000277 0.008047 -0.002678 -0.005644 -0.003279 0.002607
# 3 -0.000495 -0.002678 0.009095 -0.004624 0.002051 -0.000827
# 4 -0.001940 -0.005644 -0.004624 0.035070 0.006375 -0.008682
# 5 -0.001910 -0.003279 0.002051 0.006375 0.028509 -0.013263
# 6 0.009216 0.002607 -0.000827 -0.008682 -0.013263 0.052790
#
#
# Mechanical properties :
#
#
# Convention : Reuss Voigt Hill
#
# Bulk Modulus (GPa) = 35.33218 62.40036 48.86627
# Shear Modulus (GPa) = 29.77850 41.42240 35.60045
#
# Velocity S-wave (km/s) = 3.46603 4.08789 3.78974
# Velocity P-wave (km/s) = 5.50197 6.88875 6.23405
#
# Compressibility (1/GPa) = 0.02830281
#
# Stress axis : x y z
#
# Youngs Moduli (GPa) = 55.37107 124.26626 109.94623
#
# Poissons Ratio (x) = 0.03446 0.05440
# Poissons Ratio (y) = 0.01536 0.29441
# Poissons Ratio (z) = 0.02740 0.33275
#
# Static dielectric constant tensor:
#      x y z
#    x 2.163680 0.037630 0.012610 
#    y 0.037630 2.058300 0.043680 
#    z 0.012610 0.043680 1.966280 
# 
# From -- ./inp_files/178358.got.cif
#   From: 2010.05.17/outbox.cif.g08.bks.cpg/sg2_90_cif.got.tgz:178358.got - 2010.06.03 11:33:40.
