data_PCOD9087622
_publ_section_title
;
Structure prediction by ZEFSAII (Michael W. Deem and Ramdas Pophale) SiO2 
 PCOD9087622
Probable space group: P -1
;
_chemical_formula_sum "Si O2"
_cell_formula_units_Z 15
_cell_length_a 10.079993
_cell_length_b 14.772566
_cell_length_c 11.738131
_cell_angle_alpha 46.426530
_cell_angle_beta 115.402601
_cell_angle_gamma 76.856905
_cell_volume 687.468769
_symmetry_space_group_name_H-M "P -1"
_symmetry_group_IT_number 2
_symmetry_cell_setting 'triclinic'
loop_
_space_group_symop_operation_xyz
x,y,z
-x,-y,-z
loop_
_atom_site_type_symbol
_atom_site_label
_atom_site_fract_x
_atom_site_fract_y
_atom_site_fract_z
Si Si1 0.399404 0.688820 0.365717
Si Si2 0.735809 0.827047 0.659713
Si Si3 0.396864 0.839452 0.014612
Si Si4 0.195973 0.394831 0.329202
Si Si5 0.500000 0.500000 0.000000
Si Si6 0.155430 0.308778 0.636580
Si Si7 0.760398 0.376557 0.446559
Si Si8 0.022582 0.129280 0.426813
O O1 0.500000 0.500000 0.500000
O O2 0.617931 0.620191 0.561645
O O3 0.240036 0.737754 0.365311
O O4 0.303626 0.841604 0.095927
O O5 0.691433 0.776893 0.572442
O O6 0.835263 0.893003 0.598740
O O7 0.500000 0.000000 0.500000
O O8 0.948752 0.615269 0.992385
O O9 0.187503 0.018903 0.695276
O O10 0.567668 0.843928 0.095438
O O11 0.569826 0.614031 0.216125
O O12 0.130924 0.371983 0.443184
O O13 0.655468 0.406942 0.259412
O O14 0.751851 0.365534 0.139581
O O15 0.000000 0.500000 0.500000
O O16 0.023498 0.265675 0.635721
O O17 0.000000 0.000000 0.500000
#
# Coordination Sequence:
#
# PCOD9087622 Si02
#       8
#     2   2   2   2   1   2   2   2
#     4   9  19  38  71  96 134 183 226 287 353 416
#     4  11  27  44  71 103 140 192 236 299 356 427
#     4   9  20  41  64  95 134 175 228 286 345 423
#     4  10  22  45  67  98 144 183 238 284 359 430
#     4  12  24  40  68 100 140 180 222 288 356 416
#     4   9  19  36  69  95 134 183 223 285 349 425
#     4  10  19  36  65 101 130 179 226 276 351 409
#     4  12  26  45  69 104 141 180 240 294 356 430
#
# _framework density 21.819171999999998
#
# number of rings (size 3 to 8) (size 9 to 14) (size 15 to 20)
#    0.000    1.867    1.333    2.400    5.600    4.267 
#    0.000    6.667    0.000    0.000    0.000    0.000 
#    0.000    0.000    0.000    0.000    0.000    0.000 
#
# Total GULP energy -83598.852166 kJ/mol
# GULP energy per Si atom -5573.256811 kJ/mol
# Density = 2.176951 g / cm^3
# Si number density = 21.819172 Si / 1000 Ang^3
#
#
#
# Elastic Constant Matrix: (Units=GPa)
#
#
# Indices 1 2 3 4 5 6 
#
# 1 207.9314 72.0655 70.1642 8.0329 31.9873 -20.8759
# 2 72.0655 117.8325 28.9799 9.0161 -4.2462 -16.5988
# 3 70.1642 28.9799 94.0476 14.8505 7.3549 -10.8400
# 4 8.0329 9.0161 14.8505 38.6712 -3.0505 -1.3591
# 5 31.9873 -4.2462 7.3549 -3.0505 20.2736 -1.4821
# 6 -20.8759 -16.5988 -10.8400 -1.3591 -1.4821 37.9002
#
#
#
# Elastic Compliance Matrix: (Units=1/GPa)
#
#
# Indices 1 2 3 4 5 6 
#
# 1 0.011561 -0.006215 -0.005108 -0.000329 -0.017630 0.001484
# 2 -0.006215 0.013192 0.000017 -0.000692 0.012666 0.002829
# 3 -0.005108 0.000017 0.015171 -0.004562 0.001979 0.001447
# 4 -0.000329 -0.000692 -0.004562 0.028315 0.006251 -0.000530
# 5 -0.017630 0.012666 0.001979 0.006251 0.080000 -0.000245
# 6 0.001484 0.002829 0.001447 -0.000530 -0.000245 0.028827
#
#
# Mechanical properties :
#
#
# Convention : Reuss Voigt Hill
#
# Bulk Modulus (GPa) = 57.76784 84.69231 71.23007
# Shear Modulus (GPa) = 24.33699 35.94244 30.13972
#
# Velocity S-wave (km/s) = 3.34338 4.06308 3.72067
# Velocity P-wave (km/s) = 6.43719 7.80457 7.15363
#
# Compressibility (1/GPa) = 0.01731067
#
# Stress axis : x y z
#
# Youngs Moduli (GPa) = 86.49788 75.80504 65.91577
#
# Poissons Ratio (x) = 0.47116 0.33670
# Poissons Ratio (y) = 0.53762 -0.00112
# Poissons Ratio (z) = 0.44183 -0.00129
#
# Static dielectric constant tensor:
#      x y z
#    x 1.773140 0.016050 0.000280 
#    y 0.016050 1.831600 -0.027330 
#    z 0.000280 -0.027330 1.765930 
# 
# From -- ./inp_files/397117.got.cif
#   From: 2010.05.17/outbox.cif.g08.bks.cpg/sg2_199_cif.got.tgz:397117.got - 2010.06.03 11:33:40.
