data_PCOD9087147
_publ_section_title
;
Structure prediction by ZEFSAII (Michael W. Deem and Ramdas Pophale) SiO2 
 PCOD9087147
Probable space group: P -1
;
_chemical_formula_sum "Si O2"
_cell_formula_units_Z 16
_cell_length_a 14.246271
_cell_length_b 9.246056
_cell_length_c 9.407430
_cell_angle_alpha 118.849229
_cell_angle_beta 132.621442
_cell_angle_gamma 87.092854
_cell_volume 721.724485
_symmetry_space_group_name_H-M "P -1"
_symmetry_group_IT_number 2
_symmetry_cell_setting 'triclinic'
loop_
_space_group_symop_operation_xyz
x,y,z
-x,-y,-z
loop_
_atom_site_type_symbol
_atom_site_label
_atom_site_fract_x
_atom_site_fract_y
_atom_site_fract_z
Si Si1 0.984646 0.225109 0.267349
Si Si2 0.818571 0.476146 0.184792
Si Si3 0.595023 0.543074 0.476423
Si Si4 0.493981 0.324695 0.825326
Si Si5 0.967992 0.338152 0.729483
Si Si6 0.861525 0.006886 0.289043
Si Si7 0.917012 0.692949 0.896311
Si Si8 0.446609 0.157264 0.989658
O O1 0.893614 0.342397 0.221153
O O2 0.896047 0.040762 0.174489
O O3 0.121873 0.357433 0.562056
O O4 0.029891 0.202621 0.146255
O O5 0.875394 0.567436 0.133366
O O6 0.654108 0.364184 0.975871
O O7 0.500000 0.500000 0.500000
O O8 0.573766 0.673193 0.395900
O O9 0.756171 0.643013 0.736612
O O10 0.556373 0.350244 0.262277
O O11 0.432654 0.169864 0.809885
O O12 0.500000 0.500000 0.000000
O O13 0.871824 0.201444 0.448262
O O14 0.918745 0.494452 0.781529
O O15 0.976264 0.232362 0.827776
O O16 0.705019 0.872453 0.111961
O O17 0.000000 0.000000 0.500000
O O18 0.500000 0.000000 0.000000
#
# Coordination Sequence:
#
# PCOD9087147 Si02
#       8
#     2   2   2   2   2   2   2   2
#     4   9  18  32  55  82 106 152 187 245 278 354
#     4   9  16  32  56  79 112 141 200 234 288 335
#     4  11  24  38  64  92 124 155 199 259 302 353
#     4  10  21  34  60  85 119 158 203 248 291 359
#     4   9  20  36  59  86 112 154 185 248 286 360
#     4  11  24  35  58  83 122 150 196 236 299 343
#     4  10  19  36  62  84 115 144 200 235 301 343
#     4  11  24  43  63  88 125 166 203 243 304 376
#
# _framework density 22.169125999999999
#
# number of rings (size 3 to 8) (size 9 to 14) (size 15 to 20)
#    0.000    2.000    0.000    4.500   10.500    0.000 
#    0.000    2.500    0.000    0.000    0.000    0.000 
#    0.000    0.000    0.000    0.000    0.000    0.000 
#
# Total GULP energy -89326.265046 kJ/mol
# GULP energy per Si atom -5582.891565 kJ/mol
# Density = 2.211867 g / cm^3
# Si number density = 22.169126 Si / 1000 Ang^3
#
#
#
# Elastic Constant Matrix: (Units=GPa)
#
#
# Indices 1 2 3 4 5 6 
#
# 1 100.4252 39.1579 20.0899 -18.8139 10.5777 25.2641
# 2 39.1579 108.0619 21.7728 -22.8028 -3.5869 19.1835
# 3 20.0899 21.7728 46.3522 -8.1136 5.2057 4.4575
# 4 -18.8139 -22.8028 -8.1136 35.9571 2.5538 -14.3521
# 5 10.5777 -3.5869 5.2057 2.5538 39.3616 -0.2498
# 6 25.2641 19.1835 4.4575 -14.3521 -0.2498 46.1235
#
#
#
# Elastic Compliance Matrix: (Units=1/GPa)
#
#
# Indices 1 2 3 4 5 6 
#
# 1 0.014049 -0.003029 -0.003226 0.002880 -0.003845 -0.005248
# 2 -0.003029 0.012471 -0.003811 0.004630 0.002143 -0.001707
# 3 -0.003226 -0.003811 0.025375 0.002496 -0.002988 0.001660
# 4 0.002880 0.004630 0.002496 0.035998 -0.002971 0.007441
# 5 -0.003845 0.002143 -0.002988 -0.002971 0.027227 0.000727
# 6 -0.005248 -0.001707 0.001660 0.007441 0.000727 0.027424
#
#
# Mechanical properties :
#
#
# Convention : Reuss Voigt Hill
#
# Bulk Modulus (GPa) = 31.48292 46.32006 38.90149
# Shear Modulus (GPa) = 28.85791 35.87636 32.36714
#
# Velocity S-wave (km/s) = 3.61184 4.02718 3.82515
# Velocity P-wave (km/s) = 5.62370 6.52407 6.09055
#
# Compressibility (1/GPa) = 0.03176326
#
# Stress axis : x y z
#
# Youngs Moduli (GPa) = 71.17972 80.18850 39.40905
#
# Poissons Ratio (x) = 0.24290 0.12711
# Poissons Ratio (y) = 0.21561 0.15019
# Poissons Ratio (z) = 0.22959 0.30560
#
# Static dielectric constant tensor:
#      x y z
#    x 1.848240 0.016160 -0.036350 
#    y 0.016160 1.881230 0.003350 
#    z -0.036350 0.003350 1.805580 
# 
# From -- ./inp_files/299363.got.cif
#   From: 2010.05.17/outbox.cif.g08.bks.cpg/sg2_150_cif.got.tgz:299363.got - 2010.06.03 11:33:40.
