data_PCOD9087816
_publ_section_title
;
Structure prediction by ZEFSAII (Michael W. Deem and Ramdas Pophale) SiO2 
 PCOD9087816
Probable space group: P -1
;
_chemical_formula_sum "Si O2"
_cell_formula_units_Z 14
_cell_length_a 14.817614
_cell_length_b 17.975441
_cell_length_c 8.631161
_cell_angle_alpha 45.334998
_cell_angle_beta 137.642556
_cell_angle_gamma 157.307407
_cell_volume 595.559327
_symmetry_space_group_name_H-M "P -1"
_symmetry_group_IT_number 2
_symmetry_cell_setting 'triclinic'
loop_
_space_group_symop_operation_xyz
x,y,z
-x,-y,-z
loop_
_atom_site_type_symbol
_atom_site_label
_atom_site_fract_x
_atom_site_fract_y
_atom_site_fract_z
Si Si1 0.224547 0.674223 0.146891
Si Si2 0.353954 0.400676 0.160362
Si Si3 0.261761 0.927991 0.776240
Si Si4 0.843686 0.812435 0.477922
Si Si5 0.747758 0.508777 0.341325
Si Si6 0.317705 0.942983 0.464285
Si Si7 0.869151 0.973904 0.012135
O O1 0.261404 0.613987 0.419020
O O2 0.961992 0.140254 0.417779
O O3 0.182422 0.769187 0.992905
O O4 0.000000 0.500000 0.000000
O O5 0.321703 0.360167 0.359659
O O6 0.587862 0.483975 0.281786
O O7 0.103110 0.184288 0.085289
O O8 0.349444 0.513948 0.915436
O O9 0.346033 0.955630 0.667240
O O10 0.497574 0.138179 0.847963
O O11 0.000000 0.000000 0.500000
O O12 0.740022 0.811178 0.207035
O O13 0.038588 0.721607 0.405408
O O14 0.500000 0.000000 0.500000
O O15 0.316043 0.062221 0.236361
O O16 0.000000 0.000000 0.000000
#
# Coordination Sequence:
#
# PCOD9087816 Si02
#       7
#     2   2   2   2   2   2   2
#     4  11  23  41  70  99 143 193 228 290 369 426
#     4   9  21  39  70  94 132 190 236 301 351 413
#     4  11  24  43  71 102 144 190 240 293 369 433
#     4  10  20  40  70 104 133 183 250 297 357 427
#     4  10  21  43  68  93 142 184 237 300 353 410
#     4  11  24  42  68 102 145 189 241 294 363 445
#     4  10  19  36  69  99 135 180 237 292 357 419
#
# _framework density 23.507314999999998
#
# number of rings (size 3 to 8) (size 9 to 14) (size 15 to 20)
#    0.000    1.714    2.857    1.714    0.000    8.000 
#    0.000    3.571    0.000    0.000    0.000    0.000 
#    0.000    0.000    0.000    0.000    0.000    0.000 
#
# Total GULP energy -78170.349474 kJ/mol
# GULP energy per Si atom -5583.596391 kJ/mol
# Density = 2.345381 g / cm^3
# Si number density = 23.507315 Si / 1000 Ang^3
#
#
#
# Elastic Constant Matrix: (Units=GPa)
#
#
# Indices 1 2 3 4 5 6 
#
# 1 90.0554 28.2432 70.6341 1.6431 -10.5726 12.1354
# 2 28.2432 113.0663 59.6352 -2.4433 -6.0299 -2.9584
# 3 70.6341 59.6352 255.7447 -32.7337 3.5681 -1.3524
# 4 1.6431 -2.4433 -32.7337 49.5786 -2.6278 -1.2415
# 5 -10.5726 -6.0299 3.5681 -2.6278 39.2325 -0.4905
# 6 12.1354 -2.9584 -1.3524 -1.2415 -0.4905 33.4306
#
#
#
# Elastic Compliance Matrix: (Units=1/GPa)
#
#
# Indices 1 2 3 4 5 6 
#
# 1 0.016913 -0.001680 -0.004860 -0.003783 0.004406 -0.006561
# 2 -0.001680 0.010450 -0.002072 -0.000691 0.001314 0.001444
# 3 -0.004860 -0.002072 0.006306 0.004171 -0.001898 0.001963
# 4 -0.003783 -0.000691 0.004171 0.023078 0.000070 0.002339
# 5 0.004406 0.001314 -0.001898 0.000070 0.027041 -0.001161
# 6 -0.006561 0.001444 0.001963 0.002339 -0.001161 0.032571
#
#
# Mechanical properties :
#
#
# Convention : Reuss Voigt Hill
#
# Bulk Modulus (GPa) = 60.80573 86.21014 73.50793
# Shear Modulus (GPa) = 35.95447 44.47195 40.21321
#
# Velocity S-wave (km/s) = 3.91513 4.35424 4.14051
# Velocity P-wave (km/s) = 6.80885 7.87608 7.36183
#
# Compressibility (1/GPa) = 0.01644582
#
# Stress axis : x y z
#
# Youngs Moduli (GPa) = 59.12479 95.69646 158.57228
#
# Poissons Ratio (x) = 0.16077 0.77064
# Poissons Ratio (y) = 0.09933 0.32854
# Poissons Ratio (z) = 0.28734 0.19827
#
# Static dielectric constant tensor:
#      x y z
#    x 1.847870 -0.041770 0.009360 
#    y -0.041770 1.906960 -0.057000 
#    z 0.009360 -0.057000 1.856530 
# 
# From -- ./inp_files/318893.got.cif
#   From: 2010.05.17/outbox.cif.g08.bks.cpg/sg2_160_cif.got.tgz:318893.got - 2010.06.03 11:33:40.
