data_PCOD9087263
_publ_section_title
;
Structure prediction by ZEFSAII (Michael W. Deem and Ramdas Pophale) SiO2 
 PCOD9087263
Probable space group: P -1
;
_chemical_formula_sum "Si O2"
_cell_formula_units_Z 16
_cell_length_a 8.033668
_cell_length_b 15.071343
_cell_length_c 5.622333
_cell_angle_alpha 71.167980
_cell_angle_beta 112.234479
_cell_angle_gamma 109.985849
_cell_volume 577.345617
_symmetry_space_group_name_H-M "P -1"
_symmetry_group_IT_number 2
_symmetry_cell_setting 'triclinic'
loop_
_space_group_symop_operation_xyz
x,y,z
-x,-y,-z
loop_
_atom_site_type_symbol
_atom_site_label
_atom_site_fract_x
_atom_site_fract_y
_atom_site_fract_z
Si Si1 0.359493 0.065666 0.797071
Si Si2 0.199490 0.582710 0.279936
Si Si3 0.270257 0.824740 0.620476
Si Si4 0.794461 0.698212 0.967600
Si Si5 0.739341 0.191290 0.871742
Si Si6 0.598252 0.413479 0.114830
Si Si7 0.050240 0.363555 0.394037
Si Si8 0.276971 0.106590 0.210817
O O1 0.231136 0.065332 0.955611
O O2 0.513269 0.171402 0.766521
O O3 0.265050 0.048137 0.502867
O O4 0.500000 0.000000 0.000000
O O5 0.172114 0.692649 0.173664
O O6 0.297975 0.578457 0.585908
O O7 0.050464 0.477228 0.287986
O O8 0.314393 0.580921 0.104192
O O9 0.217530 0.855792 0.307868
O O10 0.493868 0.856497 0.717628
O O11 0.154833 0.710698 0.652307
O O12 0.208440 0.852300 0.818990
O O13 0.573169 0.678228 0.881702
O O14 0.846329 0.656764 0.776396
O O15 0.840764 0.813951 0.887522
O O16 0.853033 0.657404 0.288006
O O17 0.500000 0.500000 0.000000
#
# Coordination Sequence:
#
# PCOD9087263 Si02
#       8
#     2   2   2   2   2   2   2   2
#     4  10  19  36  62  92 115 142 189 242 295 350
#     4  12  22  36  54  81 118 153 202 235 282 332
#     4  10  22  40  56  81 118 158 197 231 284 340
#     4  12  23  38  58  85 118 153 197 243 282 331
#     4  10  21  37  57  81 113 153 185 245 293 334
#     4  12  20  34  50  75 109 155 190 237 283 325
#     4  12  24  37  57  86 115 164 202 231 268 338
#     4  10  21  39  61  90 120 151 183 242 297 335
#
# _framework density 27.713038000000001
#
# number of rings (size 3 to 8) (size 9 to 14) (size 15 to 20)
#    0.000    1.000    2.500    6.750    0.000    1.000 
#    0.000    0.000    0.000    0.000    0.000   70.000 
#    0.000    0.000    0.000    0.000    0.000    0.000 
#
# Total GULP energy -89288.591453 kJ/mol
# GULP energy per Si atom -5580.536966 kJ/mol
# Density = 2.764996 g / cm^3
# Si number density = 27.713038 Si / 1000 Ang^3
#
#
#
# Elastic Constant Matrix: (Units=GPa)
#
#
# Indices 1 2 3 4 5 6 
#
# 1 73.6572 20.9815 79.4785 19.9033 -37.2291 -0.7526
# 2 20.9815 78.7940 54.0782 -4.3004 -14.4750 -9.4681
# 3 79.4785 54.0782 333.2830 34.7416 -56.5743 -32.8621
# 4 19.9033 -4.3004 34.7416 56.0394 -15.7189 -7.7977
# 5 -37.2291 -14.4750 -56.5743 -15.7189 49.2605 13.7862
# 6 -0.7526 -9.4681 -32.8621 -7.7977 13.7862 41.7350
#
#
#
# Elastic Compliance Matrix: (Units=1/GPa)
#
#
# Indices 1 2 3 4 5 6 
#
# 1 0.028644 -0.003191 -0.003825 -0.004470 0.017659 -0.009887
# 2 -0.003191 0.015408 -0.001797 0.003954 0.000596 0.002565
# 3 -0.003825 -0.001797 0.004743 -0.001081 0.000913 0.002755
# 4 -0.004470 0.003954 -0.001081 0.021556 0.002538 0.003154
# 5 0.017659 0.000596 0.000913 0.002538 0.038807 -0.011172
# 6 -0.009887 0.002565 0.002755 0.003154 -0.011172 0.030813
#
#
# Mechanical properties :
#
#
# Convention : Reuss Voigt Hill
#
# Bulk Modulus (GPa) = 32.08116 88.31228 60.19672
# Shear Modulus (GPa) = 29.76421 51.48673 40.62547
#
# Velocity S-wave (km/s) = 3.28077 4.31496 3.83290
# Velocity P-wave (km/s) = 5.09437 7.53399 6.43093
#
# Compressibility (1/GPa) = 0.03117094
#
# Stress axis : x y z
#
# Youngs Moduli (GPa) = 34.91091 64.90178 210.81777
#
# Poissons Ratio (x) = 0.20707 0.80627
# Poissons Ratio (y) = 0.11138 0.37891
# Poissons Ratio (z) = 0.13352 0.11665
#
# Static dielectric constant tensor:
#      x y z
#    x 2.303010 0.313740 -0.020330 
#    y 0.313740 2.898960 -0.100180 
#    z -0.020330 -0.100180 2.112600 
# 
# From -- ./inp_files/43777.got.cif
#   From: 2010.05.17/outbox.cif.g08.bks.cpg/sg2_22_cif.got.tgz:43777.got - 2010.06.03 11:33:40.
