data_PCOD9087979
_publ_section_title
;
Structure prediction by ZEFSAII (Michael W. Deem and Ramdas Pophale) SiO2 
 PCOD9087979
Probable space group: P -1
;
_chemical_formula_sum "Si O2"
_cell_formula_units_Z 12
_cell_length_a 18.751469
_cell_length_b 9.973950
_cell_length_c 7.215072
_cell_angle_alpha 53.343016
_cell_angle_beta 88.630685
_cell_angle_gamma 44.993221
_cell_volume 544.888386
_symmetry_space_group_name_H-M "P -1"
_symmetry_group_IT_number 2
_symmetry_cell_setting 'triclinic'
loop_
_space_group_symop_operation_xyz
x,y,z
-x,-y,-z
loop_
_atom_site_type_symbol
_atom_site_label
_atom_site_fract_x
_atom_site_fract_y
_atom_site_fract_z
Si Si1 0.453939 0.059543 0.244384
Si Si2 0.803703 0.037820 0.686101
Si Si3 0.819203 0.768311 0.203875
Si Si4 0.489019 0.752644 0.182328
Si Si5 0.906203 0.950881 0.117407
Si Si6 0.856277 0.205399 0.274373
O O1 0.500000 0.000000 0.500000
O O2 0.500352 0.796019 0.357363
O O3 0.515290 0.081185 0.092890
O O4 0.283046 0.419061 0.953188
O O5 0.633992 0.368560 0.436182
O O6 0.848052 0.032785 0.497914
O O7 0.856868 0.755279 0.001951
O O8 0.857491 0.065155 0.814308
O O9 0.846566 0.884500 0.218789
O O10 0.925912 0.411764 0.563089
O O11 0.656877 0.048141 0.994879
O O12 0.850705 0.198935 0.058251
O O13 0.000000 0.000000 0.500000
#
# Coordination Sequence:
#
# PCOD9087979 Si02
#       6
#     2   2   2   2   2   2
#     4  10  22  37  53  83 105 139 181 213 259 315
#     4   9  20  36  54  81 105 137 177 214 264 311
#     4   9  19  38  55  79 106 142 170 218 270 299
#     4  10  19  37  58  75 110 138 175 219 258 314
#     4   9  20  37  53  79 111 130 181 217 254 322
#     4  11  22  36  55  79 107 141 176 217 263 309
#
# _framework density 22.022862
#
# number of rings (size 3 to 8) (size 9 to 14) (size 15 to 20)
#    1.000    1.333    0.000    2.500    0.000    2.667 
#    3.000    1.667    0.000    0.000    0.000    0.000 
#    0.000    0.000    0.000    0.000    0.000    0.000 
#
# Total GULP energy -66903.819851 kJ/mol
# GULP energy per Si atom -5575.318321 kJ/mol
# Density = 2.197274 g / cm^3
# Si number density = 22.022862 Si / 1000 Ang^3
#
#
#
# Elastic Constant Matrix: (Units=GPa)
#
#
# Indices 1 2 3 4 5 6 
#
# 1 43.3661 25.0868 15.5851 -14.0823 17.9513 -20.2419
# 2 25.0868 50.0825 17.9592 2.8311 6.7853 -3.9579
# 3 15.5851 17.9592 75.7659 0.6347 17.1076 -21.4600
# 4 -14.0823 2.8311 0.6347 38.8854 -2.3261 10.5834
# 5 17.9513 6.7853 17.1076 -2.3261 22.8348 -3.7012
# 6 -20.2419 -3.9579 -21.4600 10.5834 -3.7012 24.7633
#
#
#
# Elastic Compliance Matrix: (Units=1/GPa)
#
#
# Indices 1 2 3 4 5 6 
#
# 1 0.207685 -0.093639 0.063841 0.023637 -0.152131 0.177284
# 2 -0.093639 0.064346 -0.033290 -0.012357 0.065195 -0.080082
# 3 0.063841 -0.033290 0.042557 0.001027 -0.060026 0.074333
# 4 0.023637 -0.012357 0.001027 0.033913 -0.011907 0.001963
# 5 -0.152131 0.065195 -0.060026 -0.011907 0.165715 -0.136096
# 6 0.177284 -0.080082 0.074333 0.001963 -0.136096 0.215734
#
#
# Mechanical properties :
#
#
# Convention : Reuss Voigt Hill
#
# Bulk Modulus (GPa) = 5.30752 31.83076 18.56914
# Shear Modulus (GPa) = 5.44111 24.66892 15.05502
#
# Velocity S-wave (km/s) = 1.57354 3.35050 2.61743
# Velocity P-wave (km/s) = 2.39094 5.42703 4.19340
#
# Compressibility (1/GPa) = 0.18841192
#
# Stress axis : x y z
#
# Youngs Moduli (GPa) = 4.81499 15.54088 23.49814
#
# Poissons Ratio (x) = 1.45523 -1.50015
# Poissons Ratio (y) = 0.45087 0.78226
# Poissons Ratio (z) = -0.30740 0.51736
#
# Static dielectric constant tensor:
#      x y z
#    x 1.812310 0.024570 -0.020590 
#    y 0.024570 1.808770 -0.010020 
#    z -0.020590 -0.010020 1.825380 
# 
# From -- ./inp_files/40459.got.cif
#   From: 2010.05.17/outbox.cif.g08.bks.cpg/sg2_21_cif.got.tgz:40459.got - 2010.06.03 11:33:40.
