data_PCOD9087921
_publ_section_title
;
Structure prediction by ZEFSAII (Michael W. Deem and Ramdas Pophale) SiO2 
 PCOD9087921
Probable space group: P -1
;
_chemical_formula_sum "Si O2"
_cell_formula_units_Z 16
_cell_length_a 14.486027
_cell_length_b 12.119582
_cell_length_c 11.746472
_cell_angle_alpha 136.681493
_cell_angle_beta 123.566621
_cell_angle_gamma 29.798285
_cell_volume 684.227742
_symmetry_space_group_name_H-M "P -1"
_symmetry_group_IT_number 2
_symmetry_cell_setting 'triclinic'
loop_
_space_group_symop_operation_xyz
x,y,z
-x,-y,-z
loop_
_atom_site_type_symbol
_atom_site_label
_atom_site_fract_x
_atom_site_fract_y
_atom_site_fract_z
Si Si1 0.326248 0.017396 0.864777
Si Si2 0.879919 0.255585 0.255584
Si Si3 0.108504 0.244901 0.301374
Si Si4 0.535491 0.647922 0.149787
Si Si5 0.809299 0.583402 0.654190
Si Si6 0.563371 0.850209 0.121480
Si Si7 0.946108 0.937468 0.245906
Si Si8 0.734969 0.414317 0.640962
O O1 0.139016 0.138406 0.854471
O O2 0.507142 0.697956 0.700317
O O3 0.297904 0.195343 0.887975
O O4 0.422966 0.956942 0.004381
O O5 0.678697 0.500396 0.240311
O O6 0.888655 0.365849 0.452113
O O7 0.915387 0.042611 0.177694
O O8 0.024606 0.166245 0.198196
O O9 0.101534 0.347152 0.253317
O O10 0.000000 0.500000 0.500000
O O11 0.329999 0.968476 0.275736
O O12 0.615496 0.644822 0.088540
O O13 0.500000 0.500000 0.000000
O O14 0.824384 0.477010 0.703854
O O15 0.581236 0.867669 0.692143
O O16 0.815394 0.190321 0.438648
O O17 0.162604 0.721385 0.269490
#
# Coordination Sequence:
#
# PCOD9087921 Si02
#       8
#     2   2   2   2   2   2   2   2
#     4  10  19  37  57  77 111 149 183 233 287 331
#     4  10  21  36  58  84 116 154 191 232 287 346
#     4   9  20  38  59  84 114 150 191 235 282 337
#     4  11  23  39  59  87 120 153 190 238 290 342
#     4   8  17  37  57  81 112 143 189 244 280 329
#     4   9  20  36  56  82 111 144 191 236 280 343
#     4  10  20  34  55  84 113 145 185 232 283 339
#     4   9  19  35  56  82 110 142 188 233 279 341
#
# _framework density 23.384028000000001
#
# number of rings (size 3 to 8) (size 9 to 14) (size 15 to 20)
#    0.000    2.500    0.000    1.125    0.000    8.000 
#    0.000   18.125    0.000    0.000    0.000    0.000 
#    0.000    0.000    0.000    0.000    0.000    0.000 
#
# Total GULP energy -89198.174420 kJ/mol
# GULP energy per Si atom -5574.885901 kJ/mol
# Density = 2.333080 g / cm^3
# Si number density = 23.384028 Si / 1000 Ang^3
#
#
#
# Elastic Constant Matrix: (Units=GPa)
#
#
# Indices 1 2 3 4 5 6 
#
# 1 166.9008 36.3514 17.1829 0.5907 17.8484 21.4582
# 2 36.3514 94.2841 11.6160 -1.9006 -2.0178 8.1416
# 3 17.1829 11.6160 38.8294 8.1817 -11.8348 4.4505
# 4 0.5907 -1.9006 8.1817 18.6581 -3.6561 -3.1183
# 5 17.8484 -2.0178 -11.8348 -3.6561 25.3487 2.1745
# 6 21.4582 8.1416 4.4505 -3.1183 2.1745 39.9713
#
#
#
# Elastic Compliance Matrix: (Units=1/GPa)
#
#
# Indices 1 2 3 4 5 6 
#
# 1 0.008315 -0.002517 -0.004989 -0.000436 -0.008191 -0.002984
# 2 -0.002517 0.012023 -0.002307 0.002600 0.002092 -0.000752
# 3 -0.004989 -0.002307 0.037700 -0.013357 0.019274 -0.003140
# 4 -0.000436 0.002600 -0.013357 0.061216 0.002607 0.005825
# 5 -0.008191 0.002092 0.019274 0.002607 0.054840 -0.000955
# 6 -0.002984 -0.000752 -0.003140 0.005825 -0.000955 0.027629
#
#
# Mechanical properties :
#
#
# Convention : Reuss Voigt Hill
#
# Bulk Modulus (GPa) = 26.03403 47.81279 36.92341
# Shear Modulus (GPa) = 21.35347 32.45320 26.90334
#
# Velocity S-wave (km/s) = 3.02514 3.72941 3.39558
# Velocity P-wave (km/s) = 4.83315 6.24786 5.58548
#
# Compressibility (1/GPa) = 0.03841127
#
# Stress axis : x y z
#
# Youngs Moduli (GPa) = 120.26972 83.17279 26.52503
#
# Poissons Ratio (x) = 0.20939 0.13234
# Poissons Ratio (y) = 0.30278 0.06119
# Poissons Ratio (z) = 0.60003 0.19187
#
# Static dielectric constant tensor:
#      x y z
#    x 1.948320 0.023220 -0.025500 
#    y 0.023220 1.871610 0.080360 
#    z -0.025500 0.080360 1.962880 
# 
# From -- ./inp_files/205551.got.cif
#   From: 2010.05.17/outbox.cif.g08.bks.cpg/sg2_103_cif.got.tgz:205551.got - 2010.06.03 11:33:40.
