data_PCOD9087386
_publ_section_title
;
Structure prediction by ZEFSAII (Michael W. Deem and Ramdas Pophale) SiO2 
 PCOD9087386
Probable space group: P -1
;
_chemical_formula_sum "Si O2"
_cell_formula_units_Z 14
_cell_length_a 14.421716
_cell_length_b 12.189297
_cell_length_c 9.172024
_cell_angle_alpha 61.517180
_cell_angle_beta 128.136805
_cell_angle_gamma 74.802791
_cell_volume 661.050369
_symmetry_space_group_name_H-M "P -1"
_symmetry_group_IT_number 2
_symmetry_cell_setting 'triclinic'
loop_
_space_group_symop_operation_xyz
x,y,z
-x,-y,-z
loop_
_atom_site_type_symbol
_atom_site_label
_atom_site_fract_x
_atom_site_fract_y
_atom_site_fract_z
Si Si1 0.488710 0.685344 0.281553
Si Si2 0.567919 0.817473 0.771876
Si Si3 0.013004 0.362681 0.966543
Si Si4 0.378832 0.209319 0.831623
Si Si5 0.189483 0.813813 0.096827
Si Si6 0.814074 0.020575 0.719411
Si Si7 0.244204 0.404018 0.181407
O O1 0.505003 0.761013 0.111201
O O2 0.276603 0.811818 0.042579
O O3 0.653968 0.435300 0.581276
O O4 0.564546 0.706273 0.478634
O O5 0.725367 0.612379 0.950215
O O6 0.500000 0.000000 0.500000
O O7 0.393816 0.864384 0.598820
O O8 0.644238 0.792536 0.018851
O O9 0.835237 0.592156 0.577225
O O10 0.933819 0.382114 0.034175
O O11 0.058669 0.215085 0.991696
O O12 0.194017 0.299890 0.216227
O O13 0.500000 0.000000 0.000000
O O14 0.211293 0.878564 0.223093
O O15 0.956911 0.973681 0.775487
#
# Coordination Sequence:
#
# PCOD9087386 Si02
#       7
#     2   2   2   2   2   2   2
#     4  10  20  42  64  95 123 171 212 249 313 374
#     4  12  23  39  63  93 127 165 208 261 319 375
#     4  10  21  39  64  92 127 155 211 261 310 374
#     4  11  25  39  62  96 131 160 205 268 319 366
#     4  10  21  37  69  88 126 170 214 249 299 386
#     4  11  21  37  66  96 120 168 215 251 305 374
#     4  10  19  36  63  89 123 157 204 251 316 369
#
# _framework density 21.178415000000001
#
# number of rings (size 3 to 8) (size 9 to 14) (size 15 to 20)
#    0.000    1.429    5.714    1.714    2.000    0.571 
#    0.000    1.429    0.000    0.000    0.000    0.000 
#    0.000    0.000    0.000    0.000    0.000    0.000 
#
# Total GULP energy -77940.680458 kJ/mol
# GULP energy per Si atom -5567.191461 kJ/mol
# Density = 2.113021 g / cm^3
# Si number density = 21.178415 Si / 1000 Ang^3
#
#
#
# Elastic Constant Matrix: (Units=GPa)
#
#
# Indices 1 2 3 4 5 6 
#
# 1 110.4393 36.7244 28.5986 0.8696 16.3945 -15.5926
# 2 36.7244 145.3332 39.9331 2.4544 -9.1718 -17.3617
# 3 28.5986 39.9331 40.0192 2.0872 5.0655 -13.2592
# 4 0.8696 2.4544 2.0872 24.8668 -3.3772 2.3066
# 5 16.3945 -9.1718 5.0655 -3.3772 41.3670 3.8575
# 6 -15.5926 -17.3617 -13.2592 2.3066 3.8575 43.7785
#
#
#
# Elastic Compliance Matrix: (Units=1/GPa)
#
#
# Indices 1 2 3 4 5 6 
#
# 1 0.012071 -0.001472 -0.005724 -0.000659 -0.004690 0.002430
# 2 -0.001472 0.010143 -0.009514 0.000370 0.004005 0.000244
# 3 -0.005724 -0.009514 0.042082 -0.003923 -0.006029 0.007671
# 4 -0.000659 0.000370 -0.003923 0.041510 0.004573 -0.003866
# 5 -0.004690 0.004005 -0.006029 0.004573 0.028466 -0.004658
# 6 0.002430 0.000244 0.007671 -0.003866 -0.004658 0.026742
#
#
# Mechanical properties :
#
#
# Convention : Reuss Voigt Hill
#
# Bulk Modulus (GPa) = 32.38921 56.25600 44.32260
# Shear Modulus (GPa) = 24.42285 34.70482 29.56384
#
# Velocity S-wave (km/s) = 3.39956 4.05246 3.74028
# Velocity P-wave (km/s) = 5.54401 6.96543 6.29497
#
# Compressibility (1/GPa) = 0.03087448
#
# Stress axis : x y z
#
# Youngs Moduli (GPa) = 82.84333 98.59486 23.76309
#
# Poissons Ratio (x) = 0.14512 0.13603
# Poissons Ratio (y) = 0.12194 0.22609
# Poissons Ratio (z) = 0.47424 0.93805
#
# Static dielectric constant tensor:
#      x y z
#    x 1.852580 0.004090 0.053410 
#    y 0.004090 1.803660 -0.039890 
#    z 0.053410 -0.039890 1.773870 
# 
# From -- ./inp_files/237239.got.cif
#   From: 2010.05.17/outbox.cif.g08.bks.cpg/sg2_119_cif.got.tgz:237239.got - 2010.06.03 11:33:40.
