data_PCOD9087857
_publ_section_title
;
Structure prediction by ZEFSAII (Michael W. Deem and Ramdas Pophale) SiO2 
 PCOD9087857
Probable space group: P -1
;
_chemical_formula_sum "Si O2"
_cell_formula_units_Z 14
_cell_length_a 12.851718
_cell_length_b 16.061688
_cell_length_c 9.215681
_cell_angle_alpha 67.589698
_cell_angle_beta 125.206671
_cell_angle_gamma 154.232868
_cell_volume 622.635795
_symmetry_space_group_name_H-M "P -1"
_symmetry_group_IT_number 2
_symmetry_cell_setting 'triclinic'
loop_
_space_group_symop_operation_xyz
x,y,z
-x,-y,-z
loop_
_atom_site_type_symbol
_atom_site_label
_atom_site_fract_x
_atom_site_fract_y
_atom_site_fract_z
Si Si1 0.201960 0.041302 0.756473
Si Si2 0.792025 0.626488 0.607637
Si Si3 0.543303 0.927263 0.429186
Si Si4 0.629013 0.780112 0.524296
Si Si5 0.936274 0.335670 0.526149
Si Si6 0.948382 0.364630 0.990399
Si Si7 0.308815 0.656837 0.831387
O O1 0.035234 0.859876 0.646508
O O2 0.949193 0.941601 0.689620
O O3 0.386093 0.212934 0.668620
O O4 0.390877 0.128119 0.987530
O O5 0.500000 0.500000 0.500000
O O6 0.627684 0.452446 0.482028
O O7 0.962611 0.661317 0.820870
O O8 0.600453 0.858171 0.520610
O O9 0.316788 0.802608 0.462160
O O10 0.376977 0.847326 0.198933
O O11 0.841421 0.174564 0.517721
O O12 0.861440 0.358069 0.322972
O O13 0.245410 0.560608 0.697385
O O14 0.155539 0.494222 0.931278
O O15 0.000000 0.500000 0.000000
#
# Coordination Sequence:
#
# PCOD9087857 Si02
#       7
#     2   2   2   2   2   2   2
#     4  10  20  35  60  83 114 152 180 228 298 347
#     4  10  20  34  53  86 118 148 178 218 294 354
#     4  10  19  37  56  80 115 147 193 239 281 328
#     4  10  20  37  56  87 117 142 185 237 286 347
#     4   9  21  35  57  78 108 158 191 239 279 322
#     4  11  19  32  59  85 115 145 182 242 291 339
#     4  10  19  37  55  79 115 147 195 236 277 337
#
# _framework density 22.485054000000002
#
# number of rings (size 3 to 8) (size 9 to 14) (size 15 to 20)
#    0.000    2.000    2.857    0.857    0.000    1.143 
#    2.571    4.286    0.000    0.000    0.000    0.000 
#    0.000    0.000    0.000    0.000    0.000    0.000 
#
# Total GULP energy -77964.478766 kJ/mol
# GULP energy per Si atom -5568.891340 kJ/mol
# Density = 2.243388 g / cm^3
# Si number density = 22.485054 Si / 1000 Ang^3
#
#
#
# Elastic Constant Matrix: (Units=GPa)
#
#
# Indices 1 2 3 4 5 6 
#
# 1 65.7289 25.3598 25.4369 7.7093 4.5762 -25.1578
# 2 25.3598 110.9776 12.1487 25.5142 -0.9560 -22.3775
# 3 25.4369 12.1487 87.9820 8.4206 -2.4865 -4.7818
# 4 7.7093 25.5142 8.4206 36.2533 -8.1671 -2.7303
# 5 4.5762 -0.9560 -2.4865 -8.1671 21.7478 0.3346
# 6 -25.1578 -22.3775 -4.7818 -2.7303 0.3346 45.9400
#
#
#
# Elastic Compliance Matrix: (Units=1/GPa)
#
#
# Indices 1 2 3 4 5 6 
#
# 1 0.023238 -0.001790 -0.005770 -0.003070 -0.006952 0.011122
# 2 -0.001790 0.012253 -0.000194 -0.008383 -0.002324 0.004487
# 3 -0.005770 -0.000194 0.013144 -0.001335 0.002238 -0.001981
# 4 -0.003070 -0.008383 -0.001335 0.037364 0.014215 -0.003787
# 5 -0.006952 -0.002324 0.002238 0.014215 0.053002 -0.004248
# 6 0.011122 0.004487 -0.001981 -0.003787 -0.004248 0.029643
#
#
# Mechanical properties :
#
#
# Convention : Reuss Voigt Hill
#
# Bulk Modulus (GPa) = 30.18537 43.39767 36.79152
# Shear Modulus (GPa) = 25.61550 34.23775 29.92663
#
# Velocity S-wave (km/s) = 3.37890 3.90640 3.65219
# Velocity P-wave (km/s) = 5.35504 6.29993 5.84660
#
# Compressibility (1/GPa) = 0.03312863
#
# Stress axis : x y z
#
# Youngs Moduli (GPa) = 43.03219 81.61133 76.07982
#
# Poissons Ratio (x) = 0.14610 0.43895
# Poissons Ratio (y) = 0.07703 0.01475
# Poissons Ratio (z) = 0.24828 0.01582
#
# Static dielectric constant tensor:
#      x y z
#    x 1.962480 0.032110 -0.029410 
#    y 0.032110 1.889500 0.053300 
#    z -0.029410 0.053300 1.868200 
# 
# From -- ./inp_files/422411.got.cif
#   From: 2010.05.17/outbox.cif.g08.bks.cpg/sg2_212_cif.got.tgz:422411.got - 2010.06.03 11:33:40.
