data_PCOD9087937
_publ_section_title
;
Structure prediction by ZEFSAII (Michael W. Deem and Ramdas Pophale) SiO2 
 PCOD9087937
Probable space group: P -1
;
_chemical_formula_sum "Si O2"
_cell_formula_units_Z 16
_cell_length_a 22.826787
_cell_length_b 10.155363
_cell_length_c 11.328288
_cell_angle_alpha 111.220842
_cell_angle_beta 147.776362
_cell_angle_gamma 44.340098
_cell_volume 741.844252
_symmetry_space_group_name_H-M "P -1"
_symmetry_group_IT_number 2
_symmetry_cell_setting 'triclinic'
loop_
_space_group_symop_operation_xyz
x,y,z
-x,-y,-z
loop_
_atom_site_type_symbol
_atom_site_label
_atom_site_fract_x
_atom_site_fract_y
_atom_site_fract_z
Si Si1 0.609605 0.626451 0.907425
Si Si2 0.395193 0.764364 0.052275
Si Si3 0.449451 0.987598 0.094217
Si Si4 0.171578 0.534193 0.534410
Si Si5 0.560807 0.464269 0.456939
Si Si6 0.802579 0.222246 0.463267
Si Si7 0.066720 0.391093 0.444864
Si Si8 0.107109 0.722561 0.935097
O O1 0.704655 0.535420 0.167867
O O2 0.434179 0.701409 0.636951
O O3 0.560877 0.834426 0.845084
O O4 0.774524 0.397290 0.025536
O O5 0.406627 0.705920 0.188371
O O6 0.384577 0.942690 0.067187
O O7 0.237497 0.847750 0.732779
O O8 0.401193 0.506727 0.744780
O O9 0.667972 0.716735 0.349636
O O10 0.298336 0.122233 0.771444
O O11 0.090898 0.752407 0.397826
O O12 0.500000 0.500000 0.500000
O O13 0.747736 0.366740 0.750332
O O14 0.965600 0.437887 0.635046
O O15 0.924880 0.015685 0.703433
O O16 0.000000 0.500000 0.500000
O O17 0.965067 0.361964 0.208830
#
# Coordination Sequence:
#
# PCOD9087937 Si02
#       8
#     2   2   2   2   2   2   2   2
#     4  10  19  37  57  83 121 153 193 235 295 356
#     4  10  20  38  60  84 118 151 201 242 286 351
#     4  10  20  35  61  86 112 154 198 242 295 339
#     4  10  20  35  58  87 117 151 194 245 295 343
#     4  10  23  41  56  84 122 162 191 230 300 365
#     4  10  21  36  59  90 113 152 198 248 291 332
#     4  11  19  34  55  89 119 146 192 249 292 333
#     4  11  22  37  56  89 120 151 197 237 300 348
#
# _framework density 21.567868000000001
#
# number of rings (size 3 to 8) (size 9 to 14) (size 15 to 20)
#    0.000    1.750    5.000    1.500    0.000    2.000 
#    4.500    3.750    0.000    3.000    0.000    0.000 
#    0.000    0.000    0.000    0.000    0.000    0.000 
#
# Total GULP energy -89299.252967 kJ/mol
# GULP energy per Si atom -5581.203310 kJ/mol
# Density = 2.151878 g / cm^3
# Si number density = 21.567868 Si / 1000 Ang^3
#
#
#
# Elastic Constant Matrix: (Units=GPa)
#
#
# Indices 1 2 3 4 5 6 
#
# 1 79.4695 24.3151 0.0384 7.9695 3.7630 27.2460
# 2 24.3151 92.9988 26.8167 25.8476 15.6544 29.8694
# 3 0.0384 26.8167 72.0274 27.2550 12.1972 9.8408
# 4 7.9695 25.8476 27.2550 28.1427 7.4994 17.4747
# 5 3.7630 15.6544 12.1972 7.4994 29.0112 6.2698
# 6 27.2460 29.8694 9.8408 17.4747 6.2698 37.3633
#
#
#
# Elastic Compliance Matrix: (Units=1/GPa)
#
#
# Indices 1 2 3 4 5 6 
#
# 1 0.017276 -0.001587 0.000865 0.004066 0.000113 -0.013478
# 2 -0.001587 0.016990 -0.001618 -0.007583 -0.004664 -0.007670
# 3 0.000865 -0.001618 0.023619 -0.024653 -0.004241 0.006683
# 4 0.004066 -0.007583 -0.024653 0.083841 -0.001392 -0.029388
# 5 0.000113 -0.004664 -0.004241 -0.001392 0.039372 -0.001193
# 6 -0.013478 -0.007670 0.006683 -0.029388 -0.001193 0.054910
#
#
# Mechanical properties :
#
#
# Convention : Reuss Voigt Hill
#
# Bulk Modulus (GPa) = 18.79413 38.53733 28.66573
# Shear Modulus (GPa) = 19.34810 31.79180 25.56995
#
# Velocity S-wave (km/s) = 2.99838 3.84348 3.44693
# Velocity P-wave (km/s) = 4.55191 6.13214 5.40014
#
# Compressibility (1/GPa) = 0.05320810
#
# Stress axis : x y z
#
# Youngs Moduli (GPa) = 57.88219 58.85675 42.33831
#
# Poissons Ratio (x) = 0.09339 -0.03663
# Poissons Ratio (y) = 0.09184 0.06849
# Poissons Ratio (z) = -0.05008 0.09521
#
# Static dielectric constant tensor:
#      x y z
#    x 1.854400 -0.007720 0.050140 
#    y -0.007720 1.802930 0.001440 
#    z 0.050140 0.001440 1.782860 
# 
# From -- ./inp_files/474256.got.cif
#   From: 2010.05.17/outbox.cif.g08.bks.cpg/sg2_238_cif.got.tgz:474256.got - 2010.06.03 11:33:40.
