data_PCOD9087246
_publ_section_title
;
Structure prediction by ZEFSAII (Michael W. Deem and Ramdas Pophale) SiO2 
 PCOD9087246
Probable space group: P -1
;
_chemical_formula_sum "Si O2"
_cell_formula_units_Z 13
_cell_length_a 8.053215
_cell_length_b 9.763480
_cell_length_c 9.306253
_cell_angle_alpha 70.179393
_cell_angle_beta 65.500922
_cell_angle_gamma 48.859452
_cell_volume 499.099405
_symmetry_space_group_name_H-M "P -1"
_symmetry_group_IT_number 2
_symmetry_cell_setting 'triclinic'
loop_
_space_group_symop_operation_xyz
x,y,z
-x,-y,-z
loop_
_atom_site_type_symbol
_atom_site_label
_atom_site_fract_x
_atom_site_fract_y
_atom_site_fract_z
Si Si1 0.974862 0.382113 0.433197
Si Si2 0.000000 0.000000 0.000000
Si Si3 0.503907 0.271258 0.625670
Si Si4 0.720957 0.999310 0.405646
Si Si5 0.233725 0.450697 0.145646
Si Si6 0.608271 0.354832 0.844579
Si Si7 0.785812 0.853536 0.135254
O O1 0.064646 0.194500 0.543898
O O2 0.175557 0.319009 0.267227
O O3 0.000000 0.500000 0.500000
O O4 0.722950 0.527573 0.408185
O O5 0.120828 0.078061 0.037079
O O6 0.201960 0.792252 0.059960
O O7 0.629238 0.295156 0.697111
O O8 0.429651 0.147285 0.762950
O O9 0.656744 0.165576 0.467933
O O10 0.775837 0.988016 0.218651
O O11 0.500000 0.000000 0.500000
O O12 0.377860 0.477603 0.198283
O O13 0.983937 0.640766 0.159643
O O14 0.369750 0.402133 0.968226
#
# Coordination Sequence:
#
# PCOD9087246 Si02
#       7
#     2   1   2   2   2   2   2
#     4  11  19  37  66  87 118 160 194 235 305 349
#     4  10  22  38  58  80 120 158 188 236 304 350
#     4  10  22  38  62  94 118 149 204 251 280 353
#     4  10  19  36  62  91 120 151 195 241 293 355
#     4   9  20  39  61  78 120 159 195 240 297 358
#     4  10  22  41  58  86 119 156 201 245 296 344
#     4   9  19  37  61  87 115 153 195 233 296 358
#
# _framework density 26.046917000000001
#
# number of rings (size 3 to 8) (size 9 to 14) (size 15 to 20)
#    0.000    2.154    4.615    0.000    4.308    3.077 
#    8.308    3.846    0.000    0.000    0.000    0.000 
#    0.000    0.000    0.000    0.000    0.000    0.000 
#
# Total GULP energy -72382.308447 kJ/mol
# GULP energy per Si atom -5567.869881 kJ/mol
# Density = 2.598763 g / cm^3
# Si number density = 26.046917 Si / 1000 Ang^3
#
#
#
# Elastic Constant Matrix: (Units=GPa)
#
#
# Indices 1 2 3 4 5 6 
#
# 1 68.7712 42.0779 35.8313 1.3257 -5.9116 -14.5474
# 2 42.0779 115.8265 46.8606 1.4240 15.6417 -16.7705
# 3 35.8313 46.8606 61.1852 11.9145 8.7725 -7.9580
# 4 1.3257 1.4240 11.9145 48.4172 7.6434 -8.1654
# 5 -5.9116 15.6417 8.7725 7.6434 38.5461 3.9869
# 6 -14.5474 -16.7705 -7.9580 -8.1654 3.9869 30.2381
#
#
#
# Elastic Compliance Matrix: (Units=1/GPa)
#
#
# Indices 1 2 3 4 5 6 
#
# 1 0.025573 -0.004448 -0.012272 0.002337 0.007409 0.006260
# 2 -0.004448 0.015189 -0.008051 0.003672 -0.006361 0.005995
# 3 -0.012272 -0.008051 0.031177 -0.007077 -0.003939 -0.003556
# 4 0.002337 0.003672 -0.007077 0.024508 -0.005271 0.008611
# 5 0.007409 -0.006361 -0.003939 -0.005271 0.032294 -0.006682
# 6 0.006260 0.005995 -0.003556 0.008611 -0.006682 0.041678
#
#
# Mechanical properties :
#
#
# Convention : Reuss Voigt Hill
#
# Bulk Modulus (GPa) = 44.65062 55.03581 49.84321
# Shear Modulus (GPa) = 21.98512 31.50783 26.74648
#
# Velocity S-wave (km/s) = 2.90842 3.48179 3.20794
# Velocity P-wave (km/s) = 5.33462 6.11058 5.73573
#
# Compressibility (1/GPa) = 0.02239611
#
# Stress axis : x y z
#
# Youngs Moduli (GPa) = 39.10425 65.83826 32.07452
#
# Poissons Ratio (x) = 0.29284 0.39363
# Poissons Ratio (y) = 0.17393 0.25824
# Poissons Ratio (z) = 0.47990 0.53007
#
# Static dielectric constant tensor:
#      x y z
#    x 1.941670 0.052140 0.332730 
#    y 0.052140 2.098120 -0.034360 
#    z 0.332730 -0.034360 1.468260 
# 
# From -- ./inp_files/186574.got.cif
#   From: 2010.05.17/outbox.cif.g08.bks.cpg/sg2_94_cif.got.tgz:186574.got - 2010.06.03 11:33:40.
