data_PCOD9087778
_publ_section_title
;
Structure prediction by ZEFSAII (Michael W. Deem and Ramdas Pophale) SiO2 
 PCOD9087778
Probable space group: P -1
;
_chemical_formula_sum "Si O2"
_cell_formula_units_Z 16
_cell_length_a 19.176667
_cell_length_b 23.992609
_cell_length_c 9.089104
_cell_angle_alpha 43.487486
_cell_angle_beta 145.150132
_cell_angle_gamma 161.056768
_cell_volume 746.238867
_symmetry_space_group_name_H-M "P -1"
_symmetry_group_IT_number 2
_symmetry_cell_setting 'triclinic'
loop_
_space_group_symop_operation_xyz
x,y,z
-x,-y,-z
loop_
_atom_site_type_symbol
_atom_site_label
_atom_site_fract_x
_atom_site_fract_y
_atom_site_fract_z
Si Si1 0.901058 0.029747 0.728937
Si Si2 0.083361 0.922213 0.673872
Si Si3 0.553128 0.888231 0.824681
Si Si4 0.986660 0.672070 0.984886
Si Si5 0.685445 0.291645 0.544349
Si Si6 0.018070 0.644203 0.429000
Si Si7 0.557684 0.602915 0.527868
Si Si8 0.899589 0.740970 0.115020
O O1 0.934472 0.061286 0.554288
O O2 0.069128 0.191546 0.810355
O O3 0.588507 0.856725 0.558772
O O4 0.000000 0.000000 0.000000
O O5 0.083661 0.823004 0.862769
O O6 0.823875 0.801255 0.543385
O O7 0.344032 0.099465 0.879874
O O8 0.391109 0.746458 0.688574
O O9 0.341441 0.829901 0.625923
O O10 0.824888 0.079339 0.847250
O O11 0.715472 0.508667 0.732503
O O12 0.199440 0.730466 0.191435
O O13 0.927226 0.614351 0.162935
O O14 0.902041 0.489047 0.570748
O O15 0.904848 0.648379 0.325758
O O16 0.500000 0.500000 0.500000
O O17 0.653619 0.623080 0.810871
#
# Coordination Sequence:
#
# PCOD9087778 Si02
#       8
#     2   2   2   2   2   2   2   2
#     4  11  27  47  59  86 131 169 208 252 311 377
#     4  10  21  39  67  89 124 169 212 254 299 374
#     4   9  18  37  64  98 116 158 211 258 303 356
#     4  10  19  36  67  99 128 152 206 265 308 358
#     4  10  24  39  63  96 132 163 196 256 322 361
#     4  11  19  37  66  97 127 152 206 265 310 363
#     4   9  17  36  64  97 119 150 211 265 300 352
#     4  10  20  39  67  89 119 171 209 250 310 372
#
# _framework density 21.440856
#
# number of rings (size 3 to 8) (size 9 to 14) (size 15 to 20)
#    0.000    2.000    3.750    1.875    5.250    0.500 
#    4.500    8.125    0.000    0.000    0.000    0.000 
#    0.000    0.000    0.000    0.000    0.000    0.000 
#
# Total GULP energy -89337.871622 kJ/mol
# GULP energy per Si atom -5583.616976 kJ/mol
# Density = 2.139206 g / cm^3
# Si number density = 21.440856 Si / 1000 Ang^3
#
#
#
# Elastic Constant Matrix: (Units=GPa)
#
#
# Indices 1 2 3 4 5 6 
#
# 1 36.1685 1.4464 25.6172 3.4993 11.6697 -0.5531
# 2 1.4464 39.9020 27.4451 7.0522 10.1075 -7.6685
# 3 25.6172 27.4451 113.7366 23.5804 2.0634 0.3394
# 4 3.4993 7.0522 23.5804 39.7078 -0.8349 1.6783
# 5 11.6697 10.1075 2.0634 -0.8349 39.1247 -1.2133
# 6 -0.5531 -7.6685 0.3394 1.6783 -1.2133 19.4013
#
#
#
# Elastic Compliance Matrix: (Units=1/GPa)
#
#
# Indices 1 2 3 4 5 6 
#
# 1 0.039832 0.010713 -0.011513 0.000937 -0.013878 0.004622
# 2 0.010713 0.038723 -0.011145 -0.002102 -0.012184 0.015226
# 3 -0.011513 -0.011145 0.015181 -0.005734 0.005261 -0.004174
# 4 0.000937 -0.002102 -0.005734 0.029036 0.001088 -0.003148
# 5 -0.013878 -0.012184 0.005261 0.001088 0.032488 -0.003366
# 6 0.004622 0.015226 -0.004174 -0.003148 -0.003366 0.057828
#
#
# Mechanical properties :
#
#
# Convention : Reuss Voigt Hill
#
# Bulk Modulus (GPa) = 14.31744 33.20272 23.76008
# Shear Modulus (GPa) = 19.21164 28.66665 23.93915
#
# Velocity S-wave (km/s) = 2.99662 3.66048 3.34506
# Velocity P-wave (km/s) = 4.32032 5.77796 5.10147
#
# Compressibility (1/GPa) = 0.06984489
#
# Stress axis : x y z
#
# Youngs Moduli (GPa) = 25.10562 25.82430 65.87395
#
# Poissons Ratio (x) = -0.27665 0.75839
# Poissons Ratio (y) = -0.26895 0.73420
# Poissons Ratio (z) = 0.28903 0.28782
#
# Static dielectric constant tensor:
#      x y z
#    x 1.782660 -0.014670 0.008740 
#    y -0.014670 1.825040 0.020780 
#    z 0.008740 0.020780 1.778880 
# 
# From -- ./inp_files/350247.got.cif
#   From: 2010.05.17/outbox.cif.g08.bks.cpg/sg2_176_cif.got.tgz:350247.got - 2010.06.03 11:33:40.
