data_PCOD9087998
_publ_section_title
;
Structure prediction by ZEFSAII (Michael W. Deem and Ramdas Pophale) SiO2 
 PCOD9087998
Probable space group: P -1
;
_chemical_formula_sum "Si O2"
_cell_formula_units_Z 16
_cell_length_a 26.386796
_cell_length_b 17.628788
_cell_length_c 11.201548
_cell_angle_alpha 149.663052
_cell_angle_beta 40.626899
_cell_angle_gamma 158.364293
_cell_volume 943.758873
_symmetry_space_group_name_H-M "P -1"
_symmetry_group_IT_number 2
_symmetry_cell_setting 'triclinic'
loop_
_space_group_symop_operation_xyz
x,y,z
-x,-y,-z
loop_
_atom_site_type_symbol
_atom_site_label
_atom_site_fract_x
_atom_site_fract_y
_atom_site_fract_z
Si Si1 0.704526 0.904048 0.496138
Si Si2 0.980598 0.511166 0.909849
Si Si3 0.556791 0.486224 0.986453
Si Si4 0.530248 0.222915 0.252071
Si Si5 0.716559 0.722386 0.452656
Si Si6 0.271280 0.065628 0.044119
Si Si7 0.719370 0.612333 0.669309
Si Si8 0.029098 0.167698 0.571880
O O1 0.659422 0.747813 0.243447
O O2 0.606375 0.892066 0.667650
O O3 0.673108 0.735295 0.428469
O O4 0.863585 0.218964 0.660155
O O5 0.935186 0.613809 0.136341
O O6 0.000000 0.500000 0.000000
O O7 0.130335 0.746205 0.892175
O O8 0.412800 0.213528 0.944281
O O9 0.500000 0.500000 0.000000
O O10 0.645218 0.502804 0.781292
O O11 0.631404 0.437513 0.254432
O O12 0.608527 0.386570 0.458556
O O13 0.500000 0.000000 0.000000
O O14 0.691090 0.793720 0.706579
O O15 0.883340 0.957267 0.475942
O O16 0.235293 0.146126 0.127299
O O17 0.847867 0.703840 0.553640
O O18 0.000000 0.000000 0.500000
#
# Coordination Sequence:
#
# PCOD9087998 Si02
#       8
#     2   2   2   2   2   2   2   2
#     4  12  21  35  61  90 119 148 198 244 291 345
#     4  11  21  34  57  95 117 143 186 250 302 332
#     4  10  20  38  59  80 113 166 199 226 280 368
#     4  11  21  33  58  91 118 141 195 251 297 333
#     4  10  20  34  56  91 113 154 188 244 303 335
#     4   9  17  35  56  81 118 146 193 229 289 342
#     4  10  19  37  58  82 111 160 192 233 285 350
#     4  11  18  36  60  82 120 148 189 239 295 344
#
# _framework density 16.953482000000001
#
# number of rings (size 3 to 8) (size 9 to 14) (size 15 to 20)
#    0.000    1.500   10.000    1.125    0.000    0.000 
#    0.000    3.125    2.750    1.500    0.000    0.000 
#    0.000    0.000    0.000    0.000    0.000    0.000 
#
# Total GULP energy -89166.544062 kJ/mol
# GULP energy per Si atom -5572.909004 kJ/mol
# Density = 1.691490 g / cm^3
# Si number density = 16.953482 Si / 1000 Ang^3
#
#
#
# Elastic Constant Matrix: (Units=GPa)
#
#
# Indices 1 2 3 4 5 6 
#
# 1 84.9522 36.4255 45.8860 -0.9486 4.2902 -2.2865
# 2 36.4255 152.1354 59.8396 -1.6480 7.5119 2.7534
# 3 45.8860 59.8396 86.1067 12.4489 -0.9276 -5.7539
# 4 -0.9486 -1.6480 12.4489 35.1380 0.7449 -4.6395
# 5 4.2902 7.5119 -0.9276 0.7449 23.0272 1.0907
# 6 -2.2865 2.7534 -5.7539 -4.6395 1.0907 17.4278
#
#
#
# Elastic Compliance Matrix: (Units=1/GPa)
#
#
# Indices 1 2 3 4 5 6 
#
# 1 0.017335 -0.000080 -0.009785 0.004059 -0.003747 0.000371
# 2 -0.000080 0.009740 -0.007362 0.002734 -0.003404 -0.003039
# 3 -0.009785 -0.007362 0.023554 -0.008392 0.005203 0.005096
# 4 0.004059 0.002734 -0.008392 0.032560 -0.003333 0.006207
# 5 -0.003747 -0.003404 0.005203 -0.003333 0.045646 -0.001980
# 6 0.000371 -0.003039 0.005096 0.006207 -0.001980 0.061367
#
#
# Mechanical properties :
#
#
# Convention : Reuss Voigt Hill
#
# Bulk Modulus (GPa) = 61.81670 67.49959 64.65814
# Shear Modulus (GPa) = 21.73459 27.18816 24.46137
#
# Velocity S-wave (km/s) = 3.58441 4.00896 3.80261
# Velocity P-wave (km/s) = 7.32614 7.83135 7.58295
#
# Compressibility (1/GPa) = 0.01617686
#
# Stress axis : x y z
#
# Youngs Moduli (GPa) = 57.68583 102.66552 42.45618
#
# Poissons Ratio (x) = 0.00816 0.41544
# Poissons Ratio (y) = 0.00459 0.31255
# Poissons Ratio (z) = 0.56446 0.75579
#
# Static dielectric constant tensor:
#      x y z
#    x 1.574370 0.007990 -0.008360 
#    y 0.007990 1.634740 0.015170 
#    z -0.008360 0.015170 1.569760 
# 
# From -- ./inp_files/317897.got.cif
#   From: 2010.05.17/outbox.cif.g08.bks.cpg/sg2_159_cif.got.tgz:317897.got - 2010.06.03 11:33:40.
