data_PCOD9087882
_publ_section_title
;
Structure prediction by ZEFSAII (Michael W. Deem and Ramdas Pophale) SiO2 
 PCOD9087882
Probable space group: P -1
;
_chemical_formula_sum "Si O2"
_cell_formula_units_Z 16
_cell_length_a 8.226432
_cell_length_b 14.073157
_cell_length_c 7.979867
_cell_angle_alpha 107.676946
_cell_angle_beta 87.476985
_cell_angle_gamma 58.039875
_cell_volume 722.443125
_symmetry_space_group_name_H-M "P -1"
_symmetry_group_IT_number 2
_symmetry_cell_setting 'triclinic'
loop_
_space_group_symop_operation_xyz
x,y,z
-x,-y,-z
loop_
_atom_site_type_symbol
_atom_site_label
_atom_site_fract_x
_atom_site_fract_y
_atom_site_fract_z
Si Si1 0.820680 0.011019 0.784467
Si Si2 0.843892 0.253014 0.268070
Si Si3 0.998087 0.161243 0.836026
Si Si4 0.467583 0.996611 0.798210
Si Si5 0.582126 0.183952 0.170448
Si Si6 0.011405 0.353521 0.761784
Si Si7 0.026140 0.374045 0.409898
Si Si8 0.236290 0.359903 0.067000
O O1 0.916271 0.079920 0.745370
O O2 0.622791 0.023074 0.730612
O O3 0.766771 0.063615 0.007390
O O4 0.983362 0.867496 0.708724
O O5 0.647196 0.258856 0.304663
O O6 0.838637 0.368367 0.386945
O O7 0.904900 0.221768 0.053310
O O8 0.935106 0.272264 0.775455
O O9 0.239320 0.085567 0.798241
O O10 0.509965 0.863421 0.723281
O O11 0.500000 0.000000 0.000000
O O12 0.461210 0.264670 0.057513
O O13 0.105857 0.313635 0.553520
O O14 0.842162 0.499230 0.843654
O O15 0.166032 0.339623 0.884951
O O16 0.139423 0.328296 0.204653
O O17 0.000000 0.500000 0.500000
#
# Coordination Sequence:
#
# PCOD9087882 Si02
#       8
#     2   2   2   2   2   2   2   2
#     4  10  19  30  56  96 119 155 206 242 302 371
#     4  11  18  35  60  89 120 163 199 248 308 359
#     4  11  18  34  57  91 122 151 201 255 291 365
#     4  10  16  27  54  90 118 152 199 244 294 359
#     4  10  18  32  60  95 116 156 211 242 300 373
#     4  10  21  37  62  88 120 158 206 249 304 357
#     4  10  22  39  62  87 116 162 209 247 298 363
#     4  10  20  39  65  85 117 163 201 253 304 355
#
# _framework density 22.147069999999999
#
# number of rings (size 3 to 8) (size 9 to 14) (size 15 to 20)
#    0.000    1.750    5.000    3.000    0.000    0.000 
#    0.000    5.625   13.750    3.750    0.000    0.000 
#    0.000    0.000    0.000    0.000    0.000    0.000 
#
# Total GULP energy -89091.073752 kJ/mol
# GULP energy per Si atom -5568.192110 kJ/mol
# Density = 2.209666 g / cm^3
# Si number density = 22.147070 Si / 1000 Ang^3
#
#
#
# Elastic Constant Matrix: (Units=GPa)
#
#
# Indices 1 2 3 4 5 6 
#
# 1 130.9453 58.1801 32.7182 3.5330 24.3630 39.7397
# 2 58.1801 114.5432 18.3843 -4.7394 5.8680 31.8392
# 3 32.7182 18.3843 64.7716 -8.5527 13.1714 14.9545
# 4 3.5330 -4.7394 -8.5527 21.9087 11.3222 5.0066
# 5 24.3630 5.8680 13.1714 11.3222 19.5766 5.7096
# 6 39.7397 31.8392 14.9545 5.0066 5.7096 44.8865
#
#
#
# Elastic Compliance Matrix: (Units=1/GPa)
#
#
# Indices 1 2 3 4 5 6 
#
# 1 0.016326 -0.003888 0.001916 0.012355 -0.024496 -0.010596
# 2 -0.003888 0.012586 0.000687 0.005405 -0.000706 -0.006227
# 3 0.001916 0.000687 0.028896 0.033284 -0.038171 -0.010668
# 4 0.012355 0.005405 0.033284 0.114398 -0.097921 -0.026165
# 5 -0.024496 -0.000706 -0.038171 -0.097921 0.156534 0.025915
# 6 -0.010596 -0.006227 -0.010668 -0.026165 0.025915 0.039252
#
#
# Mechanical properties :
#
#
# Convention : Reuss Voigt Hill
#
# Bulk Modulus (GPa) = 18.10397 58.75837 38.43117
# Shear Modulus (GPa) = 12.85430 30.67286 21.76358
#
# Velocity S-wave (km/s) = 2.41178 3.72555 3.13818
# Velocity P-wave (km/s) = 3.99346 6.71527 5.52461
#
# Compressibility (1/GPa) = 0.05523651
#
# Stress axis : x y z
#
# Youngs Moduli (GPa) = 61.25343 79.45468 34.60691
#
# Poissons Ratio (x) = 0.30895 -0.06631
# Poissons Ratio (y) = 0.23818 -0.02377
# Poissons Ratio (z) = -0.11737 -0.05457
#
# Static dielectric constant tensor:
#      x y z
#    x 1.995890 0.000270 0.013790 
#    y 0.000270 1.864480 0.054750 
#    z 0.013790 0.054750 1.895620 
# 
# From -- ./inp_files/203211.got.cif
#   From: 2010.05.17/outbox.cif.g08.bks.cpg/sg2_102_cif.got.tgz:203211.got - 2010.06.03 11:33:40.
