data_PCOD9087175
_publ_section_title
;
Structure prediction by ZEFSAII (Michael W. Deem and Ramdas Pophale) SiO2 
 PCOD9087175
Probable space group: P -1
;
_chemical_formula_sum "Si O2"
_cell_formula_units_Z 15
_cell_length_a 12.264260
_cell_length_b 10.898497
_cell_length_c 9.760366
_cell_angle_alpha 80.938662
_cell_angle_beta 144.925681
_cell_angle_gamma 115.278440
_cell_volume 629.916192
_symmetry_space_group_name_H-M "P -1"
_symmetry_group_IT_number 2
_symmetry_cell_setting 'triclinic'
loop_
_space_group_symop_operation_xyz
x,y,z
-x,-y,-z
loop_
_atom_site_type_symbol
_atom_site_label
_atom_site_fract_x
_atom_site_fract_y
_atom_site_fract_z
Si Si1 0.848763 0.155716 0.223550
Si Si2 0.000000 0.000000 0.500000
Si Si3 0.824343 0.099815 0.794040
Si Si4 0.685005 0.792866 0.774941
Si Si5 0.363177 0.946039 0.693641
Si Si6 0.861494 0.505911 0.481908
Si Si7 0.578951 0.745632 0.978025
Si Si8 0.795708 0.371870 0.733035
O O1 0.944448 0.060210 0.283655
O O2 0.010582 0.326490 0.366894
O O3 0.807298 0.080299 0.350985
O O4 0.598728 0.098538 0.927114
O O5 0.229897 0.168535 0.730848
O O6 0.785657 0.223893 0.785373
O O7 0.685140 0.943309 0.748975
O O8 0.753752 0.072868 0.566434
O O9 0.086782 0.165879 0.067988
O O10 0.686078 0.752757 0.939967
O O11 0.455370 0.665622 0.495299
O O12 0.438533 0.828598 0.813265
O O13 0.613529 0.423793 0.179327
O O14 0.845465 0.412950 0.616145
O O15 0.000000 0.500000 0.500000
O O16 0.000000 0.500000 0.000000
#
# Coordination Sequence:
#
# PCOD9087175 Si02
#       8
#     2   1   2   2   2   2   2   2
#     4  10  21  35  59  90 122 159 215 253 316 376
#     4  10  22  36  56  88 124 158 202 270 302 370
#     4  11  21  41  66  89 123 169 212 265 314 375
#     4  10  23  39  65  94 120 166 218 261 313 380
#     4  10  19  36  62  86 118 164 208 265 304 373
#     4  11  21  40  63  91 124 171 210 252 324 389
#     4  10  20  38  60  91 127 158 209 263 320 371
#     4  11  25  41  64  93 134 169 207 266 321 380
#
# _framework density 23.812692999999999
#
# number of rings (size 3 to 8) (size 9 to 14) (size 15 to 20)
#    0.000    1.600    4.000    1.200    1.867    2.133 
#    0.000    1.333    0.000    0.000    0.000    0.000 
#    0.000    0.000    0.000    0.000    0.000    0.000 
#
# Total GULP energy -83643.139032 kJ/mol
# GULP energy per Si atom -5576.209269 kJ/mol
# Density = 2.375849 g / cm^3
# Si number density = 23.812693 Si / 1000 Ang^3
#
#
#
# Elastic Constant Matrix: (Units=GPa)
#
#
# Indices 1 2 3 4 5 6 
#
# 1 46.6220 -2.3957 31.6615 1.2356 7.4932 12.9594
# 2 -2.3957 59.5749 34.8544 13.6330 17.9242 1.6744
# 3 31.6615 34.8544 225.5088 42.1388 6.9760 3.1439
# 4 1.2356 13.6330 42.1388 45.2321 4.3201 1.3144
# 5 7.4932 17.9242 6.9760 4.3201 34.3673 4.2680
# 6 12.9594 1.6744 3.1439 1.3144 4.2680 25.5885
#
#
#
# Elastic Compliance Matrix: (Units=1/GPa)
#
#
# Indices 1 2 3 4 5 6 
#
# 1 0.030542 0.006293 -0.005487 0.003509 -0.007514 -0.014133
# 2 0.006293 0.023524 -0.003612 -0.002660 -0.012314 -0.002092
# 3 -0.005487 -0.003612 0.006642 -0.005214 0.002125 0.002113
# 4 0.003509 -0.002660 -0.005214 0.027882 -0.001559 -0.002135
# 5 -0.007514 -0.012314 0.002125 -0.001559 0.037142 -0.001765
# 6 -0.014133 -0.002092 0.002113 -0.002135 -0.001765 0.046519
#
#
# Mechanical properties :
#
#
# Convention : Reuss Voigt Hill
#
# Bulk Modulus (GPa) = 18.15012 51.10511 34.62761
# Shear Modulus (GPa) = 25.48049 38.87662 32.17856
#
# Velocity S-wave (km/s) = 3.27469 4.04493 3.68002
# Velocity P-wave (km/s) = 4.68367 6.58203 5.71226
#
# Compressibility (1/GPa) = 0.05509605
#
# Stress axis : x y z
#
# Youngs Moduli (GPa) = 32.74208 42.50903 150.55396
#
# Poissons Ratio (x) = -0.26752 0.82608
# Poissons Ratio (y) = -0.20605 0.54385
# Poissons Ratio (z) = 0.17965 0.15356
#
# Static dielectric constant tensor:
#      x y z
#    x 1.068840 0.693970 -0.529360 
#    y 0.693970 1.368410 0.424860 
#    z -0.529360 0.424860 1.637280 
# 
# From -- ./inp_files/270519.got.cif
#   From: 2010.05.17/outbox.cif.g08.bks.cpg/sg2_136_cif.got.tgz:270519.got - 2010.06.03 11:33:40.
