data_PCOD9087869
_publ_section_title
;
Structure prediction by ZEFSAII (Michael W. Deem and Ramdas Pophale) SiO2 
 PCOD9087869
Probable space group: P -1
;
_chemical_formula_sum "Si O2"
_cell_formula_units_Z 16
_cell_length_a 5.332065
_cell_length_b 21.850407
_cell_length_c 15.418233
_cell_angle_alpha 152.852942
_cell_angle_beta 89.317082
_cell_angle_gamma 91.149730
_cell_volume 819.394204
_symmetry_space_group_name_H-M "P -1"
_symmetry_group_IT_number 2
_symmetry_cell_setting 'triclinic'
loop_
_space_group_symop_operation_xyz
x,y,z
-x,-y,-z
loop_
_atom_site_type_symbol
_atom_site_label
_atom_site_fract_x
_atom_site_fract_y
_atom_site_fract_z
Si Si1 0.292677 0.012041 0.939861
Si Si2 0.676920 0.919934 0.705199
Si Si3 0.113762 0.221799 0.318904
Si Si4 0.650434 0.683443 0.878838
Si Si5 0.164973 0.787335 0.919071
Si Si6 0.845881 0.427012 0.485972
Si Si7 0.758915 0.866977 0.256727
Si Si8 0.736120 0.961437 0.563685
O O1 0.408744 0.981333 0.807561
O O2 0.105933 0.888335 0.802840
O O3 0.500000 0.000000 0.000000
O O4 0.215363 0.163057 0.153210
O O5 0.719681 0.802734 0.627187
O O6 0.718940 0.890495 0.567751
O O7 0.845716 0.053312 0.893609
O O8 0.023471 0.370287 0.489029
O O9 0.391685 0.750855 0.937143
O O10 0.647792 0.527154 0.653794
O O11 0.899932 0.738743 0.897973
O O12 0.707977 0.726381 0.031477
O O13 0.247949 0.707410 0.731718
O O14 0.000000 0.500000 0.500000
O O15 0.523169 0.959471 0.348581
O O16 0.020725 0.937513 0.313116
O O17 0.765644 0.866074 0.359871
#
# Coordination Sequence:
#
# PCOD9087869 Si02
#       8
#     2   2   2   2   2   2   2   2
#     4   9  19  33  53  75 109 144 185 235 274 328
#     4  11  21  33  59  81 112 148 183 243 282 335
#     4  10  21  37  49  80 110 149 192 229 279 329
#     4  11  21  38  56  81 115 154 182 230 273 342
#     4  11  22  35  57  84 113 145 196 223 282 325
#     4  10  23  37  54  78 114 156 193 229 267 335
#     4  10  19  37  55  86 116 141 183 229 291 339
#     4  10  21  33  59  86 114 141 178 241 287 336
#
# _framework density 19.526620000000001
#
# number of rings (size 3 to 8) (size 9 to 14) (size 15 to 20)
#    0.000    1.750    2.500    2.625    7.000    0.000 
#    9.000    0.000    0.000    0.750    0.000    0.875 
#    0.000    0.000    0.000    0.000    0.000    0.000 
#
# Total GULP energy -89165.468999 kJ/mol
# GULP energy per Si atom -5572.841812 kJ/mol
# Density = 1.948218 g / cm^3
# Si number density = 19.526620 Si / 1000 Ang^3
#
#
#
# Elastic Constant Matrix: (Units=GPa)
#
#
# Indices 1 2 3 4 5 6 
#
# 1 89.1340 18.0125 -5.3251 1.5138 -4.3484 1.8956
# 2 18.0125 115.8026 37.7135 -19.6080 -16.2592 -8.7725
# 3 -5.3251 37.7135 55.0192 -23.4504 -5.2392 -11.1540
# 4 1.5138 -19.6080 -23.4504 40.3963 -3.9114 -5.3805
# 5 -4.3484 -16.2592 -5.2392 -3.9114 19.4763 -2.8580
# 6 1.8956 -8.7725 -11.1540 -5.3805 -2.8580 27.1045
#
#
#
# Elastic Compliance Matrix: (Units=1/GPa)
#
#
# Indices 1 2 3 4 5 6 
#
# 1 0.012021 -0.002715 0.003157 0.000152 0.001260 -0.000257
# 2 -0.002715 0.013590 -0.005346 0.005276 0.011035 0.004599
# 3 0.003157 -0.005346 0.036955 0.022603 0.013535 0.019171
# 4 0.000152 0.005276 0.022603 0.045652 0.022986 0.022485
# 5 0.001260 0.011035 0.013535 0.022986 0.072211 0.021231
# 6 -0.000257 0.004599 0.019171 0.022485 0.021231 0.052992
#
#
# Mechanical properties :
#
#
# Convention : Reuss Voigt Hill
#
# Bulk Modulus (GPa) = 18.95471 40.08418 29.51944
# Shear Modulus (GPa) = 19.17077 31.36574 25.26826
#
# Velocity S-wave (km/s) = 3.13673 4.01222 3.60118
# Velocity P-wave (km/s) = 4.77985 6.48355 5.69576
#
# Compressibility (1/GPa) = 0.05275734
#
# Stress axis : x y z
#
# Youngs Moduli (GPa) = 83.19054 73.58449 27.05987
#
# Poissons Ratio (x) = 0.19976 -0.08543
# Poissons Ratio (y) = 0.22584 0.14467
# Poissons Ratio (z) = -0.26263 0.39340
#
# Static dielectric constant tensor:
#      x y z
#    x 1.852900 -0.026930 0.003230 
#    y -0.026930 1.734350 0.004110 
#    z 0.003230 0.004110 1.724040 
# 
# From -- ./inp_files/43312.got.cif
#   From: 2010.05.17/outbox.cif.g08.bks.cpg/sg2_22_cif.got.tgz:43312.got - 2010.06.03 11:33:40.
