data_PCOD9087320
_publ_section_title
;
Structure prediction by ZEFSAII (Michael W. Deem and Ramdas Pophale) SiO2 
 PCOD9087320
Probable space group: P -1
;
_chemical_formula_sum "Si O2"
_cell_formula_units_Z 16
_cell_length_a 6.304354
_cell_length_b 17.888123
_cell_length_c 23.476699
_cell_angle_alpha 21.372033
_cell_angle_beta 102.006085
_cell_angle_gamma 87.626629
_cell_volume 709.296281
_symmetry_space_group_name_H-M "P -1"
_symmetry_group_IT_number 2
_symmetry_cell_setting 'triclinic'
loop_
_space_group_symop_operation_xyz
x,y,z
-x,-y,-z
loop_
_atom_site_type_symbol
_atom_site_label
_atom_site_fract_x
_atom_site_fract_y
_atom_site_fract_z
Si Si1 0.210992 0.321764 0.086229
Si Si2 0.075826 0.001118 0.244903
Si Si3 0.622627 0.194249 0.713717
Si Si4 0.100235 0.316190 0.532347
Si Si5 0.285283 0.516180 0.308482
Si Si6 0.059554 0.167158 0.350749
Si Si7 0.542401 0.183704 0.839659
Si Si8 0.423664 0.165765 0.468013
O O1 0.051392 0.245433 0.093940
O O2 0.497826 0.050907 0.324257
O O3 0.000000 0.500000 0.000000
O O4 0.210407 0.532056 0.900979
O O5 0.122663 0.964777 0.205281
O O6 0.385319 0.745149 0.469791
O O7 0.867546 0.946745 0.291385
O O8 0.500000 0.500000 0.500000
O O9 0.362506 0.225730 0.650082
O O10 0.692895 0.063633 0.872281
O O11 0.102986 0.472225 0.368593
O O12 0.787829 0.535385 0.388643
O O13 0.287725 0.752029 0.159827
O O14 0.278364 0.448279 0.291214
O O15 0.226406 0.202673 0.380849
O O16 0.271867 0.980056 0.442657
O O17 0.000000 0.000000 0.500000
O O18 0.500000 0.000000 0.000000
#
# Coordination Sequence:
#
# PCOD9087320 Si02
#       8
#     2   2   2   2   2   2   2   2
#     4   9  19  39  62  86 119 152 193 241 289 353
#     4   9  19  35  59  85 111 145 198 241 282 346
#     4  11  19  38  59  81 114 150 196 241 277 348
#     4  10  19  36  63  79 108 157 195 229 298 341
#     4   9  19  37  56  82 114 151 192 236 287 348
#     4  10  21  38  61  89 117 155 195 234 301 353
#     4  11  23  37  53  86 117 147 192 240 292 342
#     4   9  20  40  59  83 123 151 189 252 286 343
#
# _framework density 22.557568
#
# number of rings (size 3 to 8) (size 9 to 14) (size 15 to 20)
#    0.000    2.250    3.750    0.375    0.000    5.000 
#    6.750    8.750    0.000    0.000    0.000    0.000 
#    0.000    0.000    0.000    0.000    0.000    0.000 
#
# Total GULP energy -89266.807005 kJ/mol
# GULP energy per Si atom -5579.175438 kJ/mol
# Density = 2.250623 g / cm^3
# Si number density = 22.557568 Si / 1000 Ang^3
#
#
#
# Elastic Constant Matrix: (Units=GPa)
#
#
# Indices 1 2 3 4 5 6 
#
# 1 80.4909 29.7695 22.7475 -3.3919 -21.7961 -8.9152
# 2 29.7695 134.5342 25.5519 -17.9784 -25.4353 -19.0390
# 3 22.7475 25.5519 93.0759 9.0492 -28.2466 -4.7127
# 4 -3.3919 -17.9784 9.0492 34.3330 2.2914 -5.9990
# 5 -21.7961 -25.4353 -28.2466 2.2914 40.9717 8.9503
# 6 -8.9152 -19.0390 -4.7127 -5.9990 8.9503 17.8236
#
#
#
# Elastic Compliance Matrix: (Units=1/GPa)
#
#
# Indices 1 2 3 4 5 6 
#
# 1 0.015298 -0.001338 -0.001758 0.001568 0.005206 0.003672
# 2 -0.001338 0.011530 -0.002658 0.008852 0.001210 0.013316
# 3 -0.001758 -0.002658 0.015289 -0.007517 0.009949 -0.007202
# 4 0.001568 0.008852 -0.007517 0.040767 -0.006664 0.025320
# 5 0.005206 0.001210 0.009949 -0.006664 0.038440 -0.015019
# 6 0.003672 0.013316 -0.007202 0.025320 -0.015019 0.086326
#
#
# Mechanical properties :
#
#
# Convention : Reuss Voigt Hill
#
# Bulk Modulus (GPa) = 32.66960 51.58207 42.12583
# Shear Modulus (GPa) = 21.79985 33.96114 27.88049
#
# Velocity S-wave (km/s) = 3.11209 3.88433 3.51945
# Velocity P-wave (km/s) = 5.23714 6.56002 5.93555
#
# Compressibility (1/GPa) = 0.03060950
#
# Stress axis : x y z
#
# Youngs Moduli (GPa) = 65.36867 86.73070 65.40789
#
# Poissons Ratio (x) = 0.11602 0.11500
# Poissons Ratio (y) = 0.08744 0.17382
# Poissons Ratio (z) = 0.11494 0.23049
#
# Static dielectric constant tensor:
#      x y z
#    x 1.846620 -0.022160 0.016690 
#    y -0.022160 1.884120 -0.015230 
#    z 0.016690 -0.015230 1.977210 
# 
# From -- ./inp_files/38211.got.cif
#   From: 2010.05.17/outbox.cif.g08.bks.cpg/sg2_20_cif.got.tgz:38211.got - 2010.06.03 11:33:40.
