data_PCOD9087101
_publ_section_title
;
Structure prediction by ZEFSAII (Michael W. Deem and Ramdas Pophale) SiO2 
 PCOD9087101
Probable space group: P -1
;
_chemical_formula_sum "Si O2"
_cell_formula_units_Z 16
_cell_length_a 9.381576
_cell_length_b 10.250069
_cell_length_c 14.007097
_cell_angle_alpha 145.516837
_cell_angle_beta 96.970030
_cell_angle_gamma 91.948622
_cell_volume 735.113969
_symmetry_space_group_name_H-M "P -1"
_symmetry_group_IT_number 2
_symmetry_cell_setting 'triclinic'
loop_
_space_group_symop_operation_xyz
x,y,z
-x,-y,-z
loop_
_atom_site_type_symbol
_atom_site_label
_atom_site_fract_x
_atom_site_fract_y
_atom_site_fract_z
Si Si1 0.960916 0.115728 0.260988
Si Si2 0.770381 0.657388 0.457014
Si Si3 0.898319 0.742207 0.313898
Si Si4 0.340968 0.998207 0.206362
Si Si5 0.812693 0.713893 0.766535
Si Si6 0.119431 0.404476 0.087576
Si Si7 0.672995 0.503965 0.015320
Si Si8 0.330381 0.731898 0.645437
O O1 0.794529 0.124924 0.268279
O O2 0.022714 0.210908 0.219640
O O3 0.973902 0.847025 0.112880
O O4 0.068332 0.289811 0.447293
O O5 0.800286 0.659816 0.350146
O O6 0.704264 0.865522 0.622737
O O7 0.671198 0.415041 0.345247
O O8 0.780250 0.728859 0.211471
O O9 0.011281 0.578322 0.199464
O O10 0.000000 0.000000 0.500000
O O11 0.260173 0.081275 0.158243
O O12 0.513878 0.103063 0.267048
O O13 0.308390 0.722528 0.058884
O O14 0.819969 0.667120 0.849869
O O15 0.723157 0.474288 0.562290
O O16 0.254378 0.507548 0.089418
O O17 0.500000 0.500000 0.000000
#
# Coordination Sequence:
#
# PCOD9087101 Si02
#       8
#     2   2   2   2   2   2   2   2
#     4  10  19  36  61  95 129 161 207 269 321 376
#     4  10  20  38  64  93 123 164 216 267 314 376
#     4  12  25  45  69  95 127 175 225 271 321 389
#     4  10  22  43  64  91 133 173 209 263 326 388
#     4  10  21  38  65  98 126 164 216 271 320 378
#     4  12  24  42  67  96 129 172 218 269 327 389
#     4  12  28  46  64  95 137 177 216 267 330 390
#     4  10  19  36  62  93 129 168 208 259 322 386
#
# _framework density 21.765331
#
# number of rings (size 3 to 8) (size 9 to 14) (size 15 to 20)
#    0.000    1.500    0.000    9.000    0.000    4.000 
#    0.000    3.750    0.000    0.000    0.000    0.000 
#    0.000    0.000    0.000    0.000    0.000    0.000 
#
# Total GULP energy -89495.917897 kJ/mol
# GULP energy per Si atom -5593.494869 kJ/mol
# Density = 2.171579 g / cm^3
# Si number density = 21.765331 Si / 1000 Ang^3
#
#
#
# Elastic Constant Matrix: (Units=GPa)
#
#
# Indices 1 2 3 4 5 6 
#
# 1 149.9319 51.6810 35.7656 -10.1327 4.4454 12.1432
# 2 51.6810 107.3684 44.3444 -16.5551 2.9128 15.0858
# 3 35.7656 44.3444 57.9299 10.0745 2.4272 0.5733
# 4 -10.1327 -16.5551 10.0745 44.8125 1.9862 -6.6010
# 5 4.4454 2.9128 2.4272 1.9862 21.1534 6.1465
# 6 12.1432 15.0858 0.5733 -6.6010 6.1465 37.5721
#
#
#
# Elastic Compliance Matrix: (Units=1/GPa)
#
#
# Indices 1 2 3 4 5 6 
#
# 1 0.008589 -0.001874 -0.004168 0.002007 -0.000830 -0.001472
# 2 -0.001874 0.018104 -0.014175 0.008717 0.000144 -0.004939
# 3 -0.004168 -0.014175 0.032925 -0.012881 -0.001031 0.004442
# 4 0.002007 0.008717 -0.012881 0.029294 -0.003404 0.001751
# 5 -0.000830 0.000144 -0.001031 -0.003404 0.050368 -0.008612
# 6 -0.001472 -0.004939 0.004442 0.001751 -0.008612 0.030723
#
#
# Mechanical properties :
#
#
# Convention : Reuss Voigt Hill
#
# Bulk Modulus (GPa) = 52.12300 64.31247 58.21774
# Shear Modulus (GPa) = 23.05919 32.93689 27.99804
#
# Velocity S-wave (km/s) = 3.25844 3.89430 3.59048
# Velocity P-wave (km/s) = 6.17708 7.05925 6.63285
#
# Compressibility (1/GPa) = 0.01918539
#
# Stress axis : x y z
#
# Youngs Moduli (GPa) = 116.42217 55.23533 30.37180
#
# Poissons Ratio (x) = 0.10353 0.12659
# Poissons Ratio (y) = 0.21822 0.43051
# Poissons Ratio (z) = 0.48524 0.78293
#
# Static dielectric constant tensor:
#      x y z
#    x 1.780070 -0.006890 -0.018060 
#    y -0.006890 1.815700 -0.002440 
#    z -0.018060 -0.002440 1.817120 
# 
# From -- ./inp_files/501237.got.cif
#   From: 2010.05.17/outbox.cif.g08.bks.cpg/sg2_251_cif.got.tgz:501237.got - 2010.06.03 11:33:40.
