data_PCOD9087430
_publ_section_title
;
Structure prediction by ZEFSAII (Michael W. Deem and Ramdas Pophale) SiO2 
 PCOD9087430
Probable space group: P -1
;
_chemical_formula_sum "Si O2"
_cell_formula_units_Z 14
_cell_length_a 6.464322
_cell_length_b 8.270794
_cell_length_c 11.135186
_cell_angle_alpha 71.232986
_cell_angle_beta 114.686395
_cell_angle_gamma 86.723915
_cell_volume 499.322542
_symmetry_space_group_name_H-M "P -1"
_symmetry_group_IT_number 2
_symmetry_cell_setting 'triclinic'
loop_
_space_group_symop_operation_xyz
x,y,z
-x,-y,-z
loop_
_atom_site_type_symbol
_atom_site_label
_atom_site_fract_x
_atom_site_fract_y
_atom_site_fract_z
Si Si1 0.460346 0.101935 0.236719
Si Si2 0.897308 0.043069 0.207243
Si Si3 0.367916 0.805859 0.109139
Si Si4 0.692980 0.619470 0.035337
Si Si5 0.772534 0.856573 0.556203
Si Si6 0.780079 0.479862 0.708041
Si Si7 0.949518 0.311621 0.561097
O O1 0.687011 0.145235 0.212635
O O2 0.395201 0.940958 0.186349
O O3 0.591629 0.009654 0.408951
O O4 0.281200 0.281500 0.108278
O O5 0.130730 0.076691 0.314465
O O6 0.851739 0.103823 0.047046
O O7 0.902366 0.842142 0.283976
O O8 0.574414 0.761771 0.072598
O O9 0.343741 0.622515 0.202969
O O10 0.950292 0.536939 0.174046
O O11 0.500000 0.500000 0.000000
O O12 0.683200 0.684700 0.612719
O O13 0.987297 0.785723 0.529530
O O14 0.755195 0.380946 0.599264
O O15 0.000000 0.500000 0.500000
#
# Coordination Sequence:
#
# PCOD9087430 Si02
#       7
#     2   2   2   2   2   2   2
#     4  10  20  39  62  91 128 164 209 259 311 372
#     4  10  19  36  63  92 126 167 206 257 322 375
#     4  11  24  41  65  94 130 167 208 262 317 376
#     4  11  23  39  64  95 126 164 212 263 312 373
#     4  10  21  39  65  93 128 170 208 259 323 375
#     4  11  23  41  66  94 126 168 215 259 311 377
#     4   9  18  33  57  88 117 156 209 250 295 366
#
# _framework density 28.037991000000002
#
# number of rings (size 3 to 8) (size 9 to 14) (size 15 to 20)
#    0.000    1.714    0.000    7.714    0.000    6.286 
#    0.000    0.000    0.000   12.000    0.000    0.000 
#    0.000    0.000    0.000    0.000    0.000    0.000 
#
# Total GULP energy -78171.886337 kJ/mol
# GULP energy per Si atom -5583.706167 kJ/mol
# Density = 2.797418 g / cm^3
# Si number density = 28.037991 Si / 1000 Ang^3
#
#
#
# Elastic Constant Matrix: (Units=GPa)
#
#
# Indices 1 2 3 4 5 6 
#
# 1 51.3185 16.3494 48.0216 5.4601 7.1879 -4.4374
# 2 16.3494 135.8391 97.6623 4.6528 16.8842 -1.0246
# 3 48.0216 97.6623 224.8268 -12.3257 -22.5715 13.9537
# 4 5.4601 4.6528 -12.3257 68.0073 6.0863 0.1900
# 5 7.1879 16.8842 -22.5715 6.0863 57.3980 2.2115
# 6 -4.4374 -1.0246 13.9537 0.1900 2.2115 50.3264
#
#
#
# Elastic Compliance Matrix: (Units=1/GPa)
#
#
# Indices 1 2 3 4 5 6 
#
# 1 0.029179 0.004723 -0.009716 -0.003664 -0.008697 0.005759
# 2 0.004723 0.013584 -0.007992 -0.002083 -0.007635 0.003252
# 3 -0.009716 -0.007992 0.011209 0.002667 0.007865 -0.004483
# 4 -0.003664 -0.002083 0.002667 0.015582 0.000514 -0.001186
# 5 -0.008697 -0.007635 0.007865 0.000514 0.023956 -0.004158
# 6 0.005759 0.003252 -0.004483 -0.001186 -0.004158 0.021874
#
#
# Mechanical properties :
#
#
# Convention : Reuss Voigt Hill
#
# Bulk Modulus (GPa) = 35.71109 81.78345 58.74727
# Shear Modulus (GPa) = 33.18148 51.80973 42.49561
#
# Velocity S-wave (km/s) = 3.44386 4.30331 3.89735
# Velocity P-wave (km/s) = 5.34583 7.34326 6.42267
#
# Compressibility (1/GPa) = 0.02800251
#
# Stress axis : x y z
#
# Youngs Moduli (GPa) = 34.27152 73.61639 89.21588
#
# Poissons Ratio (x) = -0.34770 0.86678
# Poissons Ratio (y) = -0.16187 0.71302
# Poissons Ratio (z) = 0.33297 0.58835
#
# Static dielectric constant tensor:
#      x y z
#    x 2.522790 -0.087230 0.131380 
#    y -0.087230 2.172270 0.019660 
#    z 0.131380 0.019660 2.260180 
# 
# From -- ./inp_files/317982.got.cif
#   From: 2010.05.17/outbox.cif.g08.bks.cpg/sg2_159_cif.got.tgz:317982.got - 2010.06.03 11:33:40.
