data_PCOD9087121
_publ_section_title
;
Structure prediction by ZEFSAII (Michael W. Deem and Ramdas Pophale) SiO2 
 PCOD9087121
Probable space group: P -1
;
_chemical_formula_sum "Si O2"
_cell_formula_units_Z 16
_cell_length_a 15.148623
_cell_length_b 26.517034
_cell_length_c 8.398691
_cell_angle_alpha 133.571982
_cell_angle_beta 147.340892
_cell_angle_gamma 25.507082
_cell_volume 746.961420
_symmetry_space_group_name_H-M "P -1"
_symmetry_group_IT_number 2
_symmetry_cell_setting 'triclinic'
loop_
_space_group_symop_operation_xyz
x,y,z
-x,-y,-z
loop_
_atom_site_type_symbol
_atom_site_label
_atom_site_fract_x
_atom_site_fract_y
_atom_site_fract_z
Si Si1 0.621024 0.492282 0.924915
Si Si2 0.799827 0.112648 0.817731
Si Si3 0.245990 0.233813 0.347717
Si Si4 0.302447 0.304801 0.896470
Si Si5 0.370119 0.444191 0.571232
Si Si6 0.772333 0.165761 0.541301
Si Si7 0.327115 0.714348 0.776052
Si Si8 0.803989 0.894430 0.139826
O O1 0.493709 0.459987 0.677239
O O2 0.462047 0.596882 0.789023
O O3 0.600745 0.535801 0.162287
O O4 0.957483 0.368012 0.130630
O O5 0.508404 0.170128 0.504626
O O6 0.876326 0.097668 0.717848
O O7 0.750722 0.205286 0.024438
O O8 0.000000 0.000000 0.000000
O O9 0.283551 0.250107 0.618223
O O10 0.216272 0.161725 0.137843
O O11 0.973162 0.440276 0.734123
O O12 0.535516 0.203948 0.166581
O O13 0.447621 0.320321 0.063075
O O14 0.571205 0.305552 0.567797
O O15 0.052765 0.089863 0.698850
O O16 0.044745 0.796293 0.425351
O O17 0.500000 0.000000 0.000000
#
# Coordination Sequence:
#
# PCOD9087121 Si02
#       8
#     2   2   2   2   2   2   2   2
#     4  10  20  36  65  99 136 167 207 274 333 400
#     4  11  24  43  67  95 132 179 227 270 319 386
#     4  10  22  42  64  95 132 170 219 269 333 391
#     4   9  22  37  64  99 136 168 211 262 334 403
#     4  10  19  36  62 102 137 164 214 261 336 403
#     4  11  22  43  66  98 130 177 221 272 324 390
#     4  10  22  41  64  95 134 174 217 266 331 390
#     4  11  24  46  67  93 131 177 229 275 323 389
#
# _framework density 21.420114999999999
#
# number of rings (size 3 to 8) (size 9 to 14) (size 15 to 20)
#    0.000    1.750    2.500    1.125    1.750    3.000 
#    0.000   17.500    0.000    0.000    0.000    0.000 
#    0.000    0.000    0.000    0.000    0.000    0.000 
#
# Total GULP energy -89392.577484 kJ/mol
# GULP energy per Si atom -5587.036093 kJ/mol
# Density = 2.137136 g / cm^3
# Si number density = 21.420115 Si / 1000 Ang^3
#
#
#
# Elastic Constant Matrix: (Units=GPa)
#
#
# Indices 1 2 3 4 5 6 
#
# 1 104.9186 36.8485 66.0783 -40.3479 -7.8617 9.3116
# 2 36.8485 81.5173 49.1284 -17.8570 4.6199 12.1907
# 3 66.0783 49.1284 146.3571 -18.5815 11.7261 4.0320
# 4 -40.3479 -17.8570 -18.5815 40.8409 -6.7217 -1.4956
# 5 -7.8617 4.6199 11.7261 -6.7217 28.3010 -15.3180
# 6 9.3116 12.1907 4.0320 -1.4956 -15.3180 24.3213
#
#
#
# Elastic Compliance Matrix: (Units=1/GPa)
#
#
# Indices 1 2 3 4 5 6 
#
# 1 0.028359 -0.003582 -0.010493 0.025989 0.024100 0.009454
# 2 -0.003582 0.018721 -0.003388 0.001011 -0.009720 -0.013510
# 3 -0.010493 -0.003388 0.012753 -0.008185 -0.012006 -0.004464
# 4 0.025989 0.001011 -0.008185 0.052264 0.029848 0.012913
# 5 0.024100 -0.009720 -0.012006 0.029848 0.084042 0.052402
# 6 0.009454 -0.013510 -0.004464 0.012913 0.052402 0.078806
#
#
# Mechanical properties :
#
#
# Convention : Reuss Voigt Hill
#
# Bulk Modulus (GPa) = 40.14845 70.76705 55.45775
# Shear Modulus (GPa) = 15.71475 30.74183 23.22829
#
# Velocity S-wave (km/s) = 2.71153 3.79249 3.29662
# Velocity P-wave (km/s) = 5.34670 7.23096 6.35901
#
# Compressibility (1/GPa) = 0.02490756
#
# Stress axis : x y z
#
# Youngs Moduli (GPa) = 35.26215 53.41646 78.41299
#
# Poissons Ratio (x) = 0.19133 0.82280
# Poissons Ratio (y) = 0.12630 0.26564
# Poissons Ratio (z) = 0.37001 0.18096
#
# Static dielectric constant tensor:
#      x y z
#    x 1.776780 -0.039800 -0.018590 
#    y -0.039800 1.807950 0.025950 
#    z -0.018590 0.025950 1.769080 
# 
# From -- ./inp_files/237159.got.cif
#   From: 2010.05.17/outbox.cif.g08.bks.cpg/sg2_119_cif.got.tgz:237159.got - 2010.06.03 11:33:40.
