data_PCOD9087322
_publ_section_title
;
Structure prediction by ZEFSAII (Michael W. Deem and Ramdas Pophale) SiO2 
 PCOD9087322
Probable space group: P -1
;
_chemical_formula_sum "Si O2"
_cell_formula_units_Z 16
_cell_length_a 21.473365
_cell_length_b 12.400259
_cell_length_c 7.875642
_cell_angle_alpha 63.489535
_cell_angle_beta 129.099516
_cell_angle_gamma 156.085960
_cell_volume 600.587438
_symmetry_space_group_name_H-M "P -1"
_symmetry_group_IT_number 2
_symmetry_cell_setting 'triclinic'
loop_
_space_group_symop_operation_xyz
x,y,z
-x,-y,-z
loop_
_atom_site_type_symbol
_atom_site_label
_atom_site_fract_x
_atom_site_fract_y
_atom_site_fract_z
Si Si1 0.867421 0.315663 0.064484
Si Si2 0.252198 0.852800 0.554563
Si Si3 0.013800 0.849571 0.386670
Si Si4 0.393325 0.594330 0.384504
Si Si5 0.091244 0.243147 0.389022
Si Si6 0.758061 0.369855 0.055713
Si Si7 0.781677 0.774484 0.961031
Si Si8 0.630780 0.804682 0.186488
O O1 0.030442 0.531798 0.342850
O O2 0.759156 0.291394 0.943469
O O3 0.713579 0.997049 0.039465
O O4 0.000000 0.500000 0.000000
O O5 0.312060 0.811050 0.783915
O O6 0.375565 0.072637 0.451990
O O7 0.309465 0.030316 0.667741
O O8 0.893083 0.652142 0.491169
O O9 0.966552 0.697572 0.256537
O O10 0.924593 0.853274 0.164552
O O11 0.236989 0.133748 0.623316
O O12 0.282684 0.466767 0.459688
O O13 0.341476 0.640456 0.148474
O O14 0.313497 0.372536 0.286789
O O15 0.936385 0.078548 0.097543
O O16 0.000000 0.000000 0.500000
O O17 0.598117 0.525549 0.948506
#
# Coordination Sequence:
#
# PCOD9087322 Si02
#       8
#     2   2   2   2   2   2   2   2
#     4  11  22  34  56  87 125 153 187 243 293 354
#     4  10  19  38  59  87 121 157 187 239 294 352
#     4  10  19  36  63  82 117 159 196 237 300 350
#     4  10  21  35  65  88 113 155 202 238 294 357
#     4  10  22  39  59  85 120 155 195 255 300 336
#     4  10  19  37  58  86 121 154 194 235 291 357
#     4   9  21  38  62  84 114 152 205 250 292 340
#     4  10  19  38  61  84 117 161 194 235 302 352
#
# _framework density 26.640584
#
# number of rings (size 3 to 8) (size 9 to 14) (size 15 to 20)
#    0.000    2.000    2.500    1.500    1.750    3.500 
#    0.000    1.250    5.500    7.500    0.000    0.000 
#    0.000    0.000    0.000    0.000    0.000    0.000 
#
# Total GULP energy -89214.251383 kJ/mol
# GULP energy per Si atom -5575.890711 kJ/mol
# Density = 2.657995 g / cm^3
# Si number density = 26.640584 Si / 1000 Ang^3
#
#
#
# Elastic Constant Matrix: (Units=GPa)
#
#
# Indices 1 2 3 4 5 6 
#
# 1 62.4448 17.0215 11.2513 -14.5908 -8.5669 8.7382
# 2 17.0215 114.6741 10.2599 -1.5765 -6.3892 45.6450
# 3 11.2513 10.2599 49.9073 -2.3771 -3.2117 3.1577
# 4 -14.5908 -1.5765 -2.3771 37.5612 17.2469 -3.3826
# 5 -8.5669 -6.3892 -3.2117 17.2469 30.7456 -7.2855
# 6 8.7382 45.6450 3.1577 -3.3826 -7.2855 39.1996
#
#
#
# Elastic Compliance Matrix: (Units=1/GPa)
#
#
# Indices 1 2 3 4 5 6 
#
# 1 0.018960 -0.002017 -0.003448 0.006750 0.000498 -0.000925
# 2 -0.002017 0.016774 -0.001911 -0.001469 -0.001012 -0.019243
# 3 -0.003448 -0.001911 0.021181 -0.000674 0.001594 0.001526
# 4 0.006750 -0.001469 -0.000674 0.038324 -0.020030 -0.000156
# 5 0.000498 -0.001012 0.001594 -0.020030 0.045680 0.007701
# 6 -0.000925 -0.019243 0.001526 -0.000156 0.007701 0.049419
#
#
# Mechanical properties :
#
#
# Convention : Reuss Voigt Hill
#
# Bulk Modulus (GPa) = 23.71739 33.78797 28.75268
# Shear Modulus (GPa) = 22.81599 34.06751 28.44175
#
# Velocity S-wave (km/s) = 2.92967 3.57989 3.27097
# Velocity P-wave (km/s) = 4.51287 5.45874 5.00819
#
# Compressibility (1/GPa) = 0.04216316
#
# Stress axis : x y z
#
# Youngs Moduli (GPa) = 52.74200 59.61720 47.21156
#
# Poissons Ratio (x) = 0.12026 0.16277
# Poissons Ratio (y) = 0.10639 0.09023
# Poissons Ratio (z) = 0.18184 0.11393
#
# Static dielectric constant tensor:
#      x y z
#    x 2.259770 -0.015540 -0.052970 
#    y -0.015540 2.185390 -0.022700 
#    z -0.052970 -0.022700 2.094280 
# 
# From -- ./inp_files/205679.got.cif
#   From: 2010.05.17/outbox.cif.g08.bks.cpg/sg2_103_cif.got.tgz:205679.got - 2010.06.03 11:33:40.
