data_PCOD9087319
_publ_section_title
;
Structure prediction by ZEFSAII (Michael W. Deem and Ramdas Pophale) SiO2 
 PCOD9087319
Probable space group: P -1
;
_chemical_formula_sum "Si O2"
_cell_formula_units_Z 16
_cell_length_a 8.852239
_cell_length_b 11.402943
_cell_length_c 7.753357
_cell_angle_alpha 60.031154
_cell_angle_beta 70.697533
_cell_angle_gamma 72.359320
_cell_volume 630.712477
_symmetry_space_group_name_H-M "P -1"
_symmetry_group_IT_number 2
_symmetry_cell_setting 'triclinic'
loop_
_space_group_symop_operation_xyz
x,y,z
-x,-y,-z
loop_
_atom_site_type_symbol
_atom_site_label
_atom_site_fract_x
_atom_site_fract_y
_atom_site_fract_z
Si Si1 0.187598 0.567721 0.735945
Si Si2 0.629265 0.494633 0.609128
Si Si3 0.141249 0.283938 0.118104
Si Si4 0.733194 0.758906 0.520278
Si Si5 0.145863 0.979608 0.273563
Si Si6 0.959052 0.167118 0.846067
Si Si7 0.300359 0.674300 0.954879
Si Si8 0.260380 0.954773 0.607516
O O1 0.216809 0.569762 0.519872
O O2 0.037520 0.685784 0.752519
O O3 0.157631 0.414285 0.901559
O O4 0.306841 0.594411 0.829330
O O5 0.500000 0.500000 0.500000
O O6 0.646271 0.647986 0.544084
O O7 0.617962 0.409161 0.851439
O O8 0.244921 0.282621 0.255838
O O9 0.173158 0.136564 0.120783
O O10 0.898637 0.769215 0.344494
O O11 0.664497 0.919449 0.440368
O O12 0.944011 0.998488 0.352632
O O13 0.183418 0.858453 0.210955
O O14 0.267314 0.930425 0.420431
O O15 0.884053 0.272151 0.944991
O O16 0.000000 0.000000 0.000000
O O17 0.337624 0.822516 0.781362
#
# Coordination Sequence:
#
# PCOD9087319 Si02
#       8
#     2   2   2   2   2   2   2   2
#     4  11  24  38  66  95 134 163 211 269 330 395
#     4  12  30  48  64  85 125 186 240 271 302 362
#     4  10  19  36  63 107 132 163 195 259 346 411
#     4  10  21  40  61  94 135 170 208 263 319 392
#     4   9  17  31  55  95 141 164 183 231 336 418
#     4  11  20  32  62 105 140 164 192 258 338 412
#     4  12  23  41  63 102 129 167 214 265 330 384
#     4   9  18  33  60  89 129 165 198 251 319 392
#
# _framework density 25.368136
#
# number of rings (size 3 to 8) (size 9 to 14) (size 15 to 20)
#    0.000    1.500    5.000    1.500    7.000    1.500 
#    0.000    0.625    0.000    0.750    0.000    0.000 
#    0.000    0.000    0.000    0.000    0.000    0.000 
#
# Total GULP energy -89162.077374 kJ/mol
# GULP energy per Si atom -5572.629836 kJ/mol
# Density = 2.531040 g / cm^3
# Si number density = 25.368136 Si / 1000 Ang^3
#
#
#
# Elastic Constant Matrix: (Units=GPa)
#
#
# Indices 1 2 3 4 5 6 
#
# 1 56.9966 53.5250 29.9628 -10.7100 15.6601 15.8289
# 2 53.5250 166.0418 61.4440 -10.8565 12.1854 47.3347
# 3 29.9628 61.4440 123.3423 -27.9623 26.1616 18.8870
# 4 -10.7100 -10.8565 -27.9623 42.1872 -1.1101 0.0761
# 5 15.6601 12.1854 26.1616 -1.1101 26.0903 8.1953
# 6 15.8289 47.3347 18.8870 0.0761 8.1953 37.4009
#
#
#
# Elastic Compliance Matrix: (Units=1/GPa)
#
#
# Indices 1 2 3 4 5 6 
#
# 1 0.030496 -0.009352 0.001782 0.006094 -0.015938 0.001510
# 2 -0.009352 0.013707 -0.004643 -0.001696 0.007800 -0.012751
# 3 0.001782 -0.004643 0.014713 0.008654 -0.013484 0.000629
# 4 0.006094 -0.001696 0.008654 0.030309 -0.009370 -0.002811
# 5 -0.015938 0.007800 -0.013484 -0.009370 0.060366 -0.009526
# 6 0.001510 -0.012751 0.000629 -0.002811 -0.009526 0.044011
#
#
# Mechanical properties :
#
#
# Convention : Reuss Voigt Hill
#
# Bulk Modulus (GPa) = 28.99496 70.69379 49.84438
# Shear Modulus (GPa) = 21.78419 34.56563 28.17491
#
# Velocity S-wave (km/s) = 2.93358 3.69529 3.33624
# Velocity P-wave (km/s) = 4.78842 6.79224 5.87637
#
# Compressibility (1/GPa) = 0.03448876
#
# Stress axis : x y z
#
# Youngs Moduli (GPa) = 32.79160 72.95508 67.96692
#
# Poissons Ratio (x) = 0.68229 -0.12109
# Poissons Ratio (y) = 0.30667 0.31556
# Poissons Ratio (z) = -0.05842 0.33872
#
# Static dielectric constant tensor:
#      x y z
#    x 2.326780 -0.129280 -0.044480 
#    y -0.129280 2.121820 0.233260 
#    z -0.044480 0.233260 2.334940 
# 
# From -- ./inp_files/175164.got.cif
#   From: 2010.05.17/outbox.cif.g08.bks.cpg/sg2_88_cif.got.tgz:175164.got - 2010.06.03 11:33:40.
