data_PCOD9087204
_publ_section_title
;
Structure prediction by ZEFSAII (Michael W. Deem and Ramdas Pophale) SiO2 
 PCOD9087204
Probable space group: P -1
;
_chemical_formula_sum "Si O2"
_cell_formula_units_Z 14
_cell_length_a 8.043349
_cell_length_b 13.999406
_cell_length_c 11.096179
_cell_angle_alpha 53.108498
_cell_angle_beta 41.494222
_cell_angle_gamma 69.058579
_cell_volume 651.962175
_symmetry_space_group_name_H-M "P -1"
_symmetry_group_IT_number 2
_symmetry_cell_setting 'triclinic'
loop_
_space_group_symop_operation_xyz
x,y,z
-x,-y,-z
loop_
_atom_site_type_symbol
_atom_site_label
_atom_site_fract_x
_atom_site_fract_y
_atom_site_fract_z
Si Si1 0.908204 0.289773 0.068314
Si Si2 0.821086 0.910289 0.453997
Si Si3 0.870279 0.652300 0.713297
Si Si4 0.302370 0.531050 0.678239
Si Si5 0.432765 0.886746 0.456442
Si Si6 0.492841 0.556573 0.813615
Si Si7 0.134097 0.080514 0.978074
O O1 0.808093 0.212273 0.299101
O O2 0.675123 0.352349 0.100368
O O3 0.115775 0.404858 0.904211
O O4 0.009235 0.198550 0.989438
O O5 0.879508 0.793370 0.579088
O O6 0.633183 0.878272 0.464206
O O7 0.667143 0.986985 0.566567
O O8 0.068315 0.994927 0.196098
O O9 0.776948 0.589399 0.683187
O O10 0.128872 0.617604 0.647187
O O11 0.647201 0.578733 0.975143
O O12 0.500000 0.500000 0.500000
O O13 0.454485 0.579386 0.677760
O O14 0.579036 0.880147 0.256859
O O15 0.000000 0.000000 0.000000
#
# Coordination Sequence:
#
# PCOD9087204 Si02
#       7
#     2   2   2   2   2   2   2
#     4  10  19  36  62  88 129 169 210 259 325 380
#     4   9  17  33  57  94 127 164 213 265 316 380
#     4  10  20  40  68  93 130 169 219 263 324 394
#     4  11  26  43  63  99 133 170 219 270 327 387
#     4   9  17  32  57  91 129 166 212 263 320 376
#     4  10  22  41  65  96 127 175 215 263 330 387
#     4   9  19  31  56  95 129 165 214 264 321 383
#
# _framework density 21.473638999999999
#
# number of rings (size 3 to 8) (size 9 to 14) (size 15 to 20)
#    0.000    2.286    1.429    2.571    2.000    0.571 
#    2.571    1.429    0.000   17.143    0.000    0.000 
#    0.000    0.000    0.000    0.000    0.000    0.000 
#
# Total GULP energy -78102.227216 kJ/mol
# GULP energy per Si atom -5578.730515 kJ/mol
# Density = 2.142476 g / cm^3
# Si number density = 21.473639 Si / 1000 Ang^3
#
#
#
# Elastic Constant Matrix: (Units=GPa)
#
#
# Indices 1 2 3 4 5 6 
#
# 1 112.6093 48.4788 21.2057 6.9504 16.8395 -12.7938
# 2 48.4788 138.3404 67.3653 -1.4003 28.8526 -11.3769
# 3 21.2057 67.3653 123.9774 5.9146 6.1750 -20.0759
# 4 6.9504 -1.4003 5.9146 40.7593 0.1561 11.6774
# 5 16.8395 28.8526 6.1750 0.1561 20.3073 -8.2752
# 6 -12.7938 -11.3769 -20.0759 11.6774 -8.2752 23.0236
#
#
#
# Elastic Compliance Matrix: (Units=1/GPa)
#
#
# Indices 1 2 3 4 5 6 
#
# 1 0.011686 -0.004172 0.001851 -0.004715 -0.000997 0.008079
# 2 -0.004172 0.017912 -0.010638 0.007420 -0.025147 -0.015545
# 3 0.001851 -0.010638 0.016509 -0.009155 0.017182 0.020986
# 4 -0.004715 0.007420 -0.009155 0.035929 -0.016844 -0.031213
# 5 -0.000997 -0.025147 0.017182 -0.016844 0.099587 0.046339
# 6 0.008079 -0.015545 0.020986 -0.031213 0.046339 0.091027
#
#
# Mechanical properties :
#
#
# Convention : Reuss Voigt Hill
#
# Bulk Modulus (GPa) = 49.53126 72.11406 60.82266
# Shear Modulus (GPa) = 16.37748 32.67655 24.52701
#
# Velocity S-wave (km/s) = 2.76466 3.90514 3.38330
# Velocity P-wave (km/s) = 5.77125 7.34772 6.60667
#
# Compressibility (1/GPa) = 0.02018927
#
# Stress axis : x y z
#
# Youngs Moduli (GPa) = 85.57475 55.82835 60.57301
#
# Poissons Ratio (x) = 0.23289 -0.11211
# Poissons Ratio (y) = 0.35698 0.64437
# Poissons Ratio (z) = -0.15838 0.59390
#
# Static dielectric constant tensor:
#      x y z
#    x 1.876420 0.042710 -0.122230 
#    y 0.042710 1.800280 -0.044320 
#    z -0.122230 -0.044320 1.980580 
# 
# From -- ./inp_files/395401.got.cif
#   From: 2010.05.17/outbox.cif.g08.bks.cpg/sg2_198_cif.got.tgz:395401.got - 2010.06.03 11:33:40.
