data_PCOD9087576
_publ_section_title
;
Structure prediction by ZEFSAII (Michael W. Deem and Ramdas Pophale) SiO2 
 PCOD9087576
Probable space group: P -1
;
_chemical_formula_sum "Si O2"
_cell_formula_units_Z 16
_cell_length_a 15.114499
_cell_length_b 7.632466
_cell_length_c 11.694507
_cell_angle_alpha 126.738758
_cell_angle_beta 126.128667
_cell_angle_gamma 37.657267
_cell_volume 641.674918
_symmetry_space_group_name_H-M "P -1"
_symmetry_group_IT_number 2
_symmetry_cell_setting 'triclinic'
loop_
_space_group_symop_operation_xyz
x,y,z
-x,-y,-z
loop_
_atom_site_type_symbol
_atom_site_label
_atom_site_fract_x
_atom_site_fract_y
_atom_site_fract_z
Si Si1 0.581863 0.893034 0.173296
Si Si2 0.194643 0.599782 0.393897
Si Si3 0.105646 0.407388 0.707374
Si Si4 0.071505 0.755099 0.598857
Si Si5 0.721930 0.456363 0.793928
Si Si6 0.537178 0.048108 0.668362
Si Si7 0.334549 0.695047 0.085110
Si Si8 0.983133 0.796930 0.978238
O O1 0.722169 0.846085 0.224507
O O2 0.573279 0.913820 0.311927
O O3 0.418759 0.205967 0.144489
O O4 0.609442 0.610217 0.040791
O O5 0.195865 0.619061 0.540755
O O6 0.281847 0.623686 0.371034
O O7 0.287608 0.255136 0.303042
O O8 0.026128 0.892466 0.346185
O O9 0.103576 0.616101 0.696112
O O10 0.012594 0.580355 0.817842
O O11 0.036063 0.291298 0.550000
O O12 0.718422 0.268011 0.809364
O O13 0.874285 0.386919 0.901827
O O14 0.537751 0.299362 0.802300
O O15 0.500000 0.000000 0.500000
O O16 0.184756 0.972488 0.012589
O O17 0.000000 0.000000 0.000000
#
# Coordination Sequence:
#
# PCOD9087576 Si02
#       8
#     2   2   2   2   2   2   2   2
#     4  11  23  40  66  95 131 163 212 266 320 381
#     4  10  22  41  60  89 130 167 208 264 311 373
#     4  11  21  38  66  94 123 169 211 260 320 375
#     4  10  22  39  63  93 128 164 216 261 311 381
#     4  10  22  40  66  94 133 159 207 267 319 374
#     4  11  25  44  61  90 132 172 212 260 319 380
#     4  11  22  41  69  93 123 171 219 255 318 382
#     4  10  19  36  64  93 122 157 207 259 310 367
#
# _framework density 24.934742
#
# number of rings (size 3 to 8) (size 9 to 14) (size 15 to 20)
#    0.000    1.500    2.500    3.750    0.000    4.000 
#    0.000    8.125    2.750    0.000    0.000    0.000 
#    0.000    0.000    0.000    0.000    0.000    0.000 
#
# Total GULP energy -89166.033852 kJ/mol
# GULP energy per Si atom -5572.877116 kJ/mol
# Density = 2.487799 g / cm^3
# Si number density = 24.934742 Si / 1000 Ang^3
#
#
#
# Elastic Constant Matrix: (Units=GPa)
#
#
# Indices 1 2 3 4 5 6 
#
# 1 60.0428 16.4826 18.6350 -0.7397 -20.3341 -11.9742
# 2 16.4826 105.1333 20.7090 -2.3893 -0.8348 -24.4760
# 3 18.6350 20.7090 84.0891 1.2165 -5.9353 -4.8180
# 4 -0.7397 -2.3893 1.2165 33.3030 -4.7948 -11.3067
# 5 -20.3341 -0.8348 -5.9353 -4.7948 47.4643 -0.4423
# 6 -11.9742 -24.4760 -4.8180 -11.3067 -0.4423 33.2710
#
#
#
# Elastic Compliance Matrix: (Units=1/GPa)
#
#
# Indices 1 2 3 4 5 6 
#
# 1 0.023372 -0.000512 -0.003875 0.005276 0.010140 0.009402
# 2 -0.000512 0.012558 -0.002441 0.004487 0.000245 0.010229
# 3 -0.003875 -0.002441 0.013258 -0.001364 -0.000199 -0.001737
# 4 0.005276 0.004487 -0.001364 0.037443 0.006117 0.017808
# 5 0.010140 0.000245 -0.000199 0.006117 0.026068 0.006226
# 6 0.009402 0.010229 -0.001737 0.017808 0.006226 0.046848
#
#
# Mechanical properties :
#
#
# Convention : Reuss Voigt Hill
#
# Bulk Modulus (GPa) = 28.14341 40.10205 34.12273
# Shear Modulus (GPa) = 27.02028 35.70356 31.36192
#
# Velocity S-wave (km/s) = 3.29544 3.78812 3.55034
# Velocity P-wave (km/s) = 5.07851 5.93725 5.52459
#
# Compressibility (1/GPa) = 0.03553230
#
# Stress axis : x y z
#
# Youngs Moduli (GPa) = 42.78652 79.63041 75.42463
#
# Poissons Ratio (x) = 0.04074 0.29230
# Poissons Ratio (y) = 0.02189 0.18410
# Poissons Ratio (z) = 0.16581 0.19437
#
# Static dielectric constant tensor:
#      x y z
#    x 2.012200 0.051430 -0.039660 
#    y 0.051430 2.111120 -0.063410 
#    z -0.039660 -0.063410 2.019190 
# 
# From -- ./inp_files/462470.got.cif
#   From: 2010.05.17/outbox.cif.g08.bks.cpg/sg2_232_cif.got.tgz:462470.got - 2010.06.03 11:33:40.
