data_PCOD9087489
_publ_section_title
;
Structure prediction by ZEFSAII (Michael W. Deem and Ramdas Pophale) SiO2 
 PCOD9087489
Probable space group: P -1
;
_chemical_formula_sum "Si O2"
_cell_formula_units_Z 14
_cell_length_a 7.881137
_cell_length_b 8.530773
_cell_length_c 20.837738
_cell_angle_alpha 123.361275
_cell_angle_beta 33.511865
_cell_angle_gamma 126.790930
_cell_volume 615.363474
_symmetry_space_group_name_H-M "P -1"
_symmetry_group_IT_number 2
_symmetry_cell_setting 'triclinic'
loop_
_space_group_symop_operation_xyz
x,y,z
-x,-y,-z
loop_
_atom_site_type_symbol
_atom_site_label
_atom_site_fract_x
_atom_site_fract_y
_atom_site_fract_z
Si Si1 0.187234 0.125812 0.216562
Si Si2 0.892680 0.331909 0.069645
Si Si3 0.528972 0.893710 0.750272
Si Si4 0.280679 0.839059 0.370959
Si Si5 0.257069 0.453036 0.457867
Si Si6 0.485964 0.855248 0.531081
Si Si7 0.087087 0.251676 0.855774
O O1 0.530324 0.293117 0.144264
O O2 0.216744 0.030326 0.255144
O O3 0.870653 0.194643 0.335169
O O4 0.145686 0.960649 0.138977
O O5 0.814630 0.186919 0.122658
O O6 0.008969 0.563010 0.100025
O O7 0.090978 0.278251 0.937402
O O8 0.586618 0.696262 0.659446
O O9 0.596816 0.054670 0.710435
O O10 0.568301 0.750579 0.280589
O O11 0.953660 0.665465 0.443317
O O12 0.275712 0.010783 0.461884
O O13 0.505549 0.652221 0.450551
O O14 0.000000 0.500000 0.500000
O O15 0.500000 0.000000 0.500000
#
# Coordination Sequence:
#
# PCOD9087489 Si02
#       7
#     2   2   2   2   2   2   2
#     4   9  19  35  55  81 108 141 183 224 266 328
#     4   9  20  37  58  84 104 146 189 226 270 321
#     4  10  22  37  54  82 121 142 177 228 284 322
#     4  11  23  37  54  87 112 146 180 230 280 323
#     4  12  20  38  59  79 114 148 182 231 263 329
#     4  11  21  34  59  83 105 148 191 220 270 329
#     4  10  19  36  64  77 107 144 194 225 262 328
#
# _framework density 22.750781
#
# number of rings (size 3 to 8) (size 9 to 14) (size 15 to 20)
#    0.857    0.857    2.857    2.571    2.000    1.143 
#    2.571    0.000    0.000    1.714    0.000    0.000 
#    0.000    0.000    0.000    0.000    0.000    0.000 
#
# Total GULP energy -78146.560934 kJ/mol
# GULP energy per Si atom -5581.897210 kJ/mol
# Density = 2.269900 g / cm^3
# Si number density = 22.750781 Si / 1000 Ang^3
#
#
#
# Elastic Constant Matrix: (Units=GPa)
#
#
# Indices 1 2 3 4 5 6 
#
# 1 50.7032 18.8992 -1.2810 5.5305 20.8403 -11.5518
# 2 18.8992 95.9909 26.0505 5.3037 18.6711 -6.7303
# 3 -1.2810 26.0505 70.0151 4.3939 15.4898 -0.6150
# 4 5.5305 5.3037 4.3939 38.9044 -1.2348 10.4164
# 5 20.8403 18.6711 15.4898 -1.2348 29.2379 -10.6307
# 6 -11.5518 -6.7303 -0.6150 10.4164 -10.6307 34.0047
#
#
#
# Elastic Compliance Matrix: (Units=1/GPa)
#
#
# Indices 1 2 3 4 5 6 
#
# 1 0.032886 -0.003105 0.007519 -0.007331 -0.023745 0.005516
# 2 -0.003105 0.012946 -0.003958 -0.001159 -0.003785 0.000608
# 3 0.007519 -0.003958 0.019041 -0.002772 -0.013492 -0.001254
# 4 -0.007331 -0.001159 -0.002772 0.030180 0.004897 -0.010484
# 5 -0.023745 -0.003785 -0.013492 0.004897 0.064378 0.009566
# 6 0.005516 0.000608 -0.001254 -0.010484 0.009566 0.037581
#
#
# Mechanical properties :
#
#
# Convention : Reuss Voigt Hill
#
# Bulk Modulus (GPa) = 15.20109 33.78294 24.49202
# Shear Modulus (GPa) = 22.93284 31.96544 27.44914
#
# Velocity S-wave (km/s) = 3.17835 3.75243 3.47726
# Velocity P-wave (km/s) = 4.49058 5.80136 5.18753
#
# Compressibility (1/GPa) = 0.06578474
#
# Stress axis : x y z
#
# Youngs Moduli (GPa) = 30.40797 77.24366 52.51891
#
# Poissons Ratio (x) = 0.23982 -0.39488
# Poissons Ratio (y) = 0.09441 0.20787
# Poissons Ratio (z) = -0.22863 0.30574
#
# Static dielectric constant tensor:
#      x y z
#    x 1.887170 -0.027740 -0.012140 
#    y -0.027740 1.819960 -0.009640 
#    z -0.012140 -0.009640 1.856640 
# 
# From -- ./inp_files/214890.got.cif
#   From: 2010.05.17/outbox.cif.g08.bks.cpg/sg2_108_cif.got.tgz:214890.got - 2010.06.03 11:33:40.
