data_PCOD9087880
_publ_section_title
;
Structure prediction by ZEFSAII (Michael W. Deem and Ramdas Pophale) SiO2 
 PCOD9087880
Probable space group: P -1
;
_chemical_formula_sum "Si O2"
_cell_formula_units_Z 16
_cell_length_a 8.407996
_cell_length_b 19.579244
_cell_length_c 12.049231
_cell_angle_alpha 132.766471
_cell_angle_beta 33.732773
_cell_angle_gamma 119.601717
_cell_volume 796.392636
_symmetry_space_group_name_H-M "P -1"
_symmetry_group_IT_number 2
_symmetry_cell_setting 'triclinic'
loop_
_space_group_symop_operation_xyz
x,y,z
-x,-y,-z
loop_
_atom_site_type_symbol
_atom_site_label
_atom_site_fract_x
_atom_site_fract_y
_atom_site_fract_z
Si Si1 0.856986 0.748216 0.183739
Si Si2 0.065452 0.143110 0.534392
Si Si3 0.413161 0.955230 0.181021
Si Si4 0.253152 0.562064 0.787136
Si Si5 0.333355 0.641908 0.305347
Si Si6 0.511636 0.929189 0.515865
Si Si7 0.654247 0.475224 0.054137
Si Si8 0.996299 0.821685 0.638426
O O1 0.601967 0.696039 0.230779
O O2 0.799840 0.847479 0.260046
O O3 0.807977 0.783135 0.378876
O O4 0.148716 0.670037 0.924633
O O5 0.821441 0.107010 0.711142
O O6 0.949994 0.188663 0.536214
O O7 0.278444 0.043209 0.278542
O O8 0.495446 0.010321 0.302380
O O9 0.683156 0.883081 0.901723
O O10 0.500000 0.500000 0.500000
O O11 0.959086 0.515112 0.907304
O O12 0.353301 0.561723 0.857170
O O13 0.355233 0.597040 0.120647
O O14 0.045467 0.720694 0.558949
O O15 0.385390 0.559545 0.275503
O O16 0.232830 0.878979 0.613783
O O17 0.500000 0.000000 0.500000
#
# Coordination Sequence:
#
# PCOD9087880 Si02
#       8
#     2   2   2   2   2   2   2   2
#     4   9  20  36  56  80 110 147 184 220 275 330
#     4  10  20  36  54  74 114 146 181 230 272 319
#     4  10  21  35  53  80 106 146 188 226 271 325
#     4  10  20  37  61  86 110 144 183 226 277 331
#     4   9  19  37  58  83 110 148 181 226 280 330
#     4  10  19  37  56  76 113 149 178 227 281 318
#     4   9  19  39  60  79 117 143 176 230 281 326
#     4  11  20  34  58  82 106 144 191 223 274 329
#
# _framework density 20.090592000000001
#
# number of rings (size 3 to 8) (size 9 to 14) (size 15 to 20)
#    0.000    2.250    1.250    1.500    0.000    1.000 
#    2.250    5.625    2.750    0.000    0.000    0.000 
#    0.000    0.000    0.000    0.000    0.000    0.000 
#
# Total GULP energy -89174.504967 kJ/mol
# GULP energy per Si atom -5573.406560 kJ/mol
# Density = 2.004487 g / cm^3
# Si number density = 20.090592 Si / 1000 Ang^3
#
#
#
# Elastic Constant Matrix: (Units=GPa)
#
#
# Indices 1 2 3 4 5 6 
#
# 1 114.4815 33.2555 15.5989 5.8248 4.1314 -0.9877
# 2 33.2555 53.8734 34.4915 25.8267 -5.5583 -15.7222
# 3 15.5989 34.4915 97.3743 23.9599 -22.6922 -20.7786
# 4 5.8248 25.8267 23.9599 21.9625 -7.4375 -6.9517
# 5 4.1314 -5.5583 -22.6922 -7.4375 25.8433 16.5276
# 6 -0.9877 -15.7222 -20.7786 -6.9517 16.5276 37.9988
#
#
#
# Elastic Compliance Matrix: (Units=1/GPa)
#
#
# Indices 1 2 3 4 5 6 
#
# 1 0.012472 -0.015212 -0.000876 0.014492 0.000782 -0.004138
# 2 -0.015212 0.071168 -0.004751 -0.074935 -0.022372 0.022475
# 3 -0.000876 -0.004751 0.016984 -0.008710 0.010911 0.000959
# 4 0.014492 -0.074935 -0.008710 0.142137 0.028854 -0.021938
# 5 0.000782 -0.022372 0.010911 0.028854 0.069763 -0.028335
# 6 -0.004138 0.022475 0.000959 -0.021938 -0.028335 0.044344
#
#
# Mechanical properties :
#
#
# Convention : Reuss Voigt Hill
#
# Bulk Modulus (GPa) = 16.96517 48.04677 32.50597
# Shear Modulus (GPa) = 11.95611 29.31981 20.63796
#
# Velocity S-wave (km/s) = 2.44213 3.82433 3.20854
# Velocity P-wave (km/s) = 4.05150 6.59300 5.47185
#
# Compressibility (1/GPa) = 0.05894431
#
# Stress axis : x y z
#
# Youngs Moduli (GPa) = 80.17867 14.05117 58.88058
#
# Poissons Ratio (x) = 0.21375 0.05159
# Poissons Ratio (y) = 1.21970 0.27977
# Poissons Ratio (z) = 0.07025 0.06676
#
# Static dielectric constant tensor:
#      x y z
#    x 1.731340 -0.033400 -0.038060 
#    y -0.033400 1.783420 0.044140 
#    z -0.038060 0.044140 1.706630 
# 
# From -- ./inp_files/55270.got.cif
#   From: 2010.05.17/outbox.cif.g08.bks.cpg/sg2_28_cif.got.tgz:55270.got - 2010.06.03 11:33:40.
