data_PCOD9087455
_publ_section_title
;
Structure prediction by ZEFSAII (Michael W. Deem and Ramdas Pophale) SiO2 
 PCOD9087455
Probable space group: P -1
;
_chemical_formula_sum "Si O2"
_cell_formula_units_Z 16
_cell_length_a 14.204932
_cell_length_b 8.109576
_cell_length_c 8.905385
_cell_angle_alpha 71.729604
_cell_angle_beta 132.816803
_cell_angle_gamma 107.234685
_cell_volume 709.450156
_symmetry_space_group_name_H-M "P -1"
_symmetry_group_IT_number 2
_symmetry_cell_setting 'triclinic'
loop_
_space_group_symop_operation_xyz
x,y,z
-x,-y,-z
loop_
_atom_site_type_symbol
_atom_site_label
_atom_site_fract_x
_atom_site_fract_y
_atom_site_fract_z
Si Si1 0.434042 0.831391 0.889336
Si Si2 0.953724 0.392065 0.135194
Si Si3 0.585744 0.992197 0.740762
Si Si4 0.350884 0.639047 0.123715
Si Si5 0.165871 0.965277 0.543018
Si Si6 0.900839 0.732806 0.403042
Si Si7 0.930531 0.853287 0.865293
Si Si8 0.246063 0.294153 0.047487
O O1 0.508770 0.849537 0.810255
O O2 0.284405 0.855634 0.708619
O O3 0.430873 0.673629 0.046141
O O4 0.500000 0.000000 0.000000
O O5 0.052946 0.402377 0.383084
O O6 0.974880 0.202371 0.143544
O O7 0.806626 0.369990 0.040760
O O8 0.000000 0.500000 0.000000
O O9 0.500000 0.000000 0.500000
O O10 0.607884 0.188438 0.779507
O O11 0.712368 0.899727 0.866388
O O12 0.356075 0.430598 0.206918
O O13 0.032558 0.836516 0.447675
O O14 0.166505 0.114800 0.628415
O O15 0.179190 0.070926 0.371505
O O16 0.807256 0.658072 0.187986
O O17 0.872124 0.711937 0.962107
O O18 0.000000 0.000000 0.000000
#
# Coordination Sequence:
#
# PCOD9087455 Si02
#       8
#     2   2   2   2   2   2   2   2
#     4  10  21  41  67  91 127 179 227 278 329 386
#     4  11  22  41  60  96 145 174 209 273 344 408
#     4  11  26  48  71  97 132 180 231 285 336 393
#     4  11  24  44  68  97 137 176 225 284 331 405
#     4  10  19  36  63  94 129 177 222 271 337 395
#     4  10  21  36  64  98 134 176 218 271 338 417
#     4  11  21  35  61  93 133 177 214 269 336 408
#     4  12  24  43  68 102 135 175 227 279 340 406
#
# _framework density 22.552678
#
# number of rings (size 3 to 8) (size 9 to 14) (size 15 to 20)
#    0.000    1.250    3.750    3.000    1.750    1.500 
#    4.500    0.000    0.000    0.000    0.000    0.000 
#    0.000    0.000    0.000    0.000    0.000    0.000 
#
# Total GULP energy -89069.234789 kJ/mol
# GULP energy per Si atom -5566.827174 kJ/mol
# Density = 2.250135 g / cm^3
# Si number density = 22.552678 Si / 1000 Ang^3
#
#
#
# Elastic Constant Matrix: (Units=GPa)
#
#
# Indices 1 2 3 4 5 6 
#
# 1 82.6304 6.3835 11.4210 10.7817 -19.9179 4.8619
# 2 6.3835 82.7241 13.3718 25.2577 -13.5467 8.1511
# 3 11.4210 13.3718 74.4241 11.7982 -23.4789 -5.4974
# 4 10.7817 25.2577 11.7982 21.2655 0.6652 -5.5474
# 5 -19.9179 -13.5467 -23.4789 0.6652 30.7249 -4.0839
# 6 4.8619 8.1511 -5.4974 -5.5474 -4.0839 33.6147
#
#
#
# Elastic Compliance Matrix: (Units=1/GPa)
#
#
# Indices 1 2 3 4 5 6 
#
# 1 0.019588 0.009983 0.005778 -0.027283 0.021278 -0.006226
# 2 0.009983 0.030808 0.008019 -0.050237 0.025571 -0.012787
# 3 0.005778 0.008019 0.023360 -0.026263 0.025678 -0.000174
# 4 -0.027283 -0.050237 -0.026263 0.144373 -0.059249 0.028460
# 5 0.021278 0.025571 0.025678 -0.059249 0.077801 -0.005404
# 6 -0.006226 -0.012787 -0.000174 0.028460 -0.005404 0.037762
#
#
# Mechanical properties :
#
#
# Convention : Reuss Voigt Hill
#
# Bulk Modulus (GPa) = 8.24297 33.57014 20.90655
# Shear Modulus (GPa) = 15.31063 31.02785 23.16924
#
# Velocity S-wave (km/s) = 2.60837 3.71319 3.20869
# Velocity P-wave (km/s) = 3.56852 5.77073 4.79769
#
# Compressibility (1/GPa) = 0.12131556
#
# Stress axis : x y z
#
# Youngs Moduli (GPa) = 51.05295 32.45945 42.80778
#
# Poissons Ratio (x) = -0.32403 -0.24736
# Poissons Ratio (y) = -0.50964 -0.34328
# Poissons Ratio (z) = -0.29501 -0.26029
#
# Static dielectric constant tensor:
#      x y z
#    x 1.851430 -0.049760 -0.031060 
#    y -0.049760 1.932650 -0.053520 
#    z -0.031060 -0.053520 1.810490 
# 
# From -- ./inp_files/298007.got.cif
#   From: 2010.05.17/outbox.cif.g08.bks.cpg/sg2_150_cif.got.tgz:298007.got - 2010.06.03 11:33:40.
