data_PCOD9087396
_publ_section_title
;
Structure prediction by ZEFSAII (Michael W. Deem and Ramdas Pophale) SiO2 
 PCOD9087396
Probable space group: P -1
;
_chemical_formula_sum "Si O2"
_cell_formula_units_Z 16
_cell_length_a 8.826779
_cell_length_b 20.483681
_cell_length_c 11.246680
_cell_angle_alpha 40.113876
_cell_angle_beta 109.079364
_cell_angle_gamma 76.210358
_cell_volume 739.626873
_symmetry_space_group_name_H-M "P -1"
_symmetry_group_IT_number 2
_symmetry_cell_setting 'triclinic'
loop_
_space_group_symop_operation_xyz
x,y,z
-x,-y,-z
loop_
_atom_site_type_symbol
_atom_site_label
_atom_site_fract_x
_atom_site_fract_y
_atom_site_fract_z
Si Si1 0.268241 0.218792 0.949021
Si Si2 0.726517 0.621214 0.689235
Si Si3 0.537821 0.614516 0.075038
Si Si4 0.456952 0.061670 0.768932
Si Si5 0.724333 0.126722 0.182065
Si Si6 0.995280 0.474110 0.712188
Si Si7 0.647725 0.366824 0.332980
Si Si8 0.015358 0.129002 0.568446
O O1 0.076250 0.332113 0.856299
O O2 0.157991 0.364153 0.632207
O O3 0.561080 0.112780 0.209799
O O4 0.333439 0.088370 0.066020
O O5 0.566843 0.806764 0.408649
O O6 0.547914 0.620912 0.691939
O O7 0.822118 0.548918 0.680761
O O8 0.000000 0.500000 0.000000
O O9 0.724809 0.607392 0.077382
O O10 0.686315 0.433109 0.349671
O O11 0.460571 0.685258 0.090551
O O12 0.256472 0.748471 0.747115
O O13 0.169415 0.153781 0.537348
O O14 0.500000 0.000000 0.000000
O O15 0.000000 0.000000 0.500000
O O16 0.793475 0.060688 0.157206
O O17 0.921692 0.185176 0.601456
O O18 0.500000 0.500000 0.000000
#
# Coordination Sequence:
#
# PCOD9087396 Si02
#       8
#     2   2   2   2   2   2   2   2
#     4   9  19  35  61  91 121 159 202 242 313 368
#     4  12  23  37  60  93 123 159 211 253 296 364
#     4   9  16  31  54  82 108 151 193 235 297 347
#     4  11  21  38  63  90 122 160 202 250 313 361
#     4   8  15  28  53  82 109 147 198 236 289 357
#     4  10  19  36  63  90 121 161 202 250 303 367
#     4  10  20  34  53  81 116 154 197 245 293 344
#     4   9  17  32  53  80 113 147 192 240 293 353
#
# _framework density 21.632528000000001
#
# number of rings (size 3 to 8) (size 9 to 14) (size 15 to 20)
#    0.000    2.250    1.250    3.750    0.000    0.000 
#    0.000    2.500    0.000    6.750    0.000    0.000 
#    0.000    0.000    0.000    0.000    0.000    0.000 
#
# Total GULP energy -89133.356358 kJ/mol
# GULP energy per Si atom -5570.834772 kJ/mol
# Density = 2.158329 g / cm^3
# Si number density = 21.632528 Si / 1000 Ang^3
#
#
#
# Elastic Constant Matrix: (Units=GPa)
#
#
# Indices 1 2 3 4 5 6 
#
# 1 102.6891 58.4789 26.8476 -24.8426 -3.1970 -8.7298
# 2 58.4789 209.2839 51.3939 -85.7396 -14.5259 -6.7505
# 3 26.8476 51.3939 54.0453 -27.7889 2.5859 -2.7276
# 4 -24.8426 -85.7396 -27.7889 54.7487 4.7701 8.1506
# 5 -3.1970 -14.5259 2.5859 4.7701 27.6694 -2.6391
# 6 -8.7298 -6.7505 -2.7276 8.1506 -2.6391 24.8369
#
#
#
# Elastic Compliance Matrix: (Units=1/GPa)
#
#
# Indices 1 2 3 4 5 6 
#
# 1 0.012445 -0.003038 -0.004084 -0.001828 0.000902 0.003795
# 2 -0.003038 0.015010 -0.002207 0.021252 0.003708 -0.003811
# 3 -0.004084 -0.002207 0.027804 0.009765 -0.006184 -0.002844
# 4 -0.001828 0.021252 0.009765 0.057686 -0.001137 -0.012845
# 5 0.000902 0.003708 -0.006184 -0.001137 0.039463 0.005212
# 6 0.003795 -0.003811 -0.002844 -0.012845 0.005212 0.045018
#
#
# Mechanical properties :
#
#
# Convention : Reuss Voigt Hill
#
# Bulk Modulus (GPa) = 27.32224 71.05101 49.18662
# Shear Modulus (GPa) = 21.90253 36.73753 29.32003
#
# Velocity S-wave (km/s) = 3.18540 4.12546 3.68553
# Velocity P-wave (km/s) = 5.11729 7.45710 6.39512
#
# Compressibility (1/GPa) = 0.03660023
#
# Stress axis : x y z
#
# Youngs Moduli (GPa) = 80.35574 66.62151 35.96612
#
# Poissons Ratio (x) = 0.20240 0.14690
# Poissons Ratio (y) = 0.24413 0.07937
# Poissons Ratio (z) = 0.32820 0.14702
#
# Static dielectric constant tensor:
#      x y z
#    x 1.694860 -0.096190 -0.093520 
#    y -0.096190 1.665840 -0.320030 
#    z -0.093520 -0.320030 1.509040 
# 
# From -- ./inp_files/404148.got.cif
#   From: 2010.05.17/outbox.cif.g08.bks.cpg/sg2_203_cif.got.tgz:404148.got - 2010.06.03 11:33:40.
