data_PCOD9087049
_publ_section_title
;
Structure prediction by ZEFSAII (Michael W. Deem and Ramdas Pophale) SiO2 
 PCOD9087049
Probable space group: P -1
;
_chemical_formula_sum "Si O2"
_cell_formula_units_Z 16
_cell_length_a 13.344180
_cell_length_b 16.026347
_cell_length_c 8.926122
_cell_angle_alpha 118.017850
_cell_angle_beta 107.956344
_cell_angle_gamma 127.489958
_cell_volume 708.086629
_symmetry_space_group_name_H-M "P -1"
_symmetry_group_IT_number 2
_symmetry_cell_setting 'triclinic'
loop_
_space_group_symop_operation_xyz
x,y,z
-x,-y,-z
loop_
_atom_site_type_symbol
_atom_site_label
_atom_site_fract_x
_atom_site_fract_y
_atom_site_fract_z
Si Si1 0.028471 0.352758 0.496878
Si Si2 0.651117 0.042202 0.305707
Si Si3 0.640375 0.725877 0.475881
Si Si4 0.994414 0.129785 0.158104
Si Si5 0.701490 0.365058 0.394025
Si Si6 0.720541 0.291681 0.665146
Si Si7 0.525962 0.787665 0.251316
Si Si8 0.656176 0.531415 0.627090
O O1 0.932926 0.172703 0.257170
O O2 0.054839 0.430783 0.418983
O O3 0.864445 0.249525 0.471886
O O4 0.300737 0.573022 0.866524
O O5 0.586838 0.084309 0.402661
O O6 0.692112 0.989581 0.397701
O O7 0.455287 0.839434 0.934945
O O8 0.790725 0.750769 0.556314
O O9 0.641294 0.789155 0.382428
O O10 0.377178 0.508336 0.243796
O O11 0.778811 0.888166 0.815235
O O12 0.088555 0.236441 0.127455
O O13 0.719299 0.348762 0.559012
O O14 0.602915 0.393906 0.388512
O O15 0.587831 0.242064 0.692175
O O16 0.000000 0.500000 0.000000
O O17 0.500000 0.500000 0.500000
#
# Coordination Sequence:
#
# PCOD9087049 Si02
#       8
#     2   2   2   2   2   2   2   2
#     4  10  22  41  60  90 126 159 200 250 307 369
#     4  11  24  43  61  87 127 165 203 255 306 360
#     4  10  19  36  61  90 121 157 205 251 301 362
#     4   9  20  35  60  92 120 159 203 247 301 369
#     4  10  22  41  65  90 120 161 207 250 308 364
#     4  12  24  44  64  91 123 162 209 260 304 358
#     4  11  24  41  61  89 125 160 203 256 309 361
#     4   9  17  34  61  91 120 151 197 252 300 354
#
# _framework density 22.596102999999999
#
# number of rings (size 3 to 8) (size 9 to 14) (size 15 to 20)
#    0.000    1.750    2.500    1.500    0.000    4.000 
#    2.250    0.625    0.000    0.000    0.000    0.000 
#    0.000    0.000    0.000    0.000    0.000    0.000 
#
# Total GULP energy -89247.574451 kJ/mol
# GULP energy per Si atom -5577.973403 kJ/mol
# Density = 2.254467 g / cm^3
# Si number density = 22.596103 Si / 1000 Ang^3
#
#
#
# Elastic Constant Matrix: (Units=GPa)
#
#
# Indices 1 2 3 4 5 6 
#
# 1 50.2429 7.6525 9.3951 2.1441 -15.2663 -5.1744
# 2 7.6525 117.4095 1.2640 -11.2078 6.1895 4.1324
# 3 9.3951 1.2640 41.6041 1.7275 -12.8300 -7.4301
# 4 2.1441 -11.2078 1.7275 29.7129 -1.3288 -2.8940
# 5 -15.2663 6.1895 -12.8300 -1.3288 26.3910 6.7008
# 6 -5.1744 4.1324 -7.4301 -2.8940 6.7008 33.2109
#
#
#
# Elastic Compliance Matrix: (Units=1/GPa)
#
#
# Indices 1 2 3 4 5 6 
#
# 1 0.024992 -0.002596 -0.000907 -0.001998 0.014281 0.000958
# 2 -0.002596 0.009264 -0.001168 0.003505 -0.003880 -0.000730
# 3 -0.000907 -0.001168 0.028949 -0.001115 0.012802 0.003801
# 4 -0.001998 0.003505 -0.001115 0.035356 -0.001338 0.002354
# 5 0.014281 -0.003880 0.012802 -0.001338 0.054633 -0.005568
# 6 0.000958 -0.000730 0.003801 0.002354 -0.005568 0.032529
#
#
# Mechanical properties :
#
#
# Convention : Reuss Voigt Hill
#
# Bulk Modulus (GPa) = 18.56552 27.31997 22.94274
# Shear Modulus (GPa) = 23.47206 30.59262 27.03234
#
# Velocity S-wave (km/s) = 3.22649 3.68351 3.46255
# Velocity P-wave (km/s) = 4.70259 5.49617 5.11479
#
# Compressibility (1/GPa) = 0.05386328
#
# Stress axis : x y z
#
# Youngs Moduli (GPa) = 40.01346 107.94651 34.54312
#
# Poissons Ratio (x) = 0.28028 0.03132
# Poissons Ratio (y) = 0.10389 0.04034
# Poissons Ratio (z) = 0.03627 0.12605
#
# Static dielectric constant tensor:
#      x y z
#    x 1.846220 -0.005830 0.024560 
#    y -0.005830 1.897860 0.021030 
#    z 0.024560 0.021030 1.845190 
# 
# From -- ./inp_files/214275.got.cif
#   From: 2010.05.17/outbox.cif.g08.bks.cpg/sg2_108_cif.got.tgz:214275.got - 2010.06.03 11:33:40.
