data_PCOD9087086
_publ_section_title
;
Structure prediction by ZEFSAII (Michael W. Deem and Ramdas Pophale) SiO2 
 PCOD9087086
Probable space group: P -1
;
_chemical_formula_sum "Si O2"
_cell_formula_units_Z 16
_cell_length_a 14.230828
_cell_length_b 7.613651
_cell_length_c 12.870613
_cell_angle_alpha 50.365040
_cell_angle_beta 138.613556
_cell_angle_gamma 125.305357
_cell_volume 696.377631
_symmetry_space_group_name_H-M "P -1"
_symmetry_group_IT_number 2
_symmetry_cell_setting 'triclinic'
loop_
_space_group_symop_operation_xyz
x,y,z
-x,-y,-z
loop_
_atom_site_type_symbol
_atom_site_label
_atom_site_fract_x
_atom_site_fract_y
_atom_site_fract_z
Si Si1 0.661289 0.457622 0.661413
Si Si2 0.413153 0.305346 0.821931
Si Si3 0.352118 0.841467 0.058510
Si Si4 0.844224 0.710035 0.538154
Si Si5 0.031790 0.887567 0.349025
Si Si6 0.769285 0.456962 0.297080
Si Si7 0.868599 0.429709 0.168101
Si Si8 0.080541 0.302830 0.088159
O O1 0.500000 0.500000 0.500000
O O2 0.659147 0.212758 0.808920
O O3 0.751431 0.512740 0.609925
O O4 0.756547 0.635040 0.754441
O O5 0.546665 0.321391 0.848761
O O6 0.271680 0.228570 0.660507
O O7 0.378050 0.520108 0.776498
O O8 0.420673 0.101318 0.986667
O O9 0.201768 0.762879 0.902314
O O10 0.981657 0.617973 0.643213
O O11 0.916726 0.929556 0.584745
O O12 0.157120 0.734709 0.512959
O O13 0.882122 0.704459 0.305939
O O14 0.019367 0.048615 0.178031
O O15 0.762262 0.419670 0.181232
O O16 0.910152 0.654124 0.043409
O O17 0.000000 0.500000 0.000000
#
# Coordination Sequence:
#
# PCOD9087086 Si02
#       8
#     2   2   2   2   2   2   2   2
#     4  10  19  36  61  93 114 145 197 265 300 345
#     4  11  23  39  59  91 119 165 199 255 297 360
#     4  10  23  39  63  88 121 151 214 252 295 353
#     4  11  20  37  67  88 118 158 208 248 299 355
#     4  10  21  38  58  93 122 161 200 254 297 362
#     4  11  24  37  57  88 133 163 196 242 312 369
#     4  11  22  39  61  93 120 164 196 255 301 356
#     4  10  20  38  64  92 117 154 208 260 291 348
#
# _framework density 22.976040000000001
#
# number of rings (size 3 to 8) (size 9 to 14) (size 15 to 20)
#    0.000    1.500    3.750    3.000    1.750    2.500 
#    0.000    1.250    0.000    3.750    0.000    0.000 
#    0.000    0.000    0.000    0.000    0.000    0.000 
#
# Total GULP energy -89375.591954 kJ/mol
# GULP energy per Si atom -5585.974497 kJ/mol
# Density = 2.292375 g / cm^3
# Si number density = 22.976040 Si / 1000 Ang^3
#
#
#
# Elastic Constant Matrix: (Units=GPa)
#
#
# Indices 1 2 3 4 5 6 
#
# 1 82.8338 15.0429 37.2762 -23.7843 5.3180 2.8166
# 2 15.0429 44.5165 23.9276 -6.6059 -10.4780 5.4553
# 3 37.2762 23.9276 102.8526 -7.3214 -5.6080 9.7138
# 4 -23.7843 -6.6059 -7.3214 42.4520 15.4139 -6.3896
# 5 5.3180 -10.4780 -5.6080 15.4139 46.7593 -4.2964
# 6 2.8166 5.4553 9.7138 -6.3896 -4.2964 29.3534
#
#
#
# Elastic Compliance Matrix: (Units=1/GPa)
#
#
# Indices 1 2 3 4 5 6 
#
# 1 0.019351 -0.003586 -0.005934 0.012365 -0.007576 0.002356
# 2 -0.003586 0.027795 -0.004662 -0.001137 0.006212 -0.002617
# 3 -0.005934 -0.004662 0.013160 -0.002959 0.001882 -0.003288
# 4 0.012365 -0.001137 -0.002959 0.035450 -0.013170 0.005793
# 5 -0.007576 0.006212 0.001882 -0.013170 0.028226 0.000214
# 6 0.002356 -0.002617 -0.003288 0.005793 0.000214 0.036708
#
#
# Mechanical properties :
#
#
# Convention : Reuss Voigt Hill
#
# Bulk Modulus (GPa) = 31.30669 42.52181 36.91425
# Shear Modulus (GPa) = 25.03713 33.97668 29.50690
#
# Velocity S-wave (km/s) = 3.30465 3.84967 3.58753
# Velocity P-wave (km/s) = 5.31190 6.18928 5.76730
#
# Compressibility (1/GPa) = 0.03194205
#
# Stress axis : x y z
#
# Youngs Moduli (GPa) = 51.67705 35.97755 75.98570
#
# Poissons Ratio (x) = 0.12903 0.45092
# Poissons Ratio (y) = 0.18533 0.35421
# Poissons Ratio (z) = 0.30667 0.16771
#
# Static dielectric constant tensor:
#      x y z
#    x 1.928780 -0.002530 -0.015860 
#    y -0.002530 1.883290 -0.022930 
#    z -0.015860 -0.022930 1.882010 
# 
# From -- ./inp_files/528182.got.cif
#   From: 2010.05.17/outbox.cif.g08.bks.cpg/sg2_265_cif.got.tgz:528182.got - 2010.06.03 11:33:40.
