data_PCOD9087503
_publ_section_title
;
Structure prediction by ZEFSAII (Michael W. Deem and Ramdas Pophale) SiO2 
 PCOD9087503
Probable space group: P -1
;
_chemical_formula_sum "Si O2"
_cell_formula_units_Z 16
_cell_length_a 31.242533
_cell_length_b 15.732268
_cell_length_c 8.535552
_cell_angle_alpha 45.675165
_cell_angle_beta 38.215604
_cell_angle_gamma 18.529637
_cell_volume 801.656602
_symmetry_space_group_name_H-M "P -1"
_symmetry_group_IT_number 2
_symmetry_cell_setting 'triclinic'
loop_
_space_group_symop_operation_xyz
x,y,z
-x,-y,-z
loop_
_atom_site_type_symbol
_atom_site_label
_atom_site_fract_x
_atom_site_fract_y
_atom_site_fract_z
Si Si1 0.913921 0.735695 0.333214
Si Si2 0.497429 0.904863 0.962397
Si Si3 0.836245 0.717928 0.033076
Si Si4 0.654670 0.464110 0.477559
Si Si5 0.498287 0.858017 0.682905
Si Si6 0.334526 0.974685 0.563174
Si Si7 0.756722 0.530813 0.926847
Si Si8 0.101022 0.117648 0.498484
O O1 0.887324 0.879130 0.351455
O O2 0.000000 0.500000 0.500000
O O3 0.032993 0.567272 0.060780
O O4 0.750119 0.956261 0.430634
O O5 0.421994 0.949792 0.264639
O O6 0.367559 0.211050 0.929078
O O7 0.512510 0.805462 0.892218
O O8 0.670996 0.675164 0.818671
O O9 0.873530 0.794816 0.771212
O O10 0.671520 0.924355 0.170138
O O11 0.803829 0.773288 0.240702
O O12 0.620406 0.596716 0.559136
O O13 0.483021 0.691198 0.601541
O O14 0.762403 0.183667 0.561061
O O15 0.752022 0.401025 0.160929
O O16 0.500000 0.000000 0.500000
O O17 0.926434 0.331763 0.696439
#
# Coordination Sequence:
#
# PCOD9087503 Si02
#       8
#     2   2   2   2   2   2   2   2
#     4  10  20  36  60  88 119 153 193 248 297 358
#     4  10  19  36  64  86 116 156 202 254 291 348
#     4  10  22  38  61  92 120 155 199 251 300 352
#     4  10  23  39  61  88 121 164 201 246 298 360
#     4  11  21  39  62  89 117 152 205 249 294 355
#     4  10  21  38  60  91 118 154 201 246 304 356
#     4  10  20  36  59  88 119 158 201 243 300 352
#     4  11  22  40  60  87 128 163 196 245 306 357
#
# _framework density 19.958670000000001
#
# number of rings (size 3 to 8) (size 9 to 14) (size 15 to 20)
#    0.000    1.750    1.250    4.500    1.750    2.500 
#    0.000    3.125    0.000    0.000    0.000    0.000 
#    0.000    0.000    0.000    0.000    0.000    0.000 
#
# Total GULP energy -89142.361255 kJ/mol
# GULP energy per Si atom -5571.397578 kJ/mol
# Density = 1.991324 g / cm^3
# Si number density = 19.958670 Si / 1000 Ang^3
#
#
#
# Elastic Constant Matrix: (Units=GPa)
#
#
# Indices 1 2 3 4 5 6 
#
# 1 117.1555 48.5561 30.5469 19.1669 2.9475 -8.4045
# 2 48.5561 70.9726 21.2328 10.9581 -0.6596 10.1171
# 3 30.5469 21.2328 72.4708 10.1196 -3.0554 0.6426
# 4 19.1669 10.9581 10.1196 17.4573 -2.8815 -1.3051
# 5 2.9475 -0.6596 -3.0554 -2.8815 35.6179 6.2285
# 6 -8.4045 10.1171 0.6426 -1.3051 6.2285 27.7867
#
#
#
# Elastic Compliance Matrix: (Units=1/GPa)
#
#
# Indices 1 2 3 4 5 6 
#
# 1 0.015475 -0.009619 -0.002632 -0.009432 -0.003967 0.008690
# 2 -0.009619 0.023626 -0.002153 -0.003458 0.002916 -0.012278
# 3 -0.002632 -0.002153 0.016310 -0.005063 0.001329 -0.000925
# 4 -0.009432 -0.003458 -0.005063 0.073804 0.006146 0.000612
# 5 -0.003967 0.002916 0.001329 0.006146 0.030620 -0.008867
# 6 0.008690 -0.012278 -0.000925 0.000612 -0.008867 0.045125
#
#
# Mechanical properties :
#
#
# Convention : Reuss Voigt Hill
#
# Bulk Modulus (GPa) = 37.58924 51.25228 44.42076
# Shear Modulus (GPa) = 20.60702 26.85658 23.73180
#
# Velocity S-wave (km/s) = 3.21672 3.67223 3.45200
# Velocity P-wave (km/s) = 5.71584 6.61176 6.18005
#
# Compressibility (1/GPa) = 0.02660336
#
# Stress axis : x y z
#
# Youngs Moduli (GPa) = 64.62065 42.32579 61.31199
#
# Poissons Ratio (x) = 0.40714 0.16136
# Poissons Ratio (y) = 0.62160 0.13200
# Poissons Ratio (z) = 0.17007 0.09112
#
# Static dielectric constant tensor:
#      x y z
#    x 1.764870 -0.040670 0.002970 
#    y -0.040670 1.746040 -0.016240 
#    z 0.002970 -0.016240 1.781590 
# 
# From -- ./inp_files/278585.got.cif
#   From: 2010.05.17/outbox.cif.g08.bks.cpg/sg2_140_cif.got.tgz:278585.got - 2010.06.03 11:33:40.
