data_PCOD9087984
_publ_section_title
;
Structure prediction by ZEFSAII (Michael W. Deem and Ramdas Pophale) SiO2 
 PCOD9087984
Probable space group: P -1
;
_chemical_formula_sum "Si O2"
_cell_formula_units_Z 14
_cell_length_a 11.574843
_cell_length_b 10.287757
_cell_length_c 8.931410
_cell_angle_alpha 130.175499
_cell_angle_beta 118.297523
_cell_angle_gamma 69.920064
_cell_volume 714.401652
_symmetry_space_group_name_H-M "P -1"
_symmetry_group_IT_number 2
_symmetry_cell_setting 'triclinic'
loop_
_space_group_symop_operation_xyz
x,y,z
-x,-y,-z
loop_
_atom_site_type_symbol
_atom_site_label
_atom_site_fract_x
_atom_site_fract_y
_atom_site_fract_z
Si Si1 0.288598 0.118105 0.861244
Si Si2 0.324588 0.623145 0.090625
Si Si3 0.168906 0.839810 0.405117
Si Si4 0.523479 0.304914 0.042527
Si Si5 0.939390 0.672258 0.013767
Si Si6 0.934698 0.375014 0.251664
Si Si7 0.777697 0.208641 0.270065
O O1 0.434538 0.158120 0.937593
O O2 0.206404 0.286908 0.988045
O O3 0.219669 0.025208 0.610259
O O4 0.272442 0.980654 0.880793
O O5 0.265821 0.736178 0.274375
O O6 0.407776 0.728427 0.100884
O O7 0.424660 0.470124 0.089071
O O8 0.197605 0.560724 0.873722
O O9 0.167321 0.751803 0.502684
O O10 0.025072 0.827656 0.239435
O O11 0.647656 0.326875 0.242712
O O12 0.000000 0.500000 0.000000
O O13 0.961087 0.668048 0.846816
O O14 0.881374 0.227369 0.215341
O O15 0.000000 0.500000 0.500000
#
# Coordination Sequence:
#
# PCOD9087984 Si02
#       7
#     2   2   2   2   2   2   2
#     4  10  21  35  58  83 115 151 182 231 285 334
#     4   9  20  37  60  84 110 149 192 235 271 332
#     4   9  20  36  54  86 112 144 185 232 280 330
#     4  10  19  37  58  79 114 153 191 227 276 326
#     4  11  21  37  61  82 112 147 189 231 283 337
#     4  10  20  37  59  83 113 143 187 237 280 330
#     4   9  21  35  56  80 118 145 187 229 277 333
#
# _framework density 19.596817999999999
#
# number of rings (size 3 to 8) (size 9 to 14) (size 15 to 20)
#    0.857    1.429    0.000    3.429    0.000    1.714 
#    0.000    2.857    0.000    0.000    0.000    0.000 
#    0.000    0.000    0.000    0.000    0.000    0.000 
#
# Total GULP energy -77961.851341 kJ/mol
# GULP energy per Si atom -5568.703667 kJ/mol
# Density = 1.955221 g / cm^3
# Si number density = 19.596818 Si / 1000 Ang^3
#
#
#
# Elastic Constant Matrix: (Units=GPa)
#
#
# Indices 1 2 3 4 5 6 
#
# 1 111.4858 19.2559 33.3983 1.2378 -18.6718 17.1110
# 2 19.2559 51.4045 9.6574 -5.8357 -12.1648 9.0772
# 3 33.3983 9.6574 89.4885 -13.3468 -16.4139 4.2344
# 4 1.2378 -5.8357 -13.3468 19.4199 8.7536 0.8557
# 5 -18.6718 -12.1648 -16.4139 8.7536 26.9715 2.2029
# 6 17.1110 9.0772 4.2344 0.8557 2.2029 39.0533
#
#
#
# Elastic Compliance Matrix: (Units=1/GPa)
#
#
# Indices 1 2 3 4 5 6 
#
# 1 0.012758 -0.002038 -0.003904 -0.007694 0.008443 -0.005001
# 2 -0.002038 0.023535 0.000662 0.003941 0.008755 -0.005229
# 3 -0.003904 0.000662 0.014563 0.008842 0.003623 -0.000421
# 4 -0.007694 0.003941 0.008842 0.068420 -0.020468 0.001152
# 5 0.008443 0.008755 0.003623 -0.020468 0.056441 -0.008862
# 6 -0.005001 -0.005229 -0.000421 0.001152 -0.008862 0.029533
#
#
# Mechanical properties :
#
#
# Convention : Reuss Voigt Hill
#
# Bulk Modulus (GPa) = 24.81605 41.88910 33.35258
# Shear Modulus (GPa) = 21.81083 29.76010 25.78546
#
# Velocity S-wave (km/s) = 3.33975 3.90117 3.63133
# Velocity P-wave (km/s) = 5.25002 6.45864 5.88544
#
# Compressibility (1/GPa) = 0.04029650
#
# Stress axis : x y z
#
# Youngs Moduli (GPa) = 78.38084 42.48920 68.66507
#
# Poissons Ratio (x) = 0.08660 0.26806
# Poissons Ratio (y) = 0.15976 -0.04545
# Poissons Ratio (z) = 0.30599 -0.02812
#
# Static dielectric constant tensor:
#      x y z
#    x 1.682090 0.019990 0.016540 
#    y 0.019990 1.733680 -0.001650 
#    z 0.016540 -0.001650 1.678800 
# 
# From -- ./inp_files/260743.got.cif
#   From: 2010.05.17/outbox.cif.g08.bks.cpg/sg2_131_cif.got.tgz:260743.got - 2010.06.03 11:33:40.
