data_PCOD9087626
_publ_section_title
;
Structure prediction by ZEFSAII (Michael W. Deem and Ramdas Pophale) SiO2 
 PCOD9087626
Probable space group: P -1
;
_chemical_formula_sum "Si O2"
_cell_formula_units_Z 14
_cell_length_a 18.357707
_cell_length_b 18.866219
_cell_length_c 8.526309
_cell_angle_alpha 32.924306
_cell_angle_beta 32.210798
_cell_angle_gamma 23.470053
_cell_volume 598.387166
_symmetry_space_group_name_H-M "P -1"
_symmetry_group_IT_number 2
_symmetry_cell_setting 'triclinic'
loop_
_space_group_symop_operation_xyz
x,y,z
-x,-y,-z
loop_
_atom_site_type_symbol
_atom_site_label
_atom_site_fract_x
_atom_site_fract_y
_atom_site_fract_z
Si Si1 0.945206 0.391147 0.751457
Si Si2 0.650302 0.155233 0.699862
Si Si3 0.014108 0.887345 0.326305
Si Si4 0.663383 0.447935 0.414830
Si Si5 0.027387 0.358151 0.325753
Si Si6 0.539768 0.970965 0.801386
Si Si7 0.640132 0.026968 0.245483
O O1 0.886962 0.439608 0.582428
O O2 0.000000 0.500000 0.500000
O O3 0.137145 0.169647 0.809949
O O4 0.805755 0.426664 0.072869
O O5 0.466270 0.364231 0.591673
O O6 0.620616 0.021321 0.976504
O O7 0.850434 0.049368 0.447364
O O8 0.632131 0.161743 0.908782
O O9 0.206919 0.728555 0.375710
O O10 0.970416 0.776129 0.530779
O O11 0.000000 0.000000 0.000000
O O12 0.500000 0.500000 0.500000
O O13 0.243370 0.233995 0.235589
O O14 0.000000 0.500000 0.000000
O O15 0.561220 0.092238 0.445785
O O16 0.500000 0.000000 0.000000
O O17 0.500000 0.000000 0.500000
#
# Coordination Sequence:
#
# PCOD9087626 Si02
#       7
#     2   2   2   2   2   2   2
#     4  11  22  43  73 106 153 198 256 321 381 459
#     4  11  23  46  72 101 152 194 254 311 382 462
#     4  12  28  51  77 106 156 209 254 319 391 462
#     4  12  29  50  74 110 148 207 265 318 381 474
#     4  11  24  42  73 111 148 192 254 320 386 447
#     4  10  19  36  65 107 139 181 243 305 381 447
#     4   9  19  35  66 100 135 187 243 296 375 440
#
# _framework density 23.396225000000001
#
# number of rings (size 3 to 8) (size 9 to 14) (size 15 to 20)
#    0.000    1.143    2.857    4.286    2.000    4.571 
#    2.571    0.000    0.000    0.000    0.000    0.000 
#    0.000    0.000    0.000    0.000    0.000    0.000 
#
# Total GULP energy -78006.901896 kJ/mol
# GULP energy per Si atom -5571.921564 kJ/mol
# Density = 2.334297 g / cm^3
# Si number density = 23.396225 Si / 1000 Ang^3
#
#
#
# Elastic Constant Matrix: (Units=GPa)
#
#
# Indices 1 2 3 4 5 6 
#
# 1 76.7079 14.8800 51.2075 -2.0025 11.8543 -3.5175
# 2 14.8800 122.2282 77.3842 2.5809 27.1970 -7.6450
# 3 51.2075 77.3842 168.7486 -13.5499 38.3991 -12.6923
# 4 -2.0025 2.5809 -13.5499 33.4485 0.3316 3.0011
# 5 11.8543 27.1970 38.3991 0.3316 44.8779 -0.7894
# 6 -3.5175 -7.6450 -12.6923 3.0011 -0.7894 34.0623
#
#
#
# Elastic Compliance Matrix: (Units=1/GPa)
#
#
# Indices 1 2 3 4 5 6 
#
# 1 0.016664 0.001860 -0.005929 -0.001548 -0.000443 0.000055
# 2 0.001860 0.012401 -0.005736 -0.003233 -0.003056 0.001052
# 3 -0.005929 -0.005736 0.012112 0.004862 -0.005321 0.002062
# 4 -0.001548 -0.003233 0.004862 0.032219 -0.002064 -0.001961
# 5 -0.000443 -0.003056 -0.005321 -0.002064 0.028787 -0.001865
# 6 0.000055 0.001052 0.002062 -0.001961 -0.001865 0.030498
#
#
# Mechanical properties :
#
#
# Convention : Reuss Voigt Hill
#
# Bulk Modulus (GPa) = 46.36902 72.73645 59.55274
# Shear Modulus (GPa) = 31.35191 37.42525 34.38858
#
# Velocity S-wave (km/s) = 3.66463 4.00387 3.83800
# Velocity P-wave (km/s) = 6.14557 7.24784 6.71934
#
# Compressibility (1/GPa) = 0.02156612
#
# Stress axis : x y z
#
# Youngs Moduli (GPa) = 60.00840 80.64074 82.56403
#
# Poissons Ratio (x) = -0.14998 0.48952
# Poissons Ratio (y) = -0.11160 0.47360
# Poissons Ratio (z) = 0.35579 0.46257
#
# Static dielectric constant tensor:
#      x y z
#    x 2.346310 -0.029860 0.218990 
#    y -0.029860 2.333860 0.290280 
#    z 0.218990 0.290280 2.296790 
# 
# From -- ./inp_files/261862.got.cif
#   From: 2010.05.17/outbox.cif.g08.bks.cpg/sg2_131_cif.got.tgz:261862.got - 2010.06.03 11:33:40.
