data_PCOD9087406
_publ_section_title
;
Structure prediction by ZEFSAII (Michael W. Deem and Ramdas Pophale) SiO2 
 PCOD9087406
Probable space group: P -1
;
_chemical_formula_sum "Si O2"
_cell_formula_units_Z 14
_cell_length_a 14.346991
_cell_length_b 10.769663
_cell_length_c 12.079029
_cell_angle_alpha 139.192196
_cell_angle_beta 30.307216
_cell_angle_gamma 137.211870
_cell_volume 596.934061
_symmetry_space_group_name_H-M "P -1"
_symmetry_group_IT_number 2
_symmetry_cell_setting 'triclinic'
loop_
_space_group_symop_operation_xyz
x,y,z
-x,-y,-z
loop_
_atom_site_type_symbol
_atom_site_label
_atom_site_fract_x
_atom_site_fract_y
_atom_site_fract_z
Si Si1 0.403325 0.257977 0.870121
Si Si2 0.228132 0.477534 0.378129
Si Si3 0.228362 0.291284 0.473026
Si Si4 0.087517 0.914120 0.957394
Si Si5 0.599989 0.213992 0.090490
Si Si6 0.846480 0.509337 0.861384
Si Si7 0.895550 0.089930 0.818779
O O1 0.326421 0.325456 0.110622
O O2 0.305003 0.389410 0.976115
O O3 0.631208 0.320130 0.670651
O O4 0.309024 0.028645 0.798406
O O5 0.260077 0.458737 0.463008
O O6 0.999415 0.442128 0.578324
O O7 0.423260 0.307521 0.348260
O O8 0.060866 0.257975 0.709410
O O9 0.160533 0.096896 0.331875
O O10 0.992911 0.685465 0.892561
O O11 0.039278 0.965244 0.166242
O O12 0.000000 0.000000 0.000000
O O13 0.740204 0.338291 0.937225
O O14 0.711644 0.180152 0.062822
O O15 0.500000 0.000000 0.000000
#
# Coordination Sequence:
#
# PCOD9087406 Si02
#       7
#     2   2   2   2   2   2   2
#     4  10  22  39  61  87 125 158 206 251 292 357
#     4  11  20  36  64  90 116 159 205 254 300 344
#     4  10  19  36  63  91 116 153 204 254 301 352
#     4  10  23  42  63  85 128 169 196 243 304 369
#     4  10  21  35  60  91 119 151 198 257 300 351
#     4  11  22  39  58  91 123 158 203 244 304 365
#     4  10  20  39  62  87 121 157 200 249 306 352
#
# _framework density 23.453175999999999
#
# number of rings (size 3 to 8) (size 9 to 14) (size 15 to 20)
#    0.000    1.714    4.286    0.429    0.000    1.143 
#    0.000    6.429    0.000    0.000    0.000    0.000 
#    0.000    0.000    0.000    0.000    0.000    0.000 
#
# Total GULP energy -77993.772999 kJ/mol
# GULP energy per Si atom -5570.983786 kJ/mol
# Density = 2.339980 g / cm^3
# Si number density = 23.453176 Si / 1000 Ang^3
#
#
#
# Elastic Constant Matrix: (Units=GPa)
#
#
# Indices 1 2 3 4 5 6 
#
# 1 89.6707 5.0762 31.4700 -7.1247 3.7755 0.0537
# 2 5.0762 121.9806 29.0602 -40.3775 5.9273 12.5288
# 3 31.4700 29.0602 65.1389 -28.1299 -13.5354 4.6409
# 4 -7.1247 -40.3775 -28.1299 39.9177 -0.5773 -0.2340
# 5 3.7755 5.9273 -13.5354 -0.5773 29.1647 -6.9748
# 6 0.0537 12.5288 4.6409 -0.2340 -6.9748 20.3390
#
#
#
# Elastic Compliance Matrix: (Units=1/GPa)
#
#
# Indices 1 2 3 4 5 6 
#
# 1 0.014931 0.001097 -0.010961 -0.004064 -0.007525 -0.000841
# 2 0.001097 0.014335 -0.001667 0.013373 -0.006045 -0.010372
# 3 -0.010961 -0.001667 0.034020 0.020587 0.017873 -0.000340
# 4 -0.004064 0.013373 0.020587 0.052386 0.005940 -0.010285
# 5 -0.007525 -0.006045 0.017873 0.005940 0.048845 0.016484
# 6 -0.000841 -0.010372 -0.000340 -0.010285 0.016484 0.061170
#
#
# Mechanical properties :
#
#
# Convention : Reuss Voigt Hill
#
# Bulk Modulus (GPa) = 24.86172 45.33366 35.09769
# Shear Modulus (GPa) = 19.07232 31.96322 25.51777
#
# Velocity S-wave (km/s) = 2.85477 3.69569 3.30211
# Velocity P-wave (km/s) = 4.63572 6.13043 5.43471
#
# Compressibility (1/GPa) = 0.04022248
#
# Stress axis : x y z
#
# Youngs Moduli (GPa) = 66.97390 69.75741 29.39458
#
# Poissons Ratio (x) = -0.07652 0.32221
# Poissons Ratio (y) = -0.07347 0.04902
# Poissons Ratio (z) = 0.73413 0.11632
#
# Static dielectric constant tensor:
#      x y z
#    x 1.910310 -0.004480 -0.007870 
#    y -0.004480 2.138280 0.152170 
#    z -0.007870 0.152170 1.988950 
# 
# From -- ./inp_files/297874.got.cif
#   From: 2010.05.17/outbox.cif.g08.bks.cpg/sg2_149_cif.got.tgz:297874.got - 2010.06.03 11:33:40.
