data_PCOD9087281
_publ_section_title
;
Structure prediction by ZEFSAII (Michael W. Deem and Ramdas Pophale) SiO2 
 PCOD9087281
Probable space group: P -1
;
_chemical_formula_sum "Si O2"
_cell_formula_units_Z 12
_cell_length_a 8.269527
_cell_length_b 7.964630
_cell_length_c 11.833809
_cell_angle_alpha 108.489057
_cell_angle_beta 39.520595
_cell_angle_gamma 115.816203
_cell_volume 446.244992
_symmetry_space_group_name_H-M "P -1"
_symmetry_group_IT_number 2
_symmetry_cell_setting 'triclinic'
loop_
_space_group_symop_operation_xyz
x,y,z
-x,-y,-z
loop_
_atom_site_type_symbol
_atom_site_label
_atom_site_fract_x
_atom_site_fract_y
_atom_site_fract_z
Si Si1 0.346318 0.943400 0.836719
Si Si2 0.356835 0.589571 0.002021
Si Si3 0.913693 0.809290 0.663353
Si Si4 0.202248 0.264674 0.838921
Si Si5 0.379582 0.783106 0.554098
Si Si6 0.075128 0.814198 0.333466
O O1 0.349543 0.791335 0.706524
O O2 0.275324 0.110971 0.845952
O O3 0.632065 0.052130 0.756698
O O4 0.114605 0.840877 0.027980
O O5 0.612286 0.756123 0.856989
O O6 0.248492 0.445894 0.928963
O O7 0.500000 0.500000 0.000000
O O8 0.127049 0.656250 0.196373
O O9 0.093988 0.729608 0.631932
O O10 0.924161 0.738090 0.514913
O O11 0.036495 0.034245 0.633694
O O12 0.414275 0.309975 0.631812
O O13 0.500000 0.000000 0.500000
#
# Coordination Sequence:
#
# PCOD9087281 Si02
#       6
#     2   2   2   2   2   2
#     4  10  20  39  64  92 119 165 213 256 301 379
#     4  12  23  40  64  98 127 164 211 264 314 367
#     4  11  24  41  64  94 131 166 208 259 316 382
#     4  10  21  36  62  93 121 156 214 260 303 358
#     4  10  19  36  62  93 114 164 214 249 300 367
#     4  11  24  42  65  96 127 169 205 259 326 368
#
# _framework density 26.891058999999998
#
# number of rings (size 3 to 8) (size 9 to 14) (size 15 to 20)
#    0.000    1.333    5.000    1.500    4.667    4.000 
#    0.000    0.833    0.000    3.000    0.000    0.000 
#    0.000    0.000    0.000    0.000    0.000    0.000 
#
# Total GULP energy -67282.899887 kJ/mol
# GULP energy per Si atom -5606.908324 kJ/mol
# Density = 2.682985 g / cm^3
# Si number density = 26.891059 Si / 1000 Ang^3
#
#
#
# Elastic Constant Matrix: (Units=GPa)
#
#
# Indices 1 2 3 4 5 6 
#
# 1 94.9645 10.5526 21.3071 0.9784 -11.6693 0.9409
# 2 10.5526 60.5154 23.7694 22.7866 9.5003 0.3018
# 3 21.3071 23.7694 150.4331 48.8473 6.8625 -3.0313
# 4 0.9784 22.7866 48.8473 55.3149 11.6596 4.6290
# 5 -11.6693 9.5003 6.8625 11.6596 40.8351 -3.4833
# 6 0.9409 0.3018 -3.0313 4.6290 -3.4833 30.1774
#
#
#
# Elastic Compliance Matrix: (Units=1/GPa)
#
#
# Indices 1 2 3 4 5 6 
#
# 1 0.011712 -0.002531 -0.002054 0.001904 0.003702 -0.000411
# 2 -0.002531 0.020397 -0.000273 -0.007487 -0.003232 0.000623
# 3 -0.002054 -0.000273 0.009905 -0.008928 0.000574 0.002497
# 4 0.001904 -0.007487 -0.008928 0.030695 -0.005509 -0.006226
# 5 0.003702 -0.003232 0.000574 -0.005509 0.028122 0.004066
# 6 -0.000411 0.000623 0.002497 -0.006226 0.004066 0.034819
#
#
# Mechanical properties :
#
#
# Convention : Reuss Voigt Hill
#
# Bulk Modulus (GPa) = 30.96347 46.35234 38.65790
# Shear Modulus (GPa) = 32.02411 41.95109 36.98760
#
# Velocity S-wave (km/s) = 3.45466 3.95402 3.71274
# Velocity P-wave (km/s) = 5.23950 6.17415 5.72593
#
# Compressibility (1/GPa) = 0.03229612
#
# Stress axis : x y z
#
# Youngs Moduli (GPa) = 85.38361 49.02686 100.96288
#
# Poissons Ratio (x) = 0.12411 0.20739
# Poissons Ratio (y) = 0.21614 0.02757
# Poissons Ratio (z) = 0.17539 0.01339
#
# Static dielectric constant tensor:
#      x y z
#    x 2.187020 -0.040460 -0.000610 
#    y -0.040460 2.065730 0.029830 
#    z -0.000610 0.029830 2.124440 
# 
# From -- ./inp_files/191169.got.cif
#   From: 2010.05.17/outbox.cif.g08.bks.cpg/sg2_96_cif.got.tgz:191169.got - 2010.06.03 11:33:40.
