data_PCOD9087379
_publ_section_title
;
Structure prediction by ZEFSAII (Michael W. Deem and Ramdas Pophale) SiO2 
 PCOD9087379
Probable space group: P -1
;
_chemical_formula_sum "Si O2"
_cell_formula_units_Z 12
_cell_length_a 15.821304
_cell_length_b 9.322463
_cell_length_c 5.619389
_cell_angle_alpha 49.749708
_cell_angle_beta 119.644059
_cell_angle_gamma 126.373322
_cell_volume 500.893337
_symmetry_space_group_name_H-M "P -1"
_symmetry_group_IT_number 2
_symmetry_cell_setting 'triclinic'
loop_
_space_group_symop_operation_xyz
x,y,z
-x,-y,-z
loop_
_atom_site_type_symbol
_atom_site_label
_atom_site_fract_x
_atom_site_fract_y
_atom_site_fract_z
Si Si1 0.591138 0.076219 0.349388
Si Si2 0.123383 0.541837 0.128629
Si Si3 0.169332 0.595050 0.632226
Si Si4 0.109145 0.972267 0.169399
Si Si5 0.780354 0.969079 0.237490
Si Si6 0.450941 0.257235 0.700716
O O1 0.708924 0.237491 0.400774
O O2 0.500000 0.000000 0.500000
O O3 0.593664 0.870044 0.466144
O O4 0.545537 0.192686 0.976243
O O5 0.151994 0.475814 0.985602
O O6 0.195577 0.787986 0.974053
O O7 0.143475 0.464704 0.494532
O O8 0.000000 0.500000 0.000000
O O9 0.099851 0.733877 0.403335
O O10 0.172997 0.061988 0.409261
O O11 0.163609 0.054745 0.900445
O O12 0.000000 0.000000 0.000000
O O13 0.654368 0.832526 0.187308
O O14 0.500000 0.500000 0.500000
#
# Coordination Sequence:
#
# PCOD9087379 Si02
#       6
#     2   2   2   2   2   2
#     4  11  23  44  76  99 143 190 232 300 363 421
#     4  10  19  36  63  88 125 174 224 279 341 409
#     4  10  21  38  63  94 131 174 227 287 344 419
#     4  10  19  36  64  87 125 178 221 277 351 401
#     4  10  21  41  62  90 135 172 224 293 341 415
#     4  11  25  45  72 105 141 187 240 293 363 431
#
# _framework density 23.957198000000002
#
# number of rings (size 3 to 8) (size 9 to 14) (size 15 to 20)
#    0.000    1.667    3.333    3.000    2.333    0.667 
#    0.000   10.000    0.000    0.000    0.000    0.000 
#    0.000    0.000    0.000    0.000    0.000    0.000 
#
# Total GULP energy -67069.602084 kJ/mol
# GULP energy per Si atom -5589.133507 kJ/mol
# Density = 2.390267 g / cm^3
# Si number density = 23.957198 Si / 1000 Ang^3
#
#
#
# Elastic Constant Matrix: (Units=GPa)
#
#
# Indices 1 2 3 4 5 6 
#
# 1 145.9478 27.2355 50.6896 15.2107 -28.1281 -6.7326
# 2 27.2355 89.5466 73.1417 1.3112 -10.8687 2.0174
# 3 50.6896 73.1417 77.9932 33.6783 -8.8488 -25.6973
# 4 15.2107 1.3112 33.6783 61.6426 -15.6610 -2.7886
# 5 -28.1281 -10.8687 -8.8488 -15.6610 53.5912 12.6608
# 6 -6.7326 2.0174 -25.6973 -2.7886 12.6608 43.1798
#
#
#
# Elastic Compliance Matrix: (Units=1/GPa)
#
#
# Indices 1 2 3 4 5 6 
#
# 1 0.006580 -0.008298 0.007673 -0.005347 0.000155 0.005590
# 2 -0.008298 -0.015627 0.033759 -0.018239 -0.012480 0.022008
# 3 0.007673 0.033759 -0.041205 0.023070 0.017560 -0.028562
# 4 -0.005347 -0.018239 0.023070 0.004765 -0.004969 0.015512
# 5 0.000155 -0.012480 0.017560 -0.004969 0.016246 0.005973
# 6 0.005590 0.022008 -0.028562 0.015512 0.005973 0.005255
#
#
# Mechanical properties :
#
#
# Convention : Reuss Voigt Hill
#
# Bulk Modulus (GPa) = 62.42969 68.40235 65.41602
# Shear Modulus (GPa) = -58.88253 42.51077 -8.18588
#
# Velocity S-wave (km/s) = -4.96302 4.21699 -1.85049
# Velocity P-wave (km/s) = 2.59359 7.23357 4.77482
#
# Compressibility (1/GPa) = 0.01601802
#
# Stress axis : x y z
#
# Youngs Moduli (GPa) = 151.97327 -63.99257 -24.26908
#
# Poissons Ratio (x) = -0.53100 0.18623
# Poissons Ratio (y) = 1.26106 0.81930
# Poissons Ratio (z) = -1.16616 2.16033
#
# Static dielectric constant tensor:
#      x y z
#    x 1.947340 -0.008540 -0.066650 
#    y -0.008540 1.923960 0.071600 
#    z -0.066650 0.071600 2.004120 
# 
# From -- ./inp_files/42987.got.cif
#   From: 2010.05.17/outbox.cif.g08.bks.cpg/sg2_22_cif.got.tgz:42987.got - 2010.06.03 11:33:40.
