data_PCOD9087656
_publ_section_title
;
Structure prediction by ZEFSAII (Michael W. Deem and Ramdas Pophale) SiO2 
 PCOD9087656
Probable space group: P -1
;
_chemical_formula_sum "Si O2"
_cell_formula_units_Z 16
_cell_length_a 24.365591
_cell_length_b 11.771543
_cell_length_c 11.792578
_cell_angle_alpha 37.824247
_cell_angle_beta 140.390507
_cell_angle_gamma 163.568826
_cell_volume 585.122757
_symmetry_space_group_name_H-M "P -1"
_symmetry_group_IT_number 2
_symmetry_cell_setting 'triclinic'
loop_
_space_group_symop_operation_xyz
x,y,z
-x,-y,-z
loop_
_atom_site_type_symbol
_atom_site_label
_atom_site_fract_x
_atom_site_fract_y
_atom_site_fract_z
Si Si1 0.879197 0.472454 0.190702
Si Si2 0.680737 0.763883 0.235055
Si Si3 0.869656 0.613587 0.307147
Si Si4 0.254870 0.795276 0.172308
Si Si5 0.135291 0.145122 0.692288
Si Si6 0.616675 0.625602 0.490895
Si Si7 0.870850 0.290766 0.724313
Si Si8 0.295363 0.598471 0.215478
O O1 0.869482 0.590479 0.189963
O O2 0.083711 0.821916 0.174380
O O3 0.807353 0.132677 0.390997
O O4 0.743992 0.312929 0.006788
O O5 0.688523 0.597861 0.301654
O O6 0.565820 0.543472 0.342117
O O7 0.909420 0.228529 0.266598
O O8 0.645747 0.865733 0.017722
O O9 0.781546 0.595588 0.267463
O O10 0.815196 0.316939 0.512466
O O11 0.094875 0.097807 0.307928
O O12 0.251352 0.877220 0.227329
O O13 0.336893 0.762378 0.275977
O O14 0.021201 0.312265 0.155531
O O15 0.000000 0.000000 0.500000
O O16 0.500000 0.500000 0.500000
O O17 0.587008 0.348128 0.687326
#
# Coordination Sequence:
#
# PCOD9087656 Si02
#       8
#     2   2   2   2   2   2   2   2
#     4  11  23  38  51  86 124 150 181 223 280 346
#     4  10  17  33  49  77 111 137 183 236 264 316
#     4  11  20  32  55  85 126 153 171 216 287 356
#     4  10  18  29  51  82 113 143 178 221 276 332
#     4  10  16  27  50  82 113 145 179 213 272 340
#     4  11  24  41  59  78 105 150 199 242 274 313
#     4  10  17  30  51  81 119 149 169 211 278 340
#     4  11  21  36  57  82 116 147 183 228 283 337
#
# _framework density 27.344688000000001
#
# number of rings (size 3 to 8) (size 9 to 14) (size 15 to 20)
#    0.000    1.500    7.500    3.000    1.750    0.500 
#    0.000    0.000    0.000    0.750    0.000    1.750 
#    0.000    0.000    0.000    0.000    0.000    0.000 
#
# Total GULP energy -89195.742800 kJ/mol
# GULP energy per Si atom -5574.733925 kJ/mol
# Density = 2.728245 g / cm^3
# Si number density = 27.344688 Si / 1000 Ang^3
#
#
#
# Elastic Constant Matrix: (Units=GPa)
#
#
# Indices 1 2 3 4 5 6 
#
# 1 336.8775 28.5801 64.8043 6.8974 -16.5016 3.1945
# 2 28.5801 57.5013 5.5186 -3.7065 -4.2238 -15.4801
# 3 64.8043 5.5186 116.0870 -2.4334 4.4536 -0.7741
# 4 6.8974 -3.7065 -2.4334 16.2880 1.6923 -3.9125
# 5 -16.5016 -4.2238 4.4536 1.6923 41.8368 0.6011
# 6 3.1945 -15.4801 -0.7741 -3.9125 0.6011 42.0764
#
#
#
# Elastic Compliance Matrix: (Units=1/GPa)
#
#
# Indices 1 2 3 4 5 6 
#
# 1 0.003697 -0.002070 -0.002096 -0.002846 0.001607 -0.001368
# 2 -0.002070 0.021297 0.000331 0.007775 0.000859 0.008709
# 3 -0.002096 0.000331 0.009909 0.002830 -0.001973 0.000755
# 4 -0.002846 0.007775 0.002830 0.067425 -0.003502 0.009448
# 5 0.001607 0.000859 -0.001973 -0.003502 0.024982 -0.000525
# 6 -0.001368 0.008709 0.000755 0.009448 -0.000525 0.027974
#
#
# Mechanical properties :
#
#
# Convention : Reuss Voigt Hill
#
# Bulk Modulus (GPa) = 36.71998 78.69687 57.70843
# Shear Modulus (GPa) = 29.06435 47.47776 38.27105
#
# Velocity S-wave (km/s) = 3.26373 4.17138 3.74515
# Velocity P-wave (km/s) = 5.25931 7.21405 6.31280
#
# Compressibility (1/GPa) = 0.02723313
#
# Stress axis : x y z
#
# Youngs Moduli (GPa) = 270.47247 46.95501 100.92273
#
# Poissons Ratio (x) = 0.09721 0.21153
# Poissons Ratio (y) = 0.55995 -0.03345
# Poissons Ratio (z) = 0.56690 -0.01556
#
# Static dielectric constant tensor:
#      x y z
#    x 2.381010 0.110920 0.126660 
#    y 0.110920 2.344550 0.058340 
#    z 0.126660 0.058340 2.153340 
# 
# From -- ./inp_files/470625.got.cif
#   From: 2010.05.17/outbox.cif.g08.bks.cpg/sg2_236_cif.got.tgz:470625.got - 2010.06.03 11:33:40.
