data_PCOD9087200
_publ_section_title
;
Structure prediction by ZEFSAII (Michael W. Deem and Ramdas Pophale) SiO2 
 PCOD9087200
Probable space group: P -1
;
_chemical_formula_sum "Si O2"
_cell_formula_units_Z 14
_cell_length_a 10.295395
_cell_length_b 19.383917
_cell_length_c 8.190118
_cell_angle_alpha 47.145750
_cell_angle_beta 43.667980
_cell_angle_gamma 33.375109
_cell_volume 608.262998
_symmetry_space_group_name_H-M "P -1"
_symmetry_group_IT_number 2
_symmetry_cell_setting 'triclinic'
loop_
_space_group_symop_operation_xyz
x,y,z
-x,-y,-z
loop_
_atom_site_type_symbol
_atom_site_label
_atom_site_fract_x
_atom_site_fract_y
_atom_site_fract_z
Si Si1 0.858465 0.752212 0.812106
Si Si2 0.582818 0.372142 0.052802
Si Si3 0.734651 0.042599 0.884369
Si Si4 0.948323 0.669140 0.362692
Si Si5 0.124140 0.823339 0.633432
Si Si6 0.757183 0.881887 0.366880
Si Si7 0.957303 0.475931 0.823208
O O1 0.895163 0.783463 0.550249
O O2 0.053246 0.745298 0.756935
O O3 0.570617 0.863097 0.965477
O O4 0.927169 0.619204 0.978248
O O5 0.647202 0.271825 0.291651
O O6 0.351646 0.420445 0.070633
O O7 0.500000 0.500000 0.000000
O O8 0.850967 0.313212 0.830040
O O9 0.801403 0.128891 0.652515
O O10 0.872722 0.946555 0.758518
O O11 0.846700 0.947154 0.090672
O O12 0.700906 0.814803 0.398428
O O13 0.028087 0.558626 0.588815
O O14 0.950100 0.617485 0.269320
O O15 0.500000 0.000000 0.500000
#
# Coordination Sequence:
#
# PCOD9087200 Si02
#       7
#     2   2   2   2   2   2   2
#     4  11  22  38  62  86 124 159 200 242 304 366
#     4  10  19  36  62  88 124 143 194 264 300 343
#     4  10  23  39  59  88 119 160 209 252 293 346
#     4  10  20  39  63  86 123 156 198 253 300 346
#     4  11  21  38  64  89 117 156 208 256 297 346
#     4  10  22  43  59  85 129 167 195 244 298 365
#     4  10  22  36  65  95 112 157 204 250 306 349
#
# _framework density 23.016358
#
# number of rings (size 3 to 8) (size 9 to 14) (size 15 to 20)
#    0.000    1.714    4.286    0.429    6.000    2.286 
#    5.143    3.571    0.000    0.000    0.000    0.000 
#    0.000    0.000    0.000    0.000    0.000    0.000 
#
# Total GULP energy -78044.068727 kJ/mol
# GULP energy per Si atom -5574.576338 kJ/mol
# Density = 2.296397 g / cm^3
# Si number density = 23.016358 Si / 1000 Ang^3
#
#
#
# Elastic Constant Matrix: (Units=GPa)
#
#
# Indices 1 2 3 4 5 6 
#
# 1 16.1516 15.7831 16.8713 0.1015 -1.4190 -2.4790
# 2 15.7831 87.4034 41.2481 -26.0210 1.4405 3.8880
# 3 16.8713 41.2481 192.9906 -38.9927 6.4034 -4.3772
# 4 0.1015 -26.0210 -38.9927 49.1443 0.9795 4.1102
# 5 -1.4190 1.4405 6.4034 0.9795 25.2161 -6.8760
# 6 -2.4790 3.8880 -4.3772 4.1102 -6.8760 30.3599
#
#
#
# Elastic Compliance Matrix: (Units=1/GPa)
#
#
# Indices 1 2 3 4 5 6 
#
# 1 0.092056 -0.019165 -0.007662 -0.017858 0.012781 0.014179
# 2 -0.019165 0.018387 -0.000190 0.010233 -0.004191 -0.006282
# 3 -0.007662 -0.000190 0.007110 0.005691 -0.002709 -0.000960
# 4 -0.017858 0.010233 0.005691 0.031079 -0.006310 -0.007585
# 5 0.012781 -0.004191 -0.002709 -0.006310 0.044878 0.012208
# 6 0.014179 -0.006282 -0.000960 -0.007585 0.012208 0.038554
#
#
# Mechanical properties :
#
#
# Convention : Reuss Voigt Hill
#
# Bulk Modulus (GPa) = 15.74360 49.37228 32.55794
# Shear Modulus (GPa) = 16.27236 35.78695 26.02965
#
# Velocity S-wave (km/s) = 2.66181 3.94743 3.36656
# Velocity P-wave (km/s) = 4.03758 6.50183 5.41183
#
# Compressibility (1/GPa) = 0.06351789
#
# Stress axis : x y z
#
# Youngs Moduli (GPa) = 10.86299 54.38693 140.64829
#
# Poissons Ratio (x) = 1.04233 1.07763
# Poissons Ratio (y) = 0.20819 0.02677
# Poissons Ratio (z) = 0.08323 0.01035
#
# Static dielectric constant tensor:
#      x y z
#    x 1.748340 -0.178420 0.061420 
#    y -0.178420 1.878820 0.151640 
#    z 0.061420 0.151640 1.966970 
# 
# From -- ./inp_files/284011.got.cif
#   From: 2010.05.17/outbox.cif.g08.bks.cpg/sg2_143_cif.got.tgz:284011.got - 2010.06.03 11:33:40.
