data_PCOD9087388
_publ_section_title
;
Structure prediction by ZEFSAII (Michael W. Deem and Ramdas Pophale) SiO2 
 PCOD9087388
Probable space group: P -1
;
_chemical_formula_sum "Si O2"
_cell_formula_units_Z 10
_cell_length_a 11.401924
_cell_length_b 11.193230
_cell_length_c 7.494425
_cell_angle_alpha 57.909287
_cell_angle_beta 86.505595
_cell_angle_gamma 46.826123
_cell_volume 515.259953
_symmetry_space_group_name_H-M "P -1"
_symmetry_group_IT_number 2
_symmetry_cell_setting 'triclinic'
loop_
_space_group_symop_operation_xyz
x,y,z
-x,-y,-z
loop_
_atom_site_type_symbol
_atom_site_label
_atom_site_fract_x
_atom_site_fract_y
_atom_site_fract_z
Si Si1 0.471857 0.588400 0.233892
Si Si2 0.283118 0.588446 0.957098
Si Si3 0.405033 0.945226 0.117372
Si Si4 0.927794 0.724251 0.868691
Si Si5 0.553568 0.109782 0.449847
O O1 0.500000 0.500000 0.500000
O O2 0.316617 0.658813 0.067660
O O3 0.424757 0.795923 0.104160
O O4 0.657338 0.397139 0.248013
O O5 0.090010 0.687163 0.893025
O O6 0.438825 0.323715 0.176499
O O7 0.500610 0.813493 0.399989
O O8 0.500000 0.000000 0.000000
O O9 0.195025 0.166165 0.026022
O O10 0.000000 0.500000 0.000000
O O11 0.775172 0.911618 0.587143
O O12 0.500000 0.000000 0.500000
#
# Coordination Sequence:
#
# PCOD9087388 Si02
#       5
#     2   2   2   2   2
#     4  11  22  42  65  92 128 168 208 261 317 371
#     4  11  22  41  66  89 127 171 205 260 317 368
#     4  10  21  38  62  92 129 158 209 264 302 371
#     4  10  20  36  64  93 126 165 213 254 311 378
#     4  10  19  36  63  89 126 160 203 257 310 358
#
# _framework density 19.407682000000001
#
# number of rings (size 3 to 8) (size 9 to 14) (size 15 to 20)
#    1.200    0.400    4.000    2.400    0.000    0.800 
#    0.000   14.000    0.000    0.000    0.000    0.000 
#    0.000    0.000    0.000    0.000    0.000    0.000 
#
# Total GULP energy -55701.900568 kJ/mol
# GULP energy per Si atom -5570.190057 kJ/mol
# Density = 1.936351 g / cm^3
# Si number density = 19.407682 Si / 1000 Ang^3
#
#
#
# Elastic Constant Matrix: (Units=GPa)
#
#
# Indices 1 2 3 4 5 6 
#
# 1 198.0908 75.9803 33.1779 3.5893 21.8255 -1.0184
# 2 75.9803 111.3296 34.3138 16.0948 7.6525 8.8528
# 3 33.1779 34.3138 70.1833 10.6447 5.1708 -9.5565
# 4 3.5893 16.0948 10.6447 38.1899 -1.7549 -3.0756
# 5 21.8255 7.6525 5.1708 -1.7549 28.6282 -3.2189
# 6 -1.0184 8.8528 -9.5565 -3.0756 -3.2189 52.6415
#
#
#
# Elastic Compliance Matrix: (Units=1/GPa)
#
#
# Indices 1 2 3 4 5 6 
#
# 1 0.007474 -0.004754 -0.001048 0.001453 -0.004082 0.000589
# 2 -0.004754 0.014662 -0.004696 -0.004728 -0.000152 -0.003696
# 3 -0.001048 -0.004696 0.018038 -0.002685 -0.000937 0.003830
# 4 0.001453 -0.004728 -0.002685 0.029089 0.002671 0.002199
# 5 -0.004082 -0.000152 -0.000937 0.002671 0.038675 0.002297
# 6 0.000589 -0.003696 0.003830 0.002199 0.002297 0.020594
#
#
# Mechanical properties :
#
#
# Convention : Reuss Voigt Hill
#
# Bulk Modulus (GPa) = 52.14579 74.06084 63.10332
# Shear Modulus (GPa) = 32.06778 39.63404 35.85091
#
# Velocity S-wave (km/s) = 4.06929 4.52395 4.30263
# Velocity P-wave (km/s) = 7.00041 8.09516 7.56761
#
# Compressibility (1/GPa) = 0.01917700
#
# Stress axis : x y z
#
# Youngs Moduli (GPa) = 133.80353 68.20330 55.43949
#
# Poissons Ratio (x) = 0.32423 0.05811
# Poissons Ratio (y) = 0.63608 0.26035
# Poissons Ratio (z) = 0.14026 0.32029
#
# Static dielectric constant tensor:
#      x y z
#    x 1.711790 0.000610 -0.053920 
#    y 0.000610 1.693480 0.032040 
#    z -0.053920 0.032040 1.766380 
# 
# From -- ./inp_files/239409.got.cif
#   From: 2010.05.17/outbox.cif.g08.bks.cpg/sg2_120_cif.got.tgz:239409.got - 2010.06.03 11:33:40.
