data_PCOD9087226
_publ_section_title
;
Structure prediction by ZEFSAII (Michael W. Deem and Ramdas Pophale) SiO2 
 PCOD9087226
Probable space group: P -1
;
_chemical_formula_sum "Si O2"
_cell_formula_units_Z 16
_cell_length_a 7.958479
_cell_length_b 8.557460
_cell_length_c 17.956635
_cell_angle_alpha 57.982150
_cell_angle_beta 50.806867
_cell_angle_gamma 53.297848
_cell_volume 736.653424
_symmetry_space_group_name_H-M "P -1"
_symmetry_group_IT_number 2
_symmetry_cell_setting 'triclinic'
loop_
_space_group_symop_operation_xyz
x,y,z
-x,-y,-z
loop_
_atom_site_type_symbol
_atom_site_label
_atom_site_fract_x
_atom_site_fract_y
_atom_site_fract_z
Si Si1 0.550948 0.490263 0.576386
Si Si2 0.753483 0.810613 0.479787
Si Si3 0.540253 0.085399 0.705903
Si Si4 0.870442 0.943014 0.883524
Si Si5 0.688598 0.384568 0.238765
Si Si6 0.079263 0.235088 0.707207
Si Si7 0.366910 0.169853 0.891784
Si Si8 0.227552 0.307000 0.336214
O O1 0.500000 0.500000 0.500000
O O2 0.714483 0.609390 0.518675
O O3 0.640994 0.257737 0.634086
O O4 0.335841 0.597122 0.668915
O O5 0.921847 0.826638 0.363359
O O6 0.841188 0.778648 0.547680
O O7 0.500000 0.000000 0.500000
O O8 0.352762 0.147208 0.675300
O O9 0.384720 0.104752 0.817748
O O10 0.722899 0.860759 0.697772
O O11 0.070075 0.777734 0.819818
O O12 0.619493 0.028303 0.891020
O O13 0.831755 0.856336 0.995099
O O14 0.947827 0.128907 0.820034
O O15 0.657226 0.601224 0.161300
O O16 0.471103 0.332212 0.283235
O O17 0.958309 0.473792 0.688334
#
# Coordination Sequence:
#
# PCOD9087226 Si02
#       8
#     2   2   2   2   2   2   2   2
#     4  10  19  36  62  89 127 160 197 251 307 358
#     4  11  20  39  65  91 124 171 207 245 307 375
#     4  11  23  41  61  90 129 161 200 267 307 359
#     4  11  22  42  68  90 118 167 210 257 319 371
#     4  10  20  39  67  88 122 165 207 252 307 378
#     4  12  22  38  65  90 124 168 209 250 308 372
#     4  10  24  42  64  93 124 153 214 269 311 370
#     4  11  22  39  60  94 126 163 210 247 302 378
#
# _framework density 21.719847000000001
#
# number of rings (size 3 to 8) (size 9 to 14) (size 15 to 20)
#    0.000    1.250    5.000    1.500    0.000    2.500 
#    0.000    1.250    0.000    0.000    0.000    0.000 
#    0.000    0.000    0.000    0.000    0.000    0.000 
#
# Total GULP energy -89445.869371 kJ/mol
# GULP energy per Si atom -5590.366836 kJ/mol
# Density = 2.167041 g / cm^3
# Si number density = 21.719847 Si / 1000 Ang^3
#
#
#
# Elastic Constant Matrix: (Units=GPa)
#
#
# Indices 1 2 3 4 5 6 
#
# 1 30.0563 1.0989 12.8931 4.5804 1.1203 1.8975
# 2 1.0989 149.4320 50.4675 14.9857 6.2175 -0.4832
# 3 12.8931 50.4675 155.1713 -5.7917 2.5596 9.6012
# 4 4.5804 14.9857 -5.7917 28.0604 -0.9228 -0.7781
# 5 1.1203 6.2175 2.5596 -0.9228 27.2704 3.9805
# 6 1.8975 -0.4832 9.6012 -0.7781 3.9805 29.4647
#
#
#
# Elastic Compliance Matrix: (Units=1/GPa)
#
#
# Indices 1 2 3 4 5 6 
#
# 1 0.036147 0.001865 -0.003808 -0.007766 -0.001664 -0.001037
# 2 0.001865 0.008367 -0.003118 -0.005451 -0.002046 0.001166
# 3 -0.003808 -0.003118 0.008060 0.003903 0.000595 -0.002410
# 4 -0.007766 -0.005451 0.003903 0.040703 0.002593 -0.000137
# 5 -0.001664 -0.002046 0.000595 0.002593 0.037993 -0.005184
# 6 -0.001037 0.001166 -0.002410 -0.000137 -0.005184 0.035507
#
#
# Mechanical properties :
#
#
# Convention : Reuss Voigt Hill
#
# Bulk Modulus (GPa) = 23.55626 51.50875 37.53251
# Shear Modulus (GPa) = 26.17106 34.97246 30.57176
#
# Velocity S-wave (km/s) = 3.47499 4.01703 3.75580
# Velocity P-wave (km/s) = 5.19324 6.72919 6.01048
#
# Compressibility (1/GPa) = 0.04245156
#
# Stress axis : x y z
#
# Youngs Moduli (GPa) = 27.66462 119.51814 124.06965
#
# Poissons Ratio (x) = -0.22291 0.47250
# Poissons Ratio (y) = -0.05160 0.38685
# Poissons Ratio (z) = 0.10536 0.37266
#
# Static dielectric constant tensor:
#      x y z
#    x 1.830750 -0.008180 0.006480 
#    y -0.008180 1.783580 -0.002570 
#    z 0.006480 -0.002570 1.826910 
# 
# From -- ./inp_files/201075.got.cif
#   From: 2010.05.17/outbox.cif.g08.bks.cpg/sg2_101_cif.got.tgz:201075.got - 2010.06.03 11:33:40.
