data_PCOD9087889
_publ_section_title
;
Structure prediction by ZEFSAII (Michael W. Deem and Ramdas Pophale) SiO2 
 PCOD9087889
Probable space group: P -1
;
_chemical_formula_sum "Si O2"
_cell_formula_units_Z 16
_cell_length_a 10.520153
_cell_length_b 9.282217
_cell_length_c 12.836074
_cell_angle_alpha 50.097951
_cell_angle_beta 59.795820
_cell_angle_gamma 63.941398
_cell_volume 818.080353
_symmetry_space_group_name_H-M "P -1"
_symmetry_group_IT_number 2
_symmetry_cell_setting 'triclinic'
loop_
_space_group_symop_operation_xyz
x,y,z
-x,-y,-z
loop_
_atom_site_type_symbol
_atom_site_label
_atom_site_fract_x
_atom_site_fract_y
_atom_site_fract_z
Si Si1 0.270173 0.804915 0.154737
Si Si2 0.454621 0.931638 0.379806
Si Si3 0.735807 0.853329 0.161656
Si Si4 0.530348 0.553822 0.080721
Si Si5 0.921343 0.700852 0.978883
Si Si6 0.302543 0.091302 0.176130
Si Si7 0.933826 0.955744 0.215898
Si Si8 0.645565 0.181916 0.318062
O O1 0.370767 0.603474 0.181892
O O2 0.342031 0.904738 0.174082
O O3 0.092286 0.823334 0.239853
O O4 0.280935 0.943361 0.986361
O O5 0.583208 0.837278 0.290447
O O6 0.406048 0.799072 0.550336
O O7 0.320475 0.031888 0.315641
O O8 0.527888 0.088294 0.340709
O O9 0.857567 0.860561 0.197836
O O10 0.791874 0.702370 0.117677
O O11 0.641434 0.385070 0.170470
O O12 0.500000 0.500000 0.000000
O O13 0.597426 0.748075 0.960835
O O14 0.856335 0.814028 0.849541
O O15 0.021837 0.839321 0.927068
O O16 0.000000 0.500000 0.000000
O O17 0.800445 0.030024 0.317614
#
# Coordination Sequence:
#
# PCOD9087889 Si02
#       8
#     2   2   2   2   2   2   2   2
#     4  10  20  32  57  80 113 140 181 226 281 329
#     4  10  19  37  56  80 107 154 179 221 282 333
#     4   9  17  33  57  76 104 149 184 211 273 337
#     4  12  20  33  56  91 106 134 188 244 262 308
#     4  10  20  31  53  84 115 135 178 236 274 315
#     4  10  20  35  57  78 112 146 179 220 287 325
#     4   9  18  36  52  77 105 151 178 218 270 337
#     4  10  21  35  59  81 113 137 195 231 264 323
#
# _framework density 19.557981000000002
#
# number of rings (size 3 to 8) (size 9 to 14) (size 15 to 20)
#    0.000    2.250    2.500    3.375    1.750    1.000 
#    0.000    3.125    2.750    2.250    0.000    0.000 
#    0.000    0.000    0.000    0.000    0.000    0.000 
#
# Total GULP energy -89109.597758 kJ/mol
# GULP energy per Si atom -5569.349860 kJ/mol
# Density = 1.951347 g / cm^3
# Si number density = 19.557981 Si / 1000 Ang^3
#
#
#
# Elastic Constant Matrix: (Units=GPa)
#
#
# Indices 1 2 3 4 5 6 
#
# 1 78.9609 31.8628 26.1873 10.2129 10.0491 1.7856
# 2 31.8628 91.1345 11.5042 13.3805 11.0156 -13.3097
# 3 26.1873 11.5042 65.0453 20.8420 19.0641 0.2696
# 4 10.2129 13.3805 20.8420 21.5525 3.3003 -1.0005
# 5 10.0491 11.0156 19.0641 3.3003 15.8351 0.8261
# 6 1.7856 -13.3097 0.2696 -1.0005 0.8261 25.3774
#
#
#
# Elastic Compliance Matrix: (Units=1/GPa)
#
#
# Indices 1 2 3 4 5 6 
#
# 1 0.017094 -0.006220 -0.006830 0.001929 0.001527 -0.004366
# 2 -0.006220 0.017262 0.008074 -0.012749 -0.015615 0.009411
# 3 -0.006830 0.008074 0.039956 -0.033691 -0.042591 0.004349
# 4 0.001929 -0.012749 -0.033691 0.080947 0.031559 -0.004300
# 5 0.001527 -0.015615 -0.042591 0.031559 0.118288 -0.010451
# 6 -0.004366 0.009411 0.004349 -0.004300 -0.010451 0.044773
#
#
# Mechanical properties :
#
#
# Convention : Reuss Voigt Hill
#
# Bulk Modulus (GPa) = 15.53749 41.58325 28.56037
# Shear Modulus (GPa) = 14.29697 23.59208 18.94453
#
# Velocity S-wave (km/s) = 2.70664 3.47690 3.11567
# Velocity P-wave (km/s) = 4.21064 6.11769 5.25146
#
# Compressibility (1/GPa) = 0.06436045
#
# Stress axis : x y z
#
# Youngs Moduli (GPa) = 58.49890 57.93117 25.02772
#
# Poissons Ratio (x) = 0.36032 0.17093
# Poissons Ratio (y) = 0.36385 -0.20207
# Poissons Ratio (z) = 0.39952 -0.46772
#
# Static dielectric constant tensor:
#      x y z
#    x 1.777200 -0.027930 -0.045420 
#    y -0.027930 1.709070 0.012330 
#    z -0.045420 0.012330 1.694680 
# 
# From -- ./inp_files/416264.got.cif
#   From: 2010.05.17/outbox.cif.g08.bks.cpg/sg2_209_cif.got.tgz:416264.got - 2010.06.03 11:33:40.
