data_PCOD9087461
_publ_section_title
;
Structure prediction by ZEFSAII (Michael W. Deem and Ramdas Pophale) SiO2 
 PCOD9087461
Probable space group: P -1
;
_chemical_formula_sum "Si O2"
_cell_formula_units_Z 14
_cell_length_a 18.681727
_cell_length_b 11.901759
_cell_length_c 18.732215
_cell_angle_alpha 26.957134
_cell_angle_beta 158.326788
_cell_angle_gamma 141.512006
_cell_volume 670.943486
_symmetry_space_group_name_H-M "P -1"
_symmetry_group_IT_number 2
_symmetry_cell_setting 'triclinic'
loop_
_space_group_symop_operation_xyz
x,y,z
-x,-y,-z
loop_
_atom_site_type_symbol
_atom_site_label
_atom_site_fract_x
_atom_site_fract_y
_atom_site_fract_z
Si Si1 0.695943 0.005518 0.773649
Si Si2 0.893910 0.939898 0.507488
Si Si3 0.379889 0.426549 0.569208
Si Si4 0.521262 0.687272 0.112868
Si Si5 0.248515 0.919883 0.955141
Si Si6 0.063494 0.215287 0.753649
Si Si7 0.710527 0.099835 0.576683
O O1 0.708109 0.272719 0.668229
O O2 0.783770 0.971498 0.794061
O O3 0.460257 0.024743 0.538527
O O4 0.806520 0.783068 0.055568
O O5 0.797765 0.701977 0.541717
O O6 0.053985 0.897690 0.743372
O O7 0.000000 0.000000 0.500000
O O8 0.696073 0.179688 0.197090
O O9 0.479838 0.312254 0.802510
O O10 0.563405 0.332643 0.736809
O O11 0.600178 0.394995 0.327117
O O12 0.671586 0.850989 0.135119
O O13 0.187113 0.014558 0.924213
O O14 0.000000 0.500000 0.500000
O O15 0.877527 0.115210 0.665972
#
# Coordination Sequence:
#
# PCOD9087461 Si02
#       7
#     2   2   2   2   2   2   2
#     4  10  25  46  67  93 131 176 221 268 319 390
#     4  11  19  34  64  97 126 168 213 267 321 377
#     4  10  21  40  63  93 130 167 215 271 316 379
#     4  10  19  36  63  95 129 159 216 271 314 374
#     4  11  22  38  61  99 128 165 210 268 328 376
#     4  12  26  43  66  97 137 170 216 270 327 394
#     4  10  23  45  69  95 126 178 221 263 326 385
#
# _framework density 20.866137999999999
#
# number of rings (size 3 to 8) (size 9 to 14) (size 15 to 20)
#    0.000    1.429    4.286    1.286    2.000    4.571 
#    2.571    1.429    0.000    0.000    0.000    0.000 
#    0.000    0.000    0.000    0.000    0.000    0.000 
#
# Total GULP energy -78247.252957 kJ/mol
# GULP energy per Si atom -5589.089497 kJ/mol
# Density = 2.081865 g / cm^3
# Si number density = 20.866138 Si / 1000 Ang^3
#
#
#
# Elastic Constant Matrix: (Units=GPa)
#
#
# Indices 1 2 3 4 5 6 
#
# 1 40.3522 -0.7601 -14.4016 -19.1268 13.8073 60.1491
# 2 -0.7601 53.7277 18.9173 9.9131 3.3166 12.1396
# 3 -14.4016 18.9173 44.1895 6.1966 -11.6461 38.0334
# 4 -19.1268 9.9131 6.1966 28.8581 5.8485 15.1754
# 5 13.8073 3.3166 -11.6461 5.8485 37.3656 -3.0490
# 6 60.1491 12.1396 38.0334 15.1754 -3.0490 -5.7392
#
#
#
# Elastic Compliance Matrix: (Units=1/GPa)
#
#
# Indices 1 2 3 4 5 6 
#
# 1 0.006427 0.000972 -0.009484 0.000902 -0.004628 0.011405
# 2 0.000972 0.022961 -0.008273 -0.003301 -0.004649 -0.002326
# 3 -0.009484 -0.008273 0.025117 -0.014128 0.014639 0.004419
# 4 0.000902 -0.003301 -0.014128 0.036241 -0.009330 0.009636
# 5 -0.004628 -0.004649 0.014639 -0.009330 0.034553 -0.004348
# 6 0.011405 -0.002326 0.004419 0.009636 -0.004348 -0.002560
#
#
# Mechanical properties :
#
#
# Convention : Reuss Voigt Hill
#
# Bulk Modulus (GPa) = 47.76755 16.19784 31.98269
# Shear Modulus (GPa) = 30.62118 21.06448 25.84283
#
# Velocity S-wave (km/s) = 3.83496 3.18072 3.52306
# Velocity P-wave (km/s) = 6.52314 4.61182 5.64890
#
# Compressibility (1/GPa) = 0.02093472
#
# Stress axis : x y z
#
# Youngs Moduli (GPa) = 155.60425 43.55301 39.81427
#
# Poissons Ratio (x) = -0.04235 0.37760
# Poissons Ratio (y) = -0.15132 0.32938
# Poissons Ratio (z) = 1.47574 0.36032
#
# Static dielectric constant tensor:
#      x y z
#    x 1.749960 0.004050 0.000450 
#    y 0.004050 1.729510 -0.013540 
#    z 0.000450 -0.013540 1.771420 
# 
# From -- ./inp_files/68754.got.cif
#   From: 2010.05.17/outbox.cif.g08.bks.cpg/sg2_35_cif.got.tgz:68754.got - 2010.06.03 11:33:40.
