data_PCOD9087132
_publ_section_title
;
Structure prediction by ZEFSAII (Michael W. Deem and Ramdas Pophale) SiO2 
 PCOD9087132
Probable space group: P -1
;
_chemical_formula_sum "Si O2"
_cell_formula_units_Z 14
_cell_length_a 5.525461
_cell_length_b 16.232675
_cell_length_c 9.212059
_cell_angle_alpha 130.280585
_cell_angle_beta 114.893493
_cell_angle_gamma 61.135903
_cell_volume 544.659238
_symmetry_space_group_name_H-M "P -1"
_symmetry_group_IT_number 2
_symmetry_cell_setting 'triclinic'
loop_
_space_group_symop_operation_xyz
x,y,z
-x,-y,-z
loop_
_atom_site_type_symbol
_atom_site_label
_atom_site_fract_x
_atom_site_fract_y
_atom_site_fract_z
Si Si1 0.320298 0.129831 0.062586
Si Si2 0.236640 0.050471 0.668643
Si Si3 0.496140 0.358684 0.689213
Si Si4 0.711902 0.570508 0.590869
Si Si5 0.933308 0.428700 0.038197
Si Si6 0.720475 0.838937 0.480339
Si Si7 0.101277 0.867651 0.825182
O O1 0.568452 0.176501 0.125661
O O2 0.094194 0.187714 0.192400
O O3 0.140216 0.118469 0.866808
O O4 0.500000 0.000000 0.000000
O O5 0.322231 0.126565 0.657296
O O6 0.506381 0.941472 0.632291
O O7 0.000000 0.000000 0.500000
O O8 0.461519 0.353761 0.501297
O O9 0.315512 0.485004 0.834301
O O10 0.349316 0.273754 0.627893
O O11 0.799898 0.341366 0.821046
O O12 0.500000 0.500000 0.500000
O O13 0.000000 0.500000 0.500000
O O14 0.823868 0.607289 0.816675
O O15 0.000000 0.500000 0.000000
O O16 0.017713 0.848838 0.619047
O O17 0.000000 0.000000 0.000000
#
# Coordination Sequence:
#
# PCOD9087132 Si02
#       7
#     2   2   2   2   2   2   2
#     4  10  19  36  62  82 111 161 214 258 320 378
#     4  11  23  39  63  86 128 175 220 272 329 387
#     4  10  23  42  64  99 136 172 224 276 334 404
#     4  10  20  40  70  99 126 173 217 264 341 409
#     4  10  20  41  71  93 136 175 213 276 341 404
#     4  11  24  40  61  93 129 173 223 276 325 390
#     4  10  19  38  60  84 117 162 212 260 325 373
#
# _framework density 25.704145
#
# number of rings (size 3 to 8) (size 9 to 14) (size 15 to 20)
#    0.000    1.714    4.286    1.714    2.000    1.143 
#    2.571    1.429    0.000    0.000    0.000    0.000 
#    0.000    0.000    0.000    0.000    0.000    0.000 
#
# Total GULP energy -78200.756866 kJ/mol
# GULP energy per Si atom -5585.768348 kJ/mol
# Density = 2.564564 g / cm^3
# Si number density = 25.704145 Si / 1000 Ang^3
#
#
#
# Elastic Constant Matrix: (Units=GPa)
#
#
# Indices 1 2 3 4 5 6 
#
# 1 133.4310 27.3174 29.4513 -8.7322 21.8873 6.6742
# 2 27.3174 85.4576 48.9279 -15.0184 17.4808 -2.1763
# 3 29.4513 48.9279 172.2818 -34.8496 30.8414 2.9998
# 4 -8.7322 -15.0184 -34.8496 38.5535 -1.0053 -1.0555
# 5 21.8873 17.4808 30.8414 -1.0053 56.1583 -2.6487
# 6 6.6742 -2.1763 2.9998 -1.0555 -2.6487 41.0521
#
#
#
# Elastic Compliance Matrix: (Units=1/GPa)
#
#
# Indices 1 2 3 4 5 6 
#
# 1 0.008514 -0.001940 -0.000230 0.000852 -0.002649 -0.001619
# 2 -0.001940 0.014991 -0.003031 0.002639 -0.002139 0.001261
# 3 -0.000230 -0.003031 0.008690 0.006504 -0.003662 -0.000827
# 4 0.000852 0.002639 0.006504 0.032934 -0.004131 0.000106
# 5 -0.002649 -0.002139 -0.003662 -0.004131 0.021531 0.001868
# 6 -0.001619 0.001261 -0.000827 0.000106 0.001868 0.024873
#
#
# Mechanical properties :
#
#
# Convention : Reuss Voigt Hill
#
# Bulk Modulus (GPa) = 45.88453 66.95151 56.41802
# Shear Modulus (GPa) = 38.70062 46.18435 42.44249
#
# Velocity S-wave (km/s) = 3.88444 4.24343 4.06789
# Velocity P-wave (km/s) = 6.16508 7.07901 6.63780
#
# Compressibility (1/GPa) = 0.02179384
#
# Stress axis : x y z
#
# Youngs Moduli (GPa) = 117.45877 66.70890 115.07176
#
# Poissons Ratio (x) = 0.12938 0.02645
# Poissons Ratio (y) = 0.22781 0.34877
# Poissons Ratio (z) = 0.02700 0.20219
#
# Static dielectric constant tensor:
#      x y z
#    x 2.058400 -0.033520 0.055190 
#    y -0.033520 2.121960 -0.047640 
#    z 0.055190 -0.047640 2.098020 
# 
# From -- ./inp_files/60407.got.cif
#   From: 2010.05.17/outbox.cif.g08.bks.cpg/sg2_31_cif.got.tgz:60407.got - 2010.06.03 11:33:40.
