data_PCOD9087418
_publ_section_title
;
Structure prediction by ZEFSAII (Michael W. Deem and Ramdas Pophale) SiO2 
 PCOD9087418
Probable space group: P -1
;
_chemical_formula_sum "Si O2"
_cell_formula_units_Z 16
_cell_length_a 12.881461
_cell_length_b 26.366026
_cell_length_c 9.220998
_cell_angle_alpha 39.271689
_cell_angle_beta 50.904139
_cell_angle_gamma 22.706239
_cell_volume 719.110722
_symmetry_space_group_name_H-M "P -1"
_symmetry_group_IT_number 2
_symmetry_cell_setting 'triclinic'
loop_
_space_group_symop_operation_xyz
x,y,z
-x,-y,-z
loop_
_atom_site_type_symbol
_atom_site_label
_atom_site_fract_x
_atom_site_fract_y
_atom_site_fract_z
Si Si1 0.903938 0.020722 0.266942
Si Si2 0.176217 0.021807 0.861971
Si Si3 0.716387 0.682023 0.769054
Si Si4 0.135992 0.605435 0.035662
Si Si5 0.804408 0.254091 0.185601
Si Si6 0.245943 0.248782 0.699102
Si Si7 0.127187 0.144762 0.884123
Si Si8 0.313769 0.178670 0.276454
O O1 0.569372 0.214724 0.162750
O O2 0.941530 0.938725 0.279675
O O3 0.021433 0.913723 0.539744
O O4 0.079602 0.003921 0.096291
O O5 0.512634 0.850578 0.913708
O O6 0.080964 0.153061 0.736626
O O7 0.747267 0.680040 0.574646
O O8 0.670643 0.792397 0.642750
O O9 0.000000 0.500000 0.000000
O O10 0.472996 0.414534 0.152118
O O11 0.974223 0.635414 0.229277
O O12 0.095915 0.718547 0.875962
O O13 0.989286 0.672729 0.860179
O O14 0.881959 0.232372 0.000447
O O15 0.565463 0.058002 0.895859
O O16 0.146046 0.225433 0.742329
O O17 0.500000 0.000000 0.500000
#
# Coordination Sequence:
#
# PCOD9087418 Si02
#       8
#     2   2   2   2   2   2   2   2
#     4  10  22  40  58  82 126 168 201 247 319 386
#     4  10  21  36  60  89 114 159 210 249 302 379
#     4  11  24  41  61  92 130 167 207 263 321 373
#     4  10  21  38  61  93 121 155 213 268 307 364
#     4  10  21  38  60  89 126 160 200 263 321 364
#     4  10  20  37  63  90 122 157 210 268 306 371
#     4  10  19  36  63  92 115 156 218 258 309 369
#     4  11  22  40  67  92 120 167 219 259 311 378
#
# _framework density 22.249703
#
# number of rings (size 3 to 8) (size 9 to 14) (size 15 to 20)
#    0.000    1.750    2.500    2.250    1.750    4.500 
#    2.250    2.500    0.000    6.750    0.000    0.000 
#    0.000    0.000    0.000    0.000    0.000    0.000 
#
# Total GULP energy -89373.187744 kJ/mol
# GULP energy per Si atom -5585.824234 kJ/mol
# Density = 2.219906 g / cm^3
# Si number density = 22.249703 Si / 1000 Ang^3
#
#
#
# Elastic Constant Matrix: (Units=GPa)
#
#
# Indices 1 2 3 4 5 6 
#
# 1 59.6205 -1.1368 -15.4823 7.6782 4.7481 -3.4723
# 2 -1.1368 114.1879 29.2468 28.4419 -7.7587 -17.8826
# 3 -15.4823 29.2468 56.0695 17.9754 -5.5796 -16.4120
# 4 7.6782 28.4419 17.9754 36.4659 5.7171 1.7241
# 5 4.7481 -7.7587 -5.5796 5.7171 10.9111 4.2780
# 6 -3.4723 -17.8826 -16.4120 1.7241 4.2780 31.9455
#
#
#
# Elastic Compliance Matrix: (Units=1/GPa)
#
#
# Indices 1 2 3 4 5 6 
#
# 1 0.022256 0.001958 0.012419 -0.012945 0.000726 0.010497
# 2 0.001958 0.014411 0.001769 -0.015282 0.015178 0.007981
# 3 0.012419 0.001769 0.036565 -0.026169 0.020504 0.019792
# 4 -0.012945 -0.015282 -0.026169 0.062742 -0.043257 -0.020999
# 5 0.000726 0.015178 0.020504 -0.043257 0.133900 0.003513
# 6 0.010497 0.007981 0.019792 -0.020999 0.003513 0.047743
#
#
# Mechanical properties :
#
#
# Convention : Reuss Voigt Hill
#
# Bulk Modulus (GPa) = 9.47645 28.34815 18.91230
# Shear Modulus (GPa) = 15.60067 30.34784 22.97425
#
# Velocity S-wave (km/s) = 2.65082 3.69720 3.21684
# Velocity P-wave (km/s) = 3.69290 5.56725 4.72397
#
# Compressibility (1/GPa) = 0.10552471
#
# Stress axis : x y z
#
# Youngs Moduli (GPa) = 44.93230 69.38930 27.34890
#
# Poissons Ratio (x) = -0.13589 -0.33964
# Poissons Ratio (y) = -0.08799 -0.04839
# Poissons Ratio (z) = -0.55800 -0.12277
#
# Static dielectric constant tensor:
#      x y z
#    x 1.876650 0.014560 -0.034280 
#    y 0.014560 1.812650 0.029420 
#    z -0.034280 0.029420 1.798510 
# 
# From -- ./inp_files/320930.got.cif
#   From: 2010.05.17/outbox.cif.g08.bks.cpg/sg2_161_cif.got.tgz:320930.got - 2010.06.03 11:33:40.
