data_PCOD9087126
_publ_section_title
;
Structure prediction by ZEFSAII (Michael W. Deem and Ramdas Pophale) SiO2 
 PCOD9087126
Probable space group: P -1
;
_chemical_formula_sum "Si O2"
_cell_formula_units_Z 12
_cell_length_a 11.926823
_cell_length_b 8.110078
_cell_length_c 10.459912
_cell_angle_alpha 89.733744
_cell_angle_beta 126.775897
_cell_angle_gamma 50.361743
_cell_volume 486.316790
_symmetry_space_group_name_H-M "P -1"
_symmetry_group_IT_number 2
_symmetry_cell_setting 'triclinic'
loop_
_space_group_symop_operation_xyz
x,y,z
-x,-y,-z
loop_
_atom_site_type_symbol
_atom_site_label
_atom_site_fract_x
_atom_site_fract_y
_atom_site_fract_z
Si Si1 0.260171 0.712900 0.070715
Si Si2 0.936357 0.182091 0.652622
Si Si3 0.466921 0.793615 0.351771
Si Si4 0.710148 0.119770 0.333937
Si Si5 0.025927 0.347186 0.132683
Si Si6 0.587034 0.906334 0.916082
O O1 0.109323 0.693625 0.994500
O O2 0.353547 0.719050 0.258150
O O3 0.490841 0.445113 0.148663
O O4 0.102431 0.983965 0.882254
O O5 0.738103 0.499293 0.555115
O O6 0.828683 0.107940 0.530804
O O7 0.096826 0.085380 0.642846
O O8 0.436819 0.914322 0.193666
O O9 0.299514 0.049021 0.334202
O O10 0.576689 0.075237 0.265787
O O11 0.853841 0.591406 0.116283
O O12 0.000000 0.500000 0.000000
O O13 0.500000 0.000000 0.000000
#
# Coordination Sequence:
#
# PCOD9087126 Si02
#       6
#     2   2   2   2   2   2
#     4  10  19  36  62  81 110 152 191 228 278 341
#     4  10  20  34  57  88 115 147 188 232 283 335
#     4  10  21  37  58  87 118 146 184 235 284 333
#     4   9  20  36  55  84 120 148 185 236 280 326
#     4   9  20  38  58  82 115 150 185 232 285 333
#     4  10  20  37  62  83 110 155 193 228 280 334
#
# _framework density 24.675274000000002
#
# number of rings (size 3 to 8) (size 9 to 14) (size 15 to 20)
#    0.000    2.333    0.000    2.000    0.000    8.000 
#    0.000    5.000    0.000   20.000    0.000    0.000 
#    0.000    0.000    0.000    0.000    0.000    0.000 
#
# Total GULP energy -67048.311434 kJ/mol
# GULP energy per Si atom -5587.359286 kJ/mol
# Density = 2.461911 g / cm^3
# Si number density = 24.675274 Si / 1000 Ang^3
#
#
#
# Elastic Constant Matrix: (Units=GPa)
#
#
# Indices 1 2 3 4 5 6 
#
# 1 69.7782 36.8641 38.1850 -0.1398 15.9876 2.1196
# 2 36.8641 105.1598 56.9661 -50.0974 12.3008 -32.9701
# 3 38.1850 56.9661 122.6994 -32.2904 23.1220 -4.4416
# 4 -0.1398 -50.0974 -32.2904 49.4191 -6.4100 18.7577
# 5 15.9876 12.3008 23.1220 -6.4100 34.9132 -3.1614
# 6 2.1196 -32.9701 -4.4416 18.7577 -3.1614 51.6380
#
#
#
# Elastic Compliance Matrix: (Units=1/GPa)
#
#
# Indices 1 2 3 4 5 6 
#
# 1 0.028054 -0.017804 -0.004324 -0.019413 -0.007847 -0.006320
# 2 -0.017804 0.034615 -0.003390 0.028718 0.004597 0.012390
# 3 -0.004324 -0.003390 0.013445 0.005946 -0.004937 -0.003293
# 4 -0.019413 0.028718 0.005946 0.053616 0.004719 0.000457
# 5 -0.007847 0.004597 -0.004937 0.004719 0.035047 0.003264
# 6 -0.006320 0.012390 -0.003293 0.000457 0.003264 0.027286
#
#
# Mechanical properties :
#
#
# Convention : Reuss Voigt Hill
#
# Bulk Modulus (GPa) = 39.87472 62.40753 51.14112
# Shear Modulus (GPa) = 19.88390 38.23555 29.05973
#
# Velocity S-wave (km/s) = 2.84178 3.94070 3.43547
# Velocity P-wave (km/s) = 5.19254 6.78616 6.04212
#
# Compressibility (1/GPa) = 0.02507855
#
# Stress axis : x y z
#
# Youngs Moduli (GPa) = 35.64538 28.88917 74.37531
#
# Poissons Ratio (x) = 0.51435 0.32158
# Poissons Ratio (y) = 0.63463 0.25214
# Poissons Ratio (z) = 0.15412 0.09794
#
# Static dielectric constant tensor:
#      x y z
#    x 1.946570 0.003860 0.060450 
#    y 0.003860 2.010750 -0.008910 
#    z 0.060450 -0.008910 1.954390 
# 
# From -- ./inp_files/30020.got.cif
#   From: 2010.05.17/outbox.cif.g08.bks.cpg/sg2_16_cif.got.tgz:30020.got - 2010.06.03 11:33:40.
