data_PCOD9087579
_publ_section_title
;
Structure prediction by ZEFSAII (Michael W. Deem and Ramdas Pophale) SiO2 
 PCOD9087579
Probable space group: P -1
;
_chemical_formula_sum "Si O2"
_cell_formula_units_Z 16
_cell_length_a 12.636023
_cell_length_b 9.322172
_cell_length_c 8.214095
_cell_angle_alpha 46.654098
_cell_angle_beta 81.514592
_cell_angle_gamma 105.043175
_cell_volume 602.034281
_symmetry_space_group_name_H-M "P -1"
_symmetry_group_IT_number 2
_symmetry_cell_setting 'triclinic'
loop_
_space_group_symop_operation_xyz
x,y,z
-x,-y,-z
loop_
_atom_site_type_symbol
_atom_site_label
_atom_site_fract_x
_atom_site_fract_y
_atom_site_fract_z
Si Si1 0.617255 0.212755 0.888982
Si Si2 0.357340 0.327812 0.149151
Si Si3 0.711585 0.280257 0.146968
Si Si4 0.007657 0.089308 0.617075
Si Si5 0.763836 0.384431 0.416299
Si Si6 0.277659 0.240758 0.562237
Si Si7 0.260957 0.193362 0.949136
Si Si8 0.027919 0.546319 0.148743
O O1 0.726232 0.258180 0.696419
O O2 0.644658 0.478575 0.678284
O O3 0.608800 0.154957 0.129413
O O4 0.500000 0.000000 0.000000
O O5 0.319670 0.177426 0.436419
O O6 0.500000 0.500000 0.000000
O O7 0.280271 0.466077 0.052813
O O8 0.332392 0.193802 0.091999
O O9 0.720990 0.245221 0.364521
O O10 0.827250 0.284316 0.025623
O O11 0.130534 0.136351 0.647657
O O12 0.017520 0.329762 0.407019
O O13 0.000000 0.000000 0.500000
O O14 0.882133 0.942983 0.859670
O O15 0.704761 0.545299 0.290098
O O16 0.912520 0.555734 0.240594
O O17 0.295329 0.146641 0.801031
O O18 0.000000 0.500000 0.000000
#
# Coordination Sequence:
#
# PCOD9087579 Si02
#       8
#     2   2   2   2   2   2   2   2
#     4  10  20  37  60  83 117 165 206 243 296 354
#     4  10  19  37  62  83 118 169 208 247 302 354
#     4   9  18  38  58  83 118 155 193 253 306 350
#     4  12  19  37  67  92 127 165 197 252 320 377
#     4   9  20  38  63  90 122 157 197 252 308 362
#     4  10  21  40  61  89 124 161 203 262 312 363
#     4  10  21  38  64  93 126 162 201 250 319 369
#     4  10  19  36  64  93 125 157 196 255 312 369
#
# _framework density 26.576560000000001
#
# number of rings (size 3 to 8) (size 9 to 14) (size 15 to 20)
#    0.000    2.000    3.750    1.875    0.000    1.500 
#    4.500    0.000    8.250    0.000    0.000    0.000 
#    0.000    0.000    0.000    0.000    0.000    0.000 
#
# Total GULP energy -89285.794207 kJ/mol
# GULP energy per Si atom -5580.362138 kJ/mol
# Density = 2.651607 g / cm^3
# Si number density = 26.576560 Si / 1000 Ang^3
#
#
#
# Elastic Constant Matrix: (Units=GPa)
#
#
# Indices 1 2 3 4 5 6 
#
# 1 48.8404 20.1454 32.8154 2.2930 -7.0266 3.3986
# 2 20.1454 124.1628 37.7870 11.0303 9.8495 3.6650
# 3 32.8154 37.7870 130.5493 38.1202 1.4519 17.0847
# 4 2.2930 11.0303 38.1202 55.0484 6.4198 -1.2036
# 5 -7.0266 9.8495 1.4519 6.4198 40.7390 -2.9117
# 6 3.3986 3.6650 17.0847 -1.2036 -2.9117 42.4365
#
#
#
# Elastic Compliance Matrix: (Units=1/GPa)
#
#
# Indices 1 2 3 4 5 6 
#
# 1 0.027100 -0.002958 -0.007384 0.004012 0.005129 0.001523
# 2 -0.002958 0.009333 -0.001893 -0.000124 -0.002679 0.000006
# 3 -0.007384 -0.001893 0.013183 -0.008514 -0.000288 -0.004814
# 4 0.004012 -0.000124 -0.008514 0.024295 -0.002544 0.003632
# 5 0.005129 -0.002679 -0.000288 -0.002544 0.026611 0.001690
# 6 0.001523 0.000006 -0.004814 0.003632 0.001690 0.025599
#
#
# Mechanical properties :
#
#
# Convention : Reuss Voigt Hill
#
# Bulk Modulus (GPa) = 39.76625 53.89423 46.83024
# Shear Modulus (GPa) = 31.45205 41.83176 36.64191
#
# Velocity S-wave (km/s) = 3.44386 3.97168 3.71715
# Velocity P-wave (km/s) = 5.55058 6.43080 6.00684
#
# Compressibility (1/GPa) = 0.02514695
#
# Stress axis : x y z
#
# Youngs Moduli (GPa) = 36.90104 107.14339 75.85541
#
# Poissons Ratio (x) = 0.31694 0.56008
# Poissons Ratio (y) = 0.10916 0.14358
# Poissons Ratio (z) = 0.27246 0.20280
#
# Static dielectric constant tensor:
#      x y z
#    x 2.141970 -0.047140 0.030330 
#    y -0.047140 2.152730 -0.015950 
#    z 0.030330 -0.015950 2.104220 
# 
# From -- ./inp_files/302356.got.cif
#   From: 2010.05.17/outbox.cif.g08.bks.cpg/sg2_152_cif.got.tgz:302356.got - 2010.06.03 11:33:40.
