data_PCOD9087731
_publ_section_title
;
Structure prediction by ZEFSAII (Michael W. Deem and Ramdas Pophale) SiO2 
 PCOD9087731
Probable space group: P -1
;
_chemical_formula_sum "Si O2"
_cell_formula_units_Z 16
_cell_length_a 5.023221
_cell_length_b 9.028025
_cell_length_c 19.926459
_cell_angle_alpha 124.891490
_cell_angle_beta 116.368497
_cell_angle_gamma 81.129740
_cell_volume 657.936558
_symmetry_space_group_name_H-M "P -1"
_symmetry_group_IT_number 2
_symmetry_cell_setting 'triclinic'
loop_
_space_group_symop_operation_xyz
x,y,z
-x,-y,-z
loop_
_atom_site_type_symbol
_atom_site_label
_atom_site_fract_x
_atom_site_fract_y
_atom_site_fract_z
Si Si1 0.876390 0.122527 0.960561
Si Si2 0.698873 0.396147 0.678896
Si Si3 0.764262 0.253662 0.353888
Si Si4 0.733970 0.354942 0.235047
Si Si5 0.807465 0.733997 0.206148
Si Si6 0.727281 0.038397 0.774854
Si Si7 0.654902 0.627615 0.489769
Si Si8 0.484772 0.328990 0.057178
O O1 0.591141 0.199615 0.979169
O O2 0.128700 0.294637 0.016458
O O3 0.811695 0.018471 0.856861
O O4 0.000000 0.000000 0.000000
O O5 0.467866 0.485041 0.725049
O O6 0.555043 0.297312 0.570155
O O7 0.923373 0.565045 0.718502
O O8 0.928000 0.289965 0.717741
O O9 0.744129 0.221436 0.264036
O O10 0.780103 0.471270 0.418561
O O11 0.071830 0.225537 0.416949
O O12 0.460108 0.147767 0.322084
O O13 0.605287 0.275304 0.129913
O O14 0.532601 0.831037 0.225791
O O15 0.650545 0.532464 0.115725
O O16 0.984111 0.860355 0.202982
O O17 0.500000 0.500000 0.500000
#
# Coordination Sequence:
#
# PCOD9087731 Si02
#       8
#     2   2   2   2   2   2   2   2
#     4  12  26  44  67 101 130 163 216 278 335 364
#     4  10  20  38  65  94 127 158 217 262 306 383
#     4  10  23  39  63  99 132 164 211 269 339 379
#     4  10  19  36  66  95 123 164 205 272 321 368
#     4  11  25  44  64  94 128 186 222 245 311 385
#     4  12  27  43  64  93 137 173 213 268 318 385
#     4  10  20  40  69 100 123 162 215 273 331 387
#     4  11  23  43  69  94 132 174 223 260 307 389
#
# _framework density 24.318452000000001
#
# number of rings (size 3 to 8) (size 9 to 14) (size 15 to 20)
#    0.000    1.250    1.250    5.625    1.750    6.000 
#    0.000    1.250    0.000    0.000    0.000    0.000 
#    0.000    0.000    0.000    0.000    0.000    0.000 
#
# Total GULP energy -89438.135740 kJ/mol
# GULP energy per Si atom -5589.883484 kJ/mol
# Density = 2.426310 g / cm^3
# Si number density = 24.318452 Si / 1000 Ang^3
#
#
#
# Elastic Constant Matrix: (Units=GPa)
#
#
# Indices 1 2 3 4 5 6 
#
# 1 102.4641 19.7169 25.1304 5.4494 3.2498 14.7583
# 2 19.7169 83.6798 31.5424 -4.6676 4.3424 0.3613
# 3 25.1304 31.5424 103.0908 -5.6526 32.0831 22.8819
# 4 5.4494 -4.6676 -5.6526 26.4734 0.8228 4.1776
# 5 3.2498 4.3424 32.0831 0.8228 36.4686 3.9079
# 6 14.7583 0.3613 22.8819 4.1776 3.9079 43.1155
#
#
#
# Elastic Compliance Matrix: (Units=1/GPa)
#
#
# Indices 1 2 3 4 5 6 
#
# 1 0.011140 -0.002038 -0.002138 -0.002756 0.001464 -0.002527
# 2 -0.002038 0.014376 -0.005410 0.001225 0.002872 0.003069
# 3 -0.002138 -0.005410 0.018584 0.005215 -0.014748 -0.008254
# 4 -0.002756 0.001225 0.005215 0.040663 -0.004834 -0.005337
# 5 0.001464 0.002872 -0.014748 -0.004834 0.039584 0.004182
# 6 -0.002527 0.003069 -0.008254 -0.005337 0.004182 0.028552
#
#
# Mechanical properties :
#
#
# Convention : Reuss Voigt Hill
#
# Bulk Modulus (GPa) = 40.11279 49.11268 44.61273
# Shear Modulus (GPa) = 27.71943 35.40115 31.56029
#
# Velocity S-wave (km/s) = 3.37983 3.81955 3.60640
# Velocity P-wave (km/s) = 5.63575 6.30011 5.97717
#
# Compressibility (1/GPa) = 0.02492971
#
# Stress axis : x y z
#
# Youngs Moduli (GPa) = 89.76577 69.56213 53.80870
#
# Poissons Ratio (x) = 0.14175 0.11503
# Poissons Ratio (y) = 0.18293 0.29109
# Poissons Ratio (z) = 0.19190 0.37631
#
# Static dielectric constant tensor:
#      x y z
#    x 1.975010 -0.022650 0.010460 
#    y -0.022650 2.004150 -0.021630 
#    z 0.010460 -0.021630 2.005190 
# 
# From -- ./inp_files/582052.got.cif
#   From: 2010.05.17/outbox.cif.g08.bks.cpg/sg2_292_cif.got.tgz:582052.got - 2010.06.03 11:33:40.
