data_PCOD9087590
_publ_section_title
;
Structure prediction by ZEFSAII (Michael W. Deem and Ramdas Pophale) SiO2 
 PCOD9087590
Probable space group: P -1
;
_chemical_formula_sum "Si O2"
_cell_formula_units_Z 16
_cell_length_a 10.846737
_cell_length_b 14.289001
_cell_length_c 9.601574
_cell_angle_alpha 54.575097
_cell_angle_beta 61.369469
_cell_angle_gamma 31.164636
_cell_volume 627.044617
_symmetry_space_group_name_H-M "P -1"
_symmetry_group_IT_number 2
_symmetry_cell_setting 'triclinic'
loop_
_space_group_symop_operation_xyz
x,y,z
-x,-y,-z
loop_
_atom_site_type_symbol
_atom_site_label
_atom_site_fract_x
_atom_site_fract_y
_atom_site_fract_z
Si Si1 0.890916 0.835519 0.200801
Si Si2 0.263813 0.971555 0.184378
Si Si3 0.351194 0.804442 0.856340
Si Si4 0.557619 0.361434 0.745800
Si Si5 0.573127 0.581549 0.675335
Si Si6 0.978273 0.331306 0.185988
Si Si7 0.852349 0.594029 0.787322
Si Si8 0.313888 0.259546 0.660163
O O1 0.725733 0.833584 0.317823
O O2 0.163918 0.616193 0.234408
O O3 0.856113 0.964424 0.214816
O O4 0.806771 0.936807 0.008954
O O5 0.287564 0.819421 0.283785
O O6 0.515357 0.860630 0.193197
O O7 0.075087 0.145566 0.245123
O O8 0.371863 0.707556 0.795932
O O9 0.590755 0.722661 0.786446
O O10 0.371750 0.721279 0.061316
O O11 0.556728 0.498759 0.633365
O O12 0.285223 0.501478 0.754221
O O13 0.568806 0.713077 0.507925
O O14 0.149700 0.282574 0.241761
O O15 0.957779 0.428923 0.979522
O O16 0.047816 0.471767 0.666751
#
# Coordination Sequence:
#
# PCOD9087590 Si02
#       8
#     2   2   2   2   2   2   2   2
#     4  11  23  41  67  93 121 162 211 258 306 363
#     4  11  22  40  68  96 118 159 212 265 299 359
#     4  10  22  40  66  92 117 164 216 257 293 368
#     4  10  23  41  64  91 123 168 214 248 299 366
#     4  12  26  43  60  89 136 172 194 250 315 377
#     4  10  19  37  65  92 122 154 207 266 299 356
#     4  10  19  36  64  95 123 155 201 260 320 351
#     4  12  23  41  64  95 132 157 198 262 325 365
#
# _framework density 25.516525000000001
#
# number of rings (size 3 to 8) (size 9 to 14) (size 15 to 20)
#    0.000    1.250    3.750    2.625    1.750    4.000 
#    2.250    0.625    0.000    0.000    0.000    0.000 
#    0.000    0.000    0.000    0.000    0.000    0.000 
#
# Total GULP energy -89612.676320 kJ/mol
# GULP energy per Si atom -5600.792270 kJ/mol
# Density = 2.545845 g / cm^3
# Si number density = 25.516525 Si / 1000 Ang^3
#
#
#
# Elastic Constant Matrix: (Units=GPa)
#
#
# Indices 1 2 3 4 5 6 
#
# 1 110.9571 19.7168 11.3486 -14.8425 -10.2931 20.6488
# 2 19.7168 123.4389 10.1826 -18.4352 1.9565 39.3126
# 3 11.3486 10.1826 69.6935 -13.5203 -3.7731 2.8249
# 4 -14.8425 -18.4352 -13.5203 27.8368 1.9281 -8.9940
# 5 -10.2931 1.9565 -3.7731 1.9281 24.0567 -9.7596
# 6 20.6488 39.3126 2.8249 -8.9940 -9.7596 43.6067
#
#
#
# Elastic Compliance Matrix: (Units=1/GPa)
#
#
# Indices 1 2 3 4 5 6 
#
# 1 0.010512 0.000075 -0.000661 0.003991 0.002609 -0.003595
# 2 0.000075 0.012760 -0.000831 0.004668 -0.006356 -0.011945
# 3 -0.000661 -0.000831 0.016068 0.007410 0.002573 0.002126
# 4 0.003991 0.004668 0.007410 0.045659 -0.000019 0.002835
# 5 0.002609 -0.006356 0.002573 -0.000019 0.049891 0.015490
# 6 -0.003595 -0.011945 0.002126 0.002835 0.015490 0.039317
#
#
# Mechanical properties :
#
#
# Convention : Reuss Voigt Hill
#
# Bulk Modulus (GPa) = 27.39304 42.95392 35.17348
# Shear Modulus (GPa) = 26.42564 36.62280 31.52422
#
# Velocity S-wave (km/s) = 3.22161 3.79259 3.51870
# Velocity P-wave (km/s) = 4.95954 6.00405 5.50662
#
# Compressibility (1/GPa) = 0.03650562
#
# Stress axis : x y z
#
# Youngs Moduli (GPa) = 95.13121 78.37153 62.23428
#
# Poissons Ratio (x) = -0.00590 0.04117
# Poissons Ratio (y) = -0.00716 0.05171
# Poissons Ratio (z) = 0.06293 0.06512
#
# Static dielectric constant tensor:
#      x y z
#    x 2.041550 0.048300 0.024580 
#    y 0.048300 1.966150 -0.013290 
#    z 0.024580 -0.013290 2.018070 
# 
# From -- ./inp_files/432567.got.cif
#   From: 2010.05.17/outbox.cif.g08.bks.cpg/sg2_217_cif.got.tgz:432567.got - 2010.06.03 11:33:40.
