data_PCOD9087763
_publ_section_title
;
Structure prediction by ZEFSAII (Michael W. Deem and Ramdas Pophale) SiO2 
 PCOD9087763
Probable space group: P -1
;
_chemical_formula_sum "Si O2"
_cell_formula_units_Z 16
_cell_length_a 8.102534
_cell_length_b 14.956432
_cell_length_c 8.937292
_cell_angle_alpha 74.793687
_cell_angle_beta 57.983059
_cell_angle_gamma 110.071265
_cell_volume 715.884256
_symmetry_space_group_name_H-M "P -1"
_symmetry_group_IT_number 2
_symmetry_cell_setting 'triclinic'
loop_
_space_group_symop_operation_xyz
x,y,z
-x,-y,-z
loop_
_atom_site_type_symbol
_atom_site_label
_atom_site_fract_x
_atom_site_fract_y
_atom_site_fract_z
Si Si1 0.445825 0.512888 0.266914
Si Si2 0.801461 0.681048 0.766752
Si Si3 0.183994 0.997075 0.737425
Si Si4 0.405865 0.868822 0.104165
Si Si5 0.982048 0.839182 0.173782
Si Si6 0.547358 0.380711 0.499634
Si Si7 0.652578 0.205154 0.497875
Si Si8 0.810997 0.879590 0.723507
O O1 0.257626 0.408163 0.296099
O O2 0.569431 0.468260 0.329526
O O3 0.348669 0.557633 0.417521
O O4 0.631122 0.612079 0.020132
O O5 0.752093 0.773038 0.701163
O O6 0.076628 0.751684 0.650793
O O7 0.467115 0.095601 0.531650
O O8 0.092367 0.078733 0.767301
O O9 0.981512 0.898777 0.770659
O O10 0.162074 0.921727 0.920484
O O11 0.127923 0.808685 0.221098
O O12 0.435691 0.833442 0.269910
O O13 0.570671 0.859252 0.911805
O O14 0.500000 0.000000 0.000000
O O15 0.736796 0.720785 0.294473
O O16 0.650295 0.313456 0.420089
O O17 0.000000 0.000000 0.500000
#
# Coordination Sequence:
#
# PCOD9087763 Si02
#       8
#     2   2   2   2   2   2   2   2
#     4  10  23  46  68  87 129 174 219 276 320 373
#     4  11  25  44  63  95 136 171 212 270 332 379
#     4  10  20  37  59  93 130 166 201 260 316 380
#     4  12  20  38  63  94 129 175 215 251 316 390
#     4  10  19  36  67  93 125 159 214 267 305 376
#     4  10  22  42  70  96 118 171 228 269 318 373
#     4  11  23  38  68  96 128 167 215 268 317 394
#     4  12  26  40  61  95 138 173 206 262 327 392
#
# _framework density 22.349979000000001
#
# number of rings (size 3 to 8) (size 9 to 14) (size 15 to 20)
#    0.000    1.250    2.500    4.500    3.500    1.500 
#    2.250    5.000    0.000    0.000    0.000    0.000 
#    0.000    0.000    0.000    0.000    0.000    0.000 
#
# Total GULP energy -89340.258651 kJ/mol
# GULP energy per Si atom -5583.766166 kJ/mol
# Density = 2.229911 g / cm^3
# Si number density = 22.349979 Si / 1000 Ang^3
#
#
#
# Elastic Constant Matrix: (Units=GPa)
#
#
# Indices 1 2 3 4 5 6 
#
# 1 62.2235 6.8254 4.4755 4.6627 -11.4331 0.4691
# 2 6.8254 96.9045 10.1205 -1.5871 -14.9443 -10.3564
# 3 4.4755 10.1205 56.7953 -19.8446 -2.2105 -10.4060
# 4 4.6627 -1.5871 -19.8446 18.0185 -5.4994 7.9387
# 5 -11.4331 -14.9443 -2.2105 -5.4994 41.0610 -4.6662
# 6 0.4691 -10.3564 -10.4060 7.9387 -4.6662 27.4199
#
#
#
# Elastic Compliance Matrix: (Units=1/GPa)
#
#
# Indices 1 2 3 4 5 6 
#
# 1 0.017658 -0.000296 -0.003876 -0.008252 0.003623 0.001121
# 2 -0.000296 0.011698 -0.001419 -0.001298 0.004496 0.005026
# 3 -0.003876 -0.001419 0.031330 0.036146 0.005140 0.001830
# 4 -0.008252 -0.001298 0.036146 0.107930 0.011828 -0.015867
# 5 0.003623 0.004496 0.005140 0.011828 0.029448 0.005174
# 6 0.001121 0.005026 0.001830 -0.015867 0.005174 0.044518
#
#
# Mechanical properties :
#
#
# Convention : Reuss Voigt Hill
#
# Bulk Modulus (GPa) = 20.19980 28.75180 24.47580
# Shear Modulus (GPa) = 18.50049 30.26668 24.38358
#
# Velocity S-wave (km/s) = 2.88021 3.68396 3.30660
# Velocity P-wave (km/s) = 4.48535 5.56666 5.05500
#
# Compressibility (1/GPa) = 0.04950543
#
# Stress axis : x y z
#
# Youngs Moduli (GPa) = 56.63197 85.48732 31.91794
#
# Poissons Ratio (x) = 0.02527 0.12371
# Poissons Ratio (y) = 0.01674 0.04529
# Poissons Ratio (z) = 0.21949 0.12129
#
# Static dielectric constant tensor:
#      x y z
#    x 0.694890 -0.767390 -1.635740 
#    y -0.767390 1.310660 -1.133850 
#    z -1.635740 -1.133850 -0.494330 
# 
# From -- ./inp_files/206733.got.cif
#   From: 2010.05.17/outbox.cif.g08.bks.cpg/sg2_104_cif.got.tgz:206733.got - 2010.06.03 11:33:40.
