data_PCOD9087265
_publ_section_title
;
Structure prediction by ZEFSAII (Michael W. Deem and Ramdas Pophale) SiO2 
 PCOD9087265
Probable space group: P -1
;
_chemical_formula_sum "Si O2"
_cell_formula_units_Z 16
_cell_length_a 7.385893
_cell_length_b 5.170935
_cell_length_c 21.632326
_cell_angle_alpha 62.426563
_cell_angle_beta 119.761805
_cell_angle_gamma 93.912380
_cell_volume 621.576536
_symmetry_space_group_name_H-M "P -1"
_symmetry_group_IT_number 2
_symmetry_cell_setting 'triclinic'
loop_
_space_group_symop_operation_xyz
x,y,z
-x,-y,-z
loop_
_atom_site_type_symbol
_atom_site_label
_atom_site_fract_x
_atom_site_fract_y
_atom_site_fract_z
Si Si1 0.580104 0.391396 0.925097
Si Si2 0.686997 0.179042 0.259675
Si Si3 0.769988 0.712675 0.023865
Si Si4 0.138718 0.573794 0.189075
Si Si5 0.054899 0.927240 0.253835
Si Si6 0.287696 0.933729 0.505438
Si Si7 0.609130 0.552472 0.317058
Si Si8 0.752973 0.441153 0.561528
O O1 0.511948 0.624115 0.832857
O O2 0.372430 0.387910 0.933733
O O3 0.747662 0.502072 0.986044
O O4 0.661197 0.054110 0.953789
O O5 0.744820 0.394976 0.298645
O O6 0.854897 0.065766 0.246940
O O7 0.647688 0.866072 0.313392
O O8 0.007073 0.686170 0.092906
O O9 0.370652 0.621559 0.241311
O O10 0.003257 0.766923 0.200521
O O11 0.156434 0.217116 0.230636
O O12 0.200093 0.677127 0.348719
O O13 0.358396 0.692334 0.596748
O O14 0.153151 0.812464 0.443429
O O15 0.500000 0.000000 0.500000
O O16 0.170921 0.256788 0.473007
O O17 0.500000 0.500000 0.500000
#
# Coordination Sequence:
#
# PCOD9087265 Si02
#       8
#     2   2   2   2   2   2   2   2
#     4  10  21  40  63  94 133 173 212 274 330 387
#     4  12  26  45  63  99 141 180 206 272 354 396
#     4  10  21  37  68  98 122 169 234 273 308 381
#     4  12  23  42  67 103 127 172 237 280 305 393
#     4  12  24  41  70  99 131 173 231 271 324 397
#     4  10  20  39  64  89 121 170 216 259 321 383
#     4  12  26  44  67  97 141 174 215 275 343 396
#     4  10  19  36  62  92 119 158 212 273 321 362
#
# _framework density 25.740995000000002
#
# number of rings (size 3 to 8) (size 9 to 14) (size 15 to 20)
#    0.000    1.000    1.250    7.500    3.500    0.000 
#    0.000    7.500    0.000    0.000    0.000    0.000 
#    0.000    0.000    0.000    0.000    0.000    0.000 
#
# Total GULP energy -89638.064935 kJ/mol
# GULP energy per Si atom -5602.379058 kJ/mol
# Density = 2.568241 g / cm^3
# Si number density = 25.740995 Si / 1000 Ang^3
#
#
#
# Elastic Constant Matrix: (Units=GPa)
#
#
# Indices 1 2 3 4 5 6 
#
# 1 61.8940 -5.3862 12.1614 0.0113 -2.2017 -1.8664
# 2 -5.3862 150.3466 31.5916 -14.8511 -12.8804 -9.7190
# 3 12.1614 31.5916 102.1126 -9.1281 1.8488 4.1052
# 4 0.0113 -14.8511 -9.1281 53.8581 2.3250 -0.1545
# 5 -2.2017 -12.8804 1.8488 2.3250 33.8665 5.3767
# 6 -1.8664 -9.7190 4.1052 -0.1545 5.3767 26.7651
#
#
#
# Elastic Compliance Matrix: (Units=1/GPa)
#
#
# Indices 1 2 3 4 5 6 
#
# 1 0.016881 0.001369 -0.002542 -0.000116 0.001485 0.001765
# 2 0.001369 0.007813 -0.002597 0.001608 0.002646 0.002809
# 3 -0.002542 -0.002597 0.011137 0.001227 -0.001443 -0.002532
# 4 -0.000116 0.001608 0.001227 0.019259 -0.000893 0.000678
# 5 0.001485 0.002646 -0.001443 -0.000893 0.031574 -0.005062
# 6 0.001765 0.002809 -0.002532 0.000678 -0.005062 0.039914
#
#
# Mechanical properties :
#
#
# Convention : Reuss Voigt Hill
#
# Bulk Modulus (GPa) = 35.34820 43.45410 39.40115
# Shear Modulus (GPa) = 34.83087 41.29703 38.06395
#
# Velocity S-wave (km/s) = 3.68248 4.00975 3.84960
# Velocity P-wave (km/s) = 5.64296 6.19318 5.92446
#
# Compressibility (1/GPa) = 0.02828999
#
# Stress axis : x y z
#
# Youngs Moduli (GPa) = 59.23698 127.98881 89.79044
#
# Poissons Ratio (x) = -0.17519 0.22827
# Poissons Ratio (y) = -0.08108 0.23322
# Poissons Ratio (z) = 0.15059 0.33243
#
# Static dielectric constant tensor:
#      x y z
#    x -10.297710 6.450730 -2.788750 
#    y 6.450730 -1.343420 1.416380 
#    z -2.788750 1.416380 1.343600 
# 
# From -- ./inp_files/605803.got.cif
#   From: 2010.05.17/outbox.cif.g08.bks.cpg/sg2_303_cif.got.tgz:605803.got - 2010.06.03 11:33:40.
