data_PCOD9087707
_publ_section_title
;
Structure prediction by ZEFSAII (Michael W. Deem and Ramdas Pophale) SiO2 
 PCOD9087707
Probable space group: P -1
;
_chemical_formula_sum "Si O2"
_cell_formula_units_Z 16
_cell_length_a 7.973669
_cell_length_b 13.297513
_cell_length_c 8.077692
_cell_angle_alpha 101.434895
_cell_angle_beta 123.938646
_cell_angle_gamma 89.806209
_cell_volume 690.369812
_symmetry_space_group_name_H-M "P -1"
_symmetry_group_IT_number 2
_symmetry_cell_setting 'triclinic'
loop_
_space_group_symop_operation_xyz
x,y,z
-x,-y,-z
loop_
_atom_site_type_symbol
_atom_site_label
_atom_site_fract_x
_atom_site_fract_y
_atom_site_fract_z
Si Si1 0.830752 0.713729 0.283038
Si Si2 0.713851 0.061505 0.688396
Si Si3 0.941185 0.913930 0.579713
Si Si4 0.230638 0.493865 0.689701
Si Si5 0.280608 0.729710 0.427415
Si Si6 0.480229 0.313500 0.164774
Si Si7 0.145081 0.591271 0.013690
Si Si8 0.794756 0.209308 0.085237
O O1 0.796601 0.823875 0.374506
O O2 0.731138 0.623970 0.319496
O O3 0.068125 0.695773 0.395838
O O4 0.740164 0.697730 0.042666
O O5 0.752878 0.157579 0.616461
O O6 0.500000 0.000000 0.500000
O O7 0.864624 0.977991 0.710113
O O8 0.725310 0.117967 0.888337
O O9 0.098602 0.845618 0.726647
O O10 0.000000 0.000000 0.500000
O O11 0.402960 0.570023 0.716614
O O12 0.240393 0.532222 0.898172
O O13 0.000000 0.500000 0.500000
O O14 0.478815 0.735947 0.653231
O O15 0.284503 0.651412 0.251642
O O16 0.609997 0.258218 0.083030
O O17 0.076053 0.691992 0.907589
O O18 0.000000 0.500000 0.000000
#
# Coordination Sequence:
#
# PCOD9087707 Si02
#       8
#     2   2   2   2   2   2   2   2
#     4  12  22  38  66  92 127 164 221 262 319 387
#     4  11  24  43  63  92 131 168 217 274 326 383
#     4  12  23  42  67  92 126 175 222 270 325 386
#     4  11  20  39  67  93 128 172 208 267 327 387
#     4  11  22  43  63  91 129 169 211 267 327 383
#     4  11  22  40  65  97 125 168 217 262 324 394
#     4  10  19  36  66  88 125 169 205 258 327 387
#     4  10  22  40  64  93 127 169 214 267 328 387
#
# _framework density 23.175985000000001
#
# number of rings (size 3 to 8) (size 9 to 14) (size 15 to 20)
#    0.000    1.000    5.000    2.250    0.000    1.000 
#    4.500    3.125    5.500    0.000    0.000    0.000 
#    0.000    0.000    0.000    0.000    0.000    0.000 
#
# Total GULP energy -89316.085082 kJ/mol
# GULP energy per Si atom -5582.255318 kJ/mol
# Density = 2.312324 g / cm^3
# Si number density = 23.175985 Si / 1000 Ang^3
#
#
#
# Elastic Constant Matrix: (Units=GPa)
#
#
# Indices 1 2 3 4 5 6 
#
# 1 31.0262 20.3916 -0.4126 3.9856 -10.2981 -4.5518
# 2 20.3916 142.0065 47.5986 18.4185 -2.5629 -8.2351
# 3 -0.4126 47.5986 124.2428 0.5385 -6.8164 -6.5119
# 4 3.9856 18.4185 0.5385 43.4801 -3.0077 -4.7035
# 5 -10.2981 -2.5629 -6.8164 -3.0077 26.8210 1.2275
# 6 -4.5518 -8.2351 -6.5119 -4.7035 1.2275 17.9592
#
#
#
# Elastic Compliance Matrix: (Units=1/GPa)
#
#
# Indices 1 2 3 4 5 6 
#
# 1 0.043597 -0.006999 0.004191 0.000999 0.016860 0.008469
# 2 -0.006999 0.009802 -0.003907 -0.003620 -0.003176 0.000573
# 3 0.004191 -0.003907 0.009922 0.001743 0.003813 0.003064
# 4 0.000999 -0.003620 0.001743 0.025239 0.003054 0.005627
# 5 0.016860 -0.003176 0.003813 0.003054 0.044677 0.001945
# 6 0.008469 0.000573 0.003064 0.005627 0.001945 0.060543
#
#
# Mechanical properties :
#
#
# Convention : Reuss Voigt Hill
#
# Bulk Modulus (GPa) = 20.04417 48.04787 34.04602
# Shear Modulus (GPa) = 22.33738 32.96525 27.65132
#
# Velocity S-wave (km/s) = 3.10791 3.77555 3.45788
# Velocity P-wave (km/s) = 4.64179 6.30738 5.53757
#
# Compressibility (1/GPa) = 0.04988982
#
# Stress axis : x y z
#
# Youngs Moduli (GPa) = 22.93738 102.02003 100.78917
#
# Poissons Ratio (x) = 0.71406 -0.42239
# Poissons Ratio (y) = 0.16054 0.39378
# Poissons Ratio (z) = -0.09613 0.39859
#
# Static dielectric constant tensor:
#      x y z
#    x 2.799040 1.472920 -0.654110 
#    y 1.472920 4.498820 -1.180800 
#    z -0.654110 -1.180800 2.441110 
# 
# From -- ./inp_files/188912.got.cif
#   From: 2010.05.17/outbox.cif.g08.bks.cpg/sg2_95_cif.got.tgz:188912.got - 2010.06.03 11:33:40.
