data_PCOD9087492
_publ_section_title
;
Structure prediction by ZEFSAII (Michael W. Deem and Ramdas Pophale) SiO2 
 PCOD9087492
Probable space group: P -1
;
_chemical_formula_sum "Si O2"
_cell_formula_units_Z 16
_cell_length_a 9.793204
_cell_length_b 12.700601
_cell_length_c 12.547209
_cell_angle_alpha 130.379239
_cell_angle_beta 47.189143
_cell_angle_gamma 133.702201
_cell_volume 779.488406
_symmetry_space_group_name_H-M "P -1"
_symmetry_group_IT_number 2
_symmetry_cell_setting 'triclinic'
loop_
_space_group_symop_operation_xyz
x,y,z
-x,-y,-z
loop_
_atom_site_type_symbol
_atom_site_label
_atom_site_fract_x
_atom_site_fract_y
_atom_site_fract_z
Si Si1 0.104759 0.475498 0.736692
Si Si2 0.625676 0.375753 0.973273
Si Si3 0.555082 0.407431 0.795326
Si Si4 0.631777 0.231100 0.078329
Si Si5 0.959231 0.157934 0.531905
Si Si6 0.770773 0.011999 0.756616
Si Si7 0.682110 0.168240 0.495426
Si Si8 0.978917 0.387127 0.337893
O O1 0.250318 0.597973 0.824548
O O2 0.129284 0.321313 0.597346
O O3 0.119898 0.567511 0.679805
O O4 0.865577 0.412146 0.859562
O O5 0.607577 0.531845 0.112641
O O6 0.530607 0.248601 0.032040
O O7 0.524476 0.336228 0.883578
O O8 0.576921 0.284186 0.627065
O O9 0.779652 0.560656 0.781902
O O10 0.457001 0.121213 0.180579
O O11 0.783489 0.154062 0.915857
O O12 0.808209 0.065208 0.648399
O O13 0.834354 0.201086 0.537495
O O14 0.064483 0.057123 0.360059
O O15 0.832405 0.215213 0.343917
O O16 0.500000 0.000000 0.500000
O O17 0.000000 0.500000 0.500000
#
# Coordination Sequence:
#
# PCOD9087492 Si02
#       8
#     2   2   2   2   2   2   2   2
#     4  11  21  38  66  88 120 157 207 255 291 358
#     4  10  19  36  64  84 116 153 199 246 300 349
#     4   9  19  37  61  86 112 154 200 243 294 360
#     4  11  23  40  63  91 123 159 205 251 304 353
#     4  11  22  44  61  85 124 164 203 243 310 357
#     4  10  25  41  60  88 125 164 195 251 304 367
#     4  11  22  36  60  85 119 155 192 248 306 358
#     4   9  18  37  58  86 113 154 200 246 297 352
#
# _framework density 20.526282999999999
#
# number of rings (size 3 to 8) (size 9 to 14) (size 15 to 20)
#    0.000    1.750    5.000    0.375    3.500    1.500 
#    2.250    0.000    0.000    3.000    0.000    0.000 
#    0.000    0.000    0.000    0.000    0.000    0.000 
#
# Total GULP energy -89195.251609 kJ/mol
# GULP energy per Si atom -5574.703226 kJ/mol
# Density = 2.047956 g / cm^3
# Si number density = 20.526283 Si / 1000 Ang^3
#
#
#
# Elastic Constant Matrix: (Units=GPa)
#
#
# Indices 1 2 3 4 5 6 
#
# 1 29.3831 11.9548 18.8529 -0.0162 1.7265 -14.0156
# 2 11.9548 108.1313 28.1712 -11.1640 5.3928 -10.6933
# 3 18.8529 28.1712 85.3362 -4.5261 -3.6176 -9.7408
# 4 -0.0162 -11.1640 -4.5261 36.1054 -12.1089 5.2401
# 5 1.7265 5.3928 -3.6176 -12.1089 19.6987 2.7151
# 6 -14.0156 -10.6933 -9.7408 5.2401 2.7151 23.1114
#
#
#
# Elastic Compliance Matrix: (Units=1/GPa)
#
#
# Indices 1 2 3 4 5 6 
#
# 1 0.059892 -0.000635 -0.010379 -0.013767 -0.020570 0.037190
# 2 -0.000635 0.010749 -0.003081 0.001441 -0.003024 0.003318
# 3 -0.010379 -0.003081 0.015195 0.003848 0.007330 -0.003049
# 4 -0.013767 0.001441 0.003848 0.041242 0.029472 -0.018873
# 5 -0.020570 -0.003024 0.007330 0.029472 0.076504 -0.026454
# 6 0.037190 0.003318 -0.003049 -0.018873 -0.026454 0.073460
#
#
# Mechanical properties :
#
#
# Convention : Reuss Voigt Hill
#
# Bulk Modulus (GPa) = 17.34746 37.86759 27.60753
# Shear Modulus (GPa) = 15.41082 26.70788 21.05935
#
# Velocity S-wave (km/s) = 2.74302 3.61107 3.20655
# Velocity P-wave (km/s) = 4.30138 5.98956 5.21424
#
# Compressibility (1/GPa) = 0.05764531
#
# Stress axis : x y z
#
# Youngs Moduli (GPa) = 16.69675 93.03465 65.81001
#
# Poissons Ratio (x) = 0.05909 0.68305
# Poissons Ratio (y) = 0.01061 0.20276
# Poissons Ratio (z) = 0.17330 0.28664
#
# Static dielectric constant tensor:
#      x y z
#    x 1.716360 0.000180 0.000210 
#    y 0.000180 1.773680 -0.001870 
#    z 0.000210 -0.001870 1.791810 
# 
# From -- ./inp_files/392809.got.cif
#   From: 2010.05.17/outbox.cif.g08.bks.cpg/sg2_197_cif.got.tgz:392809.got - 2010.06.03 11:33:40.
