data_PCOD9087695
_publ_section_title
;
Structure prediction by ZEFSAII (Michael W. Deem and Ramdas Pophale) SiO2 
 PCOD9087695
Probable space group: P -1
;
_chemical_formula_sum "Si O2"
_cell_formula_units_Z 16
_cell_length_a 23.647994
_cell_length_b 8.613889
_cell_length_c 8.541025
_cell_angle_alpha 110.184212
_cell_angle_beta 59.071982
_cell_angle_gamma 147.368907
_cell_volume 790.134808
_symmetry_space_group_name_H-M "P -1"
_symmetry_group_IT_number 2
_symmetry_cell_setting 'triclinic'
loop_
_space_group_symop_operation_xyz
x,y,z
-x,-y,-z
loop_
_atom_site_type_symbol
_atom_site_label
_atom_site_fract_x
_atom_site_fract_y
_atom_site_fract_z
Si Si1 0.552875 0.781445 0.092765
Si Si2 0.731372 0.349881 0.819629
Si Si3 0.863955 0.726652 0.057300
Si Si4 0.652405 0.379250 0.648315
Si Si5 0.144163 0.016586 0.602890
Si Si6 0.287930 0.824934 0.715836
Si Si7 0.034228 0.254484 0.494675
Si Si8 0.917568 0.398235 0.221150
O O1 0.461923 0.743711 0.238632
O O2 0.616041 0.890874 0.210009
O O3 0.500000 0.500000 0.000000
O O4 0.644690 0.049410 0.930848
O O5 0.668849 0.344823 0.788399
O O6 0.826768 0.446418 0.619315
O O7 0.814244 0.619410 0.917376
O O8 0.823387 0.804041 0.232365
O O9 0.804021 0.448963 0.130464
O O10 0.000000 0.000000 0.000000
O O11 0.754641 0.720022 0.570820
O O12 0.662245 0.229921 0.475775
O O13 0.114741 0.786116 0.650347
O O14 0.028660 0.825518 0.603372
O O15 0.205423 0.783008 0.728389
O O16 0.003556 0.299185 0.703352
O O17 0.000000 0.000000 0.500000
O O18 0.000000 0.500000 0.000000
#
# Coordination Sequence:
#
# PCOD9087695 Si02
#       8
#     2   2   2   2   2   2   2   2
#     4  11  27  45  71 100 135 176 232 299 336 385
#     4  11  23  41  74  98 138 179 235 269 344 410
#     4  10  19  36  65  98 131 176 219 268 328 414
#     4  11  23  46  71  96 134 181 238 273 337 407
#     4  11  24  38  66 103 138 178 222 279 344 398
#     4  10  23  45  65  93 133 183 226 272 338 413
#     4  12  23  44  69 100 139 185 220 276 342 425
#     4  12  27  41  65 103 145 174 222 282 347 408
#
# _framework density 20.249708999999999
#
# number of rings (size 3 to 8) (size 9 to 14) (size 15 to 20)
#    0.000    1.000    3.750    2.625    5.250    2.000 
#    0.000    3.750    0.000    0.000    0.000    0.000 
#    0.000    0.000    0.000    0.000    0.000    0.000 
#
# Total GULP energy -89155.324796 kJ/mol
# GULP energy per Si atom -5572.207800 kJ/mol
# Density = 2.020362 g / cm^3
# Si number density = 20.249709 Si / 1000 Ang^3
#
#
#
# Elastic Constant Matrix: (Units=GPa)
#
#
# Indices 1 2 3 4 5 6 
#
# 1 160.4282 59.9924 53.9600 17.5232 13.0299 4.0197
# 2 59.9924 114.8421 43.2201 14.6061 5.9026 -0.6227
# 3 53.9600 43.2201 82.2732 11.4249 2.1118 1.8233
# 4 17.5232 14.6061 11.4249 43.2341 9.2258 7.8802
# 5 13.0299 5.9026 2.1118 9.2258 26.4321 0.3485
# 6 4.0197 -0.6227 1.8233 7.8802 0.3485 33.8179
#
#
#
# Elastic Compliance Matrix: (Units=1/GPa)
#
#
# Indices 1 2 3 4 5 6 
#
# 1 0.009110 -0.002901 -0.004245 -0.000776 -0.003224 -0.000693
# 2 -0.002901 0.012068 -0.004185 -0.001969 -0.000260 0.001254
# 3 -0.004245 -0.004185 0.017348 -0.001929 0.002316 -0.000082
# 4 -0.000776 -0.001969 -0.001929 0.027573 -0.008566 -0.006177
# 5 -0.003224 -0.000260 0.002316 -0.008566 0.042261 0.001814
# 6 -0.000693 0.001254 -0.000082 -0.006177 0.001814 0.031101
#
#
# Mechanical properties :
#
#
# Convention : Reuss Voigt Hill
#
# Bulk Modulus (GPa) = 63.03537 74.65428 68.84482
# Shear Modulus (GPa) = 29.86666 34.05491 31.96078
#
# Velocity S-wave (km/s) = 3.84463 4.10536 3.97713
# Velocity P-wave (km/s) = 7.13476 7.70836 7.42710
#
# Compressibility (1/GPa) = 0.01586411
#
# Stress axis : x y z
#
# Youngs Moduli (GPa) = 109.77126 82.86049 57.64455
#
# Poissons Ratio (x) = 0.24035 0.24471
# Poissons Ratio (y) = 0.31840 0.24125
# Poissons Ratio (z) = 0.46600 0.34679
#
# Static dielectric constant tensor:
#      x y z
#    x 1.792430 -0.049530 0.030790 
#    y -0.049530 1.788220 -0.045970 
#    z 0.030790 -0.045970 1.989200 
# 
# From -- ./inp_files/351827.got.cif
#   From: 2010.05.17/outbox.cif.g08.bks.cpg/sg2_176_cif.got.tgz:351827.got - 2010.06.03 11:33:40.
