data_PCOD9087352
_publ_section_title
;
Structure prediction by ZEFSAII (Michael W. Deem and Ramdas Pophale) SiO2 
 PCOD9087352
Probable space group: P -1
;
_chemical_formula_sum "Si O2"
_cell_formula_units_Z 16
_cell_length_a 11.798956
_cell_length_b 13.297555
_cell_length_c 12.168534
_cell_angle_alpha 32.751950
_cell_angle_beta 104.357659
_cell_angle_gamma 123.439103
_cell_volume 757.408374
_symmetry_space_group_name_H-M "P -1"
_symmetry_group_IT_number 2
_symmetry_cell_setting 'triclinic'
loop_
_space_group_symop_operation_xyz
x,y,z
-x,-y,-z
loop_
_atom_site_type_symbol
_atom_site_label
_atom_site_fract_x
_atom_site_fract_y
_atom_site_fract_z
Si Si1 0.251879 0.026645 0.049239
Si Si2 0.420471 0.546803 0.326703
Si Si3 0.109529 0.825804 0.430613
Si Si4 0.361979 0.711460 0.382945
Si Si5 0.819592 0.467177 0.802178
Si Si6 0.689414 0.957735 0.285325
Si Si7 0.944116 0.592134 0.308600
Si Si8 0.083675 0.890078 0.600417
O O1 0.190907 0.993683 0.189617
O O2 0.321005 0.886267 0.193194
O O3 0.096956 0.874927 0.076909
O O4 0.401316 0.298774 0.802571
O O5 0.402425 0.658683 0.325346
O O6 0.330277 0.562282 0.194608
O O7 0.335694 0.262892 0.578192
O O8 0.167845 0.964186 0.433508
O O9 0.923830 0.661652 0.549997
O O10 0.111108 0.601613 0.624492
O O11 0.515371 0.848560 0.367232
O O12 0.208188 0.469605 0.624520
O O13 0.937516 0.601150 0.809175
O O14 0.767287 0.204575 0.009280
O O15 0.798443 0.035746 0.343921
O O16 0.000000 0.500000 0.500000
O O17 0.000000 0.000000 0.500000
#
# Coordination Sequence:
#
# PCOD9087352 Si02
#       8
#     2   2   2   2   2   2   2   2
#     4  10  19  36  63  86 123 161 197 238 307 360
#     4  12  22  36  63  93 121 158 196 252 301 353
#     4   8  18  35  60  87 109 162 200 234 298 355
#     4  10  21  36  60  90 123 157 199 248 298 353
#     4  10  21  39  66  83 122 153 203 245 301 347
#     4  12  23  38  59  94 122 149 209 254 290 353
#     4   8  16  33  58  82 119 158 195 232 296 364
#     4  10  21  39  66  87 117 159 204 249 296 353
#
# _framework density 21.124668
#
# number of rings (size 3 to 8) (size 9 to 14) (size 15 to 20)
#    0.750    1.500    2.500    3.375    1.750    0.000 
#    0.000    3.750   13.750    0.000    0.000    0.000 
#    0.000    0.000    0.000    0.000    0.000    0.000 
#
# Total GULP energy -89130.828649 kJ/mol
# GULP energy per Si atom -5570.676791 kJ/mol
# Density = 2.107659 g / cm^3
# Si number density = 21.124668 Si / 1000 Ang^3
#
#
#
# Elastic Constant Matrix: (Units=GPa)
#
#
# Indices 1 2 3 4 5 6 
#
# 1 99.7639 52.1060 29.6652 -3.4505 -21.6653 12.4709
# 2 52.1060 106.9100 28.8716 -3.4743 -14.1173 12.8577
# 3 29.6652 28.8716 91.7226 -20.1436 -13.4938 2.7282
# 4 -3.4505 -3.4743 -20.1436 23.2302 3.2701 -4.8022
# 5 -21.6653 -14.1173 -13.4938 3.2701 37.8332 -7.2614
# 6 12.4709 12.8577 2.7282 -4.8022 -7.2614 42.2134
#
#
#
# Elastic Compliance Matrix: (Units=1/GPa)
#
#
# Indices 1 2 3 4 5 6 
#
# 1 0.015189 -0.005808 -0.002695 -0.002092 0.005395 -0.001854
# 2 -0.005808 0.013121 -0.002469 -0.001558 0.000396 -0.002230
# 3 -0.002695 -0.002469 0.015698 0.012998 0.002479 0.002439
# 4 -0.002092 -0.001558 0.012998 0.055196 -0.000683 0.006414
# 5 0.005395 0.000396 0.002479 -0.000683 0.031270 0.003427
# 6 -0.001854 -0.002230 0.002439 0.006414 0.003427 0.026078
#
#
# Mechanical properties :
#
#
# Convention : Reuss Voigt Hill
#
# Bulk Modulus (GPa) = 45.32305 57.74244 51.53274
# Shear Modulus (GPa) = 26.90317 33.17229 30.03773
#
# Velocity S-wave (km/s) = 3.57254 3.96701 3.77494
# Velocity P-wave (km/s) = 6.20637 6.95531 6.59149
#
# Compressibility (1/GPa) = 0.02206383
#
# Stress axis : x y z
#
# Youngs Moduli (GPa) = 65.83515 76.21343 63.70230
#
# Poissons Ratio (x) = 0.44264 0.17169
# Poissons Ratio (y) = 0.38236 0.15730
# Poissons Ratio (z) = 0.17744 0.18820
#
# Static dielectric constant tensor:
#      x y z
#    x 1.799600 -0.002380 -0.005470 
#    y -0.002380 1.811770 -0.018340 
#    z -0.005470 -0.018340 1.847870 
# 
# From -- ./inp_files/520635.got.cif
#   From: 2010.05.17/outbox.cif.g08.bks.cpg/sg2_261_cif.got.tgz:520635.got - 2010.06.03 11:33:40.
