data_PCOD9087114
_publ_section_title
;
Structure prediction by ZEFSAII (Michael W. Deem and Ramdas Pophale) SiO2 
 PCOD9087114
Probable space group: P -1
;
_chemical_formula_sum "Si O2"
_cell_formula_units_Z 12
_cell_length_a 9.646804
_cell_length_b 7.545254
_cell_length_c 10.215942
_cell_angle_alpha 112.926710
_cell_angle_beta 41.246993
_cell_angle_gamma 96.782967
_cell_volume 432.417748
_symmetry_space_group_name_H-M "P -1"
_symmetry_group_IT_number 2
_symmetry_cell_setting 'triclinic'
loop_
_space_group_symop_operation_xyz
x,y,z
-x,-y,-z
loop_
_atom_site_type_symbol
_atom_site_label
_atom_site_fract_x
_atom_site_fract_y
_atom_site_fract_z
Si Si1 0.060958 0.427130 0.287943
Si Si2 0.732053 0.040502 0.514123
Si Si3 0.142236 0.696108 0.834708
Si Si4 0.334331 0.700535 0.111804
Si Si5 0.225305 0.981327 0.044337
Si Si6 0.672403 0.711025 0.298759
O O1 0.130857 0.603680 0.214715
O O2 0.000000 0.500000 0.500000
O O3 0.870732 0.374197 0.324284
O O4 0.245203 0.206930 0.097375
O O5 0.719424 0.124716 0.692234
O O6 0.540578 0.191486 0.607821
O O7 0.677888 0.833753 0.463029
O O8 0.980048 0.012702 0.284629
O O9 0.301801 0.515659 0.748912
O O10 0.210272 0.891791 0.884922
O O11 0.895211 0.715742 0.067223
O O12 0.375470 0.810027 0.981848
O O13 0.500000 0.500000 0.000000
#
# Coordination Sequence:
#
# PCOD9087114 Si02
#       6
#     2   2   2   2   2   2
#     4  12  25  41  67 100 132 170 216 269 327 385
#     4  10  19  36  61  98 127 165 219 266 318 384
#     4  10  20  40  63  93 131 173 216 267 319 385
#     4  12  25  43  69  95 132 173 218 270 326 387
#     4  11  24  42  69  94 131 174 218 267 326 383
#     4   9  19  36  67  94 125 175 222 260 321 387
#
# _framework density 27.750941000000001
#
# number of rings (size 3 to 8) (size 9 to 14) (size 15 to 20)
#    0.000    1.333    1.667    6.000    2.333    0.667 
#    0.000    0.833    3.667    0.000    0.000    0.000 
#    0.000    0.000    0.000    0.000    0.000    0.000 
#
# Total GULP energy -67240.271403 kJ/mol
# GULP energy per Si atom -5603.355950 kJ/mol
# Density = 2.768778 g / cm^3
# Si number density = 27.750941 Si / 1000 Ang^3
#
#
#
# Elastic Constant Matrix: (Units=GPa)
#
#
# Indices 1 2 3 4 5 6 
#
# 1 142.5244 22.6732 59.2610 17.7680 29.1069 -14.5511
# 2 22.6732 126.5003 36.1184 31.1699 11.6943 -7.4428
# 3 59.2610 36.1184 92.2931 20.4792 25.4897 17.5575
# 4 17.7680 31.1699 20.4792 50.2879 16.5125 -18.8072
# 5 29.1069 11.6943 25.4897 16.5125 88.1695 13.1148
# 6 -14.5511 -7.4428 17.5575 -18.8072 13.1148 45.9300
#
#
#
# Elastic Compliance Matrix: (Units=1/GPa)
#
#
# Indices 1 2 3 4 5 6 
#
# 1 0.012572 0.000527 -0.010440 0.004887 -0.003774 0.011138
# 2 0.000527 0.009992 -0.003522 -0.004555 0.000191 0.001213
# 3 -0.010440 -0.003522 0.024533 -0.011618 0.001751 -0.018513
# 4 0.004887 -0.004555 -0.011618 0.036733 -0.007883 0.022544
# 5 -0.003774 0.000191 0.001751 -0.007883 0.014919 -0.009322
# 6 0.011138 0.001213 -0.018513 0.022544 -0.009322 0.044467
#
#
# Mechanical properties :
#
#
# Convention : Reuss Voigt Hill
#
# Bulk Modulus (GPa) = 49.43537 66.38033 57.90785
# Shear Modulus (GPa) = 28.27616 53.09515 40.68566
#
# Velocity S-wave (km/s) = 3.19553 4.37884 3.83312
# Velocity P-wave (km/s) = 5.60962 7.03830 6.36418
#
# Compressibility (1/GPa) = 0.02022843
#
# Stress axis : x y z
#
# Youngs Moduli (GPa) = 79.54282 100.07870 40.76149
#
# Poissons Ratio (x) = -0.05278 0.42554
# Poissons Ratio (y) = -0.04195 0.14356
# Poissons Ratio (z) = 0.83040 0.35247
#
# Static dielectric constant tensor:
#      x y z
#    x 2.191110 -0.039890 -0.049470 
#    y -0.039890 2.140630 -0.037160 
#    z -0.049470 -0.037160 2.194490 
# 
# From -- ./inp_files/145530.got.cif
#   From: 2010.05.17/outbox.cif.g08.bks.cpg/sg2_73_cif.got.tgz:145530.got - 2010.06.03 11:33:40.
