data_PCOD9087631
_publ_section_title
;
Structure prediction by ZEFSAII (Michael W. Deem and Ramdas Pophale) SiO2 
 PCOD9087631
Probable space group: P -1
;
_chemical_formula_sum "Si O2"
_cell_formula_units_Z 14
_cell_length_a 7.085204
_cell_length_b 12.050055
_cell_length_c 7.093095
_cell_angle_alpha 90.979306
_cell_angle_beta 60.191386
_cell_angle_gamma 83.964246
_cell_volume 520.859093
_symmetry_space_group_name_H-M "P -1"
_symmetry_group_IT_number 2
_symmetry_cell_setting 'triclinic'
loop_
_space_group_symop_operation_xyz
x,y,z
-x,-y,-z
loop_
_atom_site_type_symbol
_atom_site_label
_atom_site_fract_x
_atom_site_fract_y
_atom_site_fract_z
Si Si1 0.300690 0.089524 0.439029
Si Si2 0.989665 0.551435 0.268578
Si Si3 0.127588 0.228635 0.884051
Si Si4 0.383365 0.355280 0.014371
Si Si5 0.675610 0.176176 0.033634
Si Si6 0.741325 0.383131 0.537904
Si Si7 0.178620 0.859524 0.479132
O O1 0.513426 0.101529 0.210285
O O2 0.265471 0.172923 0.637331
O O3 0.082891 0.115247 0.416202
O O4 0.281911 0.963869 0.512666
O O5 0.961362 0.643147 0.125107
O O6 0.046137 0.619527 0.428129
O O7 0.778787 0.486434 0.392120
O O8 0.198013 0.456999 0.148757
O O9 0.272186 0.248870 0.991839
O O10 0.915435 0.166236 0.007253
O O11 0.532038 0.395597 0.775927
O O12 0.543532 0.303149 0.099367
O O13 0.731714 0.154298 0.782857
O O14 0.755984 0.257824 0.450767
#
# Coordination Sequence:
#
# PCOD9087631 Si02
#       7
#     2   2   2   2   2   2   2
#     4  10  19  36  65  85 121 156 191 246 296 340
#     4  11  21  38  60  87 121 154 198 244 287 355
#     4  11  24  39  57  96 120 150 204 238 289 362
#     4  11  23  38  61  86 125 157 190 247 296 341
#     4  10  21  39  61  89 119 155 196 238 296 353
#     4  10  21  37  62  89 113 154 206 237 294 350
#     4   9  18  37  60  92 113 151 203 241 285 358
#
# _framework density 26.87867
#
# number of rings (size 3 to 8) (size 9 to 14) (size 15 to 20)
#    0.000    1.714    4.286    2.143    2.000    1.714 
#    0.000    2.857    0.000   24.000    0.000    0.000 
#    0.000    0.000    0.000    0.000    0.000    0.000 
#
# Total GULP energy -78456.941901 kJ/mol
# GULP energy per Si atom -5604.067279 kJ/mol
# Density = 2.681749 g / cm^3
# Si number density = 26.878670 Si / 1000 Ang^3
#
#
#
# Elastic Constant Matrix: (Units=GPa)
#
#
# Indices 1 2 3 4 5 6 
#
# 1 91.2709 24.2280 29.3232 -14.9326 -22.2737 16.1267
# 2 24.2280 115.3979 25.0370 -16.6988 -13.4211 25.5246
# 3 29.3232 25.0370 101.1366 -22.5328 -27.8522 13.6511
# 4 -14.9326 -16.6988 -22.5328 41.7314 15.1956 -2.4793
# 5 -22.2737 -13.4211 -27.8522 15.1956 44.9238 -5.6761
# 6 16.1267 25.5246 13.6511 -2.4793 -5.6761 29.3166
#
#
#
# Elastic Compliance Matrix: (Units=1/GPa)
#
#
# Indices 1 2 3 4 5 6 
#
# 1 0.013972 -0.000598 -0.001495 0.002008 0.004456 -0.005437
# 2 -0.000598 0.011445 -0.000561 0.003344 0.000507 -0.008993
# 3 -0.001495 -0.000561 0.013401 0.004260 0.005516 -0.003501
# 4 0.002008 0.003344 0.004260 0.030301 -0.006200 -0.004637
# 5 0.004456 0.000507 0.005516 -0.006200 0.030119 -0.000155
# 6 -0.005437 -0.008993 -0.003501 -0.004637 -0.000155 0.046139
#
#
# Mechanical properties :
#
#
# Convention : Reuss Voigt Hill
#
# Bulk Modulus (GPa) = 29.84197 51.66464 40.75330
# Shear Modulus (GPa) = 30.89200 38.47550 34.68375
#
# Velocity S-wave (km/s) = 3.39383 3.78756 3.59609
# Velocity P-wave (km/s) = 5.14626 6.19602 5.69538
#
# Compressibility (1/GPa) = 0.03350986
#
# Stress axis : x y z
#
# Youngs Moduli (GPa) = 71.57255 87.37378 74.62338
#
# Poissons Ratio (x) = 0.05223 0.11154
# Poissons Ratio (y) = 0.04279 0.04189
# Poissons Ratio (z) = 0.10698 0.04905
#
# Static dielectric constant tensor:
#      x y z
#    x 2.137800 0.017970 0.031220 
#    y 0.017970 2.121080 0.020700 
#    z 0.031220 0.020700 2.107930 
# 
# From -- ./inp_files/188181.got.cif
#   From: 2010.05.17/outbox.cif.g08.bks.cpg/sg2_95_cif.got.tgz:188181.got - 2010.06.03 11:33:40.
