data_PCOD9087342
_publ_section_title
;
Structure prediction by ZEFSAII (Michael W. Deem and Ramdas Pophale) SiO2 
 PCOD9087342
Probable space group: P -1
;
_chemical_formula_sum "Si O2"
_cell_formula_units_Z 16
_cell_length_a 19.069188
_cell_length_b 13.367436
_cell_length_c 9.434204
_cell_angle_alpha 133.835196
_cell_angle_beta 139.338381
_cell_angle_gamma 24.992077
_cell_volume 661.921996
_symmetry_space_group_name_H-M "P -1"
_symmetry_group_IT_number 2
_symmetry_cell_setting 'triclinic'
loop_
_space_group_symop_operation_xyz
x,y,z
-x,-y,-z
loop_
_atom_site_type_symbol
_atom_site_label
_atom_site_fract_x
_atom_site_fract_y
_atom_site_fract_z
Si Si1 0.393124 0.470704 0.762074
Si Si2 0.764232 0.217575 0.717212
Si Si3 0.643553 0.955231 0.539408
Si Si4 0.916482 0.771492 0.552743
Si Si5 0.469163 0.225585 0.881635
Si Si6 0.997157 0.517471 0.844471
Si Si7 0.802750 0.491467 0.037318
Si Si8 0.367446 0.682388 0.700272
O O1 0.324970 0.463385 0.792335
O O2 0.280552 0.653892 0.639008
O O3 0.522368 0.213728 0.649228
O O4 0.500000 0.500000 0.000000
O O5 0.582320 0.417085 0.733947
O O6 0.711910 0.228320 0.489065
O O7 0.893762 0.959838 0.711721
O O8 0.846149 0.284534 0.891059
O O9 0.735950 0.896422 0.472983
O O10 0.529283 0.932105 0.325660
O O11 0.805992 0.764304 0.717631
O O12 0.948885 0.675328 0.353025
O O13 0.079768 0.564760 0.709307
O O14 0.402996 0.286599 0.002238
O O15 0.635029 0.162459 0.079264
O O16 0.147052 0.477012 0.992707
O O17 0.000000 0.500000 0.000000
#
# Coordination Sequence:
#
# PCOD9087342 Si02
#       8
#     2   2   2   2   2   2   2   2
#     4  10  21  36  60  89 122 163 204 248 298 356
#     4  10  20  36  62  87 124 155 201 252 299 354
#     4  11  20  40  62  89 122 163 207 245 296 372
#     4  11  20  40  66  88 120 165 201 246 303 369
#     4  10  19  36  63  85 122 160 204 245 294 369
#     4  11  24  40  62  91 124 156 198 260 308 354
#     4  10  20  40  63  92 117 162 207 240 304 372
#     4   9  20  37  54  91 124 158 197 251 302 345
#
# _framework density 24.172032000000002
#
# number of rings (size 3 to 8) (size 9 to 14) (size 15 to 20)
#    0.000    1.750    3.750    1.500    0.000    3.000 
#    0.000    2.500    0.000    0.000    0.000    0.000 
#    0.000    0.000    0.000    0.000    0.000    0.000 
#
# Total GULP energy -89299.943479 kJ/mol
# GULP energy per Si atom -5581.246467 kJ/mol
# Density = 2.411702 g / cm^3
# Si number density = 24.172032 Si / 1000 Ang^3
#
#
#
# Elastic Constant Matrix: (Units=GPa)
#
#
# Indices 1 2 3 4 5 6 
#
# 1 127.9775 -6.8250 35.8500 14.4713 -11.7868 15.4793
# 2 -6.8250 35.2359 22.7898 23.6461 2.9744 6.7956
# 3 35.8500 22.7898 136.0738 34.3287 -2.0183 15.7640
# 4 14.4713 23.6461 34.3287 35.6200 17.3194 7.5247
# 5 -11.7868 2.9744 -2.0183 17.3194 48.4061 5.5207
# 6 15.4793 6.7956 15.7640 7.5247 5.5207 22.0629
#
#
#
# Elastic Compliance Matrix: (Units=1/GPa)
#
#
# Indices 1 2 3 4 5 6 
#
# 1 0.012956 0.016180 -0.000105 -0.018608 0.009971 -0.010147
# 2 0.016180 0.078322 0.003099 -0.070228 0.026713 -0.020423
# 3 -0.000105 0.003099 0.011302 -0.014744 0.006154 -0.005467
# 4 -0.018608 -0.070228 -0.014744 0.114017 -0.043592 0.017242
# 5 0.009971 0.026713 0.006154 -0.043592 0.038952 -0.014500
# 6 -0.010147 -0.020423 -0.005467 0.017242 -0.014500 0.060388
#
#
# Mechanical properties :
#
#
# Convention : Reuss Voigt Hill
#
# Bulk Modulus (GPa) = 7.09581 44.76855 25.93218
# Shear Modulus (GPa) = 15.40517 37.71595 26.56056
#
# Velocity S-wave (km/s) = 2.52725 3.95437 3.31843
# Velocity P-wave (km/s) = 3.38495 6.27777 5.04323
#
# Compressibility (1/GPa) = 0.14092830
#
# Stress axis : x y z
#
# Youngs Moduli (GPa) = 77.18356 12.76776 88.48015
#
# Poissons Ratio (x) = -0.20659 0.00933
# Poissons Ratio (y) = -1.24886 -0.27420
# Poissons Ratio (z) = 0.00814 -0.03957
#
# Static dielectric constant tensor:
#      x y z
#    x 2.027290 -0.030830 -0.034790 
#    y -0.030830 1.952440 -0.023220 
#    z -0.034790 -0.023220 1.938580 
# 
# From -- ./inp_files/333827.got.cif
#   From: 2010.05.17/outbox.cif.g08.bks.cpg/sg2_167_cif.got.tgz:333827.got - 2010.06.03 11:33:40.
