data_PCOD9087158
_publ_section_title
;
Structure prediction by ZEFSAII (Michael W. Deem and Ramdas Pophale) SiO2 
 PCOD9087158
Probable space group: P -1
;
_chemical_formula_sum "Si O2"
_cell_formula_units_Z 16
_cell_length_a 14.262959
_cell_length_b 25.264384
_cell_length_c 16.545396
_cell_angle_alpha 158.794598
_cell_angle_beta 32.250892
_cell_angle_gamma 157.051891
_cell_volume 837.368589
_symmetry_space_group_name_H-M "P -1"
_symmetry_group_IT_number 2
_symmetry_cell_setting 'triclinic'
loop_
_space_group_symop_operation_xyz
x,y,z
-x,-y,-z
loop_
_atom_site_type_symbol
_atom_site_label
_atom_site_fract_x
_atom_site_fract_y
_atom_site_fract_z
Si Si1 0.114029 0.529180 0.664756
Si Si2 0.856647 0.625601 0.924609
Si Si3 0.516208 0.046744 0.798978
Si Si4 0.489570 0.330936 0.304807
Si Si5 0.007146 0.301147 0.258191
Si Si6 0.706300 0.099640 0.423541
Si Si7 0.662595 0.826175 0.333803
Si Si8 0.929642 0.981508 0.193379
O O1 0.356255 0.605024 0.635517
O O2 0.091986 0.462528 0.493376
O O3 0.064764 0.673805 0.896865
O O4 0.891825 0.336668 0.605573
O O5 0.911571 0.640318 0.809921
O O6 0.612044 0.390743 0.780335
O O7 0.806711 0.768174 0.180447
O O8 0.421969 0.008245 0.721061
O O9 0.677729 0.991886 0.602902
O O10 0.591482 0.252257 0.064618
O O11 0.282260 0.869857 0.770521
O O12 0.500000 0.500000 0.500000
O O13 0.203854 0.143653 0.255661
O O14 0.104590 0.200400 0.073901
O O15 0.875494 0.066860 0.285833
O O16 0.500000 0.000000 0.500000
O O17 0.757259 0.906322 0.288301
#
# Coordination Sequence:
#
# PCOD9087158 Si02
#       8
#     2   2   2   2   2   2   2   2
#     4  11  21  36  57  87 114 153 194 229 286 338
#     4  10  19  36  64  88 113 142 197 245 283 324
#     4  10  21  36  58  87 115 150 193 234 289 335
#     4  11  24  39  56  81 123 158 186 232 282 348
#     4   9  20  34  62  87 111 147 194 244 277 333
#     4  11  19  34  61  86 114 144 194 241 290 333
#     4  10  19  36  62  85 114 146 186 245 288 330
#     4  10  20  37  57  86 116 149 188 235 292 336
#
# _framework density 19.107475000000001
#
# number of rings (size 3 to 8) (size 9 to 14) (size 15 to 20)
#    0.000    1.750    5.000    0.375    1.750    1.500 
#    0.000    8.750    8.250    0.000    0.000    0.000 
#    0.000    0.000    0.000    0.000    0.000    0.000 
#
# Total GULP energy -89107.312585 kJ/mol
# GULP energy per Si atom -5569.207037 kJ/mol
# Density = 1.906399 g / cm^3
# Si number density = 19.107475 Si / 1000 Ang^3
#
#
#
# Elastic Constant Matrix: (Units=GPa)
#
#
# Indices 1 2 3 4 5 6 
#
# 1 93.7117 23.0665 39.2976 -4.0662 -42.0930 15.9042
# 2 23.0665 63.3845 17.4238 -16.0840 -3.7867 -12.0089
# 3 39.2976 17.4238 118.9704 -21.0965 -30.7058 5.5335
# 4 -4.0662 -16.0840 -21.0965 22.0098 7.7693 -2.3852
# 5 -42.0930 -3.7867 -30.7058 7.7693 35.6700 -7.2179
# 6 15.9042 -12.0089 5.5335 -2.3852 -7.2179 26.6033
#
#
#
# Elastic Compliance Matrix: (Units=1/GPa)
#
#
# Indices 1 2 3 4 5 6 
#
# 1 0.041142 -0.024376 -0.002739 -0.031604 0.045314 -0.025568
# 2 -0.024376 0.037016 0.000889 0.035638 -0.026339 0.027145
# 3 -0.002739 0.000889 0.012363 0.010200 0.005671 0.001921
# 4 -0.031604 0.035638 0.010200 0.092380 -0.038649 0.030656
# 5 0.045314 -0.026339 0.005671 -0.038649 0.088017 -0.019744
# 6 -0.025568 0.027145 0.001921 0.030656 -0.019744 0.062121
#
#
# Mechanical properties :
#
#
# Convention : Reuss Voigt Hill
#
# Bulk Modulus (GPa) = 26.26786 48.40471 37.33628
# Shear Modulus (GPa) = 12.55716 29.94188 21.24952
#
# Velocity S-wave (km/s) = 2.56634 3.96286 3.33844
# Velocity P-wave (km/s) = 4.74961 6.80638 5.86880
#
# Compressibility (1/GPa) = 0.03806934
#
# Stress axis : x y z
#
# Youngs Moduli (GPa) = 24.30635 27.01569 80.88509
#
# Poissons Ratio (x) = 0.65852 0.22157
# Poissons Ratio (y) = 0.59248 -0.07194
# Poissons Ratio (z) = 0.06658 -0.02403
#
# Static dielectric constant tensor:
#      x y z
#    x 1.653280 0.016470 -0.030680 
#    y 0.016470 1.685450 -0.018100 
#    z -0.030680 -0.018100 1.733640 
# 
# From -- ./inp_files/169782.got.cif
#   From: 2010.05.17/outbox.cif.g08.bks.cpg/sg2_85_cif.got.tgz:169782.got - 2010.06.03 11:33:40.
