data_PCOD9087264
_publ_section_title
;
Structure prediction by ZEFSAII (Michael W. Deem and Ramdas Pophale) SiO2 
 PCOD9087264
Probable space group: P -1
;
_chemical_formula_sum "Si O2"
_cell_formula_units_Z 16
_cell_length_a 14.677549
_cell_length_b 16.143797
_cell_length_c 6.401861
_cell_angle_alpha 133.765607
_cell_angle_beta 84.324590
_cell_angle_gamma 127.649402
_cell_volume 715.074789
_symmetry_space_group_name_H-M "P -1"
_symmetry_group_IT_number 2
_symmetry_cell_setting 'triclinic'
loop_
_space_group_symop_operation_xyz
x,y,z
-x,-y,-z
loop_
_atom_site_type_symbol
_atom_site_label
_atom_site_fract_x
_atom_site_fract_y
_atom_site_fract_z
Si Si1 0.615367 0.203492 0.278494
Si Si2 0.270274 0.149031 0.249979
Si Si3 0.698972 0.420976 0.256010
Si Si4 0.333248 0.372202 0.285277
Si Si5 0.121164 0.025631 0.472195
Si Si6 0.245020 0.952462 0.533405
Si Si7 0.476924 0.256444 0.694226
Si Si8 0.160827 0.628111 0.149134
O O1 0.629943 0.258409 0.133648
O O2 0.560770 0.256516 0.518628
O O3 0.760995 0.306958 0.532569
O O4 0.500000 0.000000 0.000000
O O5 0.260858 0.255455 0.307560
O O6 0.142985 0.017437 0.210041
O O7 0.406783 0.278643 0.591117
O O8 0.284664 0.057884 0.922203
O O9 0.728008 0.559295 0.634088
O O10 0.588689 0.384672 0.071411
O O11 0.806477 0.453775 0.142420
O O12 0.500000 0.500000 0.500000
O O13 0.263931 0.221552 0.866559
O O14 0.112469 0.899063 0.383315
O O15 0.000000 0.000000 0.500000
O O16 0.222005 0.798602 0.318103
O O17 0.356831 0.075239 0.535307
O O18 0.000000 0.500000 0.000000
#
# Coordination Sequence:
#
# PCOD9087264 Si02
#       8
#     2   2   2   2   2   2   2   2
#     4  11  22  39  64  88 119 163 210 256 302 355
#     4  10  21  38  64  90 121 164 203 253 316 367
#     4  11  24  39  61  95 129 163 207 257 313 371
#     4  11  23  40  63  95 130 159 201 259 318 375
#     4  10  24  41  64  93 120 161 212 258 305 369
#     4  10  21  40  63  89 123 161 209 255 304 371
#     4  10  19  36  62  92 119 154 205 256 304 364
#     4  11  26  42  60  91 129 169 208 253 309 371
#
# _framework density 22.375283
#
# number of rings (size 3 to 8) (size 9 to 14) (size 15 to 20)
#    0.000    1.500    0.000    6.000    0.000   12.500 
#    0.000    0.000    0.000    0.000    0.000    0.000 
#    0.000    0.000    0.000    0.000    0.000    0.000 
#
# Total GULP energy -89196.824392 kJ/mol
# GULP energy per Si atom -5574.801525 kJ/mol
# Density = 2.232436 g / cm^3
# Si number density = 22.375283 Si / 1000 Ang^3
#
#
#
# Elastic Constant Matrix: (Units=GPa)
#
#
# Indices 1 2 3 4 5 6 
#
# 1 117.4005 21.4261 24.2490 -5.8057 -6.5282 5.8025
# 2 21.4261 71.1418 26.6798 -20.4297 -3.8690 -5.4239
# 3 24.2490 26.6798 38.4442 -3.8207 -2.4826 -0.7991
# 4 -5.8057 -20.4297 -3.8207 29.3207 -7.4482 -4.3258
# 5 -6.5282 -3.8690 -2.4826 -7.4482 31.2230 7.0195
# 6 5.8025 -5.4239 -0.7991 -4.3258 7.0195 36.1028
#
#
#
# Elastic Compliance Matrix: (Units=1/GPa)
#
#
# Indices 1 2 3 4 5 6 
#
# 1 0.010105 -0.000618 -0.005731 0.001096 0.002329 -0.002165
# 2 -0.000618 0.025709 -0.015262 0.017780 0.005010 0.004780
# 3 -0.005731 -0.015262 0.039392 -0.007156 -0.001421 -0.001081
# 4 0.001096 0.017780 -0.007156 0.049802 0.012419 0.005889
# 5 0.002329 0.005010 -0.001421 0.012419 0.037198 -0.005397
# 6 -0.002165 0.004780 -0.001081 0.005889 -0.005397 0.030496
#
#
# Mechanical properties :
#
#
# Convention : Reuss Voigt Hill
#
# Bulk Modulus (GPa) = 31.26451 41.29957 36.28204
# Shear Modulus (GPa) = 20.27693 29.63808 24.95750
#
# Velocity S-wave (km/s) = 3.01361 3.64344 3.34339
# Velocity P-wave (km/s) = 5.11002 6.01642 5.58165
#
# Compressibility (1/GPa) = 0.03198515
#
# Stress axis : x y z
#
# Youngs Moduli (GPa) = 98.96103 38.89711 25.38555
#
# Poissons Ratio (x) = 0.02404 0.14547
# Poissons Ratio (y) = 0.06117 0.38743
# Poissons Ratio (z) = 0.56711 0.59364
#
# Static dielectric constant tensor:
#      x y z
#    x 1.878710 0.009070 0.147310 
#    y 0.009070 1.814030 -0.014730 
#    z 0.147310 -0.014730 1.734660 
# 
# From -- ./inp_files/98685.got.cif
#   From: 2010.05.17/outbox.cif.g08.bks.cpg/sg2_50_cif.got.tgz:98685.got - 2010.06.03 11:33:40.
