data_PCOD9087949
_publ_section_title
;
Structure prediction by ZEFSAII (Michael W. Deem and Ramdas Pophale) SiO2 
 PCOD9087949
Probable space group: P -1
;
_chemical_formula_sum "Si O2"
_cell_formula_units_Z 16
_cell_length_a 12.079907
_cell_length_b 9.587641
_cell_length_c 14.914901
_cell_angle_alpha 87.551573
_cell_angle_beta 39.589923
_cell_angle_gamma 65.434312
_cell_volume 878.856919
_symmetry_space_group_name_H-M "P -1"
_symmetry_group_IT_number 2
_symmetry_cell_setting 'triclinic'
loop_
_space_group_symop_operation_xyz
x,y,z
-x,-y,-z
loop_
_atom_site_type_symbol
_atom_site_label
_atom_site_fract_x
_atom_site_fract_y
_atom_site_fract_z
Si Si1 0.984565 0.477835 0.904474
Si Si2 0.162488 0.758256 0.996233
Si Si3 0.220784 0.259777 0.452942
Si Si4 0.777211 0.161888 0.243796
Si Si5 0.466659 0.831973 0.880489
Si Si6 0.057088 0.331399 0.375670
Si Si7 0.077155 0.210595 0.173170
Si Si8 0.363135 0.199311 0.554027
O O1 0.217959 0.327760 0.720660
O O2 0.850123 0.400211 0.977208
O O3 0.903748 0.650892 0.894365
O O4 0.000000 0.500000 0.000000
O O5 0.211551 0.770269 0.861724
O O6 0.342655 0.747758 0.944519
O O7 0.932976 0.949066 0.151424
O O8 0.463674 0.144361 0.262855
O O9 0.916667 0.750330 0.539510
O O10 0.219465 0.220312 0.557638
O O11 0.126395 0.462763 0.507139
O O12 0.533549 0.234817 0.416054
O O13 0.887619 0.213505 0.243861
O O14 0.702595 0.712890 0.783028
O O15 0.300674 0.017512 0.025472
O O16 0.026190 0.257603 0.308247
O O17 0.500000 0.000000 0.500000
#
# Coordination Sequence:
#
# PCOD9087949 Si02
#       8
#     2   2   2   2   2   2   2   2
#     4  12  25  37  53  91 130 150 184 251 299 345
#     4  10  19  37  57  86 119 157 198 236 289 355
#     4   9  19  35  60  86 110 153 205 239 278 350
#     4  10  20  36  60  84 116 160 200 234 285 365
#     4   9  19  35  64  78 111 156 201 231 291 339
#     4   9  18  37  58  89 111 151 207 245 277 339
#     4  11  21  35  59  89 121 148 196 246 293 345
#     4  12  23  39  62  86 119 161 196 234 303 356
#
# _framework density 18.205466000000001
#
# number of rings (size 3 to 8) (size 9 to 14) (size 15 to 20)
#    0.750    1.000    5.000    0.375    1.750    0.500 
#    2.250    0.625    0.000    0.750    0.000    0.000 
#    0.000    0.000    0.000    0.000    0.000    0.000 
#
# Total GULP energy -89090.919148 kJ/mol
# GULP energy per Si atom -5568.182447 kJ/mol
# Density = 1.816403 g / cm^3
# Si number density = 18.205466 Si / 1000 Ang^3
#
#
#
# Elastic Constant Matrix: (Units=GPa)
#
#
# Indices 1 2 3 4 5 6 
#
# 1 97.4449 31.4762 26.2351 2.7283 27.7286 3.7248
# 2 31.4762 67.1614 9.2434 -2.5056 8.9124 10.5711
# 3 26.2351 9.2434 77.6820 9.3221 25.5049 5.5659
# 4 2.7283 -2.5056 9.3221 19.0541 6.0857 0.7422
# 5 27.7286 8.9124 25.5049 6.0857 34.7958 0.0167
# 6 3.7248 10.5711 5.5659 0.7422 0.0167 26.7902
#
#
#
# Elastic Compliance Matrix: (Units=1/GPa)
#
#
# Indices 1 2 3 4 5 6 
#
# 1 0.015219 -0.005669 -0.001372 0.000869 -0.009822 0.000388
# 2 -0.005669 0.018888 0.000019 0.003872 -0.001008 -0.006776
# 3 -0.001372 0.000019 0.017805 -0.004830 -0.011116 -0.003375
# 4 0.000869 0.003872 -0.004830 0.057962 -0.008280 -0.002246
# 5 -0.009822 -0.001008 -0.011116 -0.008280 0.046418 0.004273
# 6 0.000388 -0.006776 -0.003375 -0.002246 0.004273 0.040707
#
#
# Mechanical properties :
#
#
# Convention : Reuss Voigt Hill
#
# Bulk Modulus (GPa) = 26.40808 41.79975 34.10391
# Shear Modulus (GPa) = 22.35463 27.81692 25.08577
#
# Velocity S-wave (km/s) = 3.50795 3.91313 3.71607
# Velocity P-wave (km/s) = 5.56280 6.58989 6.09801
#
# Compressibility (1/GPa) = 0.03786719
#
# Stress axis : x y z
#
# Youngs Moduli (GPa) = 65.70933 52.94250 56.16305
#
# Poissons Ratio (x) = 0.30012 0.07708
# Poissons Ratio (y) = 0.37250 -0.00105
# Poissons Ratio (z) = 0.09018 -0.00099
#
# Static dielectric constant tensor:
#      x y z
#    x 1.654310 -0.011430 0.010120 
#    y -0.011430 1.607430 -0.011840 
#    z 0.010120 -0.011840 1.635780 
# 
# From -- ./inp_files/202111.got.cif
#   From: 2010.05.17/outbox.cif.g08.bks.cpg/sg2_102_cif.got.tgz:202111.got - 2010.06.03 11:33:40.
