data_PCOD9087946
_publ_section_title
;
Structure prediction by ZEFSAII (Michael W. Deem and Ramdas Pophale) SiO2 
 PCOD9087946
Probable space group: P -1
;
_chemical_formula_sum "Si O2"
_cell_formula_units_Z 16
_cell_length_a 11.763343
_cell_length_b 12.499319
_cell_length_c 11.539605
_cell_angle_alpha 132.366967
_cell_angle_beta 133.613848
_cell_angle_gamma 35.907938
_cell_volume 693.447007
_symmetry_space_group_name_H-M "P -1"
_symmetry_group_IT_number 2
_symmetry_cell_setting 'triclinic'
loop_
_space_group_symop_operation_xyz
x,y,z
-x,-y,-z
loop_
_atom_site_type_symbol
_atom_site_label
_atom_site_fract_x
_atom_site_fract_y
_atom_site_fract_z
Si Si1 0.540490 0.305556 0.040438
Si Si2 0.102930 0.724805 0.307358
Si Si3 0.918008 0.700234 0.812204
Si Si4 0.757733 0.168110 0.325707
Si Si5 0.743347 0.296321 0.827847
Si Si6 0.185725 0.985574 0.172700
Si Si7 0.501806 0.087775 0.188066
Si Si8 0.825435 0.684602 0.190186
O O1 0.711974 0.209826 0.189500
O O2 0.452708 0.516872 0.110457
O O3 0.624332 0.169924 0.890452
O O4 0.348347 0.329050 0.972983
O O5 0.175289 0.726864 0.486797
O O6 0.277479 0.648342 0.280163
O O7 0.989842 0.639015 0.176444
O O8 0.934703 0.943227 0.306238
O O9 0.711296 0.801140 0.814289
O O10 0.045102 0.474848 0.736036
O O11 0.867207 0.815642 0.741947
O O12 0.061229 0.728918 0.004989
O O13 0.563829 0.212742 0.288348
O O14 0.769947 0.112615 0.743695
O O15 0.000000 0.000000 0.000000
O O16 0.683276 0.911848 0.267726
O O17 0.500000 0.000000 0.000000
#
# Coordination Sequence:
#
# PCOD9087946 Si02
#       8
#     2   2   2   2   2   2   2   2
#     4  11  20  35  58  92 112 151 201 244 294 339
#     4  10  22  38  53  87 124 156 188 231 306 356
#     4  10  20  33  55  84 110 153 192 244 291 328
#     4  10  21  35  57  85 119 160 186 236 298 355
#     4  10  22  33  57  85 123 154 192 245 288 352
#     4  10  19  37  57  86 115 149 199 251 289 336
#     4  11  18  32  54  83 118 147 187 237 287 344
#     4  10  21  34  57  88 119 147 192 247 289 351
#
# _framework density 23.073141
#
# number of rings (size 3 to 8) (size 9 to 14) (size 15 to 20)
#    0.000    1.750    2.500    3.375    1.750    2.000 
#    0.000    0.000    0.000    0.750    6.500    7.875 
#    0.000    0.000    0.000    0.000    0.000    0.000 
#
# Total GULP energy -89254.227100 kJ/mol
# GULP energy per Si atom -5578.389194 kJ/mol
# Density = 2.302063 g / cm^3
# Si number density = 23.073141 Si / 1000 Ang^3
#
#
#
# Elastic Constant Matrix: (Units=GPa)
#
#
# Indices 1 2 3 4 5 6 
#
# 1 73.5302 37.5208 17.0829 -5.9588 1.8678 14.1119
# 2 37.5208 112.4494 -2.6045 -11.8597 3.4128 16.8388
# 3 17.0829 -2.6045 35.2222 1.9052 4.6531 -0.1571
# 4 -5.9588 -11.8597 1.9052 12.5119 0.7412 1.0992
# 5 1.8678 3.4128 4.6531 0.7412 13.7712 -4.9859
# 6 14.1119 16.8388 -0.1571 1.0992 -4.9859 29.0828
#
#
#
# Elastic Compliance Matrix: (Units=1/GPa)
#
#
# Indices 1 2 3 4 5 6 
#
# 1 0.020880 -0.005280 -0.010813 0.007311 -0.001008 -0.007582
# 2 -0.005280 0.012988 0.003825 0.010178 -0.006685 -0.006468
# 3 -0.010813 0.003825 0.035675 -0.006474 -0.010588 0.001654
# 4 0.007311 0.010178 -0.006474 0.096082 -0.011987 -0.015162
# 5 -0.001008 -0.006685 -0.010588 -0.011987 0.085671 0.019443
# 6 -0.007582 -0.006468 0.001654 -0.015162 0.019443 0.045724
#
#
# Mechanical properties :
#
#
# Convention : Reuss Voigt Hill
#
# Bulk Modulus (GPa) = 22.21936 36.13335 29.17636
# Shear Modulus (GPa) = 14.85629 22.35335 18.60482
#
# Velocity S-wave (km/s) = 2.54023 3.11594 2.84269
# Velocity P-wave (km/s) = 4.27253 5.35161 4.84223
#
# Compressibility (1/GPa) = 0.04500580
#
# Stress axis : x y z
#
# Youngs Moduli (GPa) = 47.89360 76.99264 28.03099
#
# Poissons Ratio (x) = 0.40654 0.30310
# Poissons Ratio (y) = 0.25289 -0.10722
# Poissons Ratio (z) = 0.51788 -0.29450
#
# Static dielectric constant tensor:
#      x y z
#    x 1.925810 -0.015980 -0.017300 
#    y -0.015980 1.967770 -0.008860 
#    z -0.017300 -0.008860 1.839850 
# 
# From -- ./inp_files/418377.got.cif
#   From: 2010.05.17/outbox.cif.g08.bks.cpg/sg2_210_cif.got.tgz:418377.got - 2010.06.03 11:33:40.
