data_PCOD9087504
_publ_section_title
;
Structure prediction by ZEFSAII (Michael W. Deem and Ramdas Pophale) SiO2 
 PCOD9087504
Probable space group: P -1
;
_chemical_formula_sum "Si O2"
_cell_formula_units_Z 16
_cell_length_a 5.301360
_cell_length_b 15.387550
_cell_length_c 11.521552
_cell_angle_alpha 65.657307
_cell_angle_beta 88.858039
_cell_angle_gamma 66.184776
_cell_volume 771.202380
_symmetry_space_group_name_H-M "P -1"
_symmetry_group_IT_number 2
_symmetry_cell_setting 'triclinic'
loop_
_space_group_symop_operation_xyz
x,y,z
-x,-y,-z
loop_
_atom_site_type_symbol
_atom_site_label
_atom_site_fract_x
_atom_site_fract_y
_atom_site_fract_z
Si Si1 0.621762 0.597492 0.017697
Si Si2 0.565557 0.876595 0.234245
Si Si3 0.943603 0.612630 0.793682
Si Si4 0.049058 0.773134 0.857172
Si Si5 0.604659 0.799683 0.012582
Si Si6 0.070950 0.991601 0.867700
Si Si7 0.237040 0.228981 0.474832
Si Si8 0.857277 0.125823 0.424394
O O1 0.752779 0.484350 0.139799
O O2 0.705180 0.676694 0.049608
O O3 0.294846 0.669094 0.967793
O O4 0.743858 0.580550 0.894061
O O5 0.593982 0.827225 0.132490
O O6 0.740877 0.946145 0.194540
O O7 0.700650 0.788160 0.379975
O O8 0.233486 0.948689 0.221942
O O9 0.909635 0.718941 0.800420
O O10 0.874558 0.652312 0.641198
O O11 0.137477 0.838469 0.727990
O O12 0.817919 0.832781 0.923480
O O13 0.295897 0.868300 0.923765
O O14 0.000000 0.000000 0.000000
O O15 0.540126 0.167054 0.446637
O O16 0.027135 0.177212 0.469443
O O17 0.000000 0.000000 0.500000
#
# Coordination Sequence:
#
# PCOD9087504 Si02
#       8
#     2   2   2   2   2   2   2   2
#     4  10  19  36  64  86 118 153 207 266 302 355
#     4  11  24  41  62  88 127 169 200 241 304 370
#     4   9  20  39  58  89 116 159 207 250 318 355
#     4  10  21  36  62  89 123 155 201 262 307 361
#     4  10  23  36  59  95 118 157 206 256 301 356
#     4  10  22  40  60  86 123 164 205 244 289 358
#     4  11  23  43  61  87 124 168 199 245 305 375
#     4  11  24  41  61  90 123 161 207 247 302 364
#
# _framework density 20.746822999999999
#
# number of rings (size 3 to 8) (size 9 to 14) (size 15 to 20)
#    0.000    1.750    1.250    3.000    7.000    1.000 
#    0.000    0.625    0.000    0.750    0.000    0.000 
#    0.000    0.000    0.000    0.000    0.000    0.000 
#
# Total GULP energy -89269.779216 kJ/mol
# GULP energy per Si atom -5579.361201 kJ/mol
# Density = 2.069960 g / cm^3
# Si number density = 20.746823 Si / 1000 Ang^3
#
#
#
# Elastic Constant Matrix: (Units=GPa)
#
#
# Indices 1 2 3 4 5 6 
#
# 1 94.8014 16.8883 17.3871 -5.7963 9.0104 -19.5119
# 2 16.8883 73.2025 42.3893 -5.3271 1.7663 -7.4085
# 3 17.3871 42.3893 149.9817 -8.3988 15.0758 -4.5906
# 4 -5.7963 -5.3271 -8.3988 32.0159 0.6819 1.5882
# 5 9.0104 1.7663 15.0758 0.6819 27.7450 -0.2257
# 6 -19.5119 -7.4085 -4.5906 1.5882 -0.2257 33.1377
#
#
#
# Elastic Compliance Matrix: (Units=1/GPa)
#
#
# Indices 1 2 3 4 5 6 
#
# 1 0.012846 -0.001892 -0.000255 0.001680 -0.003897 0.006998
# 2 -0.001892 0.017043 -0.004680 0.001122 0.002061 0.002008
# 3 -0.000255 -0.004680 0.008532 0.001511 -0.004294 -0.000116
# 4 0.001680 0.001122 0.001511 0.032174 -0.002229 -0.000108
# 5 -0.003897 0.002061 -0.004294 -0.002229 0.039548 -0.002053
# 6 0.006998 0.002008 -0.000116 -0.000108 -0.002053 0.034722
#
#
# Mechanical properties :
#
#
# Convention : Reuss Voigt Hill
#
# Bulk Modulus (GPa) = 40.37528 52.36832 46.37180
# Shear Modulus (GPa) = 29.98073 34.66779 32.32426
#
# Velocity S-wave (km/s) = 3.80554 4.09221 3.95148
# Velocity P-wave (km/s) = 6.22998 6.90106 6.57409
#
# Compressibility (1/GPa) = 0.02476763
#
# Stress axis : x y z
#
# Youngs Moduli (GPa) = 77.84789 58.67677 117.19994
#
# Poissons Ratio (x) = 0.11099 0.02983
# Poissons Ratio (y) = 0.14726 0.54853
# Poissons Ratio (z) = 0.01981 0.27463
#
# Static dielectric constant tensor:
#      x y z
#    x 1.867240 0.053420 0.009450 
#    y 0.053420 1.774960 0.001810 
#    z 0.009450 0.001810 1.765120 
# 
# From -- ./inp_files/368961.got.cif
#   From: 2010.05.17/outbox.cif.g08.bks.cpg/sg2_185_cif.got.tgz:368961.got - 2010.06.03 11:33:40.
