data_PCOD9087628
_publ_section_title
;
Structure prediction by ZEFSAII (Michael W. Deem and Ramdas Pophale) SiO2 
 PCOD9087628
Probable space group: P -1
;
_chemical_formula_sum "Si O2"
_cell_formula_units_Z 16
_cell_length_a 15.306350
_cell_length_b 11.476165
_cell_length_c 9.041288
_cell_angle_alpha 40.699376
_cell_angle_beta 69.277730
_cell_angle_gamma 52.841305
_cell_volume 808.637396
_symmetry_space_group_name_H-M "P -1"
_symmetry_group_IT_number 2
_symmetry_cell_setting 'triclinic'
loop_
_space_group_symop_operation_xyz
x,y,z
-x,-y,-z
loop_
_atom_site_type_symbol
_atom_site_label
_atom_site_fract_x
_atom_site_fract_y
_atom_site_fract_z
Si Si1 0.453247 0.578191 0.120119
Si Si2 0.972536 0.831419 0.240356
Si Si3 0.736893 0.119260 0.244269
Si Si4 0.855402 0.641681 0.329014
Si Si5 0.315511 0.226090 0.939092
Si Si6 0.333530 0.466078 0.942895
Si Si7 0.511663 0.836128 0.356970
Si Si8 0.663329 0.819645 0.523568
O O1 0.535127 0.643226 0.071088
O O2 0.471226 0.384806 0.391205
O O3 0.500000 0.500000 0.000000
O O4 0.324451 0.757417 0.992279
O O5 0.931699 0.732797 0.234056
O O6 0.073269 0.616526 0.463896
O O7 0.867059 0.960056 0.289345
O O8 0.000000 0.000000 0.000000
O O9 0.714252 0.291214 0.216246
O O10 0.675277 0.996323 0.428467
O O11 0.787313 0.741773 0.122920
O O12 0.765479 0.714872 0.445700
O O13 0.278183 0.422563 0.882609
O O14 0.401009 0.212723 0.778567
O O15 0.389948 0.013103 0.197737
O O16 0.324973 0.353314 0.202370
O O17 0.552933 0.906425 0.407259
#
# Coordination Sequence:
#
# PCOD9087628 Si02
#       8
#     2   2   2   2   2   2   2   2
#     4  10  20  34  57  91 121 152 207 239 275 352
#     4  10  20  38  70  85 110 148 203 260 296 338
#     4  10  21  35  57  96 111 151 205 247 288 336
#     4   9  21  42  60  94 111 149 205 246 299 352
#     4  10  23  37  58  86 129 162 186 242 305 352
#     4  11  22  36  56  93 123 163 194 231 297 354
#     4  10  20  39  58  85 123 168 199 233 292 352
#     4  10  19  36  65  80 126 157 203 245 271 354
#
# _framework density 19.786373000000001
#
# number of rings (size 3 to 8) (size 9 to 14) (size 15 to 20)
#    0.000    2.000    2.500    1.500    5.250    2.500 
#    2.250    0.625    0.000   10.500    0.000    0.000 
#    0.000    0.000    0.000    0.000    0.000    0.000 
#
# Total GULP energy -89313.543572 kJ/mol
# GULP energy per Si atom -5582.096473 kJ/mol
# Density = 1.974134 g / cm^3
# Si number density = 19.786373 Si / 1000 Ang^3
#
#
#
# Elastic Constant Matrix: (Units=GPa)
#
#
# Indices 1 2 3 4 5 6 
#
# 1 79.2030 13.6459 45.2379 -3.7055 1.0828 6.6478
# 2 13.6459 64.1623 28.1520 -9.8001 7.9532 7.9972
# 3 45.2379 28.1520 112.9441 -6.7622 -8.7809 1.5902
# 4 -3.7055 -9.8001 -6.7622 33.0649 4.3827 4.9905
# 5 1.0828 7.9532 -8.7809 4.3827 37.3289 -3.7274
# 6 6.6478 7.9972 1.5902 4.9905 -3.7274 26.3954
#
#
#
# Elastic Compliance Matrix: (Units=1/GPa)
#
#
# Indices 1 2 3 4 5 6 
#
# 1 0.017078 0.000732 -0.007080 0.001817 -0.003016 -0.004866
# 2 0.000732 0.021033 -0.005552 0.007497 -0.007558 -0.008707
# 3 -0.007080 -0.005552 0.013358 -0.000902 0.004989 0.003536
# 4 0.001817 0.007497 -0.000902 0.034962 -0.006993 -0.010272
# 5 -0.003016 -0.007558 0.004989 -0.006993 0.031330 0.008495
# 6 -0.004866 -0.008707 0.003536 -0.010272 0.008495 0.044678
#
#
# Mechanical properties :
#
#
# Convention : Reuss Voigt Hill
#
# Bulk Modulus (GPa) = 36.14145 47.82010 41.98078
# Shear Modulus (GPa) = 25.58057 30.64274 28.11166
#
# Velocity S-wave (km/s) = 3.59951 3.93960 3.77338
# Velocity P-wave (km/s) = 5.96496 6.70183 6.34410
#
# Compressibility (1/GPa) = 0.02766906
#
# Stress axis : x y z
#
# Youngs Moduli (GPa) = 58.55426 47.54455 74.86310
#
# Poissons Ratio (x) = -0.03481 0.53004
# Poissons Ratio (y) = -0.04287 0.41564
# Poissons Ratio (z) = 0.41457 0.26397
#
# Static dielectric constant tensor:
#      x y z
#    x 1.738910 -0.001340 0.002340 
#    y -0.001340 1.745400 -0.033010 
#    z 0.002340 -0.033010 1.689990 
# 
# From -- ./inp_files/304542.got.cif
#   From: 2010.05.17/outbox.cif.g08.bks.cpg/sg2_153_cif.got.tgz:304542.got - 2010.06.03 11:33:40.
