data_PCOD9087854
_publ_section_title
;
Structure prediction by ZEFSAII (Michael W. Deem and Ramdas Pophale) SiO2 
 PCOD9087854
Probable space group: P -1
;
_chemical_formula_sum "Si O2"
_cell_formula_units_Z 16
_cell_length_a 15.611054
_cell_length_b 8.531500
_cell_length_c 11.639092
_cell_angle_alpha 61.971056
_cell_angle_beta 132.433778
_cell_angle_gamma 87.004479
_cell_volume 831.956732
_symmetry_space_group_name_H-M "P -1"
_symmetry_group_IT_number 2
_symmetry_cell_setting 'triclinic'
loop_
_space_group_symop_operation_xyz
x,y,z
-x,-y,-z
loop_
_atom_site_type_symbol
_atom_site_label
_atom_site_fract_x
_atom_site_fract_y
_atom_site_fract_z
Si Si1 0.573308 0.618137 0.989643
Si Si2 0.680942 0.617923 0.332245
Si Si3 0.993922 0.476365 0.638785
Si Si4 0.329790 0.481853 0.277960
Si Si5 0.808507 0.454609 0.079851
Si Si6 0.636141 0.312189 0.535978
Si Si7 0.743145 0.901946 0.884754
Si Si8 0.454834 0.084466 0.677882
O O1 0.704365 0.463984 0.077192
O O2 0.470394 0.858523 0.760940
O O3 0.500000 0.500000 0.000000
O O4 0.633542 0.663590 0.141912
O O5 0.839967 0.548527 0.509524
O O6 0.666917 0.425568 0.425981
O O7 0.588328 0.813458 0.269546
O O8 0.000000 0.500000 0.500000
O O9 0.046905 0.608838 0.707749
O O10 0.111359 0.229531 0.868116
O O11 0.200732 0.626967 0.024161
O O12 0.472210 0.399605 0.362978
O O13 0.330300 0.614821 0.339599
O O14 0.348944 0.273905 0.428582
O O15 0.736253 0.707963 0.898719
O O16 0.728908 0.055828 0.718519
O O17 0.607722 0.034083 0.799816
#
# Coordination Sequence:
#
# PCOD9087854 Si02
#       8
#     2   2   2   2   2   2   2   2
#     4  11  21  32  53  83 106 131 176 229 260 296
#     4  11  20  34  57  76 108 139 177 213 259 316
#     4  10  19  37  55  72 105 151 176 204 259 325
#     4   9  17  33  55  78 111 134 172 217 271 307
#     4   9  19  34  53  76 101 145 174 210 258 319
#     4   9  18  31  52  84 106 136 168 224 265 303
#     4   8  18  33  55  78 103 139 179 208 262 312
#     4   9  19  35  54  81 101 139 176 216 259 312
#
# _framework density 19.231770999999998
#
# number of rings (size 3 to 8) (size 9 to 14) (size 15 to 20)
#    0.750    1.750    1.250    1.875    0.000    6.000 
#    0.000    2.500    2.750    1.500    0.000    0.000 
#    0.000    0.000    0.000    0.000    0.000    0.000 
#
# Total GULP energy -89071.442325 kJ/mol
# GULP energy per Si atom -5566.965145 kJ/mol
# Density = 1.918800 g / cm^3
# Si number density = 19.231771 Si / 1000 Ang^3
#
#
#
# Elastic Constant Matrix: (Units=GPa)
#
#
# Indices 1 2 3 4 5 6 
#
# 1 51.0687 11.1698 8.2713 -1.7584 -5.4317 14.2477
# 2 11.1698 24.6118 12.5016 5.9838 -0.9595 10.6895
# 3 8.2713 12.5016 43.0621 23.5346 -1.7151 1.8296
# 4 -1.7584 5.9838 23.5346 35.4530 -2.1752 -11.7088
# 5 -5.4317 -0.9595 -1.7151 -2.1752 22.4862 -1.2068
# 6 14.2477 10.6895 1.8296 -11.7088 -1.2068 36.6652
#
#
#
# Elastic Compliance Matrix: (Units=1/GPa)
#
#
# Indices 1 2 3 4 5 6 
#
# 1 0.024062 -0.006968 -0.004010 0.003418 0.005226 -0.005855
# 2 -0.006968 0.058303 -0.009855 -0.009310 -0.001751 -0.016829
# 3 -0.004010 -0.009855 0.043435 -0.029869 -0.001359 -0.007319
# 4 0.003418 -0.009310 -0.029869 0.057094 0.004815 0.021267
# 5 0.005226 -0.001751 -0.001359 0.004815 0.046107 0.001603
# 6 -0.005855 -0.016829 -0.007319 0.021267 0.001603 0.041665
#
#
# Mechanical properties :
#
#
# Convention : Reuss Voigt Hill
#
# Bulk Modulus (GPa) = 11.88572 20.29199 16.08886
# Shear Modulus (GPa) = 14.68959 24.70754 19.69856
#
# Velocity S-wave (km/s) = 2.76673 3.58819 3.20390
# Velocity P-wave (km/s) = 4.04969 5.26698 4.69793
#
# Compressibility (1/GPa) = 0.08413459
#
# Stress axis : x y z
#
# Youngs Moduli (GPa) = 41.55941 17.15173 23.02296
#
# Poissons Ratio (x) = 0.11951 0.09233
# Poissons Ratio (y) = 0.28957 0.22689
# Poissons Ratio (z) = 0.16667 0.16903
#
# Static dielectric constant tensor:
#      x y z
#    x 1.655940 0.002690 -0.023470 
#    y 0.002690 1.728360 0.014990 
#    z -0.023470 0.014990 1.692100 
# 
# From -- ./inp_files/445684.got.cif
#   From: 2010.05.17/outbox.cif.g08.bks.cpg/sg2_223_cif.got.tgz:445684.got - 2010.06.03 11:33:40.
