data_PCOD9087003
_publ_section_title
;
Structure prediction by ZEFSAII (Michael W. Deem and Ramdas Pophale) SiO2 
 PCOD9087003
Probable space group: P -1
;
_chemical_formula_sum "Si O2"
_cell_formula_units_Z 14
_cell_length_a 8.068340
_cell_length_b 9.823181
_cell_length_c 24.240797
_cell_angle_alpha 153.074100
_cell_angle_beta 142.826063
_cell_angle_gamma 47.620985
_cell_volume 521.023211
_symmetry_space_group_name_H-M "P -1"
_symmetry_group_IT_number 2
_symmetry_cell_setting 'triclinic'
loop_
_space_group_symop_operation_xyz
x,y,z
-x,-y,-z
loop_
_atom_site_type_symbol
_atom_site_label
_atom_site_fract_x
_atom_site_fract_y
_atom_site_fract_z
Si Si1 0.847223 0.681247 0.481598
Si Si2 0.060609 0.250089 0.299800
Si Si3 0.426562 0.373399 0.995554
Si Si4 0.980878 0.165101 0.958475
Si Si5 0.602650 0.209055 0.468957
Si Si6 0.892896 0.801073 0.319475
Si Si7 0.388208 0.229405 0.189346
O O1 0.528587 0.562534 0.364233
O O2 0.000000 0.500000 0.500000
O O3 0.900622 0.515360 0.377151
O O4 0.995840 0.020603 0.641443
O O5 0.270303 0.142076 0.362467
O O6 0.294591 0.441618 0.392148
O O7 0.921131 0.005710 0.131099
O O8 0.174687 0.562795 0.008763
O O9 0.710444 0.480632 0.143871
O O10 0.500000 0.500000 0.000000
O O11 0.394258 0.009820 0.854119
O O12 0.781000 0.939230 0.865309
O O13 0.218683 0.271445 0.104127
O O14 0.829132 0.161579 0.557776
O O15 0.675060 0.988677 0.359230
#
# Coordination Sequence:
#
# PCOD9087003 Si02
#       7
#     2   2   2   2   2   2   2
#     4  11  24  41  59  91 130 159 190 266 323 354
#     4  10  20  37  63  88 121 161 209 249 305 368
#     4  10  19  36  61  88 118 159 204 247 293 366
#     4  10  20  40  65  88 115 169 215 243 293 380
#     4   9  19  33  62  92 114 158 207 252 295 368
#     4  10  19  38  62  90 121 153 206 254 304 360
#     4  10  23  39  63  91 127 159 203 253 313 363
#
# _framework density 26.870204999999999
#
# number of rings (size 3 to 8) (size 9 to 14) (size 15 to 20)
#    0.000    2.000    1.429    2.571    4.000    0.571 
#    2.571    1.429    0.000    0.000    0.000    0.000 
#    0.000    0.000    0.000    0.000    0.000    0.000 
#
# Total GULP energy -78162.118904 kJ/mol
# GULP energy per Si atom -5583.008493 kJ/mol
# Density = 2.680905 g / cm^3
# Si number density = 26.870205 Si / 1000 Ang^3
#
#
#
# Elastic Constant Matrix: (Units=GPa)
#
#
# Indices 1 2 3 4 5 6 
#
# 1 66.0585 7.4982 -7.4834 5.7659 -23.0430 -18.6451
# 2 7.4982 95.9880 16.7133 -8.6928 0.7089 -8.8833
# 3 -7.4834 16.7133 102.5992 -9.9517 0.7931 -5.8813
# 4 5.7659 -8.6928 -9.9517 28.2128 -2.7027 -7.3675
# 5 -23.0430 0.7089 0.7931 -2.7027 36.6162 3.2721
# 6 -18.6451 -8.8833 -5.8813 -7.3675 3.2721 31.8684
#
#
#
# Elastic Compliance Matrix: (Units=1/GPa)
#
#
# Indices 1 2 3 4 5 6 
#
# 1 0.024046 -0.001217 0.002613 0.000327 0.013975 0.012852
# 2 -0.001217 0.011425 -0.001364 0.004047 -0.000950 0.003254
# 3 0.002613 -0.001364 0.010761 0.003997 0.001382 0.003916
# 4 0.000327 0.004047 0.003997 0.041202 0.002066 0.011370
# 5 0.013975 -0.000950 0.001382 0.002066 0.035802 0.004968
# 6 0.012852 0.003254 0.003916 0.011370 0.004968 0.042647
#
#
# Mechanical properties :
#
#
# Convention : Reuss Voigt Hill
#
# Bulk Modulus (GPa) = 21.60049 33.12244 27.36147
# Shear Modulus (GPa) = 27.58602 35.86731 31.72666
#
# Velocity S-wave (km/s) = 3.20760 3.65750 3.43991
# Velocity P-wave (km/s) = 4.66632 5.49455 5.09728
#
# Compressibility (1/GPa) = 0.04629525
#
# Stress axis : x y z
#
# Youngs Moduli (GPa) = 41.58676 87.52637 92.92960
#
# Poissons Ratio (x) = 0.10656 -0.24279
# Poissons Ratio (y) = 0.05063 0.12671
# Poissons Ratio (z) = -0.10865 0.11935
#
# Static dielectric constant tensor:
#      x y z
#    x 2.316240 0.050470 0.030910 
#    y 0.050470 2.279450 -0.065190 
#    z 0.030910 -0.065190 2.110820 
# 
# From -- ./inp_files/445530.got.cif
#   From: 2010.05.17/outbox.cif.g08.bks.cpg/sg2_223_cif.got.tgz:445530.got - 2010.06.03 11:33:40.
