data_PCOD9087400
_publ_section_title
;
Structure prediction by ZEFSAII (Michael W. Deem and Ramdas Pophale) SiO2 
 PCOD9087400
Probable space group: P -1
;
_chemical_formula_sum "Si O2"
_cell_formula_units_Z 16
_cell_length_a 12.935821
_cell_length_b 16.657887
_cell_length_c 9.954615
_cell_angle_alpha 110.824920
_cell_angle_beta 58.803241
_cell_angle_gamma 152.780640
_cell_volume 808.415080
_symmetry_space_group_name_H-M "P -1"
_symmetry_group_IT_number 2
_symmetry_cell_setting 'triclinic'
loop_
_space_group_symop_operation_xyz
x,y,z
-x,-y,-z
loop_
_atom_site_type_symbol
_atom_site_label
_atom_site_fract_x
_atom_site_fract_y
_atom_site_fract_z
Si Si1 0.547183 0.916763 0.129524
Si Si2 0.695516 0.303064 0.098434
Si Si3 0.545125 0.402947 0.287688
Si Si4 0.586416 0.725636 0.415477
Si Si5 0.973793 0.108079 0.508449
Si Si6 0.530184 0.938792 0.638717
Si Si7 0.928901 0.789878 0.184891
Si Si8 0.694988 0.309528 0.587441
O O1 0.423676 0.775028 0.235767
O O2 0.516824 0.993209 0.251463
O O3 0.400814 0.817007 0.027942
O O4 0.838875 0.077175 0.993269
O O5 0.578578 0.325425 0.174448
O O6 0.604223 0.204932 0.241815
O O7 0.000000 0.500000 0.000000
O O8 0.567886 0.415066 0.442297
O O9 0.764710 0.600542 0.198236
O O10 0.264575 0.267313 0.367894
O O11 0.740631 0.749163 0.248137
O O12 0.412828 0.674740 0.407468
O O13 0.795303 0.917424 0.465004
O O14 0.972791 0.122854 0.678859
O O15 0.830323 0.100184 0.536465
O O16 0.407515 0.833875 0.518779
O O17 0.000000 0.500000 0.500000
#
# Coordination Sequence:
#
# PCOD9087400 Si02
#       8
#     2   2   2   2   2   2   2   2
#     4  12  25  41  63  93 132 163 206 264 316 372
#     4  12  23  38  63  94 126 162 207 268 315 360
#     4  11  21  37  63  95 127 159 210 264 310 372
#     4  10  20  40  64  88 124 168 213 251 313 375
#     4  10  19  36  63  90 125 161 208 260 308 368
#     4  11  23  42  64  92 125 167 212 253 314 377
#     4  11  22  36  61  98 126 159 206 266 319 360
#     4  11  25  44  65  89 127 172 210 251 310 390
#
# _framework density 19.791813000000001
#
# number of rings (size 3 to 8) (size 9 to 14) (size 15 to 20)
#    0.000    1.000    3.750    6.000    1.750    1.500 
#    0.000    0.000    0.000    4.500    0.000    0.000 
#    0.000    0.000    0.000    0.000    0.000    0.000 
#
# Total GULP energy -89451.340097 kJ/mol
# GULP energy per Si atom -5590.708756 kJ/mol
# Density = 1.974677 g / cm^3
# Si number density = 19.791813 Si / 1000 Ang^3
#
#
#
# Elastic Constant Matrix: (Units=GPa)
#
#
# Indices 1 2 3 4 5 6 
#
# 1 82.6902 36.3268 21.4500 -9.1383 -25.3562 2.9444
# 2 36.3268 53.7372 20.8937 -23.9894 -3.6928 5.6261
# 3 21.4500 20.8937 75.7193 -22.8509 -7.5417 5.4356
# 4 -9.1383 -23.9894 -22.8509 40.5034 -4.1696 -5.7979
# 5 -25.3562 -3.6928 -7.5417 -4.1696 33.2121 0.9810
# 6 2.9444 5.6261 5.4356 -5.7979 0.9810 25.4606
#
#
#
# Elastic Compliance Matrix: (Units=1/GPa)
#
#
# Indices 1 2 3 4 5 6 
#
# 1 0.024045 -0.015991 -0.001879 -0.003524 0.015718 -0.000254
# 2 -0.015991 0.037164 -0.001104 0.016854 -0.006150 -0.002052
# 3 -0.001879 -0.001104 0.017126 0.008750 0.003470 -0.001336
# 4 -0.003524 0.016854 0.008750 0.039966 0.006079 0.003682
# 5 0.015718 -0.006150 0.003470 0.006079 0.043020 -0.001473
# 6 -0.000254 -0.002052 -0.001336 0.003682 -0.001473 0.040940
#
#
# Mechanical properties :
#
#
# Convention : Reuss Voigt Hill
#
# Bulk Modulus (GPa) = 24.75988 41.05420 32.90704
# Shear Modulus (GPa) = 19.71061 28.73364 24.22213
#
# Velocity S-wave (km/s) = 3.15921 3.81438 3.50215
# Velocity P-wave (km/s) = 5.08378 6.33935 5.74596
#
# Compressibility (1/GPa) = 0.04038791
#
# Stress axis : x y z
#
# Youngs Moduli (GPa) = 41.58893 26.90745 58.39191
#
# Poissons Ratio (x) = 0.43026 0.10972
# Poissons Ratio (y) = 0.66503 0.06446
# Poissons Ratio (z) = 0.07815 0.02971
#
# Static dielectric constant tensor:
#      x y z
#    x 1.712240 -0.009700 -0.015930 
#    y -0.009700 1.710920 -0.010250 
#    z -0.015930 -0.010250 1.679010 
# 
# From -- ./inp_files/273367.got.cif
#   From: 2010.05.17/outbox.cif.g08.bks.cpg/sg2_137_cif.got.tgz:273367.got - 2010.06.03 11:33:40.
