data_PCOD9087287
_publ_section_title
;
Structure prediction by ZEFSAII (Michael W. Deem and Ramdas Pophale) SiO2 
 PCOD9087287
Probable space group: P -1
;
_chemical_formula_sum "Si O2"
_cell_formula_units_Z 13
_cell_length_a 10.305741
_cell_length_b 8.052675
_cell_length_c 10.908221
_cell_angle_alpha 126.914971
_cell_angle_beta 67.325033
_cell_angle_gamma 74.435078
_cell_volume 491.157099
_symmetry_space_group_name_H-M "P -1"
_symmetry_group_IT_number 2
_symmetry_cell_setting 'triclinic'
loop_
_space_group_symop_operation_xyz
x,y,z
-x,-y,-z
loop_
_atom_site_type_symbol
_atom_site_label
_atom_site_fract_x
_atom_site_fract_y
_atom_site_fract_z
Si Si1 0.000000 0.500000 0.500000
Si Si2 0.036061 0.112964 0.843381
Si Si3 0.814180 0.636185 0.964878
Si Si4 0.664101 0.347256 0.193866
Si Si5 0.532317 0.126698 0.657033
Si Si6 0.932424 0.840308 0.493067
Si Si7 0.327239 0.474698 0.462721
O O1 0.905788 0.826943 0.639444
O O2 0.810957 0.573155 0.540293
O O3 0.928097 0.350302 0.880878
O O4 0.884240 0.130009 0.981794
O O5 0.216677 0.794581 0.599160
O O6 0.115194 0.213791 0.948360
O O7 0.894344 0.503255 0.741986
O O8 0.594578 0.822006 0.159594
O O9 0.559496 0.567342 0.218466
O O10 0.538122 0.272174 0.236806
O O11 0.651052 0.505131 0.390861
O O12 0.500000 0.000000 0.500000
O O13 0.749531 0.948427 0.533093
O O14 0.000000 0.000000 0.500000
#
# Coordination Sequence:
#
# PCOD9087287 Si02
#       7
#     1   2   2   2   2   2   2
#     4  12  26  44  66  96 134 178 220 258 326 402
#     4  10  19  36  62  93 126 163 213 273 328 377
#     4  10  21  37  64  96 126 170 223 267 325 395
#     4  10  21  36  62  92 120 163 218 266 320 385
#     4  11  21  39  67  96 125 167 220 273 327 384
#     4  12  26  46  67  94 138 178 214 270 329 387
#     4  11  22  39  60  90 131 167 209 272 324 378
#
# _framework density 26.468108999999998
#
# number of rings (size 3 to 8) (size 9 to 14) (size 15 to 20)
#    0.000    1.231    0.000    8.769    0.000    1.846 
#    0.000    3.077    0.000    0.000    0.000    0.000 
#    0.000    0.000    0.000    0.000    0.000    0.000 
#
# Total GULP energy -72606.583394 kJ/mol
# GULP energy per Si atom -5585.121800 kJ/mol
# Density = 2.640787 g / cm^3
# Si number density = 26.468109 Si / 1000 Ang^3
#
#
#
# Elastic Constant Matrix: (Units=GPa)
#
#
# Indices 1 2 3 4 5 6 
#
# 1 217.5133 43.0935 55.9945 -15.0255 -29.1173 21.5553
# 2 43.0935 124.8917 -18.5528 19.0952 -15.7372 9.5521
# 3 55.9945 -18.5528 96.1585 -11.5406 -30.2600 21.0360
# 4 -15.0255 19.0952 -11.5406 23.1506 9.3366 -4.9605
# 5 -29.1173 -15.7372 -30.2600 9.3366 50.1328 -0.8081
# 6 21.5553 9.5521 21.0360 -4.9605 -0.8081 40.2987
#
#
#
# Elastic Compliance Matrix: (Units=1/GPa)
#
#
# Indices 1 2 3 4 5 6 
#
# 1 0.006794 -0.004136 -0.004485 0.006159 -0.001199 0.000421
# 2 -0.004136 0.015085 0.008176 -0.016801 0.010276 -0.007493
# 3 -0.004485 0.008176 0.020281 -0.007243 0.013379 -0.010749
# 4 0.006159 -0.016801 -0.007243 0.067540 -0.018447 0.012412
# 5 -0.001199 0.010276 0.013379 -0.018447 0.033820 -0.010371
# 6 0.000421 -0.007493 -0.010749 0.012412 -0.010371 0.033296
#
#
# Mechanical properties :
#
#
# Convention : Reuss Voigt Hill
#
# Bulk Modulus (GPa) = 24.23037 66.62597 45.42817
# Shear Modulus (GPa) = 26.11463 46.58500 36.34981
#
# Velocity S-wave (km/s) = 3.14450 4.19984 3.70989
# Velocity P-wave (km/s) = 4.72845 6.98176 5.96252
#
# Compressibility (1/GPa) = 0.04127053
#
# Stress axis : x y z
#
# Youngs Moduli (GPa) = 147.17799 66.28985 49.30784
#
# Poissons Ratio (x) = 0.27415 0.22114
# Poissons Ratio (y) = 0.60868 -0.40312
# Poissons Ratio (z) = 0.66006 -0.54195
#
# Static dielectric constant tensor:
#      x y z
#    x 2.006580 0.025120 -0.012790 
#    y 0.025120 1.785580 0.360540 
#    z -0.012790 0.360540 1.662490 
# 
# From -- ./inp_files/166606.got.cif
#   From: 2010.05.17/outbox.cif.g08.bks.cpg/sg2_84_cif.got.tgz:166606.got - 2010.06.03 11:33:40.
