data_PCOD9087145
_publ_section_title
;
Structure prediction by ZEFSAII (Michael W. Deem and Ramdas Pophale) SiO2 
 PCOD9087145
Probable space group: P -1
;
_chemical_formula_sum "Si O2"
_cell_formula_units_Z 16
_cell_length_a 11.692305
_cell_length_b 12.111566
_cell_length_c 14.829546
_cell_angle_alpha 140.146194
_cell_angle_beta 148.947759
_cell_angle_gamma 47.350552
_cell_volume 692.924237
_symmetry_space_group_name_H-M "P -1"
_symmetry_group_IT_number 2
_symmetry_cell_setting 'triclinic'
loop_
_space_group_symop_operation_xyz
x,y,z
-x,-y,-z
loop_
_atom_site_type_symbol
_atom_site_label
_atom_site_fract_x
_atom_site_fract_y
_atom_site_fract_z
Si Si1 0.023324 0.942757 0.319322
Si Si2 0.834248 0.826438 0.780201
Si Si3 0.347145 0.431209 0.271909
Si Si4 0.139294 0.420271 0.938309
Si Si5 0.656032 0.936435 0.925680
Si Si6 0.287989 0.774037 0.085808
Si Si7 0.433581 0.825414 0.398379
Si Si8 0.317037 0.202781 0.771734
O O1 0.246387 0.881779 0.378411
O O2 0.940844 0.771229 0.204011
O O3 0.106652 0.098070 0.533139
O O4 0.840125 0.001594 0.158106
O O5 0.765258 0.861095 0.859114
O O6 0.641680 0.743315 0.541773
O O7 0.807909 0.023393 0.847682
O O8 0.063226 0.712477 0.851928
O O9 0.500000 0.500000 0.500000
O O10 0.435232 0.232615 0.197924
O O11 0.089157 0.461512 0.148521
O O12 0.299209 0.482934 0.166175
O O13 0.245282 0.372272 0.884090
O O14 0.466604 0.076712 0.859043
O O15 0.337055 0.717930 0.184942
O O16 0.511333 0.761174 0.170649
O O17 0.500000 0.000000 0.500000
#
# Coordination Sequence:
#
# PCOD9087145 Si02
#       8
#     2   2   2   2   2   2   2   2
#     4  11  19  31  53  81 116 141 175 221 271 322
#     4   9  16  27  46  75 108 136 177 218 255 313
#     4  10  22  41  60  73 104 147 195 221 263 321
#     4  10  24  39  54  83 110 145 181 222 271 330
#     4  10  20  32  56  84 106 140 182 227 268 315
#     4   9  17  27  47  76 111 144 171 211 269 318
#     4  10  16  27  47  75 112 142 173 211 267 316
#     4  11  21  34  54  84 121 139 169 224 282 318
#
# _framework density 23.090548999999999
#
# number of rings (size 3 to 8) (size 9 to 14) (size 15 to 20)
#    0.000    2.000    5.000    1.125    1.750    3.000 
#    0.000    0.000    0.000    0.750    0.000    1.750 
#    0.000    0.000    0.000    0.000    0.000    0.000 
#
# Total GULP energy -89222.059547 kJ/mol
# GULP energy per Si atom -5576.378722 kJ/mol
# Density = 2.303799 g / cm^3
# Si number density = 23.090549 Si / 1000 Ang^3
#
#
#
# Elastic Constant Matrix: (Units=GPa)
#
#
# Indices 1 2 3 4 5 6 
#
# 1 51.6419 12.7060 18.7762 -2.9501 -9.0241 -12.7637
# 2 12.7060 50.8588 36.5052 -4.4276 -22.8424 6.3928
# 3 18.7762 36.5052 188.3280 -28.3464 -26.3482 -0.1277
# 4 -2.9501 -4.4276 -28.3464 40.9883 8.5554 -7.2808
# 5 -9.0241 -22.8424 -26.3482 8.5554 27.9754 -0.2629
# 6 -12.7637 6.3928 -0.1277 -7.2808 -0.2629 20.4355
#
#
#
# Elastic Compliance Matrix: (Units=1/GPa)
#
#
# Indices 1 2 3 4 5 6 
#
# 1 0.027209 -0.008848 -0.000280 0.004592 0.000085 0.021397
# 2 -0.008848 0.039074 -0.004152 -0.008694 0.027606 -0.020518
# 3 -0.000280 -0.004152 0.007085 0.004549 0.001827 0.002813
# 4 0.004592 -0.008694 0.004549 0.032252 -0.011037 0.016965
# 5 0.000085 0.027606 0.001827 -0.011037 0.063300 -0.011689
# 6 0.021397 -0.020518 0.002813 0.016965 -0.011689 0.074629
#
#
# Mechanical properties :
#
#
# Convention : Reuss Voigt Hill
#
# Bulk Modulus (GPa) = 21.36434 47.42262 34.39348
# Shear Modulus (GPa) = 17.50015 32.73595 25.11805
#
# Velocity S-wave (km/s) = 2.75597 3.76935 3.30177
# Velocity P-wave (km/s) = 4.40451 6.28699 5.42798
#
# Compressibility (1/GPa) = 0.04680696
#
# Stress axis : x y z
#
# Youngs Moduli (GPa) = 36.75305 25.59246 141.14378
#
# Poissons Ratio (x) = 0.22644 0.03952
# Poissons Ratio (y) = 0.32519 0.58607
# Poissons Ratio (z) = 0.01029 0.10627
#
# Static dielectric constant tensor:
#      x y z
#    x 1.937670 0.085650 0.091590 
#    y 0.085650 1.884740 0.083460 
#    z 0.091590 0.083460 2.173510 
# 
# From -- ./inp_files/521822.got.cif
#   From: 2010.05.17/outbox.cif.g08.bks.cpg/sg2_261_cif.got.tgz:521822.got - 2010.06.03 11:33:40.
