data_PCOD9087726
_publ_section_title
;
Structure prediction by ZEFSAII (Michael W. Deem and Ramdas Pophale) SiO2 
 PCOD9087726
Probable space group: P -1
;
_chemical_formula_sum "Si O2"
_cell_formula_units_Z 15
_cell_length_a 17.847991
_cell_length_b 8.976037
_cell_length_c 8.459018
_cell_angle_alpha 129.041217
_cell_angle_beta 38.684763
_cell_angle_gamma 138.145292
_cell_volume 561.346625
_symmetry_space_group_name_H-M "P -1"
_symmetry_group_IT_number 2
_symmetry_cell_setting 'triclinic'
loop_
_space_group_symop_operation_xyz
x,y,z
-x,-y,-z
loop_
_atom_site_type_symbol
_atom_site_label
_atom_site_fract_x
_atom_site_fract_y
_atom_site_fract_z
Si Si1 0.027512 0.881351 0.584652
Si Si2 0.725302 0.678873 0.030976
Si Si3 0.208845 0.909986 0.587616
Si Si4 0.500000 0.500000 0.500000
Si Si5 0.035617 0.349252 0.948230
Si Si6 0.460518 0.897802 0.318422
Si Si7 0.660331 0.477096 0.500204
Si Si8 0.726554 0.910616 0.859889
O O1 0.139451 0.871670 0.506910
O O2 0.021004 0.105779 0.776965
O O3 0.106681 0.909775 0.308058
O O4 0.867400 0.686003 0.752247
O O5 0.593903 0.460538 0.177232
O O6 0.756463 0.843993 0.242840
O O7 0.698655 0.798411 0.005510
O O8 0.350030 0.915271 0.402700
O O9 0.078004 0.721142 0.775133
O O10 0.548277 0.392778 0.488874
O O11 0.203124 0.505617 0.788485
O O12 0.000000 0.500000 0.000000
O O13 0.378814 0.640281 0.342301
O O14 0.500000 0.000000 0.500000
O O15 0.612995 0.976707 0.054264
O O16 0.696982 0.723224 0.654254
#
# Coordination Sequence:
#
# PCOD9087726 Si02
#       8
#     2   2   2   1   2   2   2   2
#     4  10  23  40  65  97 133 173 222 270 329 391
#     4  11  21  39  65  97 125 173 217 272 321 393
#     4  11  21  41  64  96 133 169 225 271 322 387
#     4  12  22  38  66  92 136 166 224 262 324 396
#     4  10  19  36  66  94 125 172 217 269 320 384
#     4  12  23  39  65  93 131 169 220 272 326 398
#     4  11  23  41  63  98 128 173 219 271 330 390
#     4  11  23  41  67  92 132 173 220 274 335 389
#
# _framework density 26.721458999999999
#
# number of rings (size 3 to 8) (size 9 to 14) (size 15 to 20)
#    0.000    1.067    4.000    4.800    0.000    0.533 
#    0.000    0.000    0.000    0.800    0.000    0.000 
#    0.000    0.000    0.000    0.000    0.000    0.000 
#
# Total GULP energy -83508.199802 kJ/mol
# GULP energy per Si atom -5567.213320 kJ/mol
# Density = 2.666064 g / cm^3
# Si number density = 26.721459 Si / 1000 Ang^3
#
#
#
# Elastic Constant Matrix: (Units=GPa)
#
#
# Indices 1 2 3 4 5 6 
#
# 1 165.3359 6.6871 63.0100 -4.9461 -37.0902 -28.4698
# 2 6.6871 31.9206 11.4835 12.1491 -6.8966 -8.1989
# 3 63.0100 11.4835 153.0481 2.0029 -49.5329 -7.2708
# 4 -4.9461 12.1491 2.0029 4.9265 -1.5062 -0.7957
# 5 -37.0902 -6.8966 -49.5329 -1.5062 52.8894 -4.9537
# 6 -28.4698 -8.1989 -7.2708 -0.7957 -4.9537 35.8289
#
#
#
# Elastic Compliance Matrix: (Units=1/GPa)
#
#
# Indices 1 2 3 4 5 6 
#
# 1 -0.010331 0.198190 -0.000859 -0.492502 0.006288 0.026901
# 2 0.198190 -1.909843 -0.008931 4.885970 0.004598 -0.172217
# 3 -0.000859 -0.008931 0.010013 0.019759 0.008257 0.000886
# 4 -0.492502 4.885970 0.019759-12.273364 0.003674 0.458667
# 5 0.006288 0.004598 0.008257 0.003674 0.032911 0.012356
# 6 0.026901 -0.172217 0.000886 0.458667 0.012356 0.021951
#
#
# Mechanical properties :
#
#
# Convention : Reuss Voigt Hill
#
# Bulk Modulus (GPa) = -0.65216 56.96287 28.15535
# Shear Modulus (GPa) = -0.33297 36.67057 18.16880
#
# Velocity S-wave (km/s) = -0.35338 3.70851 2.61038
# Velocity P-wave (km/s) = 0.64116 6.30087 4.43226
#
# Compressibility (1/GPa) = -1.53336052
#
# Stress axis : x y z
#
# Youngs Moduli (GPa) = -96.79798 -0.52360 99.86654
#
# Poissons Ratio (x) = 0.10377 0.08579
# Poissons Ratio (y) = 19.18438 0.89192
# Poissons Ratio (z) = -0.08315 -0.00468
#
# Static dielectric constant tensor:
#      x y z
#    x 2.138690 0.236800 -0.092980 
#    y 0.236800 2.672250 -0.201840 
#    z -0.092980 -0.201840 2.279280 
# 
# From -- ./inp_files/326381.got.cif
#   From: 2010.05.17/outbox.cif.g08.bks.cpg/sg2_164_cif.got.tgz:326381.got - 2010.06.03 11:33:40.
