data_PCOD9087143
_publ_section_title
;
Structure prediction by ZEFSAII (Michael W. Deem and Ramdas Pophale) SiO2 
 PCOD9087143
Probable space group: P -1
;
_chemical_formula_sum "Si O2"
_cell_formula_units_Z 14
_cell_length_a 8.882658
_cell_length_b 10.429609
_cell_length_c 7.639882
_cell_angle_alpha 100.670340
_cell_angle_beta 97.813476
_cell_angle_gamma 130.841918
_cell_volume 493.737851
_symmetry_space_group_name_H-M "P -1"
_symmetry_group_IT_number 2
_symmetry_cell_setting 'triclinic'
loop_
_space_group_symop_operation_xyz
x,y,z
-x,-y,-z
loop_
_atom_site_type_symbol
_atom_site_label
_atom_site_fract_x
_atom_site_fract_y
_atom_site_fract_z
Si Si1 0.556694 0.271652 0.091633
Si Si2 0.300960 0.794521 0.578193
Si Si3 0.025723 0.233346 0.291412
Si Si4 0.232058 0.564795 0.201387
Si Si5 0.850237 0.851954 0.130473
Si Si6 0.731585 0.021997 0.790929
Si Si7 0.331835 0.262192 0.549031
O O1 0.693784 0.318606 0.298643
O O2 0.370906 0.052051 0.047872
O O3 0.711010 0.363499 0.971394
O O4 0.382776 0.286143 0.036101
O O5 0.220361 0.679059 0.360295
O O6 0.542171 0.994232 0.673993
O O7 0.149919 0.820836 0.616422
O O8 0.045978 0.358562 0.182878
O O9 0.238020 0.334313 0.464017
O O10 0.980136 0.062881 0.160397
O O11 0.435295 0.603255 0.303717
O O12 0.803499 0.844178 0.325755
O O13 0.014906 0.829350 0.146547
O O14 0.682008 0.861811 0.625876
#
# Coordination Sequence:
#
# PCOD9087143 Si02
#       7
#     2   2   2   2   2   2   2
#     4   9  20  37  62  78 114 151 189 225 284 330
#     4   9  21  36  59  83 116 150 183 230 284 333
#     4  11  20  34  60  87 115 144 190 235 279 334
#     4  10  20  39  62  80 112 155 186 230 278 334
#     4  10  19  36  62  84 110 151 189 233 282 326
#     4   8  16  34  56  79 109 148 181 227 273 330
#     4   9  19  37  60  83 110 151 191 229 281 329
#
# _framework density 28.355129000000002
#
# number of rings (size 3 to 8) (size 9 to 14) (size 15 to 20)
#    0.857    1.714    0.000    3.000    0.000    1.143 
#    0.000   14.286   25.143    0.000    0.000    0.000 
#    0.000    0.000    0.000    0.000    0.000    0.000 
#
# Total GULP energy -77980.005986 kJ/mol
# GULP energy per Si atom -5570.000428 kJ/mol
# Density = 2.829059 g / cm^3
# Si number density = 28.355129 Si / 1000 Ang^3
#
#
#
# Elastic Constant Matrix: (Units=GPa)
#
#
# Indices 1 2 3 4 5 6 
#
# 1 147.7412 25.0635 30.7570 9.0902 -16.5865 23.0899
# 2 25.0635 79.2184 21.2950 -23.8407 -25.2352 -13.1464
# 3 30.7570 21.2950 98.7657 -45.1425 -6.2703 -20.8429
# 4 9.0902 -23.8407 -45.1425 20.1592 -1.5999 -10.3805
# 5 -16.5865 -25.2352 -6.2703 -1.5999 44.9938 4.0826
# 6 23.0899 -13.1464 -20.8429 -10.3805 4.0826 27.4131
#
#
#
# Elastic Compliance Matrix: (Units=1/GPa)
#
#
# Indices 1 2 3 4 5 6 
#
# 1 0.004934 0.002277 0.003593 0.010377 0.003689 0.003048
# 2 0.002277 0.012356 -0.008897 -0.009612 0.006861 -0.007419
# 3 0.003593 -0.008897 0.001441 -0.015048 -0.002960 -0.011455
# 4 0.010377 -0.009612 -0.015048 -0.016036 -0.001452 -0.030647
# 5 0.003689 0.006861 -0.002960 -0.001452 0.027579 -0.006725
# 6 0.003048 -0.007419 -0.011455 -0.030647 -0.006725 0.011040
#
#
# Mechanical properties :
#
#
# Convention : Reuss Voigt Hill
#
# Bulk Modulus (GPa) = 78.88045 53.32848 66.10447
# Shear Modulus (GPa) = 96.91148 35.08722 65.99935
#
# Velocity S-wave (km/s) = 5.85252 3.52152 4.82975
# Velocity P-wave (km/s) = 8.57604 5.94836 7.38009
#
# Compressibility (1/GPa) = 0.01267741
#
# Stress axis : x y z
#
# Youngs Moduli (GPa) = 202.69460 80.93219 693.95243
#
# Poissons Ratio (x) = -0.18429 -2.49342
# Poissons Ratio (y) = -0.46156 6.17395
# Poissons Ratio (z) = -0.72830 0.72004
#
# Static dielectric constant tensor:
#      x y z
#    x 2.188690 0.015000 0.058960 
#    y 0.015000 2.360670 -0.063070 
#    z 0.058960 -0.063070 2.400830 
# 
# From -- ./inp_files/178113.got.cif
#   From: 2010.05.17/outbox.cif.g08.bks.cpg/sg2_90_cif.got.tgz:178113.got - 2010.06.03 11:33:40.
