data_PCOD9087739
_publ_section_title
;
Structure prediction by ZEFSAII (Michael W. Deem and Ramdas Pophale) SiO2 
 PCOD9087739
Probable space group: P -1
;
_chemical_formula_sum "Si O2"
_cell_formula_units_Z 16
_cell_length_a 11.680285
_cell_length_b 12.450096
_cell_length_c 9.982658
_cell_angle_alpha 49.802813
_cell_angle_beta 62.851478
_cell_angle_gamma 96.205727
_cell_volume 794.945453
_symmetry_space_group_name_H-M "P -1"
_symmetry_group_IT_number 2
_symmetry_cell_setting 'triclinic'
loop_
_space_group_symop_operation_xyz
x,y,z
-x,-y,-z
loop_
_atom_site_type_symbol
_atom_site_label
_atom_site_fract_x
_atom_site_fract_y
_atom_site_fract_z
Si Si1 0.391034 0.309251 0.273775
Si Si2 0.367638 0.878138 0.284733
Si Si3 0.720487 0.330344 0.732610
Si Si4 0.218444 0.949257 0.982949
Si Si5 0.853957 0.708032 0.374928
Si Si6 0.472093 0.103316 0.536819
Si Si7 0.334902 0.306150 0.761075
Si Si8 0.649611 0.833443 0.871879
O O1 0.262843 0.290368 0.459697
O O2 0.506846 0.276527 0.316629
O O3 0.317137 0.182636 0.286078
O O4 0.500000 0.500000 0.000000
O O5 0.278250 0.692481 0.410317
O O6 0.438616 0.879295 0.388145
O O7 0.278274 0.968199 0.284185
O O8 0.500000 0.000000 0.000000
O O9 0.761108 0.200590 0.866665
O O10 0.837192 0.530200 0.550314
O O11 0.543333 0.264897 0.928886
O O12 0.035917 0.871446 0.160799
O O13 0.327085 0.138939 0.845018
O O14 0.284512 0.993002 0.762033
O O15 0.789499 0.698673 0.267256
O O16 0.500000 0.000000 0.500000
O O17 0.500000 0.500000 0.500000
O O18 0.305944 0.259811 0.971397
#
# Coordination Sequence:
#
# PCOD9087739 Si02
#       8
#     2   2   2   2   2   2   2   2
#     4  12  24  40  60  98 139 169 222 278 329 401
#     4  10  19  36  66  98 120 162 231 272 312 381
#     4  11  20  40  67  94 128 173 220 274 322 396
#     4  12  24  44  65 100 135 171 228 276 335 405
#     4  12  27  40  68  99 137 181 215 276 346 389
#     4  12  23  39  69  96 129 177 222 281 331 387
#     4  12  23  40  67  96 128 173 227 278 324 397
#     4  11  20  38  64  95 127 164 225 279 317 379
#
# _framework density 20.127168000000001
#
# number of rings (size 3 to 8) (size 9 to 14) (size 15 to 20)
#    0.000    0.500    8.750    1.500    0.000    0.000 
#    0.000    0.625    2.750    0.750    0.000    0.000 
#    0.000    0.000    0.000    0.000    0.000    0.000 
#
# Total GULP energy -89207.210236 kJ/mol
# GULP energy per Si atom -5575.450640 kJ/mol
# Density = 2.008136 g / cm^3
# Si number density = 20.127168 Si / 1000 Ang^3
#
#
#
# Elastic Constant Matrix: (Units=GPa)
#
#
# Indices 1 2 3 4 5 6 
#
# 1 71.4960 24.1245 46.1734 -6.1102 21.1961 -9.5375
# 2 24.1245 127.5838 38.8713 -3.3967 5.9764 -7.6968
# 3 46.1734 38.8713 74.1114 -0.1286 20.5954 -3.9550
# 4 -6.1102 -3.3967 -0.1286 33.0594 1.0032 10.5080
# 5 21.1961 5.9764 20.5954 1.0032 42.4756 -6.0690
# 6 -9.5375 -7.6968 -3.9550 10.5080 -6.0690 28.0879
#
#
#
# Elastic Compliance Matrix: (Units=1/GPa)
#
#
# Indices 1 2 3 4 5 6 
#
# 1 0.025650 0.000114 -0.014321 0.003506 -0.005346 0.004258
# 2 0.000114 0.009516 -0.005366 0.000259 0.001503 0.002118
# 3 -0.014321 -0.005366 0.026555 -0.001975 -0.005358 -0.003013
# 4 0.003506 0.000259 -0.001975 0.035127 -0.003503 -0.012915
# 5 -0.005346 0.001503 -0.005358 -0.003503 0.029469 0.005520
# 6 0.004258 0.002118 -0.003013 -0.012915 0.005520 0.043229
#
#
# Mechanical properties :
#
#
# Convention : Reuss Voigt Hill
#
# Bulk Modulus (GPa) = 44.29937 54.61441 49.45689
# Shear Modulus (GPa) = 23.12500 31.65939 27.39220
#
# Velocity S-wave (km/s) = 3.39329 3.97037 3.69312
# Velocity P-wave (km/s) = 6.11637 6.94349 6.54301
#
# Compressibility (1/GPa) = 0.02257369
#
# Stress axis : x y z
#
# Youngs Moduli (GPa) = 38.98665 105.09034 37.65774
#
# Poissons Ratio (x) = -0.01196 0.53931
# Poissons Ratio (y) = -0.00444 0.20207
# Poissons Ratio (z) = 0.55834 0.56391
#
# Static dielectric constant tensor:
#      x y z
#    x 1.795590 0.022360 0.029530 
#    y 0.022360 1.791920 -0.024770 
#    z 0.029530 -0.024770 1.728830 
# 
# From -- ./inp_files/266693.got.cif
#   From: 2010.05.17/outbox.cif.g08.bks.cpg/sg2_134_cif.got.tgz:266693.got - 2010.06.03 11:33:40.
