data_PCOD9087783
_publ_section_title
;
Structure prediction by ZEFSAII (Michael W. Deem and Ramdas Pophale) SiO2 
 PCOD9087783
Probable space group: P -1
;
_chemical_formula_sum "Si O2"
_cell_formula_units_Z 16
_cell_length_a 9.157955
_cell_length_b 12.510601
_cell_length_c 12.888640
_cell_angle_alpha 66.962376
_cell_angle_beta 45.035613
_cell_angle_gamma 49.202881
_cell_volume 784.093307
_symmetry_space_group_name_H-M "P -1"
_symmetry_group_IT_number 2
_symmetry_cell_setting 'triclinic'
loop_
_space_group_symop_operation_xyz
x,y,z
-x,-y,-z
loop_
_atom_site_type_symbol
_atom_site_label
_atom_site_fract_x
_atom_site_fract_y
_atom_site_fract_z
Si Si1 0.608510 0.092460 0.899877
Si Si2 0.185348 0.856639 0.027772
Si Si3 0.863460 0.647698 0.074276
Si Si4 0.655296 0.678866 0.394801
Si Si5 0.301055 0.694990 0.833701
Si Si6 0.810814 0.461886 0.566728
Si Si7 0.875718 0.816628 0.369872
Si Si8 0.186651 0.915349 0.626652
O O1 0.649109 0.122863 0.985049
O O2 0.400705 0.236602 0.891824
O O3 0.882250 0.006983 0.738674
O O4 0.500000 0.000000 0.000000
O O5 0.032158 0.822389 0.194413
O O6 0.339206 0.733231 0.914170
O O7 0.000000 0.000000 0.000000
O O8 0.796950 0.643077 0.228869
O O9 0.000000 0.500000 0.000000
O O10 0.053561 0.695379 0.956768
O O11 0.729406 0.532794 0.467018
O O12 0.736129 0.754962 0.406494
O O13 0.353505 0.801944 0.495673
O O14 0.550251 0.546947 0.729215
O O15 0.257919 0.815497 0.730285
O O16 0.000000 0.500000 0.500000
O O17 0.953497 0.296587 0.582624
O O18 0.747078 0.971128 0.428169
#
# Coordination Sequence:
#
# PCOD9087783 Si02
#       8
#     2   2   2   2   2   2   2   2
#     4  11  23  41  65  99 140 167 220 271 325 396
#     4  11  20  37  69 102 123 168 219 274 328 378
#     4  12  27  44  67  95 135 180 220 270 332 396
#     4  10  22  43  64  92 138 174 215 269 336 392
#     4  11  21  42  69  93 131 172 219 274 331 387
#     4   9  22  40  61  96 136 169 215 281 322 390
#     4  10  19  36  68 102 128 161 223 272 327 387
#     4  10  21  39  69  96 129 170 213 272 331 388
#
# _framework density 20.405736000000001
#
# number of rings (size 3 to 8) (size 9 to 14) (size 15 to 20)
#    0.000    1.500    5.000    0.375    3.500    3.000 
#    0.000    3.750    2.750    0.000    0.000    0.000 
#    0.000    0.000    0.000    0.000    0.000    0.000 
#
# Total GULP energy -89288.243594 kJ/mol
# GULP energy per Si atom -5580.515225 kJ/mol
# Density = 2.035929 g / cm^3
# Si number density = 20.405736 Si / 1000 Ang^3
#
#
#
# Elastic Constant Matrix: (Units=GPa)
#
#
# Indices 1 2 3 4 5 6 
#
# 1 84.8167 28.8075 33.5219 3.6075 -4.1867 -7.4200
# 2 28.8075 131.8195 57.5540 -4.8105 14.0407 -11.9705
# 3 33.5219 57.5540 102.6790 2.7174 7.7465 -4.8073
# 4 3.6075 -4.8105 2.7174 30.7902 -2.1189 -4.4179
# 5 -4.1867 14.0407 7.7465 -2.1189 27.0434 0.6184
# 6 -7.4200 -11.9705 -4.8073 -4.4179 0.6184 24.1713
#
#
#
# Elastic Compliance Matrix: (Units=1/GPa)
#
#
# Indices 1 2 3 4 5 6 
#
# 1 0.014369 -0.001669 -0.003920 -0.000955 0.004081 0.002526
# 2 -0.001669 0.011257 -0.005284 0.002777 -0.004478 0.004634
# 3 -0.003920 -0.005284 0.014124 -0.001941 -0.002031 -0.001314
# 4 -0.000955 0.002777 -0.001941 0.034292 0.001495 0.006926
# 5 0.004081 -0.004478 -0.002031 0.001495 0.040682 -0.002136
# 6 0.002526 0.004634 -0.001314 0.006926 -0.002136 0.045501
#
#
# Mechanical properties :
#
#
# Convention : Reuss Voigt Hill
#
# Bulk Modulus (GPa) = 55.54147 62.12021 58.83084
# Shear Modulus (GPa) = 26.59986 29.69643 28.14815
#
# Velocity S-wave (km/s) = 3.61439 3.81898 3.71809
# Velocity P-wave (km/s) = 6.68551 7.06786 6.87934
#
# Compressibility (1/GPa) = 0.01800456
#
# Stress axis : x y z
#
# Youngs Moduli (GPa) = 69.59249 88.83509 70.80343
#
# Poissons Ratio (x) = 0.14825 0.27756
# Poissons Ratio (y) = 0.11614 0.37410
# Poissons Ratio (z) = 0.27281 0.46937
#
# Static dielectric constant tensor:
#      x y z
#    x 1.772610 0.007960 -0.056690 
#    y 0.007960 1.741710 -0.000630 
#    z -0.056690 -0.000630 1.736330 
# 
# From -- ./inp_files/319343.got.cif
#   From: 2010.05.17/outbox.cif.g08.bks.cpg/sg2_160_cif.got.tgz:319343.got - 2010.06.03 11:33:40.
