data_PCOD9087186
_publ_section_title
;
Structure prediction by ZEFSAII (Michael W. Deem and Ramdas Pophale) SiO2 
 PCOD9087186
Probable space group: P -1
;
_chemical_formula_sum "Si O2"
_cell_formula_units_Z 16
_cell_length_a 11.881878
_cell_length_b 8.273698
_cell_length_c 9.019529
_cell_angle_alpha 106.585378
_cell_angle_beta 54.677107
_cell_angle_gamma 99.106110
_cell_volume 693.326051
_symmetry_space_group_name_H-M "P -1"
_symmetry_group_IT_number 2
_symmetry_cell_setting 'triclinic'
loop_
_space_group_symop_operation_xyz
x,y,z
-x,-y,-z
loop_
_atom_site_type_symbol
_atom_site_label
_atom_site_fract_x
_atom_site_fract_y
_atom_site_fract_z
Si Si1 0.866447 0.922159 0.001748
Si Si2 0.783875 0.398318 0.129396
Si Si3 0.366316 0.503852 0.210356
Si Si4 0.905067 0.528676 0.794143
Si Si5 0.266249 0.202404 0.666911
Si Si6 0.513961 0.662807 0.645404
Si Si7 0.168723 0.680594 0.590746
Si Si8 0.024373 0.011983 0.656495
O O1 0.890969 0.723367 0.906285
O O2 0.879094 0.012878 0.857875
O O3 0.742308 0.915658 0.211507
O O4 0.000000 0.000000 0.000000
O O5 0.754166 0.598587 0.230547
O O6 0.640724 0.312049 0.173833
O O7 0.821651 0.317869 0.237603
O O8 0.890168 0.405742 0.914613
O O9 0.230178 0.492136 0.209193
O O10 0.395397 0.370503 0.284976
O O11 0.318343 0.657848 0.395150
O O12 0.500000 0.500000 0.000000
O O13 0.059852 0.525852 0.610369
O O14 0.409268 0.194862 0.468671
O O15 0.134508 0.150772 0.656437
O O16 0.500000 0.500000 0.500000
O O17 0.100273 0.840177 0.606845
O O18 0.000000 0.000000 0.500000
#
# Coordination Sequence:
#
# PCOD9087186 Si02
#       8
#     2   2   2   2   2   2   2   2
#     4   8  17  34  55  83 119 156 202 237 299 372
#     4  10  19  38  63  91 120 158 210 255 301 373
#     4  12  23  37  61  92 131 165 204 259 313 363
#     4  10  21  35  60  98 124 155 201 263 310 360
#     4   9  18  34  61  85 111 165 205 240 304 370
#     4  10  19  36  62  87 118 166 207 248 309 367
#     4  11  23  38  60  93 129 160 211 254 309 370
#     4  10  22  38  57  87 129 164 200 257 316 365
#
# _framework density 23.077165999999998
#
# number of rings (size 3 to 8) (size 9 to 14) (size 15 to 20)
#    0.000    2.000    3.750    0.750    3.500    1.000 
#    0.000    4.375    0.000    0.750    0.000    0.000 
#    0.000    0.000    0.000    0.000    0.000    0.000 
#
# Total GULP energy -89114.938725 kJ/mol
# GULP energy per Si atom -5569.683670 kJ/mol
# Density = 2.302464 g / cm^3
# Si number density = 23.077166 Si / 1000 Ang^3
#
#
#
# Elastic Constant Matrix: (Units=GPa)
#
#
# Indices 1 2 3 4 5 6 
#
# 1 79.0005 22.9781 47.5196 -20.1297 6.4506 -5.7180
# 2 22.9781 68.4365 42.1947 -32.8009 -6.0218 2.3240
# 3 47.5196 42.1947 163.3592 -42.1362 -10.3927 10.6103
# 4 -20.1297 -32.8009 -42.1362 33.2554 -2.0766 -9.1950
# 5 6.4506 -6.0218 -10.3927 -2.0766 46.4490 -10.0233
# 6 -5.7180 2.3240 10.6103 -9.1950 -10.0233 24.3379
#
#
#
# Elastic Compliance Matrix: (Units=1/GPa)
#
#
# Indices 1 2 3 4 5 6 
#
# 1 0.017656 -0.000140 -0.003583 0.008263 -0.001091 0.008396
# 2 -0.000140 0.032515 0.001082 0.037968 0.009319 0.014573
# 3 -0.003583 0.001082 0.010242 0.012307 0.003639 0.000738
# 4 0.008263 0.037968 0.012307 0.100026 0.019354 0.038712
# 5 -0.001091 0.009319 0.003639 0.019354 0.028049 0.016131
# 6 0.008396 0.014573 0.000738 0.038712 0.016131 0.062617
#
#
# Mechanical properties :
#
#
# Convention : Reuss Voigt Hill
#
# Bulk Modulus (GPa) = 18.13865 59.57566 38.85716
# Shear Modulus (GPa) = 18.19738 34.01539 26.10638
#
# Velocity S-wave (km/s) = 2.81115 3.84342 3.36708
# Velocity P-wave (km/s) = 4.29113 6.75038 5.65604
#
# Compressibility (1/GPa) = 0.05513089
#
# Stress axis : x y z
#
# Youngs Moduli (GPa) = 56.63647 30.75540 97.63331
#
# Poissons Ratio (x) = 0.00430 0.34987
# Poissons Ratio (y) = 0.00792 -0.10563
# Poissons Ratio (z) = 0.20295 -0.03327
#
# Static dielectric constant tensor:
#      x y z
#    x 1.881590 0.018350 -0.014730 
#    y 0.018350 1.845870 0.057850 
#    z -0.014730 0.057850 2.057310 
# 
# From -- ./inp_files/238899.got.cif
#   From: 2010.05.17/outbox.cif.g08.bks.cpg/sg2_120_cif.got.tgz:238899.got - 2010.06.03 11:33:40.
