data_PCOD9087575
_publ_section_title
;
Structure prediction by ZEFSAII (Michael W. Deem and Ramdas Pophale) SiO2 
 PCOD9087575
Probable space group: P -1
;
_chemical_formula_sum "Si O2"
_cell_formula_units_Z 16
_cell_length_a 21.533981
_cell_length_b 18.482937
_cell_length_c 11.925286
_cell_angle_alpha 31.139127
_cell_angle_beta 41.552124
_cell_angle_gamma 19.130259
_cell_volume 751.732174
_symmetry_space_group_name_H-M "P -1"
_symmetry_group_IT_number 2
_symmetry_cell_setting 'triclinic'
loop_
_space_group_symop_operation_xyz
x,y,z
-x,-y,-z
loop_
_atom_site_type_symbol
_atom_site_label
_atom_site_fract_x
_atom_site_fract_y
_atom_site_fract_z
Si Si1 0.461313 0.206497 0.737998
Si Si2 0.004109 0.165760 0.896606
Si Si3 0.772828 0.266397 0.491655
Si Si4 0.527400 0.362577 0.806150
Si Si5 0.381019 0.799722 0.790878
Si Si6 0.427800 0.249415 0.236968
Si Si7 0.742229 0.051520 0.486469
Si Si8 0.134087 0.672272 0.387576
O O1 0.310870 0.494733 0.637760
O O2 0.668475 0.021964 0.701451
O O3 0.351402 0.352969 0.570688
O O4 0.500000 0.000000 0.000000
O O5 0.812893 0.437978 0.874187
O O6 0.916180 0.297847 0.713123
O O7 0.195039 0.015287 0.840459
O O8 0.089871 0.896498 0.154980
O O9 0.726057 0.185296 0.733046
O O10 0.627620 0.442877 0.346240
O O11 0.000000 0.000000 0.500000
O O12 0.410250 0.618320 0.714678
O O13 0.540449 0.188940 0.068524
O O14 0.529142 0.712937 0.761688
O O15 0.290394 0.958235 0.583116
O O16 0.500000 0.500000 0.000000
O O17 0.500000 0.000000 0.500000
O O18 0.967426 0.813096 0.501875
#
# Coordination Sequence:
#
# PCOD9087575 Si02
#       8
#     2   2   2   2   2   2   2   2
#     4  11  24  38  61  93 124 162 210 270 324 367
#     4  10  21  36  64  95 122 164 211 255 314 391
#     4  10  23  41  65  86 114 172 220 261 307 377
#     4  10  21  40  60  88 121 162 217 255 306 381
#     4  11  20  37  65  95 122 160 214 254 313 387
#     4  12  25  39  60  96 139 168 200 272 329 377
#     4  10  19  37  64  88 120 160 210 259 305 380
#     4  10  19  36  64  93 122 156 211 259 305 378
#
# _framework density 21.284177
#
# number of rings (size 3 to 8) (size 9 to 14) (size 15 to 20)
#    0.000    1.500    2.500    3.750    1.750    3.000 
#    0.000    2.500    0.000    0.000    0.000    0.000 
#    0.000    0.000    0.000    0.000    0.000    0.000 
#
# Total GULP energy -89338.622198 kJ/mol
# GULP energy per Si atom -5583.663887 kJ/mol
# Density = 2.123573 g / cm^3
# Si number density = 21.284177 Si / 1000 Ang^3
#
#
#
# Elastic Constant Matrix: (Units=GPa)
#
#
# Indices 1 2 3 4 5 6 
#
# 1 55.7627 20.9524 23.7107 9.8926 1.6081 -11.2597
# 2 20.9524 141.0237 38.5073 37.8027 -15.7952 -38.6981
# 3 23.7107 38.5073 130.8924 26.7478 -16.3069 -7.0038
# 4 9.8926 37.8027 26.7478 26.5730 -8.0867 -1.6026
# 5 1.6081 -15.7952 -16.3069 -8.0867 29.8214 6.6700
# 6 -11.2597 -38.6981 -7.0038 -1.6026 6.6700 30.9135
#
#
#
# Elastic Compliance Matrix: (Units=1/GPa)
#
#
# Indices 1 2 3 4 5 6 
#
# 1 0.022724 0.003028 -0.002931 -0.011211 -0.007024 0.012338
# 2 0.003028 0.023338 0.000766 -0.034319 -0.003270 0.029417
# 3 -0.002931 0.000766 0.010327 -0.009276 0.003471 0.001000
# 4 -0.011211 -0.034319 -0.009276 0.101845 0.015533 -0.047218
# 5 -0.007024 -0.003270 0.003471 0.015533 0.041421 -0.013997
# 6 0.012338 0.029417 0.001000 -0.047218 -0.013997 0.074466
#
#
# Mechanical properties :
#
#
# Convention : Reuss Voigt Hill
#
# Bulk Modulus (GPa) = 17.20743 54.89108 36.04925
# Shear Modulus (GPa) = 17.13689 33.76214 25.44951
#
# Velocity S-wave (km/s) = 2.84059 3.98710 3.46164
# Velocity P-wave (km/s) = 4.34290 6.85869 5.74031
#
# Compressibility (1/GPa) = 0.05811442
#
# Stress axis : x y z
#
# Youngs Moduli (GPa) = 44.00546 42.84895 96.83120
#
# Poissons Ratio (x) = -0.12976 0.28384
# Poissons Ratio (y) = -0.13326 -0.07413
# Poissons Ratio (z) = 0.12899 -0.03280
#
# Static dielectric constant tensor:
#      x y z
#    x 1.778520 0.030390 0.050610 
#    y 0.030390 1.804220 0.043060 
#    z 0.050610 0.043060 1.765130 
# 
# From -- ./inp_files/472335.got.cif
#   From: 2010.05.17/outbox.cif.g08.bks.cpg/sg2_237_cif.got.tgz:472335.got - 2010.06.03 11:33:40.
