data_PCOD9087650
_publ_section_title
;
Structure prediction by ZEFSAII (Michael W. Deem and Ramdas Pophale) SiO2 
 PCOD9087650
Probable space group: P -1
;
_chemical_formula_sum "Si O2"
_cell_formula_units_Z 16
_cell_length_a 10.376981
_cell_length_b 13.596785
_cell_length_c 8.512305
_cell_angle_alpha 95.600473
_cell_angle_beta 135.459659
_cell_angle_gamma 66.494870
_cell_volume 739.265747
_symmetry_space_group_name_H-M "P -1"
_symmetry_group_IT_number 2
_symmetry_cell_setting 'triclinic'
loop_
_space_group_symop_operation_xyz
x,y,z
-x,-y,-z
loop_
_atom_site_type_symbol
_atom_site_label
_atom_site_fract_x
_atom_site_fract_y
_atom_site_fract_z
Si Si1 0.421386 0.632246 0.961745
Si Si2 0.218925 0.812874 0.035841
Si Si3 0.185767 0.440785 0.531372
Si Si4 0.138892 0.676015 0.457099
Si Si5 0.888918 0.836962 0.995305
Si Si6 0.340784 0.225188 0.455858
Si Si7 0.286861 0.962131 0.881415
Si Si8 0.244546 0.139755 0.665699
O O1 0.261854 0.694483 0.975700
O O2 0.622219 0.637746 0.200199
O O3 0.500000 0.500000 0.000000
O O4 0.324800 0.681252 0.716743
O O5 0.017549 0.861071 0.976231
O O6 0.420578 0.800324 0.308936
O O7 0.204059 0.884227 0.878146
O O8 0.201112 0.545248 0.483197
O O9 0.192284 0.355013 0.393012
O O10 0.000000 0.500000 0.500000
O O11 0.065519 0.738306 0.238619
O O12 0.939723 0.746390 0.408036
O O13 0.726112 0.801843 0.772537
O O14 0.767433 0.942832 0.017838
O O15 0.286895 0.153595 0.524565
O O16 0.534825 0.888896 0.066723
O O17 0.203279 0.036313 0.663275
#
# Coordination Sequence:
#
# PCOD9087650 Si02
#       8
#     2   2   2   2   2   2   2   2
#     4   9  20  38  61  86 114 147 199 247 291 341
#     4  10  21  39  60  86 119 158 200 240 297 358
#     4  10  19  36  65  89 112 147 200 247 291 348
#     4  10  20  38  59  90 117 155 196 244 301 346
#     4  11  23  39  58  84 130 161 190 241 302 358
#     4  10  21  38  60  89 118 158 196 240 302 354
#     4   9  20  37  58  88 116 155 205 248 290 342
#     4   9  17  35  61  83 113 149 202 250 283 333
#
# _framework density 21.643096
#
# number of rings (size 3 to 8) (size 9 to 14) (size 15 to 20)
#    0.000    2.250    1.250    1.125    1.750    2.500 
#    2.250   13.750    0.000    0.000    0.000    0.000 
#    0.000    0.000    0.000    0.000    0.000    0.000 
#
# Total GULP energy -89191.841995 kJ/mol
# GULP energy per Si atom -5574.490125 kJ/mol
# Density = 2.159384 g / cm^3
# Si number density = 21.643096 Si / 1000 Ang^3
#
#
#
# Elastic Constant Matrix: (Units=GPa)
#
#
# Indices 1 2 3 4 5 6 
#
# 1 55.5031 2.3645 4.8391 -2.2723 9.2365 4.9276
# 2 2.3645 87.5902 27.2161 -6.2095 -0.8260 0.6041
# 3 4.8391 27.2161 98.0784 -1.5605 -1.0821 5.8498
# 4 -2.2723 -6.2095 -1.5605 26.7554 -0.3745 -4.8228
# 5 9.2365 -0.8260 -1.0821 -0.3745 21.9441 -9.9149
# 6 4.9276 0.6041 5.8498 -4.8228 -9.9149 24.3560
#
#
#
# Elastic Compliance Matrix: (Units=1/GPa)
#
#
# Indices 1 2 3 4 5 6 
#
# 1 0.021133 -0.000499 -0.000482 -0.000267 -0.013283 -0.009607
# 2 -0.000499 0.012753 -0.003558 0.003055 0.001383 0.001807
# 3 -0.000482 -0.003558 0.011365 -0.000754 -0.000736 -0.002993
# 4 -0.000267 0.003055 -0.000754 0.039957 0.005537 0.010325
# 5 -0.013283 0.001383 -0.000736 0.005537 0.065001 0.030387
# 6 -0.009607 0.001807 -0.002993 0.010325 0.030387 0.058090
#
#
# Mechanical properties :
#
#
# Convention : Reuss Voigt Hill
#
# Bulk Modulus (GPa) = 27.64449 34.44566 31.04507
# Shear Modulus (GPa) = 21.79265 28.39455 25.09360
#
# Velocity S-wave (km/s) = 3.17663 3.62601 3.40873
# Velocity P-wave (km/s) = 5.12399 5.78623 5.46515
#
# Compressibility (1/GPa) = 0.03617357
#
# Stress axis : x y z
#
# Youngs Moduli (GPa) = 47.31977 78.41274 87.98577
#
# Poissons Ratio (x) = 0.03910 0.04242
# Poissons Ratio (y) = 0.02359 0.31307
# Poissons Ratio (z) = 0.02281 0.27901
#
# Static dielectric constant tensor:
#      x y z
#    x 1.813990 0.027430 0.017760 
#    y 0.027430 1.853590 -0.002520 
#    z 0.017760 -0.002520 1.860400 
# 
# From -- ./inp_files/273521.got.cif
#   From: 2010.05.17/outbox.cif.g08.bks.cpg/sg2_137_cif.got.tgz:273521.got - 2010.06.03 11:33:40.
