data_PCOD9087831
_publ_section_title
;
Structure prediction by ZEFSAII (Michael W. Deem and Ramdas Pophale) SiO2 
 PCOD9087831
Probable space group: P -1
;
_chemical_formula_sum "Si O2"
_cell_formula_units_Z 16
_cell_length_a 11.901262
_cell_length_b 13.405782
_cell_length_c 11.013822
_cell_angle_alpha 34.751256
_cell_angle_beta 82.295783
_cell_angle_gamma 72.146631
_cell_volume 930.642069
_symmetry_space_group_name_H-M "P -1"
_symmetry_group_IT_number 2
_symmetry_cell_setting 'triclinic'
loop_
_space_group_symop_operation_xyz
x,y,z
-x,-y,-z
loop_
_atom_site_type_symbol
_atom_site_label
_atom_site_fract_x
_atom_site_fract_y
_atom_site_fract_z
Si Si1 0.456093 0.838415 0.613637
Si Si2 0.380899 0.774624 0.941164
Si Si3 0.338415 0.898756 0.330660
Si Si4 0.852124 0.191036 0.921321
Si Si5 0.402779 0.163821 0.619106
Si Si6 0.578028 0.518342 0.352909
Si Si7 0.121164 0.119522 0.971887
Si Si8 0.224427 0.417386 0.587373
O O1 0.421229 0.737686 0.832275
O O2 0.344642 0.920667 0.453423
O O3 0.562542 0.735890 0.604115
O O4 0.500000 0.000000 0.500000
O O5 0.368156 0.989203 0.756238
O O6 0.254740 0.757599 0.016661
O O7 0.485691 0.646182 0.141510
O O8 0.466120 0.917902 0.251365
O O9 0.356504 0.686347 0.506963
O O10 0.221999 0.031809 0.146941
O O11 0.831481 0.368675 0.659116
O O12 0.846399 0.021411 0.007145
O O13 0.985954 0.137844 0.009391
O O14 0.303948 0.301864 0.579761
O O15 0.500000 0.500000 0.500000
O O16 0.680155 0.596316 0.305502
O O17 0.130854 0.317285 0.736608
#
# Coordination Sequence:
#
# PCOD9087831 Si02
#       8
#     2   2   2   2   2   2   2   2
#     4   8  19  35  54  82 109 142 184 223 276 333
#     4  11  19  36  55  81 112 147 177 228 280 314
#     4  10  19  37  52  83 112 140 184 224 273 333
#     4  11  23  37  55  84 108 149 195 218 266 337
#     4   9  19  33  58  83 110 143 174 225 282 335
#     4  12  20  30  54  87 116 133 177 230 281 345
#     4  11  23  38  57  76 116 152 182 227 274 319
#     4  12  21  36  56  85 114 145 175 230 281 332
#
# _framework density 17.192432
#
# number of rings (size 3 to 8) (size 9 to 14) (size 15 to 20)
#    0.750    0.750    5.000    1.125    0.000    1.500 
#    0.000    0.625    0.000    0.000    0.000    2.625 
#    0.000    0.000    0.000    0.000    0.000    0.000 
#
# Total GULP energy -89157.973514 kJ/mol
# GULP energy per Si atom -5572.373345 kJ/mol
# Density = 1.715330 g / cm^3
# Si number density = 17.192432 Si / 1000 Ang^3
#
#
#
# Elastic Constant Matrix: (Units=GPa)
#
#
# Indices 1 2 3 4 5 6 
#
# 1 78.5992 25.7435 24.2053 12.4537 -4.8292 4.9493
# 2 25.7435 47.1368 14.3633 8.1597 -4.2675 7.0151
# 3 24.2053 14.3633 57.9631 7.1610 -12.1596 -1.7790
# 4 12.4537 8.1597 7.1610 27.2440 2.9188 -2.8398
# 5 -4.8292 -4.2675 -12.1596 2.9188 24.0051 -3.7167
# 6 4.9493 7.0151 -1.7790 -2.8398 -3.7167 22.1254
#
#
#
# Elastic Compliance Matrix: (Units=1/GPa)
#
#
# Indices 1 2 3 4 5 6 
#
# 1 0.017447 -0.006705 -0.005132 -0.004901 -0.000126 -0.002840
# 2 -0.006705 0.028229 -0.003502 -0.005464 0.001288 -0.008217
# 3 -0.005132 -0.003502 0.023239 -0.003349 0.011393 0.005611
# 4 -0.004901 -0.005464 -0.003349 0.043007 -0.007836 0.006763
# 5 -0.000126 0.001288 0.011393 -0.007836 0.049808 0.007897
# 6 -0.002840 -0.008217 0.005611 0.006763 0.007897 0.051083
#
#
# Mechanical properties :
#
#
# Convention : Reuss Voigt Hill
#
# Bulk Modulus (GPa) = 26.15329 34.70260 30.42795
# Shear Modulus (GPa) = 19.51311 22.63403 21.07357
#
# Velocity S-wave (km/s) = 3.37260 3.63231 3.50486
# Velocity P-wave (km/s) = 5.51462 6.14981 5.84086
#
# Compressibility (1/GPa) = 0.03823610
#
# Stress axis : x y z
#
# Youngs Moduli (GPa) = 57.31631 35.42422 43.03038
#
# Poissons Ratio (x) = 0.23752 0.22085
# Poissons Ratio (y) = 0.38431 0.15070
# Poissons Ratio (z) = 0.29417 0.12407
#
# Static dielectric constant tensor:
#      x y z
#    x 1.592850 0.014440 -0.020530 
#    y 0.014440 1.590260 -0.004090 
#    z -0.020530 -0.004090 1.610170 
# 
# From -- ./inp_files/430751.got.cif
#   From: 2010.05.17/outbox.cif.g08.bks.cpg/sg2_216_cif.got.tgz:430751.got - 2010.06.03 11:33:40.
