data_PCOD9087770
_publ_section_title
;
Structure prediction by ZEFSAII (Michael W. Deem and Ramdas Pophale) SiO2 
 PCOD9087770
Probable space group: P -1
;
_chemical_formula_sum "Si O2"
_cell_formula_units_Z 14
_cell_length_a 19.291029
_cell_length_b 8.019405
_cell_length_c 11.464785
_cell_angle_alpha 117.721478
_cell_angle_beta 152.922190
_cell_angle_gamma 48.832344
_cell_volume 568.657964
_symmetry_space_group_name_H-M "P -1"
_symmetry_group_IT_number 2
_symmetry_cell_setting 'triclinic'
loop_
_space_group_symop_operation_xyz
x,y,z
-x,-y,-z
loop_
_atom_site_type_symbol
_atom_site_label
_atom_site_fract_x
_atom_site_fract_y
_atom_site_fract_z
Si Si1 0.635221 0.597689 0.630484
Si Si2 0.772159 0.907131 0.471539
Si Si3 0.582198 0.681587 0.009898
Si Si4 0.911231 0.368171 0.777877
Si Si5 0.236254 0.900893 0.230296
Si Si6 0.840247 0.576363 0.141941
Si Si7 0.089993 0.733148 0.527000
O O1 0.705061 0.532752 0.582977
O O2 0.412031 0.803511 0.375144
O O3 0.709487 0.346318 0.719414
O O4 0.743943 0.663349 0.898725
O O5 0.654916 0.802855 0.236610
O O6 0.990714 0.705427 0.700461
O O7 0.761156 0.969026 0.609901
O O8 0.645172 0.150987 0.288107
O O9 0.676600 0.647932 0.012701
O O10 0.696599 0.424947 0.152435
O O11 0.905624 0.341632 0.623646
O O12 0.000000 0.500000 0.000000
O O13 0.037973 0.103364 0.937329
O O14 0.955913 0.680212 0.375360
O O15 0.000000 0.000000 0.500000
#
# Coordination Sequence:
#
# PCOD9087770 Si02
#       7
#     2   2   2   2   2   2   2
#     4  11  24  41  68 100 125 169 225 278 319 378
#     4  10  19  36  67  96 120 161 217 275 313 371
#     4  10  22  40  66  94 129 167 222 265 321 388
#     4  12  24  45  66  96 141 175 212 265 336 399
#     4  11  24  41  69  99 125 168 232 274 315 380
#     4  11  21  43  67  95 125 171 221 267 327 376
#     4  11  25  41  66  98 135 176 210 262 333 397
#
# _framework density 24.619367
#
# number of rings (size 3 to 8) (size 9 to 14) (size 15 to 20)
#    0.000    1.143    4.286    3.000    2.000    1.714 
#    0.000    1.429    0.000   15.429    0.000    0.000 
#    0.000    0.000    0.000    0.000    0.000    0.000 
#
# Total GULP energy -78359.302276 kJ/mol
# GULP energy per Si atom -5597.093020 kJ/mol
# Density = 2.456333 g / cm^3
# Si number density = 24.619367 Si / 1000 Ang^3
#
#
#
# Elastic Constant Matrix: (Units=GPa)
#
#
# Indices 1 2 3 4 5 6 
#
# 1 80.3980 28.2371 17.4673 -0.2210 -3.0600 -39.9064
# 2 28.2371 113.8020 19.9413 -14.1709 4.3442 -15.0231
# 3 17.4673 19.9413 80.2621 -21.0368 1.5848 -21.5066
# 4 -0.2210 -14.1709 -21.0368 37.7940 -6.4239 -1.5138
# 5 -3.0600 4.3442 1.5848 -6.4239 37.3978 -4.9027
# 6 -39.9064 -15.0231 -21.5066 -1.5138 -4.9027 35.9844
#
#
#
# Elastic Compliance Matrix: (Units=1/GPa)
#
#
# Indices 1 2 3 4 5 6 
#
# 1 0.032047 -0.003511 0.005372 0.004891 0.008713 0.038678
# 2 -0.003511 0.010225 -0.001010 0.003084 -0.000932 -0.000225
# 3 0.005372 -0.001010 0.019476 0.011933 0.004173 0.018246
# 4 0.004891 0.003084 0.011933 0.036293 0.007927 0.016451
# 5 0.008713 -0.000932 0.004173 0.007927 0.030884 0.016309
# 6 0.038678 -0.000225 0.018246 0.016451 0.016309 0.084408
#
#
# Mechanical properties :
#
#
# Convention : Reuss Voigt Hill
#
# Bulk Modulus (GPa) = 15.76053 45.08372 30.42213
# Shear Modulus (GPa) = 21.47948 36.15634 28.81791
#
# Velocity S-wave (km/s) = 2.95695 3.83641 3.42502
# Velocity P-wave (km/s) = 4.25131 6.16247 5.29385
#
# Compressibility (1/GPa) = 0.06344962
#
# Stress axis : x y z
#
# Youngs Moduli (GPa) = 31.20387 97.79870 51.34654
#
# Poissons Ratio (x) = 0.34334 -0.27582
# Poissons Ratio (y) = 0.10955 0.05187
# Poissons Ratio (z) = -0.16762 0.09880
#
# Static dielectric constant tensor:
#      x y z
#    x 1.982740 0.068650 0.009870 
#    y 0.068650 1.989210 0.007780 
#    z 0.009870 0.007780 1.951720 
# 
# From -- ./inp_files/425033.got.cif
#   From: 2010.05.17/outbox.cif.g08.bks.cpg/sg2_213_cif.got.tgz:425033.got - 2010.06.03 11:33:40.
