data_PCOD9087350
_publ_section_title
;
Structure prediction by ZEFSAII (Michael W. Deem and Ramdas Pophale) SiO2 
 PCOD9087350
Probable space group: P -1
;
_chemical_formula_sum "Si O2"
_cell_formula_units_Z 16
_cell_length_a 17.072694
_cell_length_b 5.168818
_cell_length_c 16.326909
_cell_angle_alpha 111.060690
_cell_angle_beta 35.766602
_cell_angle_gamma 108.522965
_cell_volume 784.960031
_symmetry_space_group_name_H-M "P -1"
_symmetry_group_IT_number 2
_symmetry_cell_setting 'triclinic'
loop_
_space_group_symop_operation_xyz
x,y,z
-x,-y,-z
loop_
_atom_site_type_symbol
_atom_site_label
_atom_site_fract_x
_atom_site_fract_y
_atom_site_fract_z
Si Si1 0.396431 0.011804 0.711992
Si Si2 0.657454 0.802534 0.393198
Si Si3 0.269509 0.818724 0.945668
Si Si4 0.535232 0.518555 0.732007
Si Si5 0.951621 0.337328 0.764209
Si Si6 0.241368 0.564458 0.596583
Si Si7 0.580349 0.715987 0.897828
Si Si8 0.833426 0.762426 0.799310
O O1 0.349389 0.205721 0.700202
O O2 0.479377 0.204012 0.728264
O O3 0.504088 0.815402 0.557580
O O4 0.277800 0.861041 0.846462
O O5 0.731180 0.571952 0.354272
O O6 0.727630 0.105590 0.387914
O O7 0.409135 0.700454 0.840647
O O8 0.148890 0.636285 0.069508
O O9 0.250251 0.112739 0.039877
O O10 0.652832 0.560549 0.570588
O O11 0.582276 0.592135 0.791183
O O12 0.889886 0.481815 0.753613
O O13 0.093591 0.479616 0.681635
O O14 0.948587 0.005156 0.715353
O O15 0.730293 0.750151 0.810737
O O16 0.500000 0.500000 0.000000
O O17 0.500000 0.000000 0.000000
#
# Coordination Sequence:
#
# PCOD9087350 Si02
#       8
#     2   2   2   2   2   2   2   2
#     4  10  21  37  60  95 121 160 196 257 315 355
#     4  10  23  38  63  87 128 154 205 254 306 359
#     4  10  19  36  63  86 119 159 201 242 305 358
#     4  11  23  37  66  92 124 155 206 256 298 364
#     4  10  22  40  63  81 126 169 198 242 306 367
#     4  11  23  43  61  92 118 166 206 249 301 359
#     4  12  22  37  60  98 127 151 201 255 304 348
#     4  10  21  39  60  86 121 167 196 240 309 359
#
# _framework density 20.383203999999999
#
# number of rings (size 3 to 8) (size 9 to 14) (size 15 to 20)
#    0.750    0.750    2.500    3.750    1.750    1.500 
#    0.000    2.500    0.000    0.000    0.000    0.000 
#    0.000    0.000    0.000    0.000    0.000    0.000 
#
# Total GULP energy -89327.476224 kJ/mol
# GULP energy per Si atom -5582.967264 kJ/mol
# Density = 2.033681 g / cm^3
# Si number density = 20.383204 Si / 1000 Ang^3
#
#
#
# Elastic Constant Matrix: (Units=GPa)
#
#
# Indices 1 2 3 4 5 6 
#
# 1 88.6024 20.2516 26.1533 -9.1611 -0.7261 7.6377
# 2 20.2516 79.9468 11.4790 -12.4318 6.5194 -5.8116
# 3 26.1533 11.4790 54.2919 -16.2911 -7.8510 6.4987
# 4 -9.1611 -12.4318 -16.2911 21.1518 6.7187 -1.5845
# 5 -0.7261 6.5194 -7.8510 6.7187 26.7458 -0.6139
# 6 7.6377 -5.8116 6.4987 -1.5845 -0.6139 35.4791
#
#
#
# Elastic Compliance Matrix: (Units=1/GPa)
#
#
# Indices 1 2 3 4 5 6 
#
# 1 0.013865 -0.002801 -0.005960 -0.000188 -0.000698 -0.002372
# 2 -0.002801 0.015599 -0.000289 0.010032 -0.006402 0.003548
# 3 -0.005960 -0.000289 0.027299 0.016908 0.003607 -0.002947
# 4 -0.000188 0.010032 0.016908 0.071090 -0.015311 0.001497
# 5 -0.000698 -0.006402 0.003607 -0.015311 0.043802 -0.001485
# 6 -0.002372 0.003548 -0.002947 0.001497 -0.001485 0.029859
#
#
# Mechanical properties :
#
#
# Convention : Reuss Voigt Hill
#
# Bulk Modulus (GPa) = 25.86474 37.62321 31.74398
# Shear Modulus (GPa) = 21.50517 27.67249 24.58883
#
# Velocity S-wave (km/s) = 3.25167 3.68858 3.47699
# Velocity P-wave (km/s) = 5.17828 6.05300 5.63265
#
# Compressibility (1/GPa) = 0.03866267
#
# Stress axis : x y z
#
# Youngs Moduli (GPa) = 72.12244 64.10508 36.63138
#
# Poissons Ratio (x) = 0.17958 0.21833
# Poissons Ratio (y) = 0.20203 0.01059
# Poissons Ratio (z) = 0.42986 0.01853
#
# Static dielectric constant tensor:
#      x y z
#    x 1.719610 -0.002940 0.019230 
#    y -0.002940 1.782460 -0.005980 
#    z 0.019230 -0.005980 1.717930 
# 
# From -- ./inp_files/525854.got.cif
#   From: 2010.05.17/outbox.cif.g08.bks.cpg/sg2_263_cif.got.tgz:525854.got - 2010.06.03 11:33:40.
