data_PCOD9087496
_publ_section_title
;
Structure prediction by ZEFSAII (Michael W. Deem and Ramdas Pophale) SiO2 
 PCOD9087496
Probable space group: P -1
;
_chemical_formula_sum "Si O2"
_cell_formula_units_Z 12
_cell_length_a 12.379433
_cell_length_b 7.039012
_cell_length_c 14.977049
_cell_angle_alpha 49.371845
_cell_angle_beta 49.737610
_cell_angle_gamma 31.000440
_cell_volume 497.008921
_symmetry_space_group_name_H-M "P -1"
_symmetry_group_IT_number 2
_symmetry_cell_setting 'triclinic'
loop_
_space_group_symop_operation_xyz
x,y,z
-x,-y,-z
loop_
_atom_site_type_symbol
_atom_site_label
_atom_site_fract_x
_atom_site_fract_y
_atom_site_fract_z
Si Si1 0.004656 0.251747 0.135405
Si Si2 0.734499 0.382381 0.102318
Si Si3 0.134575 0.535009 0.468855
Si Si4 0.577154 0.602757 0.786465
Si Si5 0.677255 0.797993 0.842854
Si Si6 0.936379 0.345072 0.338088
O O1 0.912929 0.149964 0.154714
O O2 0.154470 0.216653 0.273391
O O3 0.246085 0.855722 0.154579
O O4 0.000000 0.500000 0.000000
O O5 0.646671 0.233414 0.164077
O O6 0.532731 0.790976 0.130777
O O7 0.787262 0.479790 0.957945
O O8 0.873241 0.468703 0.230454
O O9 0.332636 0.351806 0.356796
O O10 0.195907 0.405100 0.579289
O O11 0.985779 0.981829 0.420312
O O12 0.595263 0.734669 0.826309
O O13 0.000000 0.500000 0.500000
#
# Coordination Sequence:
#
# PCOD9087496 Si02
#       6
#     2   2   2   2   2   2
#     4  11  21  40  63  88 127 159 194 248 305 358
#     4  11  22  39  59  91 128 155 194 249 305 360
#     4  10  19  36  64  85 115 161 208 242 289 355
#     4  11  23  40  62  92 118 162 205 244 298 357
#     4  11  20  39  62  88 125 157 197 250 301 356
#     4  10  20  37  62  89 115 161 201 242 301 355
#
# _framework density 24.144437
#
# number of rings (size 3 to 8) (size 9 to 14) (size 15 to 20)
#    0.000    1.333    6.667    1.500    0.000    0.667 
#    3.000    0.833    0.000    5.000    0.000    0.000 
#    0.000    0.000    0.000    0.000    0.000    0.000 
#
# Total GULP energy -67169.086238 kJ/mol
# GULP energy per Si atom -5597.423853 kJ/mol
# Density = 2.408948 g / cm^3
# Si number density = 24.144437 Si / 1000 Ang^3
#
#
#
# Elastic Constant Matrix: (Units=GPa)
#
#
# Indices 1 2 3 4 5 6 
#
# 1 205.8332 34.6506 57.8450 -0.2152 7.5224 30.3049
# 2 34.6506 55.2964 18.0592 -6.8918 8.0056 16.3452
# 3 57.8450 18.0592 129.2477 -5.4797 12.6100 14.3044
# 4 -0.2152 -6.8918 -5.4797 19.5998 10.8060 3.2688
# 5 7.5224 8.0056 12.6100 10.8060 55.9537 3.6895
# 6 30.3049 16.3452 14.3044 3.2688 3.6895 47.1257
#
#
#
# Elastic Compliance Matrix: (Units=1/GPa)
#
#
# Indices 1 2 3 4 5 6 
#
# 1 0.006286 -0.002752 -0.002278 -0.001416 0.000489 -0.002337
# 2 -0.002752 0.024240 -0.000382 0.012264 -0.004920 -0.006987
# 3 -0.002278 -0.000382 0.009366 0.004027 -0.002440 -0.001334
# 4 -0.001416 0.012264 0.004027 0.065861 -0.014665 -0.007986
# 5 0.000489 -0.004920 -0.002440 -0.014665 0.021797 0.001443
# 6 -0.002337 -0.006987 -0.001334 -0.007986 0.001443 0.025992
#
#
# Mechanical properties :
#
#
# Convention : Reuss Voigt Hill
#
# Bulk Modulus (GPa) = 34.40146 67.94298 51.17222
# Shear Modulus (GPa) = 28.72645 43.19067 35.95856
#
# Velocity S-wave (km/s) = 3.45305 4.23406 3.86335
# Velocity P-wave (km/s) = 5.49338 7.21834 6.41411
#
# Compressibility (1/GPa) = 0.02906854
#
# Stress axis : x y z
#
# Youngs Moduli (GPa) = 159.07199 41.25456 106.76428
#
# Poissons Ratio (x) = 0.11353 0.24323
# Poissons Ratio (y) = 0.43774 0.04079
# Poissons Ratio (z) = 0.36239 0.01576
#
# Static dielectric constant tensor:
#      x y z
#    x 1.905770 -0.007340 0.031220 
#    y -0.007340 1.990340 -0.039860 
#    z 0.031220 -0.039860 1.955900 
# 
# From -- ./inp_files/44892.got.cif
#   From: 2010.05.17/outbox.cif.g08.bks.cpg/sg2_23_cif.got.tgz:44892.got - 2010.06.03 11:33:40.
