data_PCOD9087462
_publ_section_title
;
Structure prediction by ZEFSAII (Michael W. Deem and Ramdas Pophale) SiO2 
 PCOD9087462
Probable space group: P -1
;
_chemical_formula_sum "Si O2"
_cell_formula_units_Z 10
_cell_length_a 6.854458
_cell_length_b 10.532723
_cell_length_c 6.638240
_cell_angle_alpha 116.122824
_cell_angle_beta 75.546109
_cell_angle_gamma 117.853639
_cell_volume 379.865509
_symmetry_space_group_name_H-M "P -1"
_symmetry_group_IT_number 2
_symmetry_cell_setting 'triclinic'
loop_
_space_group_symop_operation_xyz
x,y,z
-x,-y,-z
loop_
_atom_site_type_symbol
_atom_site_label
_atom_site_fract_x
_atom_site_fract_y
_atom_site_fract_z
Si Si1 0.271139 0.970345 0.912255
Si Si2 0.613707 0.276584 0.961745
Si Si3 0.433163 0.429888 0.697582
Si Si4 0.974956 0.146732 0.708120
Si Si5 0.792252 0.335454 0.420536
O O1 0.194415 0.830069 0.675238
O O2 0.369574 0.139393 0.908506
O O3 0.084274 0.917778 0.092030
O O4 0.500000 0.000000 0.000000
O O5 0.785501 0.215177 0.774469
O O6 0.572972 0.432304 0.068409
O O7 0.716391 0.312242 0.190062
O O8 0.500000 0.500000 0.500000
O O9 0.607192 0.351600 0.620152
O O10 0.194328 0.292775 0.689214
O O11 0.000000 0.000000 0.500000
O O12 0.000000 0.500000 0.500000
#
# Coordination Sequence:
#
# PCOD9087462 Si02
#       5
#     2   2   2   2   2
#     4   8  16  31  48  70  93 122 158 189 225 282
#     4   9  18  32  49  74  96 119 157 197 231 274
#     4  10  18  29  47  72  96 122 155 197 235 270
#     4  10  16  27  49  73  94 123 158 193 228 275
#     4   9  17  31  49  69  94 126 156 190 234 281
#
# _framework density 26.325105000000001
#
# number of rings (size 3 to 8) (size 9 to 14) (size 15 to 20)
#    0.000    3.200    0.000    5.400    0.000    0.000 
#    0.000    5.000    0.000    0.000    0.000   91.000 
#    0.000    0.000    0.000    0.000    0.000    0.000 
#
# Total GULP energy -55734.429993 kJ/mol
# GULP energy per Si atom -5573.442999 kJ/mol
# Density = 2.626519 g / cm^3
# Si number density = 26.325105 Si / 1000 Ang^3
#
#
#
# Elastic Constant Matrix: (Units=GPa)
#
#
# Indices 1 2 3 4 5 6 
#
# 1 123.5936 78.7988 68.2307 7.8346 -46.8697 11.8747
# 2 78.7988 296.1528 127.4940 42.1630 -37.0568 39.2120
# 3 68.2307 127.4940 314.0477 22.1192 -55.4237 7.3965
# 4 7.8346 42.1630 22.1192 74.5710 -3.3591 -14.2566
# 5 -46.8697 -37.0568 -55.4237 -3.3591 48.8186 -1.3809
# 6 11.8747 39.2120 7.3965 -14.2566 -1.3809 57.1239
#
#
#
# Elastic Compliance Matrix: (Units=1/GPa)
#
#
# Indices 1 2 3 4 5 6 
#
# 1 0.014038 -0.002061 -0.000113 0.000024 0.011753 -0.001199
# 2 -0.002061 0.005579 -0.001443 -0.003266 0.000280 -0.004023
# 3 -0.000113 -0.001443 0.004486 -0.000239 0.003887 0.000467
# 4 0.000024 -0.003266 -0.000239 0.016474 -0.001414 0.006345
# 5 0.011753 0.000280 0.003887 -0.001414 0.036221 -0.002616
# 6 -0.001199 -0.004023 0.000467 0.006345 -0.002616 0.021976
#
#
# Mechanical properties :
#
#
# Convention : Reuss Voigt Hill
#
# Bulk Modulus (GPa) = 59.27589 142.53790 100.90690
# Shear Modulus (GPa) = 44.79077 66.72076 55.75576
#
# Velocity S-wave (km/s) = 4.12933 5.03984 4.60713
# Velocity P-wave (km/s) = 6.73060 9.38772 8.16793
#
# Compressibility (1/GPa) = 0.01687026
#
# Stress axis : x y z
#
# Youngs Moduli (GPa) = 71.23689 179.25248 222.90612
#
# Poissons Ratio (x) = 0.36938 0.02508
# Poissons Ratio (y) = 0.14679 0.32165
# Poissons Ratio (z) = 0.00802 0.25866
#
# Static dielectric constant tensor:
#      x y z
#    x 2.471280 -0.317620 0.083330 
#    y -0.317620 2.163800 -0.088140 
#    z 0.083330 -0.088140 2.021210 
# 
# From -- ./inp_files/148384.got.cif
#   From: 2010.05.17/outbox.cif.g08.bks.cpg/sg2_75_cif.got.tgz:148384.got - 2010.06.03 11:33:40.
