data_PCOD9087514
_publ_section_title
;
Structure prediction by ZEFSAII (Michael W. Deem and Ramdas Pophale) SiO2 
 PCOD9087514
Probable space group: P -1
;
_chemical_formula_sum "Si O2"
_cell_formula_units_Z 16
_cell_length_a 9.823823
_cell_length_b 15.459619
_cell_length_c 8.858984
_cell_angle_alpha 118.217658
_cell_angle_beta 61.308283
_cell_angle_gamma 141.211618
_cell_volume 727.355392
_symmetry_space_group_name_H-M "P -1"
_symmetry_group_IT_number 2
_symmetry_cell_setting 'triclinic'
loop_
_space_group_symop_operation_xyz
x,y,z
-x,-y,-z
loop_
_atom_site_type_symbol
_atom_site_label
_atom_site_fract_x
_atom_site_fract_y
_atom_site_fract_z
Si Si1 0.612888 0.681356 0.729456
Si Si2 0.706984 0.588651 0.852789
Si Si3 0.475466 0.811136 0.786487
Si Si4 0.101019 0.779705 0.019496
Si Si5 0.730479 0.228258 0.610996
Si Si6 0.410136 0.957346 0.755976
Si Si7 0.262094 0.599142 0.449094
Si Si8 0.838353 0.639990 0.338794
O O1 0.724562 0.695737 0.836426
O O2 0.616459 0.799092 0.797446
O O3 0.735601 0.679859 0.527449
O O4 0.360068 0.523754 0.737138
O O5 0.676875 0.486210 0.667639
O O6 0.500000 0.500000 0.000000
O O7 0.919357 0.660003 0.898353
O O8 0.560957 0.941973 0.747358
O O9 0.364183 0.691249 0.620063
O O10 0.276778 0.772477 0.953399
O O11 0.963110 0.741100 0.209589
O O12 0.248806 0.917513 0.945552
O O13 0.721280 0.158856 0.403948
O O14 0.657486 0.302891 0.658460
O O15 0.972555 0.330183 0.640158
O O16 0.556058 0.102667 0.715113
O O17 0.000000 0.500000 0.500000
#
# Coordination Sequence:
#
# PCOD9087514 Si02
#       8
#     2   2   2   2   2   2   2   2
#     4  11  22  37  55  86 124 156 186 230 309 361
#     4  12  23  37  57  88 123 154 185 242 299 355
#     4   9  20  36  60  83 119 149 200 244 276 352
#     4  10  21  39  57  85 121 151 199 249 283 340
#     4  10  19  36  64  88 111 159 199 244 287 346
#     4   8  19  39  60  86 113 150 210 244 279 337
#     4  11  18  34  59  88 114 150 194 234 291 346
#     4  11  22  33  57  87 121 154 189 242 304 343
#
# _framework density 21.997499999999999
#
# number of rings (size 3 to 8) (size 9 to 14) (size 15 to 20)
#    0.750    1.000    2.500    3.750    0.000    2.000 
#    0.000    0.625    0.000    2.250    0.000    0.000 
#    0.000    0.000    0.000    0.000    0.000    0.000 
#
# Total GULP energy -89321.036850 kJ/mol
# GULP energy per Si atom -5582.564803 kJ/mol
# Density = 2.194743 g / cm^3
# Si number density = 21.997500 Si / 1000 Ang^3
#
#
#
# Elastic Constant Matrix: (Units=GPa)
#
#
# Indices 1 2 3 4 5 6 
#
# 1 69.5384 10.7643 16.6291 -9.1899 7.7156 -25.5140
# 2 10.7643 55.8286 25.9038 -26.2063 -1.1661 -18.8478
# 3 16.6291 25.9038 108.1178 -35.1007 10.1304 -6.1633
# 4 -9.1899 -26.2063 -35.1007 36.9024 4.1246 10.5130
# 5 7.7156 -1.1661 10.1304 4.1246 32.2825 -0.5267
# 6 -25.5140 -18.8478 -6.1633 10.5130 -0.5267 38.6521
#
#
#
# Elastic Compliance Matrix: (Units=1/GPa)
#
#
# Indices 1 2 3 4 5 6 
#
# 1 0.020150 0.002125 -0.002104 0.001083 -0.003994 0.013653
# 2 0.002125 0.030077 -0.000949 0.017989 -0.001242 0.011008
# 3 -0.002104 -0.000949 0.014958 0.014732 -0.006166 -0.003558
# 4 0.001083 0.017989 0.014732 0.056493 -0.011510 -0.003687
# 5 -0.003994 -0.001242 -0.006166 -0.011510 0.035282 -0.000614
# 6 0.013653 0.011008 -0.003558 -0.003687 -0.000614 0.040679
#
#
# Mechanical properties :
#
#
# Convention : Reuss Voigt Hill
#
# Bulk Modulus (GPa) = 15.79053 37.78656 26.78855
# Shear Modulus (GPa) = 22.66501 33.57993 28.12247
#
# Velocity S-wave (km/s) = 3.21338 3.91133 3.57941
# Velocity P-wave (km/s) = 4.57839 6.13294 5.41177
#
# Compressibility (1/GPa) = 0.06332908
#
# Stress axis : x y z
#
# Youngs Moduli (GPa) = 49.62672 33.24817 66.85403
#
# Poissons Ratio (x) = -0.07066 0.14068
# Poissons Ratio (y) = -0.10547 0.06344
# Poissons Ratio (z) = 0.10443 0.03155
#
# Static dielectric constant tensor:
#      x y z
#    x 1.803070 0.007980 0.042080 
#    y 0.007980 1.871480 0.020170 
#    z 0.042080 0.020170 1.815570 
# 
# From -- ./inp_files/207672.got.cif
#   From: 2010.05.17/outbox.cif.g08.bks.cpg/sg2_104_cif.got.tgz:207672.got - 2010.06.03 11:33:40.
