data_PCOD9087031
_publ_section_title
;
Structure prediction by ZEFSAII (Michael W. Deem and Ramdas Pophale) SiO2 
 PCOD9087031
Probable space group: P -1
;
_chemical_formula_sum "Si O2"
_cell_formula_units_Z 16
_cell_length_a 17.709896
_cell_length_b 9.782418
_cell_length_c 21.819186
_cell_angle_alpha 146.315519
_cell_angle_beta 158.785615
_cell_angle_gamma 44.900556
_cell_volume 714.600797
_symmetry_space_group_name_H-M "P -1"
_symmetry_group_IT_number 2
_symmetry_cell_setting 'triclinic'
loop_
_space_group_symop_operation_xyz
x,y,z
-x,-y,-z
loop_
_atom_site_type_symbol
_atom_site_label
_atom_site_fract_x
_atom_site_fract_y
_atom_site_fract_z
Si Si1 0.110823 0.304017 0.316615
Si Si2 0.361247 0.743241 0.038680
Si Si3 0.657669 0.135191 0.501290
Si Si4 0.236165 0.998863 0.205362
Si Si5 0.866780 0.727564 0.541839
Si Si6 0.000836 0.442474 0.791381
Si Si7 0.193973 0.161027 0.752276
Si Si8 0.654463 0.246087 0.112169
O O1 0.168245 0.405165 0.466615
O O2 0.122063 0.503744 0.343273
O O3 0.846903 0.158222 0.069651
O O4 0.236562 0.113796 0.316095
O O5 0.289547 0.458536 0.909334
O O6 0.389506 0.712179 0.976944
O O7 0.564578 0.953179 0.303392
O O8 0.452704 0.164995 0.394260
O O9 0.775637 0.967065 0.566034
O O10 0.836333 0.390259 0.704324
O O11 0.209536 0.696935 0.061539
O O12 0.000000 0.000000 0.000000
O O13 0.738102 0.509420 0.314060
O O14 0.124856 0.832445 0.755846
O O15 0.083400 0.201671 0.747372
O O16 0.410706 0.075198 0.888585
O O17 0.000000 0.000000 0.500000
#
# Coordination Sequence:
#
# PCOD9087031 Si02
#       8
#     2   2   2   2   2   2   2   2
#     4   9  20  41  61  86 129 161 203 262 314 368
#     4  10  19  36  61  89 122 160 213 256 302 364
#     4  12  21  38  67  93 123 162 209 266 311 369
#     4  10  19  40  65  91 122 163 212 267 302 365
#     4  10  22  37  63  91 129 169 202 252 331 374
#     4  10  22  37  63  95 120 157 221 257 301 374
#     4  11  20  34  60  91 124 161 213 260 299 363
#     4  10  20  37  61  84 124 172 206 249 311 379
#
# _framework density 22.390122999999999
#
# number of rings (size 3 to 8) (size 9 to 14) (size 15 to 20)
#    0.000    1.750    5.000    1.125    1.750    2.500 
#    0.000    1.250   19.250    0.000    0.000    0.000 
#    0.000    0.000    0.000    0.000    0.000    0.000 
#
# Total GULP energy -89208.162682 kJ/mol
# GULP energy per Si atom -5575.510168 kJ/mol
# Density = 2.233916 g / cm^3
# Si number density = 22.390123 Si / 1000 Ang^3
#
#
#
# Elastic Constant Matrix: (Units=GPa)
#
#
# Indices 1 2 3 4 5 6 
#
# 1 118.1584 35.0175 23.6835 -9.7636 11.0772 -31.4468
# 2 35.0175 43.9490 8.7099 -18.5381 5.9012 -16.1735
# 3 23.6835 8.7099 71.3910 -16.9061 12.6674 -17.0335
# 4 -9.7636 -18.5381 -16.9061 29.8702 -10.0760 7.2847
# 5 11.0772 5.9012 12.6674 -10.0760 35.6676 -6.3892
# 6 -31.4468 -16.1735 -17.0335 7.2847 -6.3892 37.1850
#
#
#
# Elastic Compliance Matrix: (Units=1/GPa)
#
#
# Indices 1 2 3 4 5 6 
#
# 1 0.013359 -0.009717 -0.002604 -0.005410 -0.001962 0.006600
# 2 -0.009717 0.042864 0.005556 0.025402 0.002642 0.008449
# 3 -0.002604 0.005556 0.018691 0.010786 -0.002587 0.006218
# 4 -0.005410 0.025402 0.010786 0.056435 0.009960 0.002070
# 5 -0.001962 0.002642 -0.002587 0.009960 0.032282 0.001900
# 6 0.006600 0.008449 0.006218 0.002070 0.001900 0.038919
#
#
# Mechanical properties :
#
#
# Convention : Reuss Voigt Hill
#
# Bulk Modulus (GPa) = 16.29101 40.92449 28.60775
# Shear Modulus (GPa) = 21.13819 31.61707 26.37763
#
# Velocity S-wave (km/s) = 3.07593 3.76187 3.43606
# Velocity P-wave (km/s) = 4.46172 6.09807 5.34291
#
# Compressibility (1/GPa) = 0.06138354
#
# Stress axis : x y z
#
# Youngs Moduli (GPa) = 74.85864 23.32967 53.50310
#
# Poissons Ratio (x) = 0.22669 0.13933
# Poissons Ratio (y) = 0.72740 -0.29729
# Poissons Ratio (z) = 0.19494 -0.12963
#
# Static dielectric constant tensor:
#      x y z
#    x 1.867660 -0.029650 0.008930 
#    y -0.029650 1.935790 -0.035810 
#    z 0.008930 -0.035810 1.824820 
# 
# From -- ./inp_files/308845.got.cif
#   From: 2010.05.17/outbox.cif.g08.bks.cpg/sg2_155_cif.got.tgz:308845.got - 2010.06.03 11:33:40.
