data_PCOD9087956
_publ_section_title
;
Structure prediction by ZEFSAII (Michael W. Deem and Ramdas Pophale) SiO2 
 PCOD9087956
Probable space group: P -1
;
_chemical_formula_sum "Si O2"
_cell_formula_units_Z 14
_cell_length_a 13.190095
_cell_length_b 8.556530
_cell_length_c 9.197900
_cell_angle_alpha 73.876958
_cell_angle_beta 31.231486
_cell_angle_gamma 72.484435
_cell_volume 512.855009
_symmetry_space_group_name_H-M "P -1"
_symmetry_group_IT_number 2
_symmetry_cell_setting 'triclinic'
loop_
_space_group_symop_operation_xyz
x,y,z
-x,-y,-z
loop_
_atom_site_type_symbol
_atom_site_label
_atom_site_fract_x
_atom_site_fract_y
_atom_site_fract_z
Si Si1 0.102797 0.662342 0.314224
Si Si2 0.186282 0.534083 0.855963
Si Si3 0.452915 0.491514 0.275422
Si Si4 0.754058 0.800704 0.505723
Si Si5 0.715864 0.114677 0.272411
Si Si6 0.687642 0.083507 0.959155
Si Si7 0.625381 0.751022 0.122179
O O1 0.000000 0.500000 0.500000
O O2 0.941243 0.772692 0.385855
O O3 0.330875 0.597039 0.004242
O O4 0.171459 0.793069 0.310224
O O5 0.376898 0.487662 0.533587
O O6 0.174654 0.724494 0.866528
O O7 0.219408 0.400999 0.976514
O O8 0.000000 0.500000 0.000000
O O9 0.298080 0.385134 0.418558
O O10 0.489465 0.681600 0.183344
O O11 0.542713 0.877022 0.806510
O O12 0.786535 0.936380 0.304900
O O13 0.699114 0.094177 0.123383
O O14 0.510621 0.176342 0.593645
O O15 0.739873 0.897499 0.896364
#
# Coordination Sequence:
#
# PCOD9087956 Si02
#       7
#     2   2   2   2   2   2   2
#     4  11  25  43  65  88 117 164 219 262 300 355
#     4  11  22  32  59  93 130 171 192 237 314 379
#     4  10  22  40  58  90 124 156 206 257 297 363
#     4  10  21  38  67  87 121 164 203 250 319 361
#     4  10  20  38  60  94 131 158 200 249 306 382
#     4  10  21  39  63  92 127 158 203 259 301 370
#     4  10  19  37  57  87 133 157 192 255 309 366
#
# _framework density 27.298164
#
# number of rings (size 3 to 8) (size 9 to 14) (size 15 to 20)
#    0.000    1.714    0.000    7.714    6.000    2.857 
#    0.000    0.714    0.000    8.571    0.000    0.000 
#    0.000    0.000    0.000    0.000    0.000    0.000 
#
# Total GULP energy -78044.249273 kJ/mol
# GULP energy per Si atom -5574.589234 kJ/mol
# Density = 2.723603 g / cm^3
# Si number density = 27.298164 Si / 1000 Ang^3
#
#
#
# Elastic Constant Matrix: (Units=GPa)
#
#
# Indices 1 2 3 4 5 6 
#
# 1 106.6608 38.9206 36.3417 -6.2688 -26.7294 0.3857
# 2 38.9206 173.3685 52.7642 -57.3271 -15.3046 25.4759
# 3 36.3417 52.7642 133.3004 -3.6168 -22.7318 6.5771
# 4 -6.2688 -57.3271 -3.6168 58.0405 14.0680 -16.0233
# 5 -26.7294 -15.3046 -22.7318 14.0680 45.9935 -14.8817
# 6 0.3857 25.4759 6.5771 -16.0233 -14.8817 45.0372
#
#
#
# Elastic Compliance Matrix: (Units=1/GPa)
#
#
# Indices 1 2 3 4 5 6 
#
# 1 0.012709 -0.003297 -0.001087 -0.002876 0.007748 0.003452
# 2 -0.003297 0.011367 -0.003901 0.010751 -0.004478 -0.003487
# 3 -0.001087 -0.003901 0.009963 -0.004241 0.004535 0.000750
# 4 -0.002876 0.010751 -0.004241 0.030020 -0.008595 0.002403
# 5 0.007748 -0.004478 0.004535 -0.008595 0.032718 0.009557
# 6 0.003452 -0.003487 0.000750 0.002403 0.009557 0.028050
#
#
# Mechanical properties :
#
#
# Convention : Reuss Voigt Hill
#
# Bulk Modulus (GPa) = 57.23653 74.37586 65.80619
# Shear Modulus (GPa) = 33.96276 48.83446 41.39861
#
# Velocity S-wave (km/s) = 3.53106 4.23416 3.89850
# Velocity P-wave (km/s) = 6.13492 7.15605 6.66507
#
# Compressibility (1/GPa) = 0.01747136
#
# Stress axis : x y z
#
# Youngs Moduli (GPa) = 78.68427 87.97026 100.36730
#
# Poissons Ratio (x) = 0.29000 0.10910
# Poissons Ratio (y) = 0.25939 0.39150
# Poissons Ratio (z) = 0.08553 0.34314
#
# Static dielectric constant tensor:
#      x y z
#    x 2.181250 -0.003230 0.100750 
#    y -0.003230 2.236750 -0.088710 
#    z 0.100750 -0.088710 2.227710 
# 
# From -- ./inp_files/447023.got.cif
#   From: 2010.05.17/outbox.cif.g08.bks.cpg/sg2_224_cif.got.tgz:447023.got - 2010.06.03 11:33:40.
