data_PCOD9087119
_publ_section_title
;
Structure prediction by ZEFSAII (Michael W. Deem and Ramdas Pophale) SiO2 
 PCOD9087119
Probable space group: P -1
;
_chemical_formula_sum "Si O2"
_cell_formula_units_Z 14
_cell_length_a 11.727167
_cell_length_b 9.114540
_cell_length_c 8.177288
_cell_angle_alpha 125.428738
_cell_angle_beta 116.539045
_cell_angle_gamma 60.295292
_cell_volume 602.694583
_symmetry_space_group_name_H-M "P -1"
_symmetry_group_IT_number 2
_symmetry_cell_setting 'triclinic'
loop_
_space_group_symop_operation_xyz
x,y,z
-x,-y,-z
loop_
_atom_site_type_symbol
_atom_site_label
_atom_site_fract_x
_atom_site_fract_y
_atom_site_fract_z
Si Si1 0.112788 0.339406 0.572662
Si Si2 0.397068 0.424352 0.484764
Si Si3 0.126254 0.187287 0.144603
Si Si4 0.446383 0.708984 0.175638
Si Si5 0.164607 0.663914 0.015976
Si Si6 0.603810 0.968034 0.898630
Si Si7 0.884807 0.392014 0.672658
O O1 0.179144 0.198210 0.373622
O O2 0.000000 0.500000 0.500000
O O3 0.023360 0.263531 0.593456
O O4 0.189421 0.460146 0.803809
O O5 0.500000 0.500000 0.500000
O O6 0.468495 0.322444 0.626289
O O7 0.373402 0.251260 0.264038
O O8 0.250307 0.584473 0.505580
O O9 0.239097 0.039502 0.009891
O O10 0.099605 0.398150 0.184780
O O11 0.973136 0.189855 0.048655
O O12 0.289799 0.738494 0.124047
O O13 0.536776 0.126550 0.822290
O O14 0.500000 0.500000 0.000000
O O15 0.143151 0.648840 0.186489
O O16 0.500000 0.000000 0.000000
#
# Coordination Sequence:
#
# PCOD9087119 Si02
#       7
#     2   2   2   2   2   2   2
#     4   8  16  32  58  94 123 164 211 270 318 391
#     4  11  22  43  67  96 134 178 223 271 333 399
#     4   9  20  37  66  90 131 174 214 282 333 385
#     4  12  27  40  68  99 135 181 224 277 333 400
#     4  10  19  36  62 101 130 168 225 262 337 402
#     4  11  26  48  64  96 136 178 227 279 335 397
#     4   9  17  33  60  95 131 166 220 263 325 395
#
# _framework density 23.229012000000001
#
# number of rings (size 3 to 8) (size 9 to 14) (size 15 to 20)
#    0.000    2.286    1.429    3.000   10.000    0.571 
#    0.000    0.000    0.000    1.714    0.000    0.000 
#    0.000    0.000    0.000    0.000    0.000    0.000 
#
# Total GULP energy -78015.989426 kJ/mol
# GULP energy per Si atom -5572.570673 kJ/mol
# Density = 2.317614 g / cm^3
# Si number density = 23.229012 Si / 1000 Ang^3
#
#
#
# Elastic Constant Matrix: (Units=GPa)
#
#
# Indices 1 2 3 4 5 6 
#
# 1 146.2139 37.7101 52.7357 -13.8193 -19.5319 -0.4453
# 2 37.7101 64.0823 12.4514 -4.6119 -8.2474 10.8163
# 3 52.7357 12.4514 50.0767 -18.2238 -6.1840 -9.6747
# 4 -13.8193 -4.6119 -18.2238 27.1105 -3.5444 -4.3902
# 5 -19.5319 -8.2474 -6.1840 -3.5444 38.2037 -9.1944
# 6 -0.4453 10.8163 -9.6747 -4.3902 -9.1944 44.3671
#
#
#
# Elastic Compliance Matrix: (Units=1/GPa)
#
#
# Indices 1 2 3 4 5 6 
#
# 1 0.013035 -0.004637 -0.013677 -0.003209 0.002800 -0.001458
# 2 -0.004637 0.019388 -0.001032 -0.000510 0.000405 -0.004965
# 3 -0.013677 -0.001032 0.049073 0.029224 0.007092 0.015177
# 4 -0.003209 -0.000510 0.029224 0.058766 0.011985 0.014764
# 5 0.002800 0.000405 0.007092 0.011985 0.032201 0.009335
# 6 -0.001458 -0.004965 0.015177 0.014764 0.009335 0.030440
#
#
# Mechanical properties :
#
#
# Convention : Reuss Voigt Hill
#
# Bulk Modulus (GPa) = 23.36353 51.79638 37.57996
# Shear Modulus (GPa) = 19.54171 32.43463 25.98817
#
# Velocity S-wave (km/s) = 2.90360 3.74076 3.34845
# Velocity P-wave (km/s) = 4.61746 6.40346 5.58235
#
# Compressibility (1/GPa) = 0.04280175
#
# Stress axis : x y z
#
# Youngs Moduli (GPa) = 76.71767 51.57897 20.37791
#
# Poissons Ratio (x) = 0.23919 0.27872
# Poissons Ratio (y) = 0.35576 0.02103
# Poissons Ratio (z) = 1.04930 0.05323
#
# Static dielectric constant tensor:
#      x y z
#    x 2.104530 -0.104460 0.026050 
#    y -0.104460 1.890080 -0.006220 
#    z 0.026050 -0.006220 1.928530 
# 
# From -- ./inp_files/255361.got.cif
#   From: 2010.05.17/outbox.cif.g08.bks.cpg/sg2_128_cif.got.tgz:255361.got - 2010.06.03 11:33:40.
