data_PCOD9087447
_publ_section_title
;
Structure prediction by ZEFSAII (Michael W. Deem and Ramdas Pophale) SiO2 
 PCOD9087447
Probable space group: P -1
;
_chemical_formula_sum "Si O2"
_cell_formula_units_Z 16
_cell_length_a 8.552182
_cell_length_b 19.094425
_cell_length_c 8.014983
_cell_angle_alpha 86.070667
_cell_angle_beta 85.906058
_cell_angle_gamma 150.054103
_cell_volume 628.940056
_symmetry_space_group_name_H-M "P -1"
_symmetry_group_IT_number 2
_symmetry_cell_setting 'triclinic'
loop_
_space_group_symop_operation_xyz
x,y,z
-x,-y,-z
loop_
_atom_site_type_symbol
_atom_site_label
_atom_site_fract_x
_atom_site_fract_y
_atom_site_fract_z
Si Si1 0.449393 0.564102 0.642221
Si Si2 0.776584 0.264270 0.574816
Si Si3 0.096190 0.077428 0.694901
Si Si4 0.780355 0.821669 0.695535
Si Si5 0.168556 0.415047 0.203433
Si Si6 0.737414 0.713065 0.225473
Si Si7 0.257781 0.819490 0.988497
Si Si8 0.592174 0.992591 0.236836
O O1 0.479277 0.652387 0.711584
O O2 0.638718 0.578186 0.733657
O O3 0.618865 0.640830 0.432172
O O4 0.077342 0.396885 0.655541
O O5 0.445061 0.175454 0.646822
O O6 0.909759 0.336603 0.373188
O O7 0.670068 0.140741 0.593980
O O8 0.066353 0.099314 0.509630
O O9 0.148685 0.162831 0.797558
O O10 0.805294 0.907375 0.770431
O O11 0.045001 0.877220 0.755007
O O12 0.435041 0.579934 0.149251
O O13 0.976673 0.325148 0.064034
O O14 0.020485 0.777985 0.116310
O O15 0.520857 0.912827 0.096969
O O16 0.431682 0.935594 0.817208
#
# Coordination Sequence:
#
# PCOD9087447 Si02
#       8
#     2   2   2   2   2   2   2   2
#     4  10  19  36  63  94 115 149 195 251 306 334
#     4  10  21  38  64  89 120 149 198 253 283 350
#     4   9  20  39  61  89 114 160 200 236 293 339
#     4   9  18  38  59  85 117 149 202 238 286 344
#     4  11  21  36  62  95 116 152 195 248 309 337
#     4  10  21  37  61  85 124 155 193 241 290 361
#     4  11  22  38  58  88 123 157 193 238 304 355
#     4  10  21  40  58  87 120 155 195 245 296 342
#
# _framework density 25.439626000000001
#
# number of rings (size 3 to 8) (size 9 to 14) (size 15 to 20)
#    0.000    2.000    1.250    3.375    0.000    5.000 
#   22.500    2.500    0.000    3.750    0.000    0.000 
#    0.000    0.000    0.000    0.000    0.000    0.000 
#
# Total GULP energy -89416.760490 kJ/mol
# GULP energy per Si atom -5588.547531 kJ/mol
# Density = 2.538172 g / cm^3
# Si number density = 25.439626 Si / 1000 Ang^3
#
#
#
# Elastic Constant Matrix: (Units=GPa)
#
#
# Indices 1 2 3 4 5 6 
#
# 1 54.8521 27.6710 25.0183 10.4250 -5.4935 -8.6424
# 2 27.6710 152.4013 29.4685 26.3003 -22.7818 -23.5563
# 3 25.0183 29.4685 49.1802 18.3747 -1.3003 10.6303
# 4 10.4250 26.3003 18.3747 48.2435 2.1793 -5.9438
# 5 -5.4935 -22.7818 -1.3003 2.1793 27.6338 11.2676
# 6 -8.6424 -23.5563 10.6303 -5.9438 11.2676 49.4416
#
#
#
# Elastic Compliance Matrix: (Units=1/GPa)
#
#
# Indices 1 2 3 4 5 6 
#
# 1 0.026540 -0.000883 -0.015085 0.001382 0.000682 0.007472
# 2 -0.000883 0.009711 -0.004848 -0.003087 0.006338 0.003700
# 3 -0.015085 -0.004848 0.038067 -0.010489 0.001644 -0.014767
# 4 0.001382 -0.003087 -0.010489 0.027174 -0.007340 0.005965
# 5 0.000682 0.006338 0.001644 -0.007340 0.045672 -0.008506
# 6 0.007472 0.003700 -0.014767 0.005965 -0.008506 0.029125
#
#
# Mechanical properties :
#
#
# Convention : Reuss Voigt Hill
#
# Bulk Modulus (GPa) = 30.59550 46.74990 38.67270
# Shear Modulus (GPa) = 21.85139 36.68217 29.26678
#
# Velocity S-wave (km/s) = 2.93397 3.80140 3.39549
# Velocity P-wave (km/s) = 4.85081 6.13874 5.53238
#
# Compressibility (1/GPa) = 0.03268455
#
# Stress axis : x y z
#
# Youngs Moduli (GPa) = 37.67915 102.97092 26.26966
#
# Poissons Ratio (x) = 0.09097 0.39628
# Poissons Ratio (y) = 0.03329 0.12736
# Poissons Ratio (z) = 0.56839 0.49923
#
# Static dielectric constant tensor:
#      x y z
#    x 2.043800 -0.015190 0.032960 
#    y -0.015190 2.031050 0.007720 
#    z 0.032960 0.007720 2.098520 
# 
# From -- ./inp_files/223655.got.cif
#   From: 2010.05.17/outbox.cif.g08.bks.cpg/sg2_112_cif.got.tgz:223655.got - 2010.06.03 11:33:40.
