data_PCOD9087807
_publ_section_title
;
Structure prediction by ZEFSAII (Michael W. Deem and Ramdas Pophale) SiO2 
 PCOD9087807
Probable space group: P -1
;
_chemical_formula_sum "Si O2"
_cell_formula_units_Z 16
_cell_length_a 17.196914
_cell_length_b 11.108327
_cell_length_c 22.493578
_cell_angle_alpha 29.976665
_cell_angle_beta 20.938701
_cell_angle_gamma 40.835776
_cell_volume 733.418911
_symmetry_space_group_name_H-M "P -1"
_symmetry_group_IT_number 2
_symmetry_cell_setting 'triclinic'
loop_
_space_group_symop_operation_xyz
x,y,z
-x,-y,-z
loop_
_atom_site_type_symbol
_atom_site_label
_atom_site_fract_x
_atom_site_fract_y
_atom_site_fract_z
Si Si1 0.133194 0.663158 0.779184
Si Si2 0.402865 0.468105 0.347623
Si Si3 0.726784 0.430143 0.729126
Si Si4 0.824612 0.938010 0.846690
Si Si5 0.335388 0.178531 0.636872
Si Si6 0.281584 0.346091 0.138250
Si Si7 0.091500 0.819294 0.443706
Si Si8 0.013132 0.613859 0.126024
O O1 0.404767 0.743222 0.559452
O O2 0.041954 0.909262 0.738241
O O3 0.073073 0.521346 0.818149
O O4 0.000000 0.500000 0.000000
O O5 0.349095 0.437657 0.329743
O O6 0.355916 0.245707 0.523208
O O7 0.241212 0.632617 0.412515
O O8 0.656204 0.656509 0.089137
O O9 0.000000 0.500000 0.500000
O O10 0.681892 0.126524 0.886947
O O11 0.551033 0.463169 0.890040
O O12 0.909534 0.042292 0.676794
O O13 0.191747 0.332833 0.711149
O O14 0.195718 0.886212 0.868218
O O15 0.143682 0.458776 0.139613
O O16 0.155894 0.350331 0.287661
O O17 0.213517 0.045846 0.303440
#
# Coordination Sequence:
#
# PCOD9087807 Si02
#       8
#     2   2   2   2   2   2   2   2
#     4  12  25  43  68 101 133 179 229 276 333 401
#     4  11  19  43  63  91 130 173 218 268 336 397
#     4  11  24  38  62  98 136 166 213 279 338 401
#     4  11  21  42  62  95 133 168 216 274 332 402
#     4  11  26  45  70  95 137 183 229 277 331 401
#     4  11  20  38  66  97 123 170 217 270 338 393
#     4  10  19  36  69  91 117 167 221 264 331 393
#     4  11  25  47  67  97 139 179 227 281 334 397
#
# _framework density 21.815636000000001
#
# number of rings (size 3 to 8) (size 9 to 14) (size 15 to 20)
#    0.000    1.000    6.250    1.125    1.750    1.500 
#    0.000    5.000    0.000    0.000    0.000    0.000 
#    0.000    0.000    0.000    0.000    0.000    0.000 
#
# Total GULP energy -89220.955625 kJ/mol
# GULP energy per Si atom -5576.309727 kJ/mol
# Density = 2.176598 g / cm^3
# Si number density = 21.815636 Si / 1000 Ang^3
#
#
#
# Elastic Constant Matrix: (Units=GPa)
#
#
# Indices 1 2 3 4 5 6 
#
# 1 50.9322 34.2315 33.1537 10.4265 -8.0171 -17.5483
# 2 34.2315 44.9012 45.4025 22.0226 7.5462 3.3224
# 3 33.1537 45.4025 161.7460 41.5151 2.4908 -7.7398
# 4 10.4265 22.0226 41.5151 44.4168 -1.2294 -6.3567
# 5 -8.0171 7.5462 2.4908 -1.2294 28.8609 -7.2628
# 6 -17.5483 3.3224 -7.7398 -6.3567 -7.2628 12.9834
#
#
#
# Elastic Compliance Matrix: (Units=1/GPa)
#
#
# Indices 1 2 3 4 5 6 
#
# 1 -0.012503 0.026854 -0.003043 -0.014615 -0.022221 -0.045171
# 2 0.026854 -0.006443 -0.003724 0.008578 0.023134 0.052865
# 3 -0.003043 -0.003724 0.009483 -0.006549 -0.001337 -0.001461
# 4 -0.014615 0.008578 -0.006549 0.024834 -0.009457 -0.018983
# 5 -0.022221 0.023134 -0.001337 -0.009457 0.013648 -0.033747
# 6 -0.045171 0.052865 -0.001461 -0.018983 -0.033747 -0.026602
#
#
# Mechanical properties :
#
#
# Convention : Reuss Voigt Hill
#
# Bulk Modulus (GPa) = 32.56145 53.68389 43.12267
# Shear Modulus (GPa) = -181.69729 26.90502 -77.39613
#
# Velocity S-wave (km/s) = -9.13611 3.51563 -5.96275
# Velocity P-wave (km/s) = 9.81494 6.41412 5.25320
#
# Compressibility (1/GPa) = 0.03071117
#
# Stress axis : x y z
#
# Youngs Moduli (GPa) = -79.98212 -155.21325 105.44875
#
# Poissons Ratio (x) = 4.16812 0.32092
# Poissons Ratio (y) = 2.14785 0.39270
# Poissons Ratio (z) = -0.24341 -0.57803
#
# Static dielectric constant tensor:
#      x y z
#    x 1.948070 0.093650 0.029720 
#    y 0.093650 1.882000 -0.009550 
#    z 0.029720 -0.009550 1.884720 
# 
# From -- ./inp_files/286056.got.cif
#   From: 2010.05.17/outbox.cif.g08.bks.cpg/sg2_144_cif.got.tgz:286056.got - 2010.06.03 11:33:40.
