data_PCOD9087620
_publ_section_title
;
Structure prediction by ZEFSAII (Michael W. Deem and Ramdas Pophale) SiO2 
 PCOD9087620
Probable space group: P -1
;
_chemical_formula_sum "Si O2"
_cell_formula_units_Z 14
_cell_length_a 8.178746
_cell_length_b 15.553127
_cell_length_c 6.893302
_cell_angle_alpha 132.382845
_cell_angle_beta 109.430312
_cell_angle_gamma 54.561323
_cell_volume 525.232930
_symmetry_space_group_name_H-M "P -1"
_symmetry_group_IT_number 2
_symmetry_cell_setting 'triclinic'
loop_
_space_group_symop_operation_xyz
x,y,z
-x,-y,-z
loop_
_atom_site_type_symbol
_atom_site_label
_atom_site_fract_x
_atom_site_fract_y
_atom_site_fract_z
Si Si1 0.437319 0.501305 0.754885
Si Si2 0.847212 0.265899 0.553074
Si Si3 0.440810 0.916727 0.204592
Si Si4 0.141850 0.126679 0.124105
Si Si5 0.190597 0.813120 0.174714
Si Si6 0.167887 0.342335 0.966717
Si Si7 0.175637 0.386575 0.606991
O O1 0.302127 0.659588 0.900630
O O2 0.500000 0.500000 0.000000
O O3 0.345973 0.599996 0.406316
O O4 0.307338 0.428986 0.598934
O O5 0.784017 0.202612 0.607095
O O6 0.165558 0.258205 0.337731
O O7 0.000014 0.305103 0.776487
O O8 0.028993 0.837964 0.724494
O O9 0.288954 0.888271 0.222831
O O10 0.500000 0.000000 0.500000
O O11 0.338471 0.998624 0.093423
O O12 0.354927 0.222833 0.966318
O O13 0.043852 0.117963 0.873136
O O14 0.043925 0.480894 0.244780
O O15 0.255007 0.357724 0.818357
#
# Coordination Sequence:
#
# PCOD9087620 Si02
#       7
#     2   2   2   2   2   2   2
#     4  10  19  36  65 100 130 167 215 272 330 379
#     4  10  21  40  68  98 131 172 218 266 336 385
#     4  12  24  43  69  94 133 184 218 268 334 394
#     4  11  26  44  66 100 135 175 221 267 332 395
#     4  11  25  43  67  97 139 168 221 282 320 389
#     4  10  19  37  66  98 127 176 218 265 326 394
#     4  10  19  36  67  94 134 166 217 269 329 388
#
# _framework density 26.654841000000001
#
# number of rings (size 3 to 8) (size 9 to 14) (size 15 to 20)
#    0.000    1.429    5.714    2.143    4.000    1.714 
#    0.000    0.714    0.000    0.000    0.000    0.000 
#    0.000    0.000    0.000    0.000    0.000    0.000 
#
# Total GULP energy -78551.970713 kJ/mol
# GULP energy per Si atom -5610.855051 kJ/mol
# Density = 2.659417 g / cm^3
# Si number density = 26.654841 Si / 1000 Ang^3
#
#
#
# Elastic Constant Matrix: (Units=GPa)
#
#
# Indices 1 2 3 4 5 6 
#
# 1 86.0193 44.7059 19.8777 6.4524 11.0421 12.6008
# 2 44.7059 163.3120 24.8867 5.4112 23.8593 -22.7342
# 3 19.8777 24.8867 69.8605 -11.2651 3.2378 2.4636
# 4 6.4524 5.4112 -11.2651 25.7688 -4.3998 12.6751
# 5 11.0421 23.8593 3.2378 -4.3998 40.4039 4.5041
# 6 12.6008 -22.7342 2.4636 12.6751 4.5041 65.6635
#
#
#
# Elastic Compliance Matrix: (Units=1/GPa)
#
#
# Indices 1 2 3 4 5 6 
#
# 1 0.015318 -0.003837 -0.003287 -0.003045 -0.001605 -0.003447
# 2 -0.003837 0.009490 -0.003234 -0.006223 -0.005613 0.005730
# 3 -0.003287 -0.003234 0.018297 0.011823 0.003038 -0.003666
# 4 -0.003045 -0.006223 0.011823 0.054447 0.010968 -0.013276
# 5 -0.001605 -0.005613 0.003038 0.010968 0.030115 -0.005932
# 6 -0.003447 0.005730 -0.003666 -0.013276 -0.005932 0.020981
#
#
# Mechanical properties :
#
#
# Convention : Reuss Voigt Hill
#
# Bulk Modulus (GPa) = 44.66521 55.34807 50.00664
# Shear Modulus (GPa) = 28.27600 41.68200 34.97900
#
# Velocity S-wave (km/s) = 3.26056 3.95874 3.62649
# Velocity P-wave (km/s) = 5.56491 6.45797 6.02800
#
# Compressibility (1/GPa) = 0.02238879
#
# Stress axis : x y z
#
# Youngs Moduli (GPa) = 65.28145 105.37163 54.65499
#
# Poissons Ratio (x) = 0.40430 0.17965
# Poissons Ratio (y) = 0.25048 0.17677
# Poissons Ratio (z) = 0.21457 0.34081
#
# Static dielectric constant tensor:
#      x y z
#    x 2.113910 -0.009870 -0.021680 
#    y -0.009870 2.117220 -0.021720 
#    z -0.021680 -0.021720 2.094250 
# 
# From -- ./inp_files/35924.got.cif
#   From: 2010.05.17/outbox.cif.g08.bks.cpg/sg2_18_cif.got.tgz:35924.got - 2010.06.03 11:33:40.
