data_PCOD9087966
_publ_section_title
;
Structure prediction by ZEFSAII (Michael W. Deem and Ramdas Pophale) SiO2 
 PCOD9087966
Probable space group: P -1
;
_chemical_formula_sum "Si O2"
_cell_formula_units_Z 14
_cell_length_a 6.916597
_cell_length_b 10.347983
_cell_length_c 15.761648
_cell_angle_alpha 125.043818
_cell_angle_beta 88.350263
_cell_angle_gamma 61.334850
_cell_volume 734.136474
_symmetry_space_group_name_H-M "P -1"
_symmetry_group_IT_number 2
_symmetry_cell_setting 'triclinic'
loop_
_space_group_symop_operation_xyz
x,y,z
-x,-y,-z
loop_
_atom_site_type_symbol
_atom_site_label
_atom_site_fract_x
_atom_site_fract_y
_atom_site_fract_z
Si Si1 0.802522 0.609545 0.619413
Si Si2 0.208017 0.018956 0.211894
Si Si3 0.142665 0.961661 0.376813
Si Si4 0.877410 0.681453 0.183473
Si Si5 0.624695 0.603530 0.018242
Si Si6 0.745591 0.104808 0.311331
Si Si7 0.990050 0.730701 0.375335
O O1 0.800147 0.790220 0.721046
O O2 0.724077 0.063500 0.721824
O O3 0.873385 0.455189 0.634511
O O4 0.000000 0.500000 0.500000
O O5 0.469080 0.288182 0.372211
O O6 0.935834 0.083155 0.232841
O O7 0.412841 0.832635 0.084061
O O8 0.861475 0.105525 0.399633
O O9 0.177978 0.076242 0.489950
O O10 0.162326 0.776614 0.344248
O O11 0.849750 0.706329 0.294238
O O12 0.757832 0.603092 0.100755
O O13 0.164924 0.524423 0.101339
O O14 0.781735 0.897894 0.231744
O O15 0.500000 0.500000 0.000000
#
# Coordination Sequence:
#
# PCOD9087966 Si02
#       7
#     2   2   2   2   2   2   2
#     4  12  22  36  60  89 124 163 191 235 298 362
#     4  10  20  37  62  88 114 158 203 237 283 361
#     4   8  18  37  61  80 122 160 194 240 287 347
#     4  10  21  36  63  89 112 154 199 251 295 338
#     4  11  19  37  66  89 108 151 213 249 284 345
#     4   9  19  38  59  85 117 157 201 229 296 352
#     4  10  19  37  57  89 126 151 192 247 299 339
#
# _framework density 19.070024
#
# number of rings (size 3 to 8) (size 9 to 14) (size 15 to 20)
#    0.857    1.143    4.286    0.000    0.000    2.286 
#    0.000   12.857    0.000    1.714    0.000    0.000 
#    0.000    0.000    0.000    0.000    0.000    0.000 
#
# Total GULP energy -77980.024384 kJ/mol
# GULP energy per Si atom -5570.001742 kJ/mol
# Density = 1.902662 g / cm^3
# Si number density = 19.070024 Si / 1000 Ang^3
#
#
#
# Elastic Constant Matrix: (Units=GPa)
#
#
# Indices 1 2 3 4 5 6 
#
# 1 81.9681 24.1804 22.3603 6.1854 -1.8467 -11.7564
# 2 24.1804 107.3785 12.1362 8.7133 -4.9848 7.1074
# 3 22.3603 12.1362 67.8550 9.3987 8.1116 -9.6458
# 4 6.1854 8.7133 9.3987 26.2066 -5.6188 -0.4160
# 5 -1.8467 -4.9848 8.1116 -5.6188 32.0416 8.0306
# 6 -11.7564 7.1074 -9.6458 -0.4160 8.0306 26.0260
#
#
#
# Elastic Compliance Matrix: (Units=1/GPa)
#
#
# Indices 1 2 3 4 5 6 
#
# 1 0.015130 -0.003437 -0.003104 -0.001386 -0.000839 0.006860
# 2 -0.003437 0.011000 -0.001912 -0.001551 0.003307 -0.006310
# 3 -0.003104 -0.001912 0.019473 -0.007393 -0.008954 0.008982
# 4 -0.001386 -0.001551 -0.007393 0.043842 0.010622 -0.005519
# 5 -0.000839 0.003307 -0.008954 0.010622 0.040009 -0.016776
# 6 0.006860 -0.006310 0.008982 -0.005519 -0.016776 0.051662
#
#
# Mechanical properties :
#
#
# Convention : Reuss Voigt Hill
#
# Bulk Modulus (GPa) = 34.84606 41.61725 38.23166
# Shear Modulus (GPa) = 24.08613 30.08984 27.08799
#
# Velocity S-wave (km/s) = 3.55778 3.97654 3.77297
# Velocity P-wave (km/s) = 5.93207 6.55397 6.25076
#
# Compressibility (1/GPa) = 0.02869765
#
# Stress axis : x y z
#
# Youngs Moduli (GPa) = 66.09434 90.90901 51.35258
#
# Poissons Ratio (x) = 0.31244 0.15938
# Poissons Ratio (y) = 0.22715 0.09820
# Poissons Ratio (z) = 0.20513 0.17385
#
# Static dielectric constant tensor:
#      x y z
#    x 1.730920 -0.004030 -0.005590 
#    y -0.004030 1.646030 0.002040 
#    z -0.005590 0.002040 1.683090 
# 
# From -- ./inp_files/105662.got.cif
#   From: 2010.05.17/outbox.cif.g08.bks.cpg/sg2_53_cif.got.tgz:105662.got - 2010.06.03 11:33:40.
