data_PCOD9087977
_publ_section_title
;
Structure prediction by ZEFSAII (Michael W. Deem and Ramdas Pophale) SiO2 
 PCOD9087977
Probable space group: P -1
;
_chemical_formula_sum "Si O2"
_cell_formula_units_Z 14
_cell_length_a 11.292016
_cell_length_b 9.777866
_cell_length_c 11.312150
_cell_angle_alpha 90.599064
_cell_angle_beta 36.586470
_cell_angle_gamma 100.833881
_cell_volume 709.814962
_symmetry_space_group_name_H-M "P -1"
_symmetry_group_IT_number 2
_symmetry_cell_setting 'triclinic'
loop_
_space_group_symop_operation_xyz
x,y,z
-x,-y,-z
loop_
_atom_site_type_symbol
_atom_site_label
_atom_site_fract_x
_atom_site_fract_y
_atom_site_fract_z
Si Si1 0.813285 0.539590 0.711090
Si Si2 0.749769 0.150007 0.009599
Si Si3 0.854173 0.973765 0.731163
Si Si4 0.477760 0.291636 0.108307
Si Si5 0.906404 0.826158 0.087496
Si Si6 0.489160 0.099363 0.622361
Si Si7 0.969240 0.231946 0.264957
O O1 0.699104 0.631367 0.723997
O O2 0.000000 0.500000 0.500000
O O3 0.907460 0.637753 0.750050
O O4 0.638345 0.397996 0.892720
O O5 0.607917 0.254310 0.110547
O O6 0.615071 0.007506 0.187108
O O7 0.965119 0.211406 0.908265
O O8 0.805916 0.106398 0.833697
O O9 0.641929 0.856131 0.861897
O O10 0.968511 0.904654 0.736769
O O11 0.000000 0.000000 0.500000
O O12 0.661838 0.806577 0.290247
O O13 0.959171 0.752458 0.927436
O O14 0.000000 0.000000 0.000000
O O15 0.720758 0.194019 0.470220
O O16 0.500000 0.000000 0.500000
#
# Coordination Sequence:
#
# PCOD9087977 Si02
#       7
#     2   2   2   2   2   2   2
#     4  10  25  44  62  83 122 173 220 254 296 364
#     4  11  21  37  63  94 133 152 198 262 320 376
#     4  11  22  36  61  99 129 158 198 258 323 377
#     4  10  24  41  60  89 122 165 208 254 308 363
#     4  10  19  37  57  94 125 158 191 252 312 375
#     4  11  19  34  61  94 128 158 194 244 322 371
#     4  11  21  38  62  89 123 163 207 247 308 376
#
# _framework density 19.723451000000001
#
# number of rings (size 3 to 8) (size 9 to 14) (size 15 to 20)
#    0.000    1.429    5.714    1.286    6.000    1.143 
#    0.000    0.714    0.000    1.714    0.000    0.000 
#    0.000    0.000    0.000    0.000    0.000    0.000 
#
# Total GULP energy -78160.913614 kJ/mol
# GULP energy per Si atom -5582.922401 kJ/mol
# Density = 1.967856 g / cm^3
# Si number density = 19.723451 Si / 1000 Ang^3
#
#
#
# Elastic Constant Matrix: (Units=GPa)
#
#
# Indices 1 2 3 4 5 6 
#
# 1 107.8360 28.9552 39.0294 12.4949 -30.6631 -21.4107
# 2 28.9552 43.9631 23.7023 9.6300 -3.6060 -0.3629
# 3 39.0294 23.7023 113.0463 17.5414 -14.2379 -1.7882
# 4 12.4949 9.6300 17.5414 28.0157 2.3738 -8.6946
# 5 -30.6631 -3.6060 -14.2379 2.3738 47.3332 10.2990
# 6 -21.4107 -0.3629 -1.7882 -8.6946 10.2990 24.4131
#
#
#
# Elastic Compliance Matrix: (Units=1/GPa)
#
#
# Indices 1 2 3 4 5 6 
#
# 1 0.017038 -0.009049 -0.003016 0.000511 0.006828 0.011888
# 2 -0.009049 0.031681 -0.002627 -0.008118 -0.001692 -0.009835
# 3 -0.003016 -0.002627 0.011838 -0.007164 0.002991 -0.005631
# 4 0.000511 -0.008118 -0.007164 0.050341 -0.009717 0.021831
# 5 0.006828 -0.001692 0.002991 -0.009717 0.028866 -0.009456
# 6 0.011888 -0.009835 -0.005631 0.021831 -0.009456 0.062593
#
#
# Mechanical properties :
#
#
# Convention : Reuss Voigt Hill
#
# Bulk Modulus (GPa) = 32.08113 49.80213 40.94163
# Shear Modulus (GPa) = 20.64995 31.49630 26.07313
#
# Velocity S-wave (km/s) = 3.23921 4.00045 3.63979
# Velocity P-wave (km/s) = 5.50370 6.82958 6.20217
#
# Compressibility (1/GPa) = 0.03117098
#
# Stress axis : x y z
#
# Youngs Moduli (GPa) = 58.69401 31.56464 84.47719
#
# Poissons Ratio (x) = 0.28563 0.25480
# Poissons Ratio (y) = 0.53112 0.22195
# Poissons Ratio (z) = 0.17704 0.08293
#
# Static dielectric constant tensor:
#      x y z
#    x 1.721530 -0.016510 -0.014840 
#    y -0.016510 1.695620 0.020450 
#    z -0.014840 0.020450 1.716350 
# 
# From -- ./inp_files/72381.got.cif
#   From: 2010.05.17/outbox.cif.g08.bks.cpg/sg2_37_cif.got.tgz:72381.got - 2010.06.03 11:33:40.
