data_PCOD9087242
_publ_section_title
;
Structure prediction by ZEFSAII (Michael W. Deem and Ramdas Pophale) SiO2 
 PCOD9087242
Probable space group: P -1
;
_chemical_formula_sum "Si O2"
_cell_formula_units_Z 14
_cell_length_a 15.292492
_cell_length_b 7.222366
_cell_length_c 9.322981
_cell_angle_alpha 93.728621
_cell_angle_beta 132.625826
_cell_angle_gamma 111.745632
_cell_volume 624.028381
_symmetry_space_group_name_H-M "P -1"
_symmetry_group_IT_number 2
_symmetry_cell_setting 'triclinic'
loop_
_space_group_symop_operation_xyz
x,y,z
-x,-y,-z
loop_
_atom_site_type_symbol
_atom_site_label
_atom_site_fract_x
_atom_site_fract_y
_atom_site_fract_z
Si Si1 0.667645 0.539016 0.445769
Si Si2 0.497743 0.725092 0.994810
Si Si3 0.625515 0.223422 0.849922
Si Si4 0.436457 0.219857 0.380883
Si Si5 0.153889 0.191660 0.122163
Si Si6 0.889757 0.693039 0.231749
Si Si7 0.796472 0.916025 0.370390
O O1 0.520410 0.426395 0.370658
O O2 0.787159 0.591833 0.698507
O O3 0.738521 0.774086 0.448367
O O4 0.619764 0.349337 0.262776
O O5 0.457782 0.786914 0.100469
O O6 0.663648 0.911050 0.155066
O O7 0.500000 0.500000 0.000000
O O8 0.549849 0.261887 0.632750
O O9 0.606044 0.996239 0.770161
O O10 0.789466 0.426925 0.079517
O O11 0.286967 0.165297 0.274650
O O12 0.136312 0.218025 0.938471
O O13 0.000000 0.000000 0.000000
O O14 0.834154 0.771928 0.304876
O O15 0.061744 0.834104 0.445525
#
# Coordination Sequence:
#
# PCOD9087242 Si02
#       7
#     2   2   2   2   2   2   2
#     4  11  20  37  63  93 118 157 211 253 292 358
#     4  10  19  36  62  91 117 156 209 250 290 360
#     4  11  23  41  60  90 130 163 197 252 312 363
#     4  11  25  39  61  92 128 163 200 251 311 361
#     4  12  24  39  64  94 122 159 211 254 299 361
#     4  11  21  39  62  91 125 161 198 256 305 358
#     4  10  21  35  63  94 119 153 211 248 299 357
#
# _framework density 22.434878000000001
#
# number of rings (size 3 to 8) (size 9 to 14) (size 15 to 20)
#    0.000    1.143    5.714    3.000    2.000    0.571 
#    0.000    2.143    0.000    5.143    0.000    0.000 
#    0.000    0.000    0.000    0.000    0.000    0.000 
#
# Total GULP energy -78084.137381 kJ/mol
# GULP energy per Si atom -5577.438384 kJ/mol
# Density = 2.238381 g / cm^3
# Si number density = 22.434878 Si / 1000 Ang^3
#
#
#
# Elastic Constant Matrix: (Units=GPa)
#
#
# Indices 1 2 3 4 5 6 
#
# 1 109.7134 48.6509 64.5185 19.5282 -10.0775 27.1717
# 2 48.6509 67.2266 36.9134 24.6484 4.8860 12.7241
# 3 64.5185 36.9134 190.1954 42.2595 -2.5449 13.7172
# 4 19.5282 24.6484 42.2595 44.7075 16.5762 -5.6074
# 5 -10.0775 4.8860 -2.5449 16.5762 38.7893 6.9117
# 6 27.1717 12.7241 13.7172 -5.6074 6.9117 37.4063
#
#
#
# Elastic Compliance Matrix: (Units=1/GPa)
#
#
# Indices 1 2 3 4 5 6 
#
# 1 0.020639 -0.008611 -0.002100 -0.008904 0.012785 -0.014990
# 2 -0.008611 0.025990 0.001001 -0.012408 0.000739 -0.004949
# 3 -0.002100 0.001001 0.008330 -0.009832 0.004831 -0.004237
# 4 -0.008904 -0.012408 -0.009832 0.057507 -0.031076 0.028656
# 5 0.012785 0.000739 0.004831 -0.031076 0.046999 -0.024653
# 6 -0.014990 -0.004949 -0.004237 0.028656 -0.024653 0.049710
#
#
# Mechanical properties :
#
#
# Convention : Reuss Voigt Hill
#
# Bulk Modulus (GPa) = 28.13753 74.14455 51.14104
# Shear Modulus (GPa) = 20.79501 38.65081 29.72291
#
# Velocity S-wave (km/s) = 3.04781 4.15517 3.64380
# Velocity P-wave (km/s) = 4.99546 7.49273 6.36772
#
# Compressibility (1/GPa) = 0.03553972
#
# Stress axis : x y z
#
# Youngs Moduli (GPa) = 48.45086 38.47668 120.04176
#
# Poissons Ratio (x) = 0.33133 0.25204
# Poissons Ratio (y) = 0.41722 -0.12013
# Poissons Ratio (z) = 0.10173 -0.03851
#
# Static dielectric constant tensor:
#      x y z
#    x 1.824870 0.022800 -0.018760 
#    y 0.022800 1.901380 -0.007490 
#    z -0.018760 -0.007490 1.919790 
# 
# From -- ./inp_files/298920.got.cif
#   From: 2010.05.17/outbox.cif.g08.bks.cpg/sg2_150_cif.got.tgz:298920.got - 2010.06.03 11:33:40.
