data_PCOD9087344
_publ_section_title
;
Structure prediction by ZEFSAII (Michael W. Deem and Ramdas Pophale) SiO2 
 PCOD9087344
Probable space group: P -1
;
_chemical_formula_sum "Si O2"
_cell_formula_units_Z 16
_cell_length_a 15.518977
_cell_length_b 9.079415
_cell_length_c 10.038644
_cell_angle_alpha 123.996673
_cell_angle_beta 52.026184
_cell_angle_gamma 132.950117
_cell_volume 791.782283
_symmetry_space_group_name_H-M "P -1"
_symmetry_group_IT_number 2
_symmetry_cell_setting 'triclinic'
loop_
_space_group_symop_operation_xyz
x,y,z
-x,-y,-z
loop_
_atom_site_type_symbol
_atom_site_label
_atom_site_fract_x
_atom_site_fract_y
_atom_site_fract_z
Si Si1 0.954363 0.966779 0.680646
Si Si2 0.063287 0.444651 0.570459
Si Si3 0.641567 0.443283 0.218434
Si Si4 0.898230 0.567590 0.168099
Si Si5 0.333788 0.266023 0.165268
Si Si6 0.599874 0.367584 0.916322
Si Si7 0.636548 0.769335 0.579561
Si Si8 0.199427 0.761869 0.377490
O O1 0.942094 0.744307 0.606130
O O2 0.810444 0.917839 0.808526
O O3 0.246646 0.000372 0.435506
O O4 0.000000 0.000000 0.500000
O O5 0.121738 0.463707 0.669074
O O6 0.043732 0.183581 0.780145
O O7 0.138634 0.654499 0.521701
O O8 0.765024 0.443124 0.153592
O O9 0.639811 0.629740 0.389558
O O10 0.501326 0.249390 0.291194
O O11 0.642556 0.472162 0.073982
O O12 0.914404 0.371830 0.685839
O O13 0.000000 0.500000 0.000000
O O14 0.360911 0.462812 0.150995
O O15 0.348815 0.312529 0.332224
O O16 0.446539 0.226419 0.996769
O O17 0.676720 0.253185 0.766890
#
# Coordination Sequence:
#
# PCOD9087344 Si02
#       8
#     2   2   2   2   2   2   2   2
#     4  10  19  36  63  86 111 159 202 237 288 359
#     4  10  21  37  60  87 120 153 203 252 290 356
#     4  10  22  39  59  87 124 157 194 241 308 355
#     4  11  22  37  58  87 123 158 192 244 304 357
#     4  10  20  39  63  89 114 160 204 240 300 356
#     4  10  22  38  63  88 123 151 197 259 295 349
#     4  10  21  39  65  84 117 161 201 241 294 363
#     4  11  21  38  62  92 115 153 210 253 289 340
#
# _framework density 20.207576
#
# number of rings (size 3 to 8) (size 9 to 14) (size 15 to 20)
#    0.000    1.750    1.250    4.500    0.000    3.000 
#    2.250    1.250    0.000    0.000    0.000    0.000 
#    0.000    0.000    0.000    0.000    0.000    0.000 
#
# Total GULP energy -89240.987452 kJ/mol
# GULP energy per Si atom -5577.561716 kJ/mol
# Density = 2.016158 g / cm^3
# Si number density = 20.207576 Si / 1000 Ang^3
#
#
#
# Elastic Constant Matrix: (Units=GPa)
#
#
# Indices 1 2 3 4 5 6 
#
# 1 119.2308 24.4596 33.2365 -17.3834 -15.2040 0.8549
# 2 24.4596 69.1174 50.4355 -20.1495 7.1301 0.3294
# 3 33.2365 50.4355 66.8481 -13.9024 -5.6484 0.5582
# 4 -17.3834 -20.1495 -13.9024 23.7478 -3.8180 -9.8868
# 5 -15.2040 7.1301 -5.6484 -3.8180 38.4515 -2.8555
# 6 0.8549 0.3294 0.5582 -9.8868 -2.8555 26.8808
#
#
#
# Elastic Compliance Matrix: (Units=1/GPa)
#
#
# Indices 1 2 3 4 5 6 
#
# 1 0.011213 0.001309 -0.004318 0.009021 0.004715 0.003536
# 2 0.001309 0.042117 -0.028812 0.021278 -0.008898 0.006921
# 3 -0.004318 -0.028812 0.038821 -0.003762 0.008908 -0.000753
# 4 0.009021 0.021278 -0.003762 0.078187 0.009004 0.029244
# 5 0.004715 -0.008898 0.008908 0.009004 0.032207 0.006507
# 6 0.003536 0.006921 -0.000753 0.029244 0.006507 0.048467
#
#
# Mechanical properties :
#
#
# Convention : Reuss Voigt Hill
#
# Bulk Modulus (GPa) = 35.07531 52.38441 43.72986
# Shear Modulus (GPa) = 15.42470 27.62033 21.52252
#
# Velocity S-wave (km/s) = 2.76581 3.70108 3.26708
# Velocity P-wave (km/s) = 5.25307 6.65157 5.99325
#
# Compressibility (1/GPa) = 0.02851008
#
# Stress axis : x y z
#
# Youngs Moduli (GPa) = 89.17928 23.74360 25.75952
#
# Poissons Ratio (x) = -0.03109 0.11123
# Poissons Ratio (y) = -0.11677 0.74217
# Poissons Ratio (z) = 0.38508 0.68409
#
# Static dielectric constant tensor:
#      x y z
#    x 1.786130 -0.015450 -0.047650 
#    y -0.015450 1.713110 0.001610 
#    z -0.047650 0.001610 1.711340 
# 
# From -- ./inp_files/295462.got.cif
#   From: 2010.05.17/outbox.cif.g08.bks.cpg/sg2_148_cif.got.tgz:295462.got - 2010.06.03 11:33:40.
