data_PCOD9087582
_publ_section_title
;
Structure prediction by ZEFSAII (Michael W. Deem and Ramdas Pophale) SiO2 
 PCOD9087582
Probable space group: P -1
;
_chemical_formula_sum "Si O2"
_cell_formula_units_Z 16
_cell_length_a 8.209463
_cell_length_b 14.216908
_cell_length_c 11.041926
_cell_angle_alpha 62.359763
_cell_angle_beta 137.360284
_cell_angle_gamma 139.049722
_cell_volume 559.816236
_symmetry_space_group_name_H-M "P -1"
_symmetry_group_IT_number 2
_symmetry_cell_setting 'triclinic'
loop_
_space_group_symop_operation_xyz
x,y,z
-x,-y,-z
loop_
_atom_site_type_symbol
_atom_site_label
_atom_site_fract_x
_atom_site_fract_y
_atom_site_fract_z
Si Si1 0.674716 0.143532 0.678227
Si Si2 0.578902 0.659940 0.055901
Si Si3 0.500968 0.244281 0.699449
Si Si4 0.998983 0.774815 0.886440
Si Si5 0.263448 0.595009 0.694060
Si Si6 0.748884 0.510623 0.795691
Si Si7 0.840348 0.939013 0.160183
Si Si8 0.428553 0.869339 0.651076
O O1 0.500499 0.198155 0.592265
O O2 0.692342 0.141241 0.544315
O O3 0.059678 0.249014 0.857612
O O4 0.454893 0.974598 0.695014
O O5 0.527126 0.572654 0.198319
O O6 0.598435 0.788610 0.038006
O O7 0.298936 0.545501 0.871960
O O8 0.602561 0.397863 0.673153
O O9 0.186379 0.127492 0.683886
O O10 0.766667 0.240112 0.906319
O O11 0.630420 0.691587 0.782126
O O12 0.908907 0.675139 0.778303
O O13 0.185831 0.944533 0.893286
O O14 0.229214 0.702945 0.665046
O O15 0.000000 0.500000 0.500000
O O16 0.000000 0.500000 0.000000
O O17 0.182686 0.037476 0.215163
#
# Coordination Sequence:
#
# PCOD9087582 Si02
#       8
#     2   2   2   2   2   2   2   2
#     4  10  20  38  67  93 119 160 209 261 302 360
#     4  10  21  39  66  91 118 164 212 252 308 365
#     4  10  19  36  64  94 118 163 209 252 299 371
#     4  10  20  37  59  90 126 157 205 252 305 362
#     4  11  24  38  60  91 128 161 202 257 310 366
#     4   9  21  38  57  90 125 159 206 251 297 372
#     4   9  20  37  64  90 124 160 200 261 309 363
#     4   9  22  39  57  93 131 153 203 260 309 358
#
# _framework density 28.580805999999999
#
# number of rings (size 3 to 8) (size 9 to 14) (size 15 to 20)
#    0.000    2.250    1.250    0.375    3.500    4.500 
#    0.000    0.000    0.000    8.250    0.000    0.000 
#    0.000    0.000    0.000    0.000    0.000    0.000 
#
# Total GULP energy -89328.474720 kJ/mol
# GULP energy per Si atom -5583.029670 kJ/mol
# Density = 2.851575 g / cm^3
# Si number density = 28.580806 Si / 1000 Ang^3
#
#
#
# Elastic Constant Matrix: (Units=GPa)
#
#
# Indices 1 2 3 4 5 6 
#
# 1 121.5364 38.8814 23.8843 20.8004 -20.3028 -24.8403
# 2 38.8814 164.4752 29.9984 17.9265 -26.4241 -62.9447
# 3 23.8843 29.9984 121.3978 31.8167 -4.4262 0.6279
# 4 20.8004 17.9265 31.8167 27.9976 -5.3932 -2.5339
# 5 -20.3028 -26.4241 -4.4262 -5.3932 22.8211 15.6402
# 6 -24.8403 -62.9447 0.6279 -2.5339 15.6402 60.8416
#
#
#
# Elastic Compliance Matrix: (Units=1/GPa)
#
#
# Indices 1 2 3 4 5 6 
#
# 1 0.010980 0.000318 -0.000317 -0.006473 0.006591 0.002851
# 2 0.000318 0.011697 -0.001869 -0.003619 0.005239 0.010753
# 3 -0.000317 -0.001869 0.012070 -0.012790 -0.001533 -0.002326
# 4 -0.006473 -0.003619 -0.012790 0.057827 0.004700 -0.005055
# 5 0.006591 0.005239 -0.001533 0.004700 0.061735 -0.007547
# 6 0.002851 0.010753 -0.002326 -0.005055 -0.007547 0.030478
#
#
# Mechanical properties :
#
#
# Convention : Reuss Voigt Hill
#
# Bulk Modulus (GPa) = 32.24669 65.88196 49.06433
# Shear Modulus (GPa) = 25.14339 43.30842 34.22590
#
# Velocity S-wave (km/s) = 2.96924 3.89690 3.46427
# Velocity P-wave (km/s) = 4.80233 6.58399 5.76244
#
# Compressibility (1/GPa) = 0.03101093
#
# Stress axis : x y z
#
# Youngs Moduli (GPa) = 91.07254 85.49211 82.85167
#
# Poissons Ratio (x) = -0.02715 0.02623
# Poissons Ratio (y) = -0.02892 0.15485
# Poissons Ratio (z) = 0.02883 0.15978
#
# Static dielectric constant tensor:
#      x y z
#    x 2.358690 -0.042470 -0.038710 
#    y -0.042470 2.377620 -0.052060 
#    z -0.038710 -0.052060 2.392680 
# 
# From -- ./inp_files/295418.got.cif
#   From: 2010.05.17/outbox.cif.g08.bks.cpg/sg2_148_cif.got.tgz:295418.got - 2010.06.03 11:33:40.
