data_PCOD9087681
_publ_section_title
;
Structure prediction by ZEFSAII (Michael W. Deem and Ramdas Pophale) SiO2 
 PCOD9087681
Probable space group: P -1
;
_chemical_formula_sum "Si O2"
_cell_formula_units_Z 16
_cell_length_a 8.110098
_cell_length_b 13.772226
_cell_length_c 11.900936
_cell_angle_alpha 93.950126
_cell_angle_beta 127.535950
_cell_angle_gamma 56.601321
_cell_volume 805.556625
_symmetry_space_group_name_H-M "P -1"
_symmetry_group_IT_number 2
_symmetry_cell_setting 'triclinic'
loop_
_space_group_symop_operation_xyz
x,y,z
-x,-y,-z
loop_
_atom_site_type_symbol
_atom_site_label
_atom_site_fract_x
_atom_site_fract_y
_atom_site_fract_z
Si Si1 0.376055 0.459753 0.862838
Si Si2 0.190844 0.699118 0.152189
Si Si3 0.912595 0.628563 0.532931
Si Si4 0.507164 0.338580 0.496988
Si Si5 0.989142 0.405339 0.795193
Si Si6 0.243384 0.012923 0.938002
Si Si7 0.971850 0.928648 0.386069
Si Si8 0.319897 0.176563 0.747127
O O1 0.620015 0.343834 0.880091
O O2 0.196125 0.431653 0.851386
O O3 0.188581 0.574322 0.704317
O O4 0.500000 0.500000 0.000000
O O5 0.378275 0.653440 0.337790
O O6 0.050733 0.634167 0.103194
O O7 0.968712 0.850232 0.082667
O O8 0.698851 0.681434 0.547899
O O9 0.763898 0.736629 0.387779
O O10 0.000000 0.500000 0.500000
O O11 0.751334 0.217343 0.520636
O O12 0.307408 0.471288 0.359620
O O13 0.109710 0.280228 0.761470
O O14 0.104808 0.011067 0.767477
O O15 0.500000 0.000000 0.000000
O O16 0.384280 0.902297 0.080546
O O17 0.742025 0.916964 0.314566
O O18 0.000000 0.000000 0.500000
#
# Coordination Sequence:
#
# PCOD9087681 Si02
#       8
#     2   2   2   2   2   2   2   2
#     4  11  25  42  57  98 136 153 205 275 325 369
#     4  11  19  37  68  87 124 173 211 252 315 380
#     4  11  20  39  67  89 123 161 203 270 314 375
#     4  10  19  36  65  94 121 156 220 252 310 379
#     4  11  20  37  67  95 119 165 214 263 310 383
#     4   9  19  38  61  87 120 167 215 252 291 384
#     4  10  22  39  59  92 128 161 201 267 309 368
#     4  11  19  39  65  88 122 165 214 257 303 377
#
# _framework density 19.862044000000001
#
# number of rings (size 3 to 8) (size 9 to 14) (size 15 to 20)
#    0.000    1.500    7.500    0.375    1.750    0.500 
#   11.250    6.250    0.000    0.000    0.000    0.000 
#    0.000    0.000    0.000    0.000    0.000    0.000 
#
# Total GULP energy -89129.893043 kJ/mol
# GULP energy per Si atom -5570.618315 kJ/mol
# Density = 1.981684 g / cm^3
# Si number density = 19.862044 Si / 1000 Ang^3
#
#
#
# Elastic Constant Matrix: (Units=GPa)
#
#
# Indices 1 2 3 4 5 6 
#
# 1 60.3434 33.6990 29.2360 -5.8086 3.1641 -3.1676
# 2 33.6990 97.7133 79.7057 -3.2778 5.7117 -2.0613
# 3 29.2360 79.7057 143.8819 -14.2719 -5.3502 4.3497
# 4 -5.8086 -3.2778 -14.2719 36.7224 8.7507 3.4204
# 5 3.1641 5.7117 -5.3502 8.7507 24.1395 -10.9381
# 6 -3.1676 -2.0613 4.3497 3.4204 -10.9381 29.7256
#
#
#
# Elastic Compliance Matrix: (Units=1/GPa)
#
#
# Indices 1 2 3 4 5 6 
#
# 1 0.020909 -0.006709 -0.000332 0.002979 -0.001970 0.000744
# 2 -0.006709 0.022037 -0.011291 -0.002157 -0.005792 0.000582
# 3 -0.000332 -0.011291 0.013826 0.003641 0.003579 -0.001943
# 4 0.002979 -0.002157 0.003641 0.033632 -0.015822 -0.010057
# 5 -0.001970 -0.005792 0.003579 -0.015822 0.059877 0.022718
# 6 0.000744 0.000582 -0.001943 -0.010057 0.022718 0.043562
#
#
# Mechanical properties :
#
#
# Convention : Reuss Voigt Hill
#
# Bulk Modulus (GPa) = 49.73666 65.24668 57.49167
# Shear Modulus (GPa) = 21.07843 28.73735 24.90789
#
# Velocity S-wave (km/s) = 3.26120 3.80787 3.54509
# Velocity P-wave (km/s) = 6.26706 7.22872 6.76500
#
# Compressibility (1/GPa) = 0.02010590
#
# Stress axis : x y z
#
# Youngs Moduli (GPa) = 47.82720 45.37882 72.32996
#
# Poissons Ratio (x) = 0.30446 0.02401
# Poissons Ratio (y) = 0.32089 0.81669
# Poissons Ratio (z) = 0.01588 0.51238
#
# Static dielectric constant tensor:
#      x y z
#    x 1.857040 0.038870 0.003190 
#    y 0.038870 1.704230 -0.022420 
#    z 0.003190 -0.022420 1.752370 
# 
# From -- ./inp_files/279377.got.cif
#   From: 2010.05.17/outbox.cif.g08.bks.cpg/sg2_140_cif.got.tgz:279377.got - 2010.06.03 11:33:40.
