data_PCOD9087522
_publ_section_title
;
Structure prediction by ZEFSAII (Michael W. Deem and Ramdas Pophale) SiO2 
 PCOD9087522
Probable space group: P -1
;
_chemical_formula_sum "Si O2"
_cell_formula_units_Z 12
_cell_length_a 8.396260
_cell_length_b 8.103662
_cell_length_c 12.485232
_cell_angle_alpha 135.057491
_cell_angle_beta 127.221544
_cell_angle_gamma 53.622324
_cell_volume 456.842432
_symmetry_space_group_name_H-M "P -1"
_symmetry_group_IT_number 2
_symmetry_cell_setting 'triclinic'
loop_
_space_group_symop_operation_xyz
x,y,z
-x,-y,-z
loop_
_atom_site_type_symbol
_atom_site_label
_atom_site_fract_x
_atom_site_fract_y
_atom_site_fract_z
Si Si1 0.377022 0.701835 0.299055
Si Si2 0.047812 0.136126 0.447509
Si Si3 0.745053 0.769163 0.902756
Si Si4 0.220701 0.651098 0.986394
Si Si5 0.176593 0.583865 0.713110
Si Si6 0.316464 0.080826 0.808946
O O1 0.262010 0.504163 0.198162
O O2 0.622962 0.568170 0.343792
O O3 0.273618 0.938504 0.436363
O O4 0.324009 0.750048 0.173239
O O5 0.065070 0.386597 0.619791
O O6 0.977383 0.226855 0.339203
O O7 0.866421 0.021885 0.359797
O O8 0.971899 0.749786 0.942669
O O9 0.546954 0.894310 0.804812
O O10 0.719098 0.899207 0.067817
O O11 0.260782 0.699350 0.901381
O O12 0.294668 0.356251 0.892407
#
# Coordination Sequence:
#
# PCOD9087522 Si02
#       6
#     2   2   2   2   2   2
#     4  11  20  40  64  84 114 158 194 232 288 347
#     4  11  22  42  60  80 121 163 188 224 296 357
#     4  10  19  36  64  89 112 148 200 235 286 342
#     4  11  22  38  61  94 113 141 200 253 278 325
#     4  11  26  38  57  89 122 151 191 238 289 344
#     4  10  19  37  64  84 114 157 190 235 287 345
#
# _framework density 26.267263
#
# number of rings (size 3 to 8) (size 9 to 14) (size 15 to 20)
#    0.000    1.333    5.000    2.000    0.000    2.667 
#    0.000    0.833    0.000    0.000    0.000    0.000 
#    0.000    0.000    0.000    0.000    0.000    0.000 
#
# Total GULP energy -67260.932354 kJ/mol
# GULP energy per Si atom -5605.077696 kJ/mol
# Density = 2.620748 g / cm^3
# Si number density = 26.267263 Si / 1000 Ang^3
#
#
#
# Elastic Constant Matrix: (Units=GPa)
#
#
# Indices 1 2 3 4 5 6 
#
# 1 60.4134 26.0984 -14.9234 -6.6625 -1.3424 -16.9785
# 2 26.0984 92.3794 -4.0551 -6.4680 -17.2024 -22.0136
# 3 -14.9234 -4.0551 58.1528 -2.6077 6.7120 11.2586
# 4 -6.6625 -6.4680 -2.6077 36.2733 2.8231 5.8690
# 5 -1.3424 -17.2024 6.7120 2.8231 32.7220 -2.4099
# 6 -16.9785 -22.0136 11.2586 5.8690 -2.4099 50.3205
#
#
#
# Elastic Compliance Matrix: (Units=1/GPa)
#
#
# Indices 1 2 3 4 5 6 
#
# 1 0.021263 -0.005366 0.004937 0.003014 -0.002983 0.003228
# 2 -0.005366 0.015245 -0.002454 -0.000067 0.008733 0.005834
# 3 0.004937 -0.002454 0.019971 0.003085 -0.005783 -0.004513
# 4 0.003014 -0.000067 0.003085 0.029115 -0.003296 -0.003257
# 5 -0.002983 0.008733 -0.005783 -0.003296 0.036961 0.006262
# 6 0.003228 0.005834 -0.004513 -0.003257 0.006262 0.025203
#
#
# Mechanical properties :
#
#
# Convention : Reuss Voigt Hill
#
# Bulk Modulus (GPa) = 19.71863 25.02059 22.36961
# Shear Modulus (GPa) = 29.33754 37.45156 33.39455
#
# Velocity S-wave (km/s) = 3.34561 3.78006 3.56945
# Velocity P-wave (km/s) = 4.73786 5.34770 5.05199
#
# Compressibility (1/GPa) = 0.05071345
#
# Stress axis : x y z
#
# Youngs Moduli (GPa) = 47.02904 65.59608 50.07142
#
# Poissons Ratio (x) = 0.35198 -0.24721
# Poissons Ratio (y) = 0.25235 0.12290
# Poissons Ratio (z) = -0.23219 0.16100
#
# Static dielectric constant tensor:
#      x y z
#    x 2.057460 0.045250 0.043970 
#    y 0.045250 2.046070 0.005560 
#    z 0.043970 0.005560 2.040920 
# 
# From -- ./inp_files/132786.got.cif
#   From: 2010.05.17/outbox.cif.g08.bks.cpg/sg2_67_cif.got.tgz:132786.got - 2010.06.03 11:33:40.
