data_PCOD9087866
_publ_section_title
;
Structure prediction by ZEFSAII (Michael W. Deem and Ramdas Pophale) SiO2 
 PCOD9087866
Probable space group: P -1
;
_chemical_formula_sum "Si O2"
_cell_formula_units_Z 16
_cell_length_a 24.192402
_cell_length_b 22.073388
_cell_length_c 9.429222
_cell_angle_alpha 150.201976
_cell_angle_beta 140.367511
_cell_angle_gamma 19.484417
_cell_volume 798.965664
_symmetry_space_group_name_H-M "P -1"
_symmetry_group_IT_number 2
_symmetry_cell_setting 'triclinic'
loop_
_space_group_symop_operation_xyz
x,y,z
-x,-y,-z
loop_
_atom_site_type_symbol
_atom_site_label
_atom_site_fract_x
_atom_site_fract_y
_atom_site_fract_z
Si Si1 0.486696 0.956936 0.233591
Si Si2 0.907811 0.604780 0.683271
Si Si3 0.085158 0.526491 0.137379
Si Si4 0.040362 0.931426 0.108145
Si Si5 0.625764 0.005840 0.409122
Si Si6 0.242832 0.558966 0.375220
Si Si7 0.592463 0.517792 0.201788
Si Si8 0.915833 0.814251 0.669025
O O1 0.500000 0.000000 0.500000
O O2 0.297548 0.130223 0.188518
O O3 0.526409 0.019914 0.328792
O O4 0.628912 0.675475 0.942591
O O5 0.000000 0.500000 0.500000
O O6 0.945618 0.422375 0.441199
O O7 0.998657 0.581329 0.933132
O O8 0.185465 0.527294 0.309146
O O9 0.954898 0.723984 0.402470
O O10 0.230561 0.251702 0.911984
O O11 0.248462 0.682061 0.003482
O O12 0.937628 0.160087 0.457731
O O13 0.953884 0.910161 0.942450
O O14 0.000000 0.000000 0.000000
O O15 0.518934 0.228357 0.551468
O O16 0.732041 0.970861 0.651104
O O17 0.342992 0.535043 0.618216
O O18 0.500000 0.500000 0.000000
#
# Coordination Sequence:
#
# PCOD9087866 Si02
#       8
#     2   2   2   2   2   2   2   2
#     4  11  24  41  61  89 121 155 204 255 296 354
#     4  11  23  39  62  86 119 163 202 249 309 360
#     4  10  21  36  59  89 122 157 200 252 304 360
#     4  10  19  37  55  84 123 161 192 243 298 364
#     4  10  21  34  57  87 121 149 198 248 301 348
#     4  10  22  36  60  87 123 160 197 247 299 358
#     4  11  22  34  57  90 126 157 194 244 305 357
#     4  11  20  37  61  89 122 160 199 248 307 362
#
# _framework density 20.025891999999999
#
# number of rings (size 3 to 8) (size 9 to 14) (size 15 to 20)
#    0.000    1.500    2.500    6.000    3.500    1.000 
#    0.000    0.000    0.000   13.500    0.000    0.000 
#    0.000    0.000    0.000    0.000    0.000    0.000 
#
# Total GULP energy -89074.667222 kJ/mol
# GULP energy per Si atom -5567.166701 kJ/mol
# Density = 1.998031 g / cm^3
# Si number density = 20.025892 Si / 1000 Ang^3
#
#
#
# Elastic Constant Matrix: (Units=GPa)
#
#
# Indices 1 2 3 4 5 6 
#
# 1 -17.0642 -12.3943 22.1740 -37.5424 14.3613 -25.9147
# 2 -12.3943 56.9609 29.7939 4.7085 -2.7473 -16.1471
# 3 22.1740 29.7939 112.1964 10.5554 9.4264 -12.8528
# 4 -37.5424 4.7085 10.5554 16.7926 1.7946 -2.1886
# 5 14.3613 -2.7473 9.4264 1.7946 39.7192 -3.2532
# 6 -25.9147 -16.1471 -12.8528 -2.1886 -3.2532 31.0721
#
#
#
# Elastic Compliance Matrix: (Units=1/GPa)
#
#
# Indices 1 2 3 4 5 6 
#
# 1 -0.006265 -0.003315 0.002699 -0.015823 0.001555 -0.006783
# 2 -0.003315 0.021821 -0.003740 -0.010794 0.004636 0.006753
# 3 0.002699 -0.003740 0.009973 0.001720 -0.003335 0.004205
# 4 -0.015823 -0.010794 0.001720 0.023778 0.002166 -0.016194
# 5 0.001555 0.004636 -0.003335 0.002166 0.026055 0.005207
# 6 -0.006783 0.006753 0.004205 -0.016194 0.005207 0.031180
#
#
# Mechanical properties :
#
#
# Convention : Reuss Voigt Hill
#
# Bulk Modulus (GPa) = 59.45938 25.69336 42.57637
# Shear Modulus (GPa) = 41.37068 25.01807 33.19438
#
# Velocity S-wave (km/s) = 4.55010 3.53836 4.07575
# Velocity P-wave (km/s) = 7.57366 5.43610 6.59210
#
# Compressibility (1/GPa) = 0.01681820
#
# Stress axis : x y z
#
# Youngs Moduli (GPa) = -159.62098 45.82744 100.27413
#
# Poissons Ratio (x) = 0.15192 -0.27069
# Poissons Ratio (y) = -0.52914 0.37501
# Poissons Ratio (z) = 0.43090 0.17139
#
# Static dielectric constant tensor:
#      x y z
#    x 1.150830 0.392710 -1.008940 
#    y 0.392710 1.491860 0.769570 
#    z -1.008940 0.769570 0.060980 
# 
# From -- ./inp_files/355328.got.cif
#   From: 2010.05.17/outbox.cif.g08.bks.cpg/sg2_178_cif.got.tgz:355328.got - 2010.06.03 11:33:40.
