data_PCOD9087629
_publ_section_title
;
Structure prediction by ZEFSAII (Michael W. Deem and Ramdas Pophale) SiO2 
 PCOD9087629
Probable space group: P -1
;
_chemical_formula_sum "Si O2"
_cell_formula_units_Z 15
_cell_length_a 10.921126
_cell_length_b 7.294824
_cell_length_c 11.186888
_cell_angle_alpha 79.056672
_cell_angle_beta 40.496260
_cell_angle_gamma 89.789558
_cell_volume 554.234639
_symmetry_space_group_name_H-M "P -1"
_symmetry_group_IT_number 2
_symmetry_cell_setting 'triclinic'
loop_
_space_group_symop_operation_xyz
x,y,z
-x,-y,-z
loop_
_atom_site_type_symbol
_atom_site_label
_atom_site_fract_x
_atom_site_fract_y
_atom_site_fract_z
Si Si1 0.426115 0.224473 0.929323
Si Si2 0.301361 0.567566 0.867129
Si Si3 0.705088 0.279281 0.497719
Si Si4 0.594532 0.819629 0.457857
Si Si5 0.096853 0.322752 0.431590
Si Si6 0.998261 0.951872 0.695551
Si Si7 0.915807 0.653447 0.176223
Si Si8 0.500000 0.500000 0.000000
O O1 0.355331 0.434412 0.949526
O O2 0.594808 0.217447 0.711648
O O3 0.509016 0.259102 0.995152
O O4 0.216658 0.086724 0.084084
O O5 0.499798 0.696028 0.656486
O O6 0.179940 0.430805 0.870013
O O7 0.146117 0.692214 0.998177
O O8 0.522496 0.298817 0.550895
O O9 0.822569 0.128640 0.374947
O O10 0.847617 0.484279 0.345272
O O11 0.815777 0.824541 0.263960
O O12 0.500000 0.000000 0.500000
O O13 0.312087 0.424652 0.230786
O O14 0.000000 0.500000 0.500000
O O15 0.025256 0.188063 0.386726
O O16 0.062102 0.169705 0.582134
#
# Coordination Sequence:
#
# PCOD9087629 Si02
#       8
#     2   2   2   2   2   2   2   1
#     4  11  20  39  65  94 124 168 218 265 322 384
#     4  10  19  36  65  83 120 166 215 251 315 379
#     4  11  20  38  65  88 121 167 212 252 315 383
#     4  11  23  37  55  94 133 165 206 264 315 380
#     4  10  22  45  64  89 128 162 210 274 323 377
#     4  10  23  39  65  95 120 166 219 259 321 393
#     4  10  19  37  63  88 117 168 209 256 304 374
#     4  10  24  38  66  94 124 160 214 268 324 370
#
# _framework density 27.064349
#
# number of rings (size 3 to 8) (size 9 to 14) (size 15 to 20)
#    0.000    1.600    4.000    1.600    0.000    2.667 
#    2.400    5.333    0.000    0.000    0.000    0.000 
#    0.000    0.000    0.000    0.000    0.000    0.000 
#
# Total GULP energy -83670.325905 kJ/mol
# GULP energy per Si atom -5578.021727 kJ/mol
# Density = 2.700275 g / cm^3
# Si number density = 27.064349 Si / 1000 Ang^3
#
#
#
# Elastic Constant Matrix: (Units=GPa)
#
#
# Indices 1 2 3 4 5 6 
#
# 1 74.2861 13.7428 15.1471 4.1729 -16.0275 -1.1868
# 2 13.7428 148.9309 44.7827 22.2318 -9.5823 -15.4664
# 3 15.1471 44.7827 166.2876 14.2248 -25.0463 0.7837
# 4 4.1729 22.2318 14.2248 42.1217 -6.9097 5.6187
# 5 -16.0275 -9.5823 -25.0463 -6.9097 34.8629 4.1403
# 6 -1.1868 -15.4664 0.7837 5.6187 4.1403 24.4669
#
#
#
# Elastic Compliance Matrix: (Units=1/GPa)
#
#
# Indices 1 2 3 4 5 6 
#
# 1 0.015111 -0.001119 -0.000078 0.000398 0.006807 -0.001215
# 2 -0.001119 0.008828 -0.002093 -0.005005 -0.001413 0.006982
# 3 -0.000078 -0.002093 0.007355 -0.000257 0.004899 -0.002333
# 4 0.000398 -0.005005 -0.000257 0.028774 0.005596 -0.010691
# 5 0.006807 -0.001413 0.004899 0.005596 0.037036 -0.008272
# 6 -0.001215 0.006982 -0.002333 -0.010691 -0.008272 0.049156
#
#
# Mechanical properties :
#
#
# Convention : Reuss Voigt Hill
#
# Bulk Modulus (GPa) = 40.46179 59.64997 50.05588
# Shear Modulus (GPa) = 31.04076 41.34579 36.19327
#
# Velocity S-wave (km/s) = 3.39030 3.91280 3.66088
# Velocity P-wave (km/s) = 5.50529 6.51930 6.03363
#
# Compressibility (1/GPa) = 0.02471468
#
# Stress axis : x y z
#
# Youngs Moduli (GPa) = 66.17643 113.26973 135.95478
#
# Poissons Ratio (x) = 0.12670 0.01066
# Poissons Ratio (y) = 0.07402 0.28459
# Poissons Ratio (z) = 0.00519 0.23710
#
# Static dielectric constant tensor:
#      x y z
#    x 1.534100 -0.090160 -0.004450 
#    y -0.090160 2.205970 0.031470 
#    z -0.004450 0.031470 2.055180 
# 
# From -- ./inp_files/526432.got.cif
#   From: 2010.05.17/outbox.cif.g08.bks.cpg/sg2_264_cif.got.tgz:526432.got - 2010.06.03 11:33:40.
