data_PCOD9087375
_publ_section_title
;
Structure prediction by ZEFSAII (Michael W. Deem and Ramdas Pophale) SiO2 
 PCOD9087375
Probable space group: P -1
;
_chemical_formula_sum "Si O2"
_cell_formula_units_Z 16
_cell_length_a 12.571103
_cell_length_b 9.298123
_cell_length_c 10.619526
_cell_angle_alpha 122.907753
_cell_angle_beta 49.222951
_cell_angle_gamma 129.188205
_cell_volume 710.285879
_symmetry_space_group_name_H-M "P -1"
_symmetry_group_IT_number 2
_symmetry_cell_setting 'triclinic'
loop_
_space_group_symop_operation_xyz
x,y,z
-x,-y,-z
loop_
_atom_site_type_symbol
_atom_site_label
_atom_site_fract_x
_atom_site_fract_y
_atom_site_fract_z
Si Si1 0.259496 0.366839 0.409414
Si Si2 0.214932 0.524370 0.950593
Si Si3 0.129670 0.759375 0.946976
Si Si4 0.050902 0.090904 0.235015
Si Si5 0.300277 0.119602 0.885635
Si Si6 0.488024 0.644544 0.972856
Si Si7 0.734041 0.788823 0.398235
Si Si8 0.475763 0.790288 0.461667
O O1 0.122029 0.251561 0.362030
O O2 0.406924 0.349961 0.224202
O O3 0.226773 0.258373 0.515394
O O4 0.316599 0.595072 0.485369
O O5 0.318250 0.596612 0.029704
O O6 0.261386 0.379773 0.769470
O O7 0.028250 0.411357 0.060334
O O8 0.230567 0.688681 0.919845
O O9 0.086256 0.904364 0.134357
O O10 0.220550 0.893168 0.824798
O O11 0.156642 0.167904 0.062330
O O12 0.864803 0.988595 0.336437
O O13 0.405306 0.230925 0.743375
O O14 0.417909 0.160543 0.931918
O O15 0.500000 0.500000 0.000000
O O16 0.565908 0.790588 0.520455
O O17 0.500000 0.000000 0.500000
#
# Coordination Sequence:
#
# PCOD9087375 Si02
#       8
#     2   2   2   2   2   2   2   2
#     4  11  22  39  63  87 119 163 198 249 302 361
#     4  10  19  36  63  88 124 150 205 246 304 354
#     4   8  19  36  58  97 112 154 195 260 294 348
#     4   8  20  40  64  89 118 150 207 250 296 356
#     4   9  20  39  58  86 122 151 193 248 301 348
#     4  11  20  37  57  86 115 157 198 243 296 358
#     4  11  22  40  63  89 118 165 203 244 302 359
#     4  12  26  41  57  89 127 161 200 248 301 366
#
# _framework density 22.526142
#
# number of rings (size 3 to 8) (size 9 to 14) (size 15 to 20)
#    0.750    1.250    2.500    0.750    1.750    1.000 
#    6.750    0.625    0.000    0.000    0.000    0.000 
#    0.000    0.000    0.000    0.000    0.000    0.000 
#
# Total GULP energy -89102.961226 kJ/mol
# GULP energy per Si atom -5568.935077 kJ/mol
# Density = 2.247487 g / cm^3
# Si number density = 22.526142 Si / 1000 Ang^3
#
#
#
# Elastic Constant Matrix: (Units=GPa)
#
#
# Indices 1 2 3 4 5 6 
#
# 1 79.8734 20.8998 3.6787 1.7536 -5.0252 8.1837
# 2 20.8998 75.8893 5.7819 -4.4739 -6.8673 12.2016
# 3 3.6787 5.7819 43.0111 -9.4497 10.5309 -1.0946
# 4 1.7536 -4.4739 -9.4497 33.7312 -3.8147 1.2003
# 5 -5.0252 -6.8673 10.5309 -3.8147 14.0076 -1.7866
# 6 8.1837 12.2016 -1.0946 1.2003 -1.7866 34.3106
#
#
#
# Elastic Compliance Matrix: (Units=1/GPa)
#
#
# Indices 1 2 3 4 5 6 
#
# 1 0.013931 -0.002985 -0.002230 -0.001147 0.004636 -0.002051
# 2 -0.002985 0.016086 -0.003884 0.002477 0.009810 -0.004708
# 3 -0.002230 -0.003884 0.031206 0.005524 -0.024477 0.001441
# 4 -0.001147 0.002477 0.005524 0.032223 0.005262 -0.001284
# 5 0.004636 0.009810 -0.024477 0.005262 0.097636 -0.000475
# 6 -0.002051 -0.004708 0.001441 -0.001284 -0.000475 0.031375
#
#
# Mechanical properties :
#
#
# Convention : Reuss Voigt Hill
#
# Bulk Modulus (GPa) = 23.24279 28.83273 26.03776
# Shear Modulus (GPa) = 19.60818 27.63744 23.62281
#
# Velocity S-wave (km/s) = 2.95356 3.50652 3.24185
# Velocity P-wave (km/s) = 4.68742 5.40571 5.05933
#
# Compressibility (1/GPa) = 0.04302410
#
# Stress axis : x y z
#
# Youngs Moduli (GPa) = 71.78468 62.16644 32.04530
#
# Poissons Ratio (x) = 0.18556 0.07145
# Poissons Ratio (y) = 0.21427 0.12448
# Poissons Ratio (z) = 0.16005 0.24148
#
# Static dielectric constant tensor:
#      x y z
#    x 1.919660 0.043310 -0.014040 
#    y 0.043310 1.929550 -0.007400 
#    z -0.014040 -0.007400 1.946950 
# 
# From -- ./inp_files/415384.got.cif
#   From: 2010.05.17/outbox.cif.g08.bks.cpg/sg2_208_cif.got.tgz:415384.got - 2010.06.03 11:33:40.
