data_PCOD9087213
_publ_section_title
;
Structure prediction by ZEFSAII (Michael W. Deem and Ramdas Pophale) SiO2 
 PCOD9087213
Probable space group: P -1
;
_chemical_formula_sum "Si O2"
_cell_formula_units_Z 15
_cell_length_a 8.854640
_cell_length_b 21.397514
_cell_length_c 14.447951
_cell_angle_alpha 21.630217
_cell_angle_beta 39.799052
_cell_angle_gamma 32.859965
_cell_volume 546.419226
_symmetry_space_group_name_H-M "P -1"
_symmetry_group_IT_number 2
_symmetry_cell_setting 'triclinic'
loop_
_space_group_symop_operation_xyz
x,y,z
-x,-y,-z
loop_
_atom_site_type_symbol
_atom_site_label
_atom_site_fract_x
_atom_site_fract_y
_atom_site_fract_z
Si Si1 0.000000 0.000000 0.000000
Si Si2 0.747036 0.787689 0.294450
Si Si3 0.758960 0.993901 0.265208
Si Si4 0.357595 0.404519 0.557532
Si Si5 0.278940 0.919484 0.644360
Si Si6 0.638719 0.286433 0.285347
Si Si7 0.810921 0.430156 0.390655
Si Si8 0.806449 0.509301 0.999087
O O1 0.215864 0.034252 0.933706
O O2 0.277898 0.850438 0.006816
O O3 0.617119 0.769574 0.281991
O O4 0.577440 0.750971 0.506852
O O5 0.064185 0.598498 0.399203
O O6 0.482431 0.993554 0.413753
O O7 0.005312 0.811330 0.334180
O O8 0.887058 0.969587 0.339022
O O9 0.623039 0.428264 0.398936
O O10 0.317593 0.426200 0.659034
O O11 0.184025 0.868362 0.666170
O O12 0.496118 0.700219 0.891061
O O13 0.500000 0.500000 0.000000
O O14 0.814755 0.308862 0.251519
O O15 0.056831 0.451551 0.207297
O O16 0.000000 0.500000 0.000000
#
# Coordination Sequence:
#
# PCOD9087213 Si02
#       8
#     1   2   2   2   2   2   2   2
#     4  12  22  36  60  86 134 154 200 258 300 366
#     4  11  22  38  61  97 120 159 211 254 304 374
#     4  10  20  37  59  84 121 163 202 244 306 371
#     4  10  21  38  66  85 122 162 204 258 307 365
#     4   9  19  37  61  82 120 164 199 241 311 365
#     4  10  19  36  62  89 118 154 209 260 292 360
#     4  10  20  40  60  89 124 154 204 260 309 360
#     4  10  20  34  61  92 118 151 201 262 301 358
#
# _framework density 27.451449
#
# number of rings (size 3 to 8) (size 9 to 14) (size 15 to 20)
#    0.000    1.867    2.667    2.400    0.000    6.400 
#    0.000    0.667    5.867    3.200    0.000    0.000 
#    0.000    0.000    0.000    0.000    0.000    0.000 
#
# Total GULP energy -83550.426681 kJ/mol
# GULP energy per Si atom -5570.028445 kJ/mol
# Density = 2.738897 g / cm^3
# Si number density = 27.451449 Si / 1000 Ang^3
#
#
#
# Elastic Constant Matrix: (Units=GPa)
#
#
# Indices 1 2 3 4 5 6 
#
# 1 218.6048 43.3098 42.0757 -4.2736 -21.3882 50.4476
# 2 43.3098 128.1207 49.5479 8.0949 1.1702 44.7227
# 3 42.0757 49.5479 117.8000 9.7160 -21.3164 26.4317
# 4 -4.2736 8.0949 9.7160 45.9666 8.0901 3.5078
# 5 -21.3882 1.1702 -21.3164 8.0901 45.0427 -1.9886
# 6 50.4476 44.7227 26.4317 3.5078 -1.9886 58.0022
#
#
#
# Elastic Compliance Matrix: (Units=1/GPa)
#
#
# Indices 1 2 3 4 5 6 
#
# 1 0.006082 -0.000183 -0.000671 0.000713 0.002235 -0.004810
# 2 -0.000183 0.011929 -0.003696 -0.000346 -0.002411 -0.007416
# 3 -0.000671 -0.003696 0.011947 -0.002845 0.005870 -0.001638
# 4 0.000713 -0.000346 -0.002845 0.023456 -0.005241 -0.000655
# 5 0.002235 -0.002411 0.005870 -0.005241 0.026978 -0.001518
# 6 -0.004810 -0.007416 -0.001638 -0.000655 -0.001518 0.027876
#
#
# Mechanical properties :
#
#
# Convention : Reuss Voigt Hill
#
# Bulk Modulus (GPa) = 47.93951 81.59913 64.76932
# Shear Modulus (GPa) = 40.21851 51.77512 45.99681
#
# Velocity S-wave (km/s) = 3.83179 4.34759 4.09781
# Velocity P-wave (km/s) = 6.08918 7.41563 6.78489
#
# Compressibility (1/GPa) = 0.02085962
#
# Stress axis : x y z
#
# Youngs Moduli (GPa) = 164.40770 83.82994 83.69981
#
# Poissons Ratio (x) = 0.01537 0.05613
# Poissons Ratio (y) = 0.03014 0.30933
# Poissons Ratio (z) = 0.11025 0.30981
#
# Static dielectric constant tensor:
#      x y z
#    x 2.302970 -0.021030 0.019380 
#    y -0.021030 2.419070 -0.096630 
#    z 0.019380 -0.096630 2.243740 
# 
# From -- ./inp_files/507869.got.cif
#   From: 2010.05.17/outbox.cif.g08.bks.cpg/sg2_254_cif.got.tgz:507869.got - 2010.06.03 11:33:40.
