data_PCOD9087179
_publ_section_title
;
Structure prediction by ZEFSAII (Michael W. Deem and Ramdas Pophale) SiO2 
 PCOD9087179
Probable space group: P -1
;
_chemical_formula_sum "Si O2"
_cell_formula_units_Z 14
_cell_length_a 9.135889
_cell_length_b 15.697986
_cell_length_c 14.782917
_cell_angle_alpha 160.858081
_cell_angle_beta 88.920766
_cell_angle_gamma 90.922496
_cell_volume 695.065277
_symmetry_space_group_name_H-M "P -1"
_symmetry_group_IT_number 2
_symmetry_cell_setting 'triclinic'
loop_
_space_group_symop_operation_xyz
x,y,z
-x,-y,-z
loop_
_atom_site_type_symbol
_atom_site_label
_atom_site_fract_x
_atom_site_fract_y
_atom_site_fract_z
Si Si1 0.145722 0.674933 0.209282
Si Si2 0.781080 0.750099 0.972298
Si Si3 0.983057 0.824721 0.209721
Si Si4 0.530716 0.247150 0.686698
Si Si5 0.897647 0.750890 0.767671
Si Si6 0.573071 0.251758 0.495763
Si Si7 0.428443 0.252128 0.302221
O O1 0.296365 0.754645 0.329507
O O2 0.136804 0.734824 0.162023
O O3 0.036744 0.875600 0.462558
O O4 0.117069 0.375163 0.930372
O O5 0.837922 0.749812 0.869472
O O6 0.684215 0.495489 0.736867
O O7 0.922335 0.774216 0.060528
O O8 0.672741 0.992915 0.232325
O O9 0.476140 0.253747 0.590817
O O10 0.500000 0.000000 0.500000
O O11 0.500000 0.500000 0.000000
O O12 0.747752 0.749683 0.709347
O O13 0.000000 0.500000 0.500000
O O14 0.000000 0.000000 0.000000
O O15 0.476850 0.258265 0.412412
O O16 0.500000 0.500000 0.500000
O O17 0.500000 0.000000 0.000000
#
# Coordination Sequence:
#
# PCOD9087179 Si02
#       7
#     2   2   2   2   2   2   2
#     4  10  20  36  59  84 119 153 206 251 319 360
#     4  12  21  41  70  90 125 168 223 269 326 402
#     4  10  19  36  62  87 110 156 207 266 288 372
#     4  12  24  40  60  88 133 166 207 272 326 372
#     4  12  26  44  66  99 139 167 210 288 353 390
#     4  12  23  42  69  95 120 175 233 266 317 410
#     4  12  23  45  74  99 130 177 234 276 329 422
#
# _framework density 20.141991999999998
#
# number of rings (size 3 to 8) (size 9 to 14) (size 15 to 20)
#    0.000    0.571    5.714    3.429    0.000    0.000 
#    5.143    0.000    0.000    0.000    0.000    0.000 
#    0.000    0.000    0.000    0.000    0.000    0.000 
#
# Total GULP energy -78102.543595 kJ/mol
# GULP energy per Si atom -5578.753114 kJ/mol
# Density = 2.009615 g / cm^3
# Si number density = 20.141992 Si / 1000 Ang^3
#
#
#
# Elastic Constant Matrix: (Units=GPa)
#
#
# Indices 1 2 3 4 5 6 
#
# 1 71.0888 31.8531 33.8642 -0.4312 7.3688 -14.6344
# 2 31.8531 179.7480 58.3583 -21.4984 7.0300 -15.1226
# 3 33.8642 58.3583 164.2564 11.3591 4.9268 13.4932
# 4 -0.4312 -21.4984 11.3591 39.7235 2.5738 12.1690
# 5 7.3688 7.0300 4.9268 2.5738 37.4601 -3.9480
# 6 -14.6344 -15.1226 13.4932 12.1690 -3.9480 44.5842
#
#
#
# Elastic Compliance Matrix: (Units=1/GPa)
#
#
# Indices 1 2 3 4 5 6 
#
# 1 0.018042 -0.001598 -0.003534 -0.001586 -0.001968 0.006708
# 2 -0.001598 0.007408 -0.002704 0.004348 -0.000856 0.001544
# 3 -0.003534 -0.002704 0.008283 -0.002680 -0.000110 -0.003862
# 4 -0.001586 0.004348 -0.002680 0.030564 -0.002972 -0.006840
# 5 -0.001968 -0.000856 -0.000110 -0.002972 0.027710 0.002362
# 6 0.006708 0.001544 -0.003862 -0.006840 0.002362 0.028400
#
#
# Mechanical properties :
#
#
# Convention : Reuss Voigt Hill
#
# Bulk Modulus (GPa) = 55.37073 73.69382 64.53228
# Shear Modulus (GPa) = 35.18614 43.75474 39.47044
#
# Velocity S-wave (km/s) = 4.18413 4.66587 4.43155
# Velocity P-wave (km/s) = 7.13390 8.10516 7.63499
#
# Compressibility (1/GPa) = 0.01806008
#
# Stress axis : x y z
#
# Youngs Moduli (GPa) = 55.42643 134.99080 120.72312
#
# Poissons Ratio (x) = 0.21573 0.42666
# Poissons Ratio (y) = 0.08858 0.32647
# Poissons Ratio (z) = 0.19589 0.36505
#
# Static dielectric constant tensor:
#      x y z
#    x 1.768440 -0.042560 -0.010430 
#    y -0.042560 1.806870 -0.050930 
#    z -0.010430 -0.050930 1.747880 
# 
# From -- ./inp_files/504810.got.cif
#   From: 2010.05.17/outbox.cif.g08.bks.cpg/sg2_253_cif.got.tgz:504810.got - 2010.06.03 11:33:40.
