data_PCOD9087847
_publ_section_title
;
Structure prediction by ZEFSAII (Michael W. Deem and Ramdas Pophale) SiO2 
 PCOD9087847
Probable space group: P -1
;
_chemical_formula_sum "Si O2"
_cell_formula_units_Z 14
_cell_length_a 14.412125
_cell_length_b 13.493107
_cell_length_c 6.876428
_cell_angle_alpha 120.905549
_cell_angle_beta 103.108173
_cell_angle_gamma 37.533421
_cell_volume 655.994646
_symmetry_space_group_name_H-M "P -1"
_symmetry_group_IT_number 2
_symmetry_cell_setting 'triclinic'
loop_
_space_group_symop_operation_xyz
x,y,z
-x,-y,-z
loop_
_atom_site_type_symbol
_atom_site_label
_atom_site_fract_x
_atom_site_fract_y
_atom_site_fract_z
Si Si1 0.650570 0.586887 0.816508
Si Si2 0.041608 0.594980 0.311164
Si Si3 0.610742 0.267184 0.897931
Si Si4 0.521218 0.005400 0.741023
Si Si5 0.453987 0.463342 0.624993
Si Si6 0.779408 0.822660 0.110280
Si Si7 0.819239 0.861394 0.780532
O O1 0.841395 0.425434 0.750488
O O2 0.614825 0.576874 0.570597
O O3 0.564684 0.590449 0.940612
O O4 0.567875 0.790132 0.030494
O O5 0.126910 0.387493 0.118274
O O6 0.996312 0.666905 0.583209
O O7 0.866881 0.764674 0.294777
O O8 0.586361 0.294703 0.681199
O O9 0.730462 0.051864 0.817435
O O10 0.655935 0.345663 0.097027
O O11 0.500000 0.000000 0.500000
O O12 0.708914 0.852699 0.705080
O O13 0.412326 0.014304 0.800384
O O14 0.500000 0.500000 0.500000
O O15 0.815615 0.884670 0.032262
#
# Coordination Sequence:
#
# PCOD9087847 Si02
#       7
#     2   2   2   2   2   2   2
#     4   9  20  36  57  83 114 152 187 225 289 335
#     4  10  21  36  52  79 119 158 188 223 270 342
#     4   9  20  37  62  88 110 139 188 243 285 336
#     4  10  19  37  54  82 114 150 192 239 271 320
#     4   9  18  39  64  85 109 141 186 238 294 341
#     4  10  21  37  54  75 120 159 190 226 278 327
#     4  11  21  35  56  86 110 149 193 232 282 329
#
# _framework density 21.341636000000001
#
# number of rings (size 3 to 8) (size 9 to 14) (size 15 to 20)
#    0.000    2.286    1.429    0.857    0.000    4.571 
#   10.286    0.714    0.000    8.571    0.000    0.000 
#    0.000    0.000    0.000    0.000    0.000    0.000 
#
# Total GULP energy -77940.493596 kJ/mol
# GULP energy per Si atom -5567.178114 kJ/mol
# Density = 2.129306 g / cm^3
# Si number density = 21.341636 Si / 1000 Ang^3
#
#
#
# Elastic Constant Matrix: (Units=GPa)
#
#
# Indices 1 2 3 4 5 6 
#
# 1 48.7350 19.0623 34.8466 8.0700 -1.9414 1.4902
# 2 19.0623 67.0300 24.5500 -14.9404 1.7520 17.9803
# 3 34.8466 24.5500 107.4573 -9.4121 1.2123 9.5948
# 4 8.0700 -14.9404 -9.4121 32.6565 -4.0179 -12.1125
# 5 -1.9414 1.7520 1.2123 -4.0179 41.3433 -1.1975
# 6 1.4902 17.9803 9.5948 -12.1125 -1.1975 26.8006
#
#
#
# Elastic Compliance Matrix: (Units=1/GPa)
#
#
# Indices 1 2 3 4 5 6 
#
# 1 0.034268 -0.009780 -0.010359 -0.015260 0.000888 0.001508
# 2 -0.009780 0.022606 -0.000276 0.008614 -0.000881 -0.010670
# 3 -0.010359 -0.000276 0.013362 0.005698 -0.000355 -0.001463
# 4 -0.015260 0.008614 0.005698 0.045520 0.003574 0.013762
# 5 0.000888 -0.000881 -0.000355 0.003574 0.024723 0.003389
# 6 0.001508 -0.010670 -0.001463 0.013762 0.003389 0.051282
#
#
# Mechanical properties :
#
#
# Convention : Reuss Voigt Hill
#
# Bulk Modulus (GPa) = 34.00736 42.23780 38.12258
# Shear Modulus (GPa) = 20.62766 29.81098 25.21932
#
# Velocity S-wave (km/s) = 3.11230 3.74150 3.44131
# Velocity P-wave (km/s) = 5.37444 6.20478 5.80448
#
# Compressibility (1/GPa) = 0.02940540
#
# Stress axis : x y z
#
# Youngs Moduli (GPa) = 29.18203 44.23561 74.83807
#
# Poissons Ratio (x) = 0.43262 0.77527
# Poissons Ratio (y) = 0.28540 0.02066
# Poissons Ratio (z) = 0.30230 0.01221
#
# Static dielectric constant tensor:
#      x y z
#    x 1.860580 0.000460 0.013890 
#    y 0.000460 1.789780 -0.039020 
#    z 0.013890 -0.039020 1.812340 
# 
# From -- ./inp_files/44922.got.cif
#   From: 2010.05.17/outbox.cif.g08.bks.cpg/sg2_23_cif.got.tgz:44922.got - 2010.06.03 11:33:40.
