data_PCOD9087846
_publ_section_title
;
Structure prediction by ZEFSAII (Michael W. Deem and Ramdas Pophale) SiO2 
 PCOD9087846
Probable space group: P -1
;
_chemical_formula_sum "Si O2"
_cell_formula_units_Z 16
_cell_length_a 13.477673
_cell_length_b 25.482625
_cell_length_c 9.661197
_cell_angle_alpha 145.107000
_cell_angle_beta 134.429708
_cell_angle_gamma 26.318574
_cell_volume 833.419433
_symmetry_space_group_name_H-M "P -1"
_symmetry_group_IT_number 2
_symmetry_cell_setting 'triclinic'
loop_
_space_group_symop_operation_xyz
x,y,z
-x,-y,-z
loop_
_atom_site_type_symbol
_atom_site_label
_atom_site_fract_x
_atom_site_fract_y
_atom_site_fract_z
Si Si1 0.011214 0.809299 0.805580
Si Si2 0.599459 0.266288 0.027443
Si Si3 0.268130 0.145823 0.162317
Si Si4 0.389290 0.466364 0.523606
Si Si5 0.885163 0.463443 0.348492
Si Si6 0.551883 0.859396 0.405626
Si Si7 0.824656 0.818667 0.375644
Si Si8 0.694988 0.471692 0.916141
O O1 0.151467 0.829063 0.975734
O O2 0.199472 0.630169 0.619911
O O3 0.846110 0.881068 0.929188
O O4 0.879227 0.859581 0.643892
O O5 0.531558 0.342834 0.275992
O O6 0.429510 0.400040 0.040190
O O7 0.568203 0.174755 0.793850
O O8 0.318367 0.191541 0.434477
O O9 0.086872 0.285505 0.185797
O O10 0.500000 0.000000 0.000000
O O11 0.260330 0.464428 0.496037
O O12 0.549591 0.453578 0.736476
O O13 0.000000 0.500000 0.500000
O O14 0.724507 0.509405 0.169880
O O15 0.723443 0.783609 0.281061
O O16 0.367738 0.036064 0.591721
O O17 0.053640 0.680165 0.220354
#
# Coordination Sequence:
#
# PCOD9087846 Si02
#       8
#     2   2   2   2   2   2   2   2
#     4   9  18  37  60  83 111 150 187 229 277 345
#     4  11  20  37  61  89 114 142 190 239 282 327
#     4  10  21  42  58  76 114 160 187 221 290 342
#     4  10  20  38  58  86 117 151 181 231 294 335
#     4  11  24  37  56  87 117 145 195 238 273 331
#     4  10  23  34  56  84 116 145 190 237 275 329
#     4  10  19  37  54  82 112 150 187 224 285 335
#     4  11  20  37  62  81 113 152 190 227 287 339
#
# _framework density 19.198015999999999
#
# number of rings (size 3 to 8) (size 9 to 14) (size 15 to 20)
#    0.000    1.750    2.500    2.625    1.750    1.000 
#    0.000    0.625    0.000    0.000    0.000    0.000 
#    0.000    0.000    0.000    0.000    0.000    0.000 
#
# Total GULP energy -89342.895377 kJ/mol
# GULP energy per Si atom -5583.930961 kJ/mol
# Density = 1.915432 g / cm^3
# Si number density = 19.198016 Si / 1000 Ang^3
#
#
#
# Elastic Constant Matrix: (Units=GPa)
#
#
# Indices 1 2 3 4 5 6 
#
# 1 130.4866 18.1281 42.0189 -7.1297 13.8192 -23.8406
# 2 18.1281 46.6871 5.6360 -18.1146 -8.1439 -8.8847
# 3 42.0189 5.6360 51.9573 -20.5249 6.8915 -2.2386
# 4 -7.1297 -18.1146 -20.5249 30.1905 -10.0754 -8.8251
# 5 13.8192 -8.1439 6.8915 -10.0754 28.4362 -4.3329
# 6 -23.8406 -8.8847 -2.2386 -8.8251 -4.3329 32.9699
#
#
#
# Elastic Compliance Matrix: (Units=1/GPa)
#
#
# Indices 1 2 3 4 5 6 
#
# 1 0.017293 -0.023190 -0.022650 -0.035254 -0.023232 -0.007772
# 2 -0.023190 0.115006 0.058598 0.156967 0.096734 0.072929
# 3 -0.022650 0.058598 0.067241 0.105326 0.054812 0.039375
# 4 -0.035254 0.156967 0.105326 0.275824 0.152239 0.117796
# 5 -0.023232 0.096734 0.054812 0.152239 0.125520 0.070236
# 6 -0.007772 0.072929 0.039375 0.117796 0.070236 0.087798
#
#
# Mechanical properties :
#
#
# Convention : Reuss Voigt Hill
#
# Bulk Modulus (GPa) = 4.44335 40.07745 22.26040
# Shear Modulus (GPa) = 6.77338 29.20918 17.99128
#
# Velocity S-wave (km/s) = 1.88038 3.90483 3.06460
# Velocity P-wave (km/s) = 2.65216 6.42273 4.91352
#
# Compressibility (1/GPa) = 0.22505556
#
# Stress axis : x y z
#
# Youngs Moduli (GPa) = 57.82674 8.69523 14.87192
#
# Poissons Ratio (x) = 0.20165 0.33684
# Poissons Ratio (y) = 1.34103 -0.87146
# Poissons Ratio (z) = 1.30975 -0.50952
#
# Static dielectric constant tensor:
#      x y z
#    x 1.685720 -0.006740 -0.005500 
#    y -0.006740 1.660470 -0.015290 
#    z -0.005500 -0.015290 1.643140 
# 
# From -- ./inp_files/175358.got.cif
#   From: 2010.05.17/outbox.cif.g08.bks.cpg/sg2_88_cif.got.tgz:175358.got - 2010.06.03 11:33:40.
