data_PCOD9087471
_publ_section_title
;
Structure prediction by ZEFSAII (Michael W. Deem and Ramdas Pophale) SiO2 
 PCOD9087471
Probable space group: P -1
;
_chemical_formula_sum "Si O2"
_cell_formula_units_Z 14
_cell_length_a 14.412926
_cell_length_b 9.432545
_cell_length_c 9.025604
_cell_angle_alpha 147.304400
_cell_angle_beta 55.276823
_cell_angle_gamma 111.633363
_cell_volume 527.573381
_symmetry_space_group_name_H-M "P -1"
_symmetry_group_IT_number 2
_symmetry_cell_setting 'triclinic'
loop_
_space_group_symop_operation_xyz
x,y,z
-x,-y,-z
loop_
_atom_site_type_symbol
_atom_site_label
_atom_site_fract_x
_atom_site_fract_y
_atom_site_fract_z
Si Si1 0.082104 0.591128 0.679240
Si Si2 0.113385 0.771669 0.147530
Si Si3 0.176097 0.307247 0.924086
Si Si4 0.477923 0.165228 0.013602
Si Si5 0.736368 0.293471 0.617281
Si Si6 0.447384 0.726338 0.465054
Si Si7 0.751609 0.926343 0.857127
O O1 0.158497 0.712613 0.601450
O O2 0.133073 0.265474 0.349334
O O3 0.943927 0.657592 0.843358
O O4 0.098223 0.688821 0.918648
O O5 0.141153 0.504717 0.988139
O O6 0.215917 0.928445 0.188329
O O7 0.000000 0.000000 0.500000
O O8 0.264054 0.437501 0.052930
O O9 0.225387 0.988206 0.576561
O O10 0.479926 0.564168 0.799627
O O11 0.336567 0.267185 0.240535
O O12 0.500000 0.000000 0.000000
O O13 0.508022 0.962638 0.667754
O O14 0.612166 0.309589 0.667683
O O15 0.329040 0.839966 0.767505
#
# Coordination Sequence:
#
# PCOD9087471 Si02
#       7
#     2   2   2   2   2   2   2
#     4  12  22  41  59  80 124 168 212 253 299 341
#     4  12  24  40  57  84 125 172 210 251 296 347
#     4  12  27  35  58  88 120 166 217 243 285 359
#     4  10  19  36  63  97 118 142 196 260 313 360
#     4  12  23  42  57  87 121 167 202 254 294 356
#     4  10  20  38  60  88 123 152 185 251 318 347
#     4  10  21  36  64  84 122 158 198 248 313 341
#
# _framework density 26.536593
#
# number of rings (size 3 to 8) (size 9 to 14) (size 15 to 20)
#    0.857    0.000    4.286    4.286    2.000    0.000 
#    0.000    0.000    0.000    0.000    0.000    6.000 
#    0.000    0.000    0.000    0.000    0.000    0.000 
#
# Total GULP energy -78289.043993 kJ/mol
# GULP energy per Si atom -5592.074571 kJ/mol
# Density = 2.647619 g / cm^3
# Si number density = 26.536593 Si / 1000 Ang^3
#
#
#
# Elastic Constant Matrix: (Units=GPa)
#
#
# Indices 1 2 3 4 5 6 
#
# 1 42.5950 28.8419 25.1858 -8.1099 7.5398 -4.4854
# 2 28.8419 151.9295 53.3863 18.0497 3.8338 8.6248
# 3 25.1858 53.3863 139.7439 25.0819 8.7368 -1.1140
# 4 -8.1099 18.0497 25.0819 52.6904 -3.1571 -2.6034
# 5 7.5398 3.8338 8.7368 -3.1571 39.8389 -0.8148
# 6 -4.4854 8.6248 -1.1140 -2.6034 -0.8148 44.9934
#
#
#
# Elastic Compliance Matrix: (Units=1/GPa)
#
#
# Indices 1 2 3 4 5 6 
#
# 1 0.033587 -0.005851 -0.005286 0.009703 -0.003767 0.004832
# 2 -0.005851 0.008833 -0.001791 -0.003176 0.000347 -0.002498
# 3 -0.005286 -0.001791 0.009763 -0.004942 -0.001365 -0.000252
# 4 0.009703 -0.003176 -0.004942 0.024146 0.001525 0.002878
# 5 -0.003767 0.000347 -0.001365 0.001525 0.026203 0.000087
# 6 0.004832 -0.002498 -0.000252 0.002878 0.000087 0.023348
#
#
# Mechanical properties :
#
#
# Convention : Reuss Voigt Hill
#
# Bulk Modulus (GPa) = 37.98375 61.01070 49.49723
# Shear Modulus (GPa) = 31.15058 42.62818 36.88938
#
# Velocity S-wave (km/s) = 3.42990 4.01233 3.73249
# Velocity P-wave (km/s) = 5.48000 6.67129 6.10477
#
# Compressibility (1/GPa) = 0.02632705
#
# Stress axis : x y z
#
# Youngs Moduli (GPa) = 29.77353 113.21761 102.42509
#
# Poissons Ratio (x) = 0.66241 0.54139
# Poissons Ratio (y) = 0.17420 0.18348
# Poissons Ratio (z) = 0.15737 0.20282
#
# Static dielectric constant tensor:
#      x y z
#    x 2.189220 -0.003470 0.093240 
#    y -0.003470 2.128700 0.004510 
#    z 0.093240 0.004510 2.078040 
# 
# From -- ./inp_files/291337.got.cif
#   From: 2010.05.17/outbox.cif.g08.bks.cpg/sg2_146_cif.got.tgz:291337.got - 2010.06.03 11:33:40.
