data_PCOD9087261
_publ_section_title
;
Structure prediction by ZEFSAII (Michael W. Deem and Ramdas Pophale) SiO2 
 PCOD9087261
Probable space group: P -1
;
_chemical_formula_sum "Si O2"
_cell_formula_units_Z 16
_cell_length_a 9.140699
_cell_length_b 14.756143
_cell_length_c 15.554953
_cell_angle_alpha 153.168531
_cell_angle_beta 130.153030
_cell_angle_gamma 62.878000
_cell_volume 678.992127
_symmetry_space_group_name_H-M "P -1"
_symmetry_group_IT_number 2
_symmetry_cell_setting 'triclinic'
loop_
_space_group_symop_operation_xyz
x,y,z
-x,-y,-z
loop_
_atom_site_type_symbol
_atom_site_label
_atom_site_fract_x
_atom_site_fract_y
_atom_site_fract_z
Si Si1 0.738246 0.081738 0.183687
Si Si2 0.983276 0.842775 0.980059
Si Si3 0.370949 0.120090 0.437329
Si Si4 0.075273 0.491425 0.165319
Si Si5 0.834615 0.004880 0.347155
Si Si6 0.327751 0.505828 0.512002
Si Si7 0.457307 0.416201 0.157974
Si Si8 0.212255 0.880432 0.350230
O O1 0.788480 0.996163 0.219716
O O2 0.782704 0.330676 0.419065
O O3 0.869029 0.004302 0.101123
O O4 0.500000 0.000000 0.000000
O O5 0.946641 0.655925 0.881855
O O6 0.854234 0.720973 0.747105
O O7 0.221485 0.979355 0.188512
O O8 0.403643 0.369760 0.655906
O O9 0.588924 0.090884 0.495164
O O10 0.273178 0.028473 0.414296
O O11 0.118692 0.743639 0.403953
O O12 0.262584 0.467335 0.163172
O O13 0.876955 0.361830 0.924448
O O14 0.037631 0.944061 0.384755
O O15 0.633428 0.795554 0.114986
O O16 0.500000 0.500000 0.500000
O O17 0.424817 0.584908 0.708611
#
# Coordination Sequence:
#
# PCOD9087261 Si02
#       8
#     2   2   2   2   2   2   2   2
#     4  12  18  32  60  88 112 153 201 239 281 348
#     4  11  21  37  59  87 117 161 202 233 288 362
#     4  10  22  43  61  80 128 160 191 248 304 350
#     4  10  19  36  62  92 114 150 208 247 282 349
#     4  11  19  36  64  93 114 152 207 247 287 352
#     4  12  20  34  61  88 117 157 195 240 293 345
#     4  11  22  37  58  93 123 153 194 249 302 345
#     4   9  21  44  64  81 113 167 202 241 296 351
#
# _framework density 23.564339
#
# number of rings (size 3 to 8) (size 9 to 14) (size 15 to 20)
#    0.000    1.250    8.750    0.000    0.000    2.500 
#    0.000   13.750    0.000    0.000    0.000    0.000 
#    0.000    0.000    0.000    0.000    0.000    0.000 
#
# Total GULP energy -89327.173828 kJ/mol
# GULP energy per Si atom -5582.948364 kJ/mol
# Density = 2.351071 g / cm^3
# Si number density = 23.564339 Si / 1000 Ang^3
#
#
#
# Elastic Constant Matrix: (Units=GPa)
#
#
# Indices 1 2 3 4 5 6 
#
# 1 26.3211 31.2609 49.7379 -8.1077 -6.2168 -0.8953
# 2 31.2609 97.3015 46.0395 0.6842 8.2685 -18.5238
# 3 49.7379 46.0395 221.3027 1.4044 -3.9384 -21.2891
# 4 -8.1077 0.6842 1.4044 47.4440 -10.0504 17.0876
# 5 -6.2168 8.2685 -3.9384 -10.0504 34.7981 9.2879
# 6 -0.8953 -18.5238 -21.2891 17.0876 9.2879 31.8440
#
#
#
# Elastic Compliance Matrix: (Units=1/GPa)
#
#
# Indices 1 2 3 4 5 6 
#
# 1 -0.123731 0.058315 0.026110 -0.084685 -0.089334 0.119398
# 2 0.058315 -0.012837 -0.014138 0.032741 0.032633 -0.042367
# 3 0.026110 -0.014138 -0.000299 0.016552 0.018646 -0.022010
# 4 -0.084685 0.032741 0.016552 -0.021444 -0.040885 0.051162
# 5 -0.089334 0.032633 0.018646 -0.040885 -0.019795 0.056649
# 6 0.119398 -0.042367 -0.022010 0.051162 0.056649 -0.048577
#
#
# Mechanical properties :
#
#
# Convention : Reuss Voigt Hill
#
# Bulk Modulus (GPa) = 269.77807 66.55577 168.16692
# Shear Modulus (GPa) = -13.66037 37.34302 11.84132
#
# Velocity S-wave (km/s) = -2.41032 3.98518 2.24411
# Velocity P-wave (km/s) = 10.34350 7.03428 8.84503
#
# Compressibility (1/GPa) = 0.00370675
#
# Stress axis : x y z
#
# Youngs Moduli (GPa) = -8.08202 -77.89834 -3345.51644
#
# Poissons Ratio (x) = 4.54265 87.35310
# Poissons Ratio (y) = 0.47130 -47.30030
# Poissons Ratio (z) = 0.21103 -1.10136
#
# Static dielectric constant tensor:
#      x y z
#    x 1.914850 0.099540 0.141890 
#    y 0.099540 1.997600 0.146280 
#    z 0.141890 0.146280 2.573980 
# 
# From -- ./inp_files/595888.got.cif
#   From: 2010.05.17/outbox.cif.g08.bks.cpg/sg2_298_cif.got.tgz:595888.got - 2010.06.03 11:33:40.
