data_PCOD9087637
_publ_section_title
;
Structure prediction by ZEFSAII (Michael W. Deem and Ramdas Pophale) SiO2 
 PCOD9087637
Probable space group: P -1
;
_chemical_formula_sum "Si O2"
_cell_formula_units_Z 16
_cell_length_a 9.030955
_cell_length_b 11.203833
_cell_length_c 9.623240
_cell_angle_alpha 101.196388
_cell_angle_beta 95.041540
_cell_angle_gamma 54.056876
_cell_volume 772.880102
_symmetry_space_group_name_H-M "P -1"
_symmetry_group_IT_number 2
_symmetry_cell_setting 'triclinic'
loop_
_space_group_symop_operation_xyz
x,y,z
-x,-y,-z
loop_
_atom_site_type_symbol
_atom_site_label
_atom_site_fract_x
_atom_site_fract_y
_atom_site_fract_z
Si Si1 0.802063 0.955600 0.738607
Si Si2 0.097267 0.074074 0.960385
Si Si3 0.820318 0.486944 0.364797
Si Si4 0.554297 0.472853 0.158135
Si Si5 0.156627 0.770602 0.543368
Si Si6 0.748539 0.725242 0.617707
Si Si7 0.802868 0.228301 0.754272
Si Si8 0.399835 0.799928 0.750164
O O1 0.712329 0.886680 0.633960
O O2 0.001766 0.872619 0.667160
O O3 0.728963 0.127862 0.762010
O O4 0.824987 0.902761 0.888492
O O5 0.935467 0.208174 0.884569
O O6 0.263204 0.961153 0.845954
O O7 0.000000 0.000000 0.000000
O O8 0.715568 0.486317 0.221718
O O9 0.790296 0.394085 0.456449
O O10 0.743213 0.647946 0.459382
O O11 0.039398 0.391086 0.342841
O O12 0.370526 0.604473 0.248835
O O13 0.603124 0.314615 0.174193
O O14 0.500000 0.500000 0.000000
O O15 0.090487 0.822605 0.394064
O O16 0.318067 0.786293 0.596413
O O17 0.601818 0.748207 0.721255
#
# Coordination Sequence:
#
# PCOD9087637 Si02
#       8
#     2   2   2   2   2   2   2   2
#     4  10  21  37  61  84 123 166 193 240 311 358
#     4  10  20  37  60  88 121 156 200 247 303 356
#     4   9  21  41  61  87 120 167 199 244 306 358
#     4  11  23  38  66  90 119 153 209 257 300 346
#     4  10  19  36  65  87 115 152 215 251 287 348
#     4  10  21  38  64  82 124 166 200 236 301 377
#     4  11  21  34  63  96 116 150 209 262 293 345
#     4  11  21  38  63  90 115 161 206 248 296 358
#
# _framework density 20.701788000000001
#
# number of rings (size 3 to 8) (size 9 to 14) (size 15 to 20)
#    0.000    1.750    2.500    3.375    3.500    2.500 
#    0.000    3.125   13.750    0.000    0.000    0.000 
#    0.000    0.000    0.000    0.000    0.000    0.000 
#
# Total GULP energy -89260.028812 kJ/mol
# GULP energy per Si atom -5578.751801 kJ/mol
# Density = 2.065467 g / cm^3
# Si number density = 20.701788 Si / 1000 Ang^3
#
#
#
# Elastic Constant Matrix: (Units=GPa)
#
#
# Indices 1 2 3 4 5 6 
#
# 1 90.7834 1.7803 32.1562 10.7579 4.2543 -12.2305
# 2 1.7803 32.9714 -1.6974 5.3788 6.4163 -1.6133
# 3 32.1562 -1.6974 82.7742 -10.9874 7.4634 -2.2725
# 4 10.7579 5.3788 -10.9874 33.0727 -6.1905 2.9795
# 5 4.2543 6.4163 7.4634 -6.1905 22.1235 11.4333
# 6 -12.2305 -1.6133 -2.2725 2.9795 11.4333 27.4528
#
#
#
# Elastic Compliance Matrix: (Units=1/GPa)
#
#
# Indices 1 2 3 4 5 6 
#
# 1 0.017227 0.003879 -0.006682 -0.012113 -0.012807 0.013998
# 2 0.003879 0.037429 0.000014 -0.012978 -0.022931 0.014888
# 3 -0.006682 0.000014 0.015678 0.007417 -0.000827 -0.002139
# 4 -0.012113 -0.012978 0.007417 0.045970 0.027904 -0.022155
# 5 -0.012807 -0.022931 -0.000827 0.027904 0.086200 -0.046050
# 6 0.013998 0.014888 -0.002139 -0.022155 -0.046050 0.064943
#
#
# Mechanical properties :
#
#
# Convention : Reuss Voigt Hill
#
# Bulk Modulus (GPa) = 15.44240 30.11192 22.77716
# Shear Modulus (GPa) = 16.97166 28.14913 22.56039
#
# Velocity S-wave (km/s) = 2.86635 3.69147 3.30476
# Velocity P-wave (km/s) = 4.29305 5.72245 5.05849
#
# Compressibility (1/GPa) = 0.06475679
#
# Stress axis : x y z
#
# Youngs Moduli (GPa) = 58.04753 26.71749 63.78561
#
# Poissons Ratio (x) = -0.10364 0.42619
# Poissons Ratio (y) = -0.22517 -0.00091
# Poissons Ratio (z) = 0.38785 -0.00038
#
# Static dielectric constant tensor:
#      x y z
#    x 1.762410 -0.006080 0.031740 
#    y -0.006080 1.819980 0.043510 
#    z 0.031740 0.043510 1.783230 
# 
# From -- ./inp_files/188530.got.cif
#   From: 2010.05.17/outbox.cif.g08.bks.cpg/sg2_95_cif.got.tgz:188530.got - 2010.06.03 11:33:40.
