data_PCOD9087142
_publ_section_title
;
Structure prediction by ZEFSAII (Michael W. Deem and Ramdas Pophale) SiO2 
 PCOD9087142
Probable space group: P -1
;
_chemical_formula_sum "Si O2"
_cell_formula_units_Z 14
_cell_length_a 7.284798
_cell_length_b 17.707172
_cell_length_c 13.270995
_cell_angle_alpha 28.699024
_cell_angle_beta 139.328119
_cell_angle_gamma 138.481961
_cell_volume 516.349613
_symmetry_space_group_name_H-M "P -1"
_symmetry_group_IT_number 2
_symmetry_cell_setting 'triclinic'
loop_
_space_group_symop_operation_xyz
x,y,z
-x,-y,-z
loop_
_atom_site_type_symbol
_atom_site_label
_atom_site_fract_x
_atom_site_fract_y
_atom_site_fract_z
Si Si1 0.180290 0.034431 0.185472
Si Si2 0.151204 0.327634 0.725800
Si Si3 0.242579 0.875553 0.938386
Si Si4 0.857661 0.634514 0.906747
Si Si5 0.243297 0.288047 0.602219
Si Si6 0.610692 0.324772 0.075866
Si Si7 0.468372 0.246876 0.535986
O O1 0.470571 0.131265 0.252479
O O2 0.919338 0.077793 0.087593
O O3 0.194900 0.141773 0.964543
O O4 0.075469 0.841799 0.363238
O O5 0.250447 0.403119 0.568641
O O6 0.185531 0.684276 0.383457
O O7 0.361129 0.389062 0.836839
O O8 0.997669 0.740793 0.934826
O O9 0.371034 0.048681 0.733885
O O10 0.494861 0.794568 0.168994
O O11 0.634008 0.710083 0.665337
O O12 0.129700 0.654005 0.920490
O O13 0.712464 0.439944 0.079277
O O14 0.290873 0.314777 0.471146
#
# Coordination Sequence:
#
# PCOD9087142 Si02
#       7
#     2   2   2   2   2   2   2
#     4   9  18  34  60  85 105 145 206 224 263 350
#     4  10  19  36  62  84 109 155 191 228 281 332
#     4  11  18  37  61  85 115 153 182 235 295 337
#     4  11  23  38  57  79 125 149 186 238 285 333
#     4  11  18  36  64  85 115 148 190 235 284 340
#     4   9  21  40  58  77 111 166 190 216 286 353
#     4  11  23  37  57  96 113 139 193 250 278 327
#
# _framework density 27.113413999999999
#
# number of rings (size 3 to 8) (size 9 to 14) (size 15 to 20)
#    0.857    0.857    4.286    1.714    2.000    1.143 
#    2.571    2.143    0.000    0.000    0.000    0.000 
#    0.000    0.000    0.000    0.000    0.000    0.000 
#
# Total GULP energy -78265.077204 kJ/mol
# GULP energy per Si atom -5590.362657 kJ/mol
# Density = 2.705170 g / cm^3
# Si number density = 27.113414 Si / 1000 Ang^3
#
#
#
# Elastic Constant Matrix: (Units=GPa)
#
#
# Indices 1 2 3 4 5 6 
#
# 1 93.1897 11.0767 7.0103 6.1476 -2.6585 -2.4848
# 2 11.0767 181.4851 26.8415 10.8566 -0.4686 -2.1717
# 3 7.0103 26.8415 83.7883 5.0020 -8.0007 7.9448
# 4 6.1476 10.8566 5.0020 26.7891 1.3504 1.4617
# 5 -2.6585 -0.4686 -8.0007 1.3504 32.1133 1.4066
# 6 -2.4848 -2.1717 7.9448 1.4617 1.4066 48.1841
#
#
#
# Elastic Compliance Matrix: (Units=1/GPa)
#
#
# Indices 1 2 3 4 5 6 
#
# 1 0.011024 -0.000430 -0.000635 -0.002316 0.000815 0.000700
# 2 -0.000430 0.005933 -0.001839 -0.001979 -0.000351 0.000619
# 3 -0.000635 -0.001839 0.013219 -0.001620 0.003385 -0.002345
# 4 -0.002316 -0.001979 -0.001620 0.039135 -0.002223 -0.001064
# 5 0.000815 -0.000351 0.003385 -0.002223 0.032200 -0.001404
# 6 0.000700 0.000619 -0.002345 -0.001064 -0.001404 0.021278
#
#
# Mechanical properties :
#
#
# Convention : Reuss Voigt Hill
#
# Bulk Modulus (GPa) = 41.03479 49.81336 45.42407
# Shear Modulus (GPa) = 36.57109 42.31960 39.44534
#
# Velocity S-wave (km/s) = 3.67661 3.95503 3.81836
# Velocity P-wave (km/s) = 5.76113 6.26645 6.01910
#
# Compressibility (1/GPa) = 0.02436957
#
# Stress axis : x y z
#
# Youngs Moduli (GPa) = 90.70788 168.54479 75.64702
#
# Poissons Ratio (x) = 0.07246 0.04803
# Poissons Ratio (y) = 0.03900 0.13910
# Poissons Ratio (z) = 0.05760 0.30992
#
# Static dielectric constant tensor:
#      x y z
#    x 2.090520 0.030020 -0.049510 
#    y 0.030020 2.242070 -0.112640 
#    z -0.049510 -0.112640 2.161070 
# 
# From -- ./inp_files/507261.got.cif
#   From: 2010.05.17/outbox.cif.g08.bks.cpg/sg2_254_cif.got.tgz:507261.got - 2010.06.03 11:33:40.
