data_PCOD9087409
_publ_section_title
;
Structure prediction by ZEFSAII (Michael W. Deem and Ramdas Pophale) SiO2 
 PCOD9087409
Probable space group: P -1
;
_chemical_formula_sum "Si O2"
_cell_formula_units_Z 14
_cell_length_a 8.695129
_cell_length_b 11.297179
_cell_length_c 23.973298
_cell_angle_alpha 157.313179
_cell_angle_beta 42.115471
_cell_angle_gamma 128.431778
_cell_volume 590.876459
_symmetry_space_group_name_H-M "P -1"
_symmetry_group_IT_number 2
_symmetry_cell_setting 'triclinic'
loop_
_space_group_symop_operation_xyz
x,y,z
-x,-y,-z
loop_
_atom_site_type_symbol
_atom_site_label
_atom_site_fract_x
_atom_site_fract_y
_atom_site_fract_z
Si Si1 0.280817 0.441105 0.141449
Si Si2 0.052455 0.218333 0.407813
Si Si3 0.341460 0.128870 0.652793
Si Si4 0.973651 0.403141 0.314847
Si Si5 0.560952 0.937168 0.630146
Si Si6 0.322154 0.817249 0.997378
Si Si7 0.428462 0.166580 0.877388
O O1 0.110641 0.398077 0.217968
O O2 0.551176 0.293658 0.025979
O O3 0.268680 0.814884 0.301807
O O4 0.241436 0.248161 0.013191
O O5 0.957830 0.364530 0.556644
O O6 0.000000 0.500000 0.500000
O O7 0.911786 0.954232 0.318331
O O8 0.333450 0.087375 0.279611
O O9 0.316502 0.501209 0.828495
O O10 0.500000 0.000000 0.500000
O O11 0.461609 0.972083 0.609841
O O12 0.706879 0.582328 0.449229
O O13 0.071138 0.065331 0.171183
O O14 0.377183 0.063985 0.784766
O O15 0.500000 0.000000 0.000000
O O16 0.500000 0.500000 0.000000
#
# Coordination Sequence:
#
# PCOD9087409 Si02
#       7
#     2   2   2   2   2   2   2
#     4   9  16  31  58  87 119 162 205 243 298 369
#     4  11  23  41  64  91 125 166 205 250 309 369
#     4  11  23  41  65  93 124 163 208 252 304 370
#     4  10  19  36  63  91 118 159 207 254 302 359
#     4   9  19  35  57  89 122 155 201 257 306 357
#     4   9  18  34  59  91 121 154 198 251 300 353
#     4   9  19  36  58  88 123 163 202 249 309 363
#
# _framework density 23.693615999999999
#
# number of rings (size 3 to 8) (size 9 to 14) (size 15 to 20)
#    0.000    2.286    0.000    3.857    0.000    3.429 
#    0.000   16.429    0.000    1.714    0.000    0.000 
#    0.000    0.000    0.000    0.000    0.000    0.000 
#
# Total GULP energy -78190.340760 kJ/mol
# GULP energy per Si atom -5585.024340 kJ/mol
# Density = 2.363969 g / cm^3
# Si number density = 23.693616 Si / 1000 Ang^3
#
#
#
# Elastic Constant Matrix: (Units=GPa)
#
#
# Indices 1 2 3 4 5 6 
#
# 1 95.6616 41.3975 52.9457 -2.8576 7.7619 -15.5977
# 2 41.3975 73.7060 34.7959 -5.7013 13.4847 -11.7190
# 3 52.9457 34.7959 128.5291 2.2253 7.8587 -21.0091
# 4 -2.8576 -5.7013 2.2253 55.3649 -22.6086 11.3596
# 5 7.7619 13.4847 7.8587 -22.6086 40.4720 -2.5867
# 6 -15.5977 -11.7190 -21.0091 11.3596 -2.5867 42.8706
#
#
#
# Elastic Compliance Matrix: (Units=1/GPa)
#
#
# Indices 1 2 3 4 5 6 
#
# 1 0.016140 -0.006645 -0.004559 0.000008 0.000125 0.001827
# 2 -0.006645 0.019355 -0.001877 -0.000736 -0.005104 0.001841
# 3 -0.004559 -0.001877 0.010911 -0.002306 -0.001671 0.003685
# 4 0.000008 -0.000736 -0.002306 0.025459 0.014453 -0.007202
# 5 0.000125 -0.005104 -0.001671 0.014453 0.034533 -0.003915
# 6 0.001827 0.001841 0.003685 -0.007202 -0.003915 0.027972
#
#
# Mechanical properties :
#
#
# Convention : Reuss Voigt Hill
#
# Bulk Modulus (GPa) = 49.39546 61.79724 55.59635
# Shear Modulus (GPa) = 29.88989 38.99200 34.44095
#
# Velocity S-wave (km/s) = 3.55564 4.06109 3.81674
# Velocity P-wave (km/s) = 6.14407 6.93746 6.55278
#
# Compressibility (1/GPa) = 0.02024478
#
# Stress axis : x y z
#
# Youngs Moduli (GPa) = 61.95661 51.66610 91.65039
#
# Poissons Ratio (x) = 0.34331 0.41783
# Poissons Ratio (y) = 0.41169 0.17203
# Poissons Ratio (z) = 0.28246 0.09698
#
# Static dielectric constant tensor:
#      x y z
#    x 1.969900 -0.009360 -0.012270 
#    y -0.009360 1.933870 -0.024200 
#    z -0.012270 -0.024200 1.907300 
# 
# From -- ./inp_files/240706.got.cif
#   From: 2010.05.17/outbox.cif.g08.bks.cpg/sg2_121_cif.got.tgz:240706.got - 2010.06.03 11:33:40.
