data_PCOD9087467
_publ_section_title
;
Structure prediction by ZEFSAII (Michael W. Deem and Ramdas Pophale) SiO2 
 PCOD9087467
Probable space group: P -1
;
_chemical_formula_sum "Si O2"
_cell_formula_units_Z 16
_cell_length_a 16.020378
_cell_length_b 16.670201
_cell_length_c 12.674698
_cell_angle_alpha 142.058011
_cell_angle_beta 36.751681
_cell_angle_gamma 154.380719
_cell_volume 846.623147
_symmetry_space_group_name_H-M "P -1"
_symmetry_group_IT_number 2
_symmetry_cell_setting 'triclinic'
loop_
_space_group_symop_operation_xyz
x,y,z
-x,-y,-z
loop_
_atom_site_type_symbol
_atom_site_label
_atom_site_fract_x
_atom_site_fract_y
_atom_site_fract_z
Si Si1 0.683181 0.733589 0.271072
Si Si2 0.056956 0.796905 0.014856
Si Si3 0.001599 0.353374 0.308438
Si Si4 0.558997 0.398321 0.942047
Si Si5 0.183549 0.028439 0.809004
Si Si6 0.854089 0.515919 0.127469
Si Si7 0.386753 0.466281 0.473109
Si Si8 0.462673 0.235029 0.090358
O O1 0.890429 0.796040 0.154989
O O2 0.751212 0.900794 0.304332
O O3 0.543306 0.652446 0.432043
O O4 0.551118 0.544519 0.134345
O O5 0.969455 0.669362 0.075385
O O6 0.063171 0.710976 0.815153
O O7 0.281834 0.007795 0.027894
O O8 0.238213 0.473952 0.199214
O O9 0.000000 0.500000 0.500000
O O10 0.874181 0.159867 0.303056
O O11 0.368717 0.203778 0.876290
O O12 0.583663 0.336760 0.963463
O O13 0.000000 0.000000 0.000000
O O14 0.801445 0.575740 0.340678
O O15 0.631453 0.325478 0.104230
O O16 0.000000 0.500000 0.000000
O O17 0.500000 0.500000 0.500000
O O18 0.351599 0.300585 0.284811
#
# Coordination Sequence:
#
# PCOD9087467 Si02
#       8
#     2   2   2   2   2   2   2   2
#     4  10  19  36  63  96 124 155 212 277 314 359
#     4  11  20  41  67  86 122 169 214 258 323 382
#     4  11  24  41  61  90 130 174 208 253 326 391
#     4  10  19  38  62  88 124 166 206 259 317 374
#     4  12  21  36  64  98 121 161 217 263 308 376
#     4  11  23  42  62  89 130 167 207 266 326 382
#     4   9  18  39  64  91 121 162 210 265 320 370
#     4  10  19  38  69  90 116 166 216 260 317 381
#
# _framework density 18.898610000000001
#
# number of rings (size 3 to 8) (size 9 to 14) (size 15 to 20)
#    0.000    1.500    8.750    0.375    0.000    1.500 
#    2.250    0.000    0.000    0.000    0.000    0.000 
#    0.000    0.000    0.000    0.000    0.000    0.000 
#
# Total GULP energy -89196.525132 kJ/mol
# GULP energy per Si atom -5574.782821 kJ/mol
# Density = 1.885560 g / cm^3
# Si number density = 18.898610 Si / 1000 Ang^3
#
#
#
# Elastic Constant Matrix: (Units=GPa)
#
#
# Indices 1 2 3 4 5 6 
#
# 1 84.8853 52.5511 43.8767 -1.6516 -1.5838 -9.0295
# 2 52.5511 151.6004 52.8500 8.4043 9.9693 -10.4982
# 3 43.8767 52.8500 83.2278 -6.2721 -2.7597 -17.9934
# 4 -1.6516 8.4043 -6.2721 22.7122 -4.2048 10.5726
# 5 -1.5838 9.9693 -2.7597 -4.2048 18.9975 -6.7060
# 6 -9.0295 -10.4982 -17.9934 10.5726 -6.7060 42.1165
#
#
#
# Elastic Compliance Matrix: (Units=1/GPa)
#
#
# Indices 1 2 3 4 5 6 
#
# 1 0.017840 -0.004213 -0.006483 0.001600 0.003147 0.000105
# 2 -0.004213 0.010996 -0.005624 -0.007498 -0.008617 -0.000055
# 3 -0.006483 -0.005624 0.021090 0.006272 0.009008 0.006078
# 4 0.001600 -0.007498 0.006272 0.056192 0.013609 -0.010786
# 5 0.003147 -0.008617 0.009008 0.013609 0.065032 0.009314
# 6 0.000105 -0.000055 0.006078 -0.010786 0.009314 0.030540
#
#
# Mechanical properties :
#
#
# Convention : Reuss Voigt Hill
#
# Bulk Modulus (GPa) = 57.84742 68.69655 63.27199
# Shear Modulus (GPa) = 20.82545 28.12762 24.47653
#
# Velocity S-wave (km/s) = 3.32317 3.86209 3.60272
# Velocity P-wave (km/s) = 6.73799 7.50444 7.13152
#
# Compressibility (1/GPa) = 0.01728685
#
# Stress axis : x y z
#
# Youngs Moduli (GPa) = 56.05239 90.94370 47.41686
#
# Poissons Ratio (x) = 0.38312 0.30738
# Poissons Ratio (y) = 0.23613 0.26668
# Poissons Ratio (z) = 0.36336 0.51148
#
# Static dielectric constant tensor:
#      x y z
#    x 1.686570 -0.007620 0.021700 
#    y -0.007620 1.666290 0.009400 
#    z 0.021700 0.009400 1.715930 
# 
# From -- ./inp_files/294055.got.cif
#   From: 2010.05.17/outbox.cif.g08.bks.cpg/sg2_148_cif.got.tgz:294055.got - 2010.06.03 11:33:40.
