data_PCOD9087876
_publ_section_title
;
Structure prediction by ZEFSAII (Michael W. Deem and Ramdas Pophale) SiO2 
 PCOD9087876
Probable space group: P -1
;
_chemical_formula_sum "Si O2"
_cell_formula_units_Z 16
_cell_length_a 11.349533
_cell_length_b 11.064172
_cell_length_c 17.753252
_cell_angle_alpha 139.844900
_cell_angle_beta 44.413501
_cell_angle_gamma 106.006225
_cell_volume 805.818021
_symmetry_space_group_name_H-M "P -1"
_symmetry_group_IT_number 2
_symmetry_cell_setting 'triclinic'
loop_
_space_group_symop_operation_xyz
x,y,z
-x,-y,-z
loop_
_atom_site_type_symbol
_atom_site_label
_atom_site_fract_x
_atom_site_fract_y
_atom_site_fract_z
Si Si1 0.582165 0.979781 0.175910
Si Si2 0.818070 0.023840 0.293707
Si Si3 0.986693 0.706160 0.282649
Si Si4 0.705631 0.202008 0.591241
Si Si5 0.271387 0.300200 0.865486
Si Si6 0.148225 0.897520 0.955849
Si Si7 0.625951 0.643301 0.431187
Si Si8 0.373401 0.447257 0.088980
O O1 0.694389 0.827265 0.129179
O O2 0.724699 0.994653 0.058602
O O3 0.428124 0.240182 0.405100
O O4 0.513623 0.829925 0.098656
O O5 0.807296 0.132893 0.430087
O O6 0.589118 0.202805 0.444675
O O7 0.833911 0.786700 0.179310
O O8 0.004240 0.969622 0.129168
O O9 0.136926 0.585957 0.229176
O O10 0.811938 0.660776 0.331505
O O11 0.139616 0.570050 0.076875
O O12 0.865338 0.982553 0.467774
O O13 0.494248 0.217007 0.692545
O O14 0.644859 0.439004 0.768742
O O15 0.291457 0.620339 0.743975
O O16 0.000000 0.000000 0.000000
O O17 0.500000 0.500000 0.000000
#
# Coordination Sequence:
#
# PCOD9087876 Si02
#       8
#     2   2   2   2   2   2   2   2
#     4  10  20  36  62  88 114 155 201 253 287 343
#     4  11  24  38  58  93 128 160 192 246 310 365
#     4  11  20  35  64  91 117 159 203 243 303 351
#     4  12  23  38  61  87 128 165 195 244 302 361
#     4  10  19  37  55  89 123 148 195 250 297 351
#     4  12  21  39  62  90 123 154 203 250 299 359
#     4  11  21  38  64  94 119 151 201 248 315 348
#     4  11  21  42  61  87 123 158 208 249 286 355
#
# _framework density 19.855599999999999
#
# number of rings (size 3 to 8) (size 9 to 14) (size 15 to 20)
#    0.000    1.000    8.750    1.875    0.000    1.500 
#    0.000    0.625    0.000    0.750    0.000    0.000 
#    0.000    0.000    0.000    0.000    0.000    0.000 
#
# Total GULP energy -89220.533080 kJ/mol
# GULP energy per Si atom -5576.283317 kJ/mol
# Density = 1.981041 g / cm^3
# Si number density = 19.855600 Si / 1000 Ang^3
#
#
#
# Elastic Constant Matrix: (Units=GPa)
#
#
# Indices 1 2 3 4 5 6 
#
# 1 36.3588 28.5121 28.1228 -2.2491 30.6297 10.2448
# 2 28.5121 76.0429 39.0196 -10.3305 8.7038 23.0141
# 3 28.1228 39.0196 95.2290 -21.9161 21.9390 9.4940
# 4 -2.2491 -10.3305 -21.9161 25.4387 -0.6197 1.0664
# 5 30.6297 8.7038 21.9390 -0.6197 41.7283 2.1787
# 6 10.2448 23.0141 9.4940 1.0664 2.1787 19.2977
#
#
#
# Elastic Compliance Matrix: (Units=1/GPa)
#
#
# Indices 1 2 3 4 5 6 
#
# 1 0.145890 -0.035236 -0.006549 -0.008496 -0.095325 -0.020976
# 2 -0.035236 0.034168 -0.004584 0.008313 0.022460 -0.022781
# 3 -0.006549 -0.004584 0.018206 0.013171 -0.003596 -0.000335
# 4 -0.008496 0.008313 0.013171 0.053880 -0.000851 -0.014764
# 5 -0.095325 0.022460 -0.003596 -0.000851 0.090323 0.015440
# 6 -0.020976 -0.022781 -0.000335 -0.014764 0.015440 0.089361
#
#
# Mechanical properties :
#
#
# Convention : Reuss Voigt Hill
#
# Bulk Modulus (GPa) = 9.47638 44.32665 26.90151
# Shear Modulus (GPa) = 8.93268 24.75803 16.84535
#
# Velocity S-wave (km/s) = 2.12334 3.53498 2.91588
# Velocity P-wave (km/s) = 3.28549 6.24776 4.99144
#
# Compressibility (1/GPa) = 0.10552555
#
# Stress axis : x y z
#
# Youngs Moduli (GPa) = 6.85446 29.26752 54.92555
#
# Poissons Ratio (x) = 1.03127 0.35972
# Poissons Ratio (y) = 0.24152 0.25180
# Poissons Ratio (z) = 0.04489 0.13417
#
# Static dielectric constant tensor:
#      x y z
#    x 1.743400 0.026430 -0.004300 
#    y 0.026430 1.789850 0.047900 
#    z -0.004300 0.047900 1.786560 
# 
# From -- ./inp_files/568870.got.cif
#   From: 2010.05.17/outbox.cif.g08.bks.cpg/sg2_285_cif.got.tgz:568870.got - 2010.06.03 11:33:40.
