data_PCOD9087602
_publ_section_title
;
Structure prediction by ZEFSAII (Michael W. Deem and Ramdas Pophale) SiO2 
 PCOD9087602
Probable space group: P -1
;
_chemical_formula_sum "Si O2"
_cell_formula_units_Z 14
_cell_length_a 17.791572
_cell_length_b 17.616692
_cell_length_c 8.893604
_cell_angle_alpha 38.651736
_cell_angle_beta 154.079246
_cell_angle_gamma 149.203044
_cell_volume 623.429515
_symmetry_space_group_name_H-M "P -1"
_symmetry_group_IT_number 2
_symmetry_cell_setting 'triclinic'
loop_
_space_group_symop_operation_xyz
x,y,z
-x,-y,-z
loop_
_atom_site_type_symbol
_atom_site_label
_atom_site_fract_x
_atom_site_fract_y
_atom_site_fract_z
Si Si1 0.896306 0.029744 0.627760
Si Si2 0.344522 0.589152 0.687002
Si Si3 0.798107 0.737128 0.420270
Si Si4 0.398191 0.254347 0.653646
Si Si5 0.194814 0.671148 0.551244
Si Si6 0.935868 0.286081 0.473326
Si Si7 0.720182 0.445574 0.720730
O O1 0.851093 0.142658 0.443420
O O2 0.052323 0.117401 0.633324
O O3 0.704035 0.879714 0.440851
O O4 0.000000 0.000000 0.000000
O O5 0.250929 0.668686 0.483337
O O6 0.353717 0.609513 0.494903
O O7 0.183224 0.412449 0.702686
O O8 0.571353 0.652266 0.063243
O O9 0.767705 0.761390 0.501646
O O10 0.864426 0.623248 0.704805
O O11 0.529400 0.400128 0.560771
O O12 0.582458 0.270639 0.060969
O O13 0.118184 0.754036 0.384747
O O14 0.000000 0.500000 0.500000
O O15 0.832211 0.370035 0.099359
#
# Coordination Sequence:
#
# PCOD9087602 Si02
#       7
#     2   2   2   2   2   2   2
#     4  12  26  43  62  90 134 178 213 254 317 393
#     4  10  19  36  64  96 125 158 210 265 318 369
#     4  11  23  41  66  94 129 166 215 266 315 378
#     4  10  23  41  64  95 130 170 210 258 323 383
#     4   8  18  38  62  93 127 158 204 264 317 370
#     4  10  22  40  63  94 128 163 213 267 323 373
#     4  11  21  38  68 100 121 160 214 276 317 367
#
# _framework density 22.456427000000001
#
# number of rings (size 3 to 8) (size 9 to 14) (size 15 to 20)
#    0.000    1.714    1.429    2.571    2.000    2.286 
#    7.714    1.429    0.000    6.857    0.000    0.000 
#    0.000    0.000    0.000    0.000    0.000    0.000 
#
# Total GULP energy -78127.700075 kJ/mol
# GULP energy per Si atom -5580.550005 kJ/mol
# Density = 2.240532 g / cm^3
# Si number density = 22.456427 Si / 1000 Ang^3
#
#
#
# Elastic Constant Matrix: (Units=GPa)
#
#
# Indices 1 2 3 4 5 6 
#
# 1 139.2172 7.1869 13.7981 -1.6033 -22.0173 -7.1057
# 2 7.1869 73.0604 27.8877 8.4539 -10.7147 -9.4211
# 3 13.7981 27.8877 86.4470 4.8739 -6.6882 -7.9159
# 4 -1.6033 8.4539 4.8739 26.8107 -3.9313 -12.2692
# 5 -22.0173 -10.7147 -6.6882 -3.9313 22.1323 5.4594
# 6 -7.1057 -9.4211 -7.9159 -12.2692 5.4594 41.7772
#
#
#
# Elastic Compliance Matrix: (Units=1/GPa)
#
#
# Indices 1 2 3 4 5 6 
#
# 1 0.008720 0.000676 -0.000962 0.002217 0.008872 0.000945
# 2 0.000676 0.016908 -0.004771 -0.002852 0.006583 0.001326
# 3 -0.000962 -0.004771 0.013421 -0.000414 0.000438 0.001125
# 4 0.002217 -0.002852 -0.000414 0.044756 0.005675 0.012058
# 5 0.008872 0.006583 0.000438 0.005675 0.059070 -0.002976
# 6 0.000945 0.001326 0.001125 0.012058 -0.002976 0.028539
#
#
# Mechanical properties :
#
#
# Convention : Reuss Voigt Hill
#
# Bulk Modulus (GPa) = 34.55996 44.05224 39.30610
# Shear Modulus (GPa) = 26.15423 34.80084 30.47753
#
# Velocity S-wave (km/s) = 3.41642 3.94090 3.68800
# Velocity P-wave (km/s) = 5.56649 6.35350 5.97297
#
# Compressibility (1/GPa) = 0.02893522
#
# Stress axis : x y z
#
# Youngs Moduli (GPa) = 114.67409 59.14252 74.51205
#
# Poissons Ratio (x) = -0.03997 0.07168
# Poissons Ratio (y) = -0.07751 0.35550
# Poissons Ratio (z) = 0.11031 0.28217
#
# Static dielectric constant tensor:
#      x y z
#    x 1.927550 0.002990 0.023270 
#    y 0.002990 1.809540 -0.010200 
#    z 0.023270 -0.010200 1.879590 
# 
# From -- ./inp_files/176538.got.cif
#   From: 2010.05.17/outbox.cif.g08.bks.cpg/sg2_89_cif.got.tgz:176538.got - 2010.06.03 11:33:40.
