data_PCOD9087365
_publ_section_title
;
Structure prediction by ZEFSAII (Michael W. Deem and Ramdas Pophale) SiO2 
 PCOD9087365
Probable space group: P -1
;
_chemical_formula_sum "Si O2"
_cell_formula_units_Z 16
_cell_length_a 14.014530
_cell_length_b 7.575082
_cell_length_c 11.071688
_cell_angle_alpha 80.797106
_cell_angle_beta 39.313648
_cell_angle_gamma 100.666376
_cell_volume 639.222635
_symmetry_space_group_name_H-M "P -1"
_symmetry_group_IT_number 2
_symmetry_cell_setting 'triclinic'
loop_
_space_group_symop_operation_xyz
x,y,z
-x,-y,-z
loop_
_atom_site_type_symbol
_atom_site_label
_atom_site_fract_x
_atom_site_fract_y
_atom_site_fract_z
Si Si1 0.722191 0.486652 0.896613
Si Si2 0.401799 0.223383 0.690945
Si Si3 0.207550 0.114215 0.306659
Si Si4 0.893069 0.635223 0.331020
Si Si5 0.572312 0.638838 0.603072
Si Si6 0.050029 0.211315 0.996090
Si Si7 0.264943 0.906831 0.055040
Si Si8 0.105767 0.755606 0.611546
O O1 0.703303 0.269565 0.900790
O O2 0.911824 0.625106 0.757214
O O3 0.718418 0.642058 0.784500
O O4 0.574359 0.423238 0.148492
O O5 0.548393 0.433059 0.581515
O O6 0.430025 0.221695 0.520149
O O7 0.233586 0.255706 0.866455
O O8 0.370948 0.026951 0.819002
O O9 0.288239 0.075429 0.111134
O O10 0.222082 0.972848 0.410068
O O11 0.000000 0.000000 0.500000
O O12 0.761279 0.720859 0.463545
O O13 0.822301 0.400555 0.462304
O O14 0.065185 0.782658 0.220601
O O15 0.940518 0.648244 0.140758
O O16 0.928310 0.209828 0.220784
O O17 0.000000 0.000000 0.000000
#
# Coordination Sequence:
#
# PCOD9087365 Si02
#       8
#     2   2   2   2   2   2   2   2
#     4  10  21  38  66  88 125 161 211 252 304 363
#     4  10  19  36  63  87 128 167 205 241 312 382
#     4  10  21  39  67  90 122 163 215 254 299 360
#     4  10  23  35  63  95 129 151 206 261 307 368
#     4  10  20  38  60  92 129 170 190 253 326 363
#     4  11  19  35  61  93 121 153 198 259 307 351
#     4  11  21  40  66  98 115 163 219 253 292 369
#     4  10  21  39  59  93 118 167 205 254 304 366
#
# _framework density 25.030404000000001
#
# number of rings (size 3 to 8) (size 9 to 14) (size 15 to 20)
#    0.000    1.750    3.750    1.125    0.000    5.000 
#    0.000    3.125    0.000    5.250    0.000    0.000 
#    0.000    0.000    0.000    0.000    0.000    0.000 
#
# Total GULP energy -89504.203229 kJ/mol
# GULP energy per Si atom -5594.012702 kJ/mol
# Density = 2.497343 g / cm^3
# Si number density = 25.030404 Si / 1000 Ang^3
#
#
#
# Elastic Constant Matrix: (Units=GPa)
#
#
# Indices 1 2 3 4 5 6 
#
# 1 43.4657 24.2341 19.7446 -7.0477 22.0718 -8.7568
# 2 24.2341 112.7609 20.2359 -32.5259 15.9199 -18.8008
# 3 19.7446 20.2359 88.7726 -16.0650 27.4440 -18.8162
# 4 -7.0477 -32.5259 -16.0650 36.6828 -8.0740 14.1973
# 5 22.0718 15.9199 27.4440 -8.0740 35.5173 -13.1327
# 6 -8.7568 -18.8008 -18.8162 14.1973 -13.1327 25.1522
#
#
#
# Elastic Compliance Matrix: (Units=1/GPa)
#
#
# Indices 1 2 3 4 5 6 
#
# 1 0.036287 -0.005709 -0.001359 -0.002422 -0.020161 -0.001810
# 2 -0.005709 0.013269 0.000491 0.009830 0.000585 0.003055
# 3 -0.001359 0.000491 0.015935 0.003094 -0.009000 0.005369
# 4 -0.002422 0.009830 0.003094 0.042769 -0.001530 -0.016121
# 5 -0.020161 0.000585 -0.009000 -0.001530 0.052575 0.015000
# 6 -0.001810 0.003055 0.005369 -0.016121 0.015000 0.062359
#
#
# Mechanical properties :
#
#
# Convention : Reuss Voigt Hill
#
# Bulk Modulus (GPa) = 19.10655 41.49206 30.29931
# Shear Modulus (GPa) = 19.70089 31.52277 25.61183
#
# Velocity S-wave (km/s) = 2.80854 3.55262 3.20227
# Velocity P-wave (km/s) = 4.26228 5.78280 5.07976
#
# Compressibility (1/GPa) = 0.05233807
#
# Stress axis : x y z
#
# Youngs Moduli (GPa) = 27.55781 75.36087 62.75327
#
# Poissons Ratio (x) = 0.43023 0.08526
# Poissons Ratio (y) = 0.15733 -0.03078
# Poissons Ratio (z) = 0.03744 -0.03697
#
# Static dielectric constant tensor:
#      x y z
#    x 2.110340 -0.013330 -0.025220 
#    y -0.013330 1.947670 -0.035820 
#    z -0.025220 -0.035820 1.978430 
# 
# From -- ./inp_files/447087.got.cif
#   From: 2010.05.17/outbox.cif.g08.bks.cpg/sg2_224_cif.got.tgz:447087.got - 2010.06.03 11:33:40.
