data_PCOD9087687
_publ_section_title
;
Structure prediction by ZEFSAII (Michael W. Deem and Ramdas Pophale) SiO2 
 PCOD9087687
Probable space group: P -1
;
_chemical_formula_sum "Si O2"
_cell_formula_units_Z 16
_cell_length_a 5.382551
_cell_length_b 22.304979
_cell_length_c 9.116520
_cell_angle_alpha 133.355472
_cell_angle_beta 125.366467
_cell_angle_gamma 67.264361
_cell_volume 648.860456
_symmetry_space_group_name_H-M "P -1"
_symmetry_group_IT_number 2
_symmetry_cell_setting 'triclinic'
loop_
_space_group_symop_operation_xyz
x,y,z
-x,-y,-z
loop_
_atom_site_type_symbol
_atom_site_label
_atom_site_fract_x
_atom_site_fract_y
_atom_site_fract_z
Si Si1 0.760306 0.470696 0.651649
Si Si2 0.193396 0.059273 0.777219
Si Si3 0.130837 0.193259 0.546677
Si Si4 0.734176 0.267189 0.787890
Si Si5 0.266822 0.004396 0.286311
Si Si6 0.716574 0.750103 0.883952
Si Si7 0.030956 0.703361 0.623997
Si Si8 0.689840 0.427441 0.877688
O O1 0.500000 0.500000 0.500000
O O2 0.964689 0.396633 0.533372
O O3 0.642876 0.426810 0.687001
O O4 0.962801 0.546861 0.914186
O O5 0.534933 0.027105 0.833389
O O6 0.212953 0.153800 0.895567
O O7 0.000000 0.000000 0.500000
O O8 0.018228 0.051952 0.858041
O O9 0.485420 0.222739 0.730949
O O10 0.153127 0.095747 0.373423
O O11 0.893634 0.211354 0.625337
O O12 0.031033 0.249128 0.469879
O O13 0.597724 0.343599 0.784118
O O14 0.015544 0.300693 0.035506
O O15 0.500000 0.000000 0.500000
O O16 0.391955 0.726460 0.800931
O O17 0.793632 0.738379 0.719629
O O18 0.500000 0.500000 0.000000
#
# Coordination Sequence:
#
# PCOD9087687 Si02
#       8
#     2   2   2   2   2   2   2   2
#     4  11  26  48  72 102 149 192 235 302 364 425
#     4  10  20  39  64  98 131 171 233 290 336 417
#     4  12  24  44  71 101 143 187 225 298 358 410
#     4  12  24  44  71 103 138 184 244 294 341 425
#     4  10  19  36  65  95 126 173 229 278 344 409
#     4  12  26  44  72 103 141 186 240 290 357 436
#     4  12  27  47  66 104 148 185 231 290 370 427
#     4  11  26  44  73 107 139 189 252 291 356 440
#
# _framework density 24.658614
#
# number of rings (size 3 to 8) (size 9 to 14) (size 15 to 20)
#    0.000    0.750    1.250    7.500    5.250    0.500 
#    0.000    3.750    0.000    0.000    0.000    0.000 
#    0.000    0.000    0.000    0.000    0.000    0.000 
#
# Total GULP energy -89483.146864 kJ/mol
# GULP energy per Si atom -5592.696679 kJ/mol
# Density = 2.460249 g / cm^3
# Si number density = 24.658614 Si / 1000 Ang^3
#
#
#
# Elastic Constant Matrix: (Units=GPa)
#
#
# Indices 1 2 3 4 5 6 
#
# 1 117.8889 4.3542 9.0070 14.3315 4.7189 -10.5498
# 2 4.3542 120.9851 31.1558 9.0849 7.5503 -12.3725
# 3 9.0070 31.1558 64.9785 -3.2722 0.1137 -0.0399
# 4 14.3315 9.0849 -3.2722 46.5642 -5.5264 7.5989
# 5 4.7189 7.5503 0.1137 -5.5264 39.6796 14.0931
# 6 -10.5498 -12.3725 -0.0399 7.5989 14.0931 31.7145
#
#
#
# Elastic Compliance Matrix: (Units=1/GPa)
#
#
# Indices 1 2 3 4 5 6 
#
# 1 0.010160 0.001790 -0.002530 -0.005492 -0.005012 0.007618
# 2 0.001790 0.011515 -0.006029 -0.005497 -0.006441 0.009260
# 3 -0.002530 -0.006029 0.018862 0.004802 0.004272 -0.006219
# 4 -0.005492 -0.005497 0.004802 0.028491 0.011264 -0.015797
# 5 -0.005012 -0.006441 0.004272 0.011264 0.036835 -0.023242
# 6 0.007618 0.009260 -0.006219 -0.015797 -0.023242 0.051783
#
#
# Mechanical properties :
#
#
# Convention : Reuss Voigt Hill
#
# Bulk Modulus (GPa) = 37.03847 43.65405 40.34626
# Shear Modulus (GPa) = 27.74936 40.88070 34.31503
#
# Velocity S-wave (km/s) = 3.35825 4.07611 3.73447
# Velocity P-wave (km/s) = 5.48546 6.31622 5.91544
#
# Compressibility (1/GPa) = 0.02699895
#
# Stress axis : x y z
#
# Youngs Moduli (GPa) = 98.42767 86.84011 53.01700
#
# Poissons Ratio (x) = -0.15545 0.13412
# Poissons Ratio (y) = -0.17619 0.31966
# Poissons Ratio (z) = 0.24899 0.52359
#
# Static dielectric constant tensor:
#      x y z
#    x 1.739760 -0.132720 0.648860 
#    y -0.132720 1.807650 0.327390 
#    z 0.648860 0.327390 0.620700 
# 
# From -- ./inp_files/141646.got.cif
#   From: 2010.05.17/outbox.cif.g08.bks.cpg/sg2_71_cif.got.tgz:141646.got - 2010.06.03 11:33:40.
