data_PCOD9087753
_publ_section_title
;
Structure prediction by ZEFSAII (Michael W. Deem and Ramdas Pophale) SiO2 
 PCOD9087753
Probable space group: P -1
;
_chemical_formula_sum "Si O2"
_cell_formula_units_Z 16
_cell_length_a 20.054086
_cell_length_b 9.220931
_cell_length_c 9.522641
_cell_angle_alpha 59.317910
_cell_angle_beta 149.463802
_cell_angle_gamma 124.143897
_cell_volume 738.956929
_symmetry_space_group_name_H-M "P -1"
_symmetry_group_IT_number 2
_symmetry_cell_setting 'triclinic'
loop_
_space_group_symop_operation_xyz
x,y,z
-x,-y,-z
loop_
_atom_site_type_symbol
_atom_site_label
_atom_site_fract_x
_atom_site_fract_y
_atom_site_fract_z
Si Si1 0.136503 0.087524 0.114591
Si Si2 0.403809 0.244019 0.077385
Si Si3 0.564553 0.863477 0.259757
Si Si4 0.864138 0.501302 0.420871
Si Si5 0.404632 0.630681 0.857448
Si Si6 0.154031 0.497884 0.936576
Si Si7 0.542493 0.344348 0.571885
Si Si8 0.862601 0.907084 0.215153
O O1 0.273873 0.074588 0.448940
O O2 0.148797 0.294400 0.028070
O O3 0.134942 0.032128 0.973563
O O4 0.000000 0.000000 0.000000
O O5 0.532889 0.238207 0.220433
O O6 0.449994 0.288664 0.297407
O O7 0.379681 0.423497 0.880541
O O8 0.267157 0.086592 0.925914
O O9 0.491377 0.810629 0.301131
O O10 0.515209 0.692818 0.152639
O O11 0.500000 0.000000 0.000000
O O12 0.743279 0.370995 0.352357
O O13 0.849121 0.439836 0.261805
O O14 0.849083 0.698117 0.291407
O O15 0.014668 0.513912 0.743044
O O16 0.299598 0.599693 0.211308
O O17 0.500000 0.500000 0.500000
O O18 0.000000 0.000000 0.500000
#
# Coordination Sequence:
#
# PCOD9087753 Si02
#       8
#     2   2   2   2   2   2   2   2
#     4  11  24  39  62  94 126 165 213 261 322 381
#     4  10  20  37  66  88 119 166 211 252 312 381
#     4  12  25  39  64  95 129 165 215 275 315 366
#     4   9  19  36  61  93 116 161 211 261 303 380
#     4  10  20  38  61  92 123 157 212 261 312 370
#     4  10  19  36  67  87 119 161 213 261 312 368
#     4  12  18  41  67  90 117 164 218 257 309 385
#     4  10  21  40  61  88 129 170 201 249 330 392
#
# _framework density 21.652142999999999
#
# number of rings (size 3 to 8) (size 9 to 14) (size 15 to 20)
#    0.000    1.500    5.000    0.750    3.500    1.000 
#    2.250    2.500    0.000    0.000    0.000    0.000 
#    0.000    0.000    0.000    0.000    0.000    0.000 
#
# Total GULP energy -89268.088677 kJ/mol
# GULP energy per Si atom -5579.255542 kJ/mol
# Density = 2.160286 g / cm^3
# Si number density = 21.652143 Si / 1000 Ang^3
#
#
#
# Elastic Constant Matrix: (Units=GPa)
#
#
# Indices 1 2 3 4 5 6 
#
# 1 113.5653 42.5120 49.7688 14.6174 4.5894 52.7865
# 2 42.5120 65.7604 35.7829 13.6236 5.5636 37.6967
# 3 49.7688 35.7829 114.6858 18.5452 23.0216 31.2109
# 4 14.6174 13.6236 18.5452 45.9950 10.1183 11.0940
# 5 4.5894 5.5636 23.0216 10.1183 34.2279 9.1847
# 6 52.7865 37.6967 31.2109 11.0940 9.1847 42.5976
#
#
#
# Elastic Compliance Matrix: (Units=1/GPa)
#
#
# Indices 1 2 3 4 5 6 
#
# 1 0.023377 0.004941 -0.004525 -0.001230 0.007898 -0.031408
# 2 0.004941 0.033519 -0.004402 -0.003195 0.006696 -0.033171
# 3 -0.004525 -0.004402 0.013354 -0.001363 -0.007724 0.001739
# 4 -0.001230 -0.003195 -0.001363 0.024872 -0.005784 0.000120
# 5 0.007898 0.006696 -0.007724 -0.005784 0.038494 -0.016847
# 6 -0.031408 -0.033171 0.001739 0.000120 -0.016847 0.094077
#
#
# Mechanical properties :
#
#
# Convention : Reuss Voigt Hill
#
# Bulk Modulus (GPa) = 16.05751 61.12657 38.59204
# Shear Modulus (GPa) = 19.49889 35.62728 27.56309
#
# Velocity S-wave (km/s) = 3.00418 4.06080 3.57178
# Velocity P-wave (km/s) = 4.41199 7.09079 5.90529
#
# Compressibility (1/GPa) = 0.06227614
#
# Stress axis : x y z
#
# Youngs Moduli (GPa) = 42.77715 29.83421 74.88231
#
# Poissons Ratio (x) = -0.14741 0.33886
# Poissons Ratio (y) = -0.21136 0.32966
# Poissons Ratio (z) = 0.19358 0.13134
#
# Static dielectric constant tensor:
#      x y z
#    x 1.914770 -0.017210 0.049190 
#    y -0.017210 1.840800 -0.007760 
#    z 0.049190 -0.007760 1.779180 
# 
# From -- ./inp_files/345993.got.cif
#   From: 2010.05.17/outbox.cif.g08.bks.cpg/sg2_173_cif.got.tgz:345993.got - 2010.06.03 11:33:40.
