data_PCOD9087648
_publ_section_title
;
Structure prediction by ZEFSAII (Michael W. Deem and Ramdas Pophale) SiO2 
 PCOD9087648
Probable space group: P -1
;
_chemical_formula_sum "Si O2"
_cell_formula_units_Z 12
_cell_length_a 15.413096
_cell_length_b 5.387902
_cell_length_c 12.243036
_cell_angle_alpha 100.330234
_cell_angle_beta 31.082960
_cell_angle_gamma 111.815179
_cell_volume 466.395201
_symmetry_space_group_name_H-M "P -1"
_symmetry_group_IT_number 2
_symmetry_cell_setting 'triclinic'
loop_
_space_group_symop_operation_xyz
x,y,z
-x,-y,-z
loop_
_atom_site_type_symbol
_atom_site_label
_atom_site_fract_x
_atom_site_fract_y
_atom_site_fract_z
Si Si1 0.542584 0.797045 0.103563
Si Si2 0.988203 0.211047 0.941236
Si Si3 0.395817 0.643394 0.907498
Si Si4 0.127370 0.530423 0.468491
Si Si5 0.411953 0.936702 0.710031
Si Si6 0.835532 0.899421 0.458517
O O1 0.670795 0.640401 0.977406
O O2 0.355485 0.657983 0.223983
O O3 0.662116 0.118812 0.969206
O O4 0.475467 0.830352 0.302753
O O5 0.789797 0.073384 0.085235
O O6 0.000000 0.500000 0.000000
O O7 0.140023 0.232486 0.690999
O O8 0.000000 0.000000 0.000000
O O9 0.381720 0.657398 0.791161
O O10 0.615667 0.775685 0.707739
O O11 0.080258 0.235298 0.553633
O O12 0.000000 0.500000 0.500000
O O13 0.094872 0.767038 0.593464
O O14 0.500000 0.000000 0.500000
#
# Coordination Sequence:
#
# PCOD9087648 Si02
#       6
#     2   2   2   2   2   2
#     4   8  18  32  53  80 107 138 190 238 277 334
#     4  12  27  38  57  87 127 164 195 238 305 347
#     4   8  17  32  53  73 104 146 185 232 272 332
#     4  10  19  36  65  89 110 151 199 251 299 344
#     4  10  22  36  58  80 113 161 201 232 282 356
#     4  10  20  38  56  87 123 145 195 255 288 350
#
# _framework density 25.729254000000001
#
# number of rings (size 3 to 8) (size 9 to 14) (size 15 to 20)
#    1.000    1.333    0.000    2.500    7.000    0.667 
#    0.000    0.000    0.000    2.000    0.000    0.000 
#    0.000    0.000    0.000    0.000    0.000    0.000 
#
# Total GULP energy -66964.759060 kJ/mol
# GULP energy per Si atom -5580.396588 kJ/mol
# Density = 2.567069 g / cm^3
# Si number density = 25.729254 Si / 1000 Ang^3
#
#
#
# Elastic Constant Matrix: (Units=GPa)
#
#
# Indices 1 2 3 4 5 6 
#
# 1 195.0702 61.3769 17.4900 -0.2393 -2.8046 -41.0558
# 2 61.3769 155.6217 19.1037 16.6358 7.4005 -46.8222
# 3 17.4900 19.1037 56.4199 0.3680 -8.9200 -5.6345
# 4 -0.2393 16.6358 0.3680 20.9258 0.6487 2.3676
# 5 -2.8046 7.4005 -8.9200 0.6487 41.2435 7.6202
# 6 -41.0558 -46.8222 -5.6345 2.3676 7.6202 66.1117
#
#
#
# Elastic Compliance Matrix: (Units=1/GPa)
#
#
# Indices 1 2 3 4 5 6 
#
# 1 0.006305 -0.001694 -0.001132 0.001147 -0.000007 0.002579
# 2 -0.001694 0.010756 -0.002958 -0.009201 -0.003849 0.007087
# 3 -0.001132 -0.002958 0.019678 0.002037 0.005005 -0.001770
# 4 0.001147 -0.009201 0.002037 0.055893 0.002759 -0.007950
# 5 -0.000007 -0.003849 0.005005 0.002759 0.026994 -0.005514
# 6 0.002579 0.007087 -0.001770 -0.007950 -0.005514 0.022516
#
#
# Mechanical properties :
#
#
# Convention : Reuss Voigt Hill
#
# Bulk Modulus (GPa) = 39.72785 67.00588 53.36686
# Shear Modulus (GPa) = 30.84525 46.26562 38.55544
#
# Velocity S-wave (km/s) = 3.46618 4.24509 3.87525
# Velocity P-wave (km/s) = 5.61191 7.08003 6.38829
#
# Compressibility (1/GPa) = 0.02517126
#
# Stress axis : x y z
#
# Youngs Moduli (GPa) = 158.60547 92.97271 50.81893
#
# Poissons Ratio (x) = 0.15751 0.05752
# Poissons Ratio (y) = 0.26870 0.15030
# Poissons Ratio (z) = 0.17952 0.27498
#
# Static dielectric constant tensor:
#      x y z
#    x 37.297050 -28.806840 13.750640 
#    y -28.806840 25.695600 -11.171190 
#    z 13.750640 -11.171190 7.335220 
# 
# From -- ./inp_files/24964.got.cif
#   From: 2010.05.17/outbox.cif.g08.bks.cpg/sg2_13_cif.got.tgz:24964.got - 2010.06.03 11:33:40.
