data_PCOD9087744
_publ_section_title
;
Structure prediction by ZEFSAII (Michael W. Deem and Ramdas Pophale) SiO2 
 PCOD9087744
Probable space group: P -1
;
_chemical_formula_sum "Si O2"
_cell_formula_units_Z 12
_cell_length_a 15.532551
_cell_length_b 12.456221
_cell_length_c 10.163278
_cell_angle_alpha 45.721173
_cell_angle_beta 34.355584
_cell_angle_gamma 31.117098
_cell_volume 573.214891
_symmetry_space_group_name_H-M "P -1"
_symmetry_group_IT_number 2
_symmetry_cell_setting 'triclinic'
loop_
_space_group_symop_operation_xyz
x,y,z
-x,-y,-z
loop_
_atom_site_type_symbol
_atom_site_label
_atom_site_fract_x
_atom_site_fract_y
_atom_site_fract_z
Si Si1 0.443253 0.140262 0.077793
Si Si2 0.098505 0.615413 0.046870
Si Si3 0.824410 0.018190 0.593282
Si Si4 0.121975 0.678814 0.679682
Si Si5 0.344659 0.036408 0.557888
Si Si6 0.378705 0.727476 0.629767
O O1 0.236920 0.377732 0.109286
O O2 0.415301 0.067817 0.307236
O O3 0.641814 0.118259 0.846428
O O4 0.500000 0.000000 0.000000
O O5 0.892250 0.766719 0.266327
O O6 0.040938 0.644271 0.938715
O O7 0.245977 0.663017 0.846303
O O8 0.912740 0.125321 0.401474
O O9 0.713306 0.108068 0.514505
O O10 0.993575 0.771912 0.624313
O O11 0.371943 0.476362 0.528384
O O12 0.500000 0.000000 0.500000
O O13 0.357606 0.847934 0.680384
#
# Coordination Sequence:
#
# PCOD9087744 Si02
#       6
#     2   2   2   2   2   2
#     4  12  22  42  68  94 129 174 217 263 329 392
#     4  11  22  43  67  94 133 177 214 272 327 386
#     4  10  19  36  67 100 125 161 222 273 312 378
#     4  10  19  37  71  97 124 164 228 267 314 381
#     4  12  27  43  62  97 140 171 215 272 335 386
#     4  11  21  45  68  94 129 179 222 263 320 396
#
# _framework density 20.934557999999999
#
# number of rings (size 3 to 8) (size 9 to 14) (size 15 to 20)
#    0.000    1.000    5.000    3.000    0.000    1.333 
#    3.000    4.167    0.000    0.000    0.000    0.000 
#    0.000    0.000    0.000    0.000    0.000    0.000 
#
# Total GULP energy -66917.001254 kJ/mol
# GULP energy per Si atom -5576.416771 kJ/mol
# Density = 2.088691 g / cm^3
# Si number density = 20.934558 Si / 1000 Ang^3
#
#
#
# Elastic Constant Matrix: (Units=GPa)
#
#
# Indices 1 2 3 4 5 6 
#
# 1 87.4772 82.5523 31.3924 -3.2812 15.5601 -12.1464
# 2 82.5523 48.7996 2.9215 4.2182 13.3889 -1.4257
# 3 31.3924 2.9215 81.4754 10.3078 10.5503 0.1547
# 4 -3.2812 4.2182 10.3078 37.9029 -3.4859 0.9605
# 5 15.5601 13.3889 10.5503 -3.4859 21.3944 -0.4847
# 6 -12.1464 -1.4257 0.1547 0.9605 -0.4847 33.0991
#
#
#
# Elastic Compliance Matrix: (Units=1/GPa)
#
#
# Indices 1 2 3 4 5 6 
#
# 1 -0.012729 0.024393 0.006153 -0.006332 -0.010155 -0.003614
# 2 0.024393 -0.020985 -0.009749 0.007038 0.001525 0.007911
# 3 0.006153 -0.009749 0.011000 -0.001792 -0.004050 0.001779
# 4 -0.006332 0.007038 -0.001792 0.026092 0.005275 -0.002692
# 5 -0.010155 0.001525 -0.004050 0.005275 0.055962 -0.002976
# 6 -0.003614 0.007911 0.001779 -0.002692 -0.002976 0.029253
#
#
# Mechanical properties :
#
#
# Convention : Reuss Voigt Hill
#
# Bulk Modulus (GPa) = 52.96584 50.16496 51.56540
# Shear Modulus (GPa) = 93.81970 25.20501 59.51235
#
# Velocity S-wave (km/s) = 6.70172 3.47362 5.33756
# Velocity P-wave (km/s) = 9.23253 6.33268 7.91652
#
# Compressibility (1/GPa) = 0.01888009
#
# Stress axis : x y z
#
# Youngs Moduli (GPa) = -78.56009 -47.65396 90.90696
#
# Poissons Ratio (x) = 1.16242 -0.55934
# Poissons Ratio (y) = 1.91631 0.88626
# Poissons Ratio (z) = 0.48337 -0.46458
#
# Static dielectric constant tensor:
#      x y z
#    x 1.954220 -0.042380 -0.059850 
#    y -0.042380 1.745950 -0.024710 
#    z -0.059850 -0.024710 1.775690 
# 
# From -- ./inp_files/156466.got.cif
#   From: 2010.05.17/outbox.cif.g08.bks.cpg/sg2_79_cif.got.tgz:156466.got - 2010.06.03 11:33:40.
