data_PCOD9087441
_publ_section_title
;
Structure prediction by ZEFSAII (Michael W. Deem and Ramdas Pophale) SiO2 
 PCOD9087441
Probable space group: P -1
;
_chemical_formula_sum "Si O2"
_cell_formula_units_Z 16
_cell_length_a 7.849838
_cell_length_b 11.232657
_cell_length_c 15.442770
_cell_angle_alpha 48.253311
_cell_angle_beta 114.011056
_cell_angle_gamma 139.442516
_cell_volume 646.677248
_symmetry_space_group_name_H-M "P -1"
_symmetry_group_IT_number 2
_symmetry_cell_setting 'triclinic'
loop_
_space_group_symop_operation_xyz
x,y,z
-x,-y,-z
loop_
_atom_site_type_symbol
_atom_site_label
_atom_site_fract_x
_atom_site_fract_y
_atom_site_fract_z
Si Si1 0.802351 0.804843 0.981845
Si Si2 0.047998 0.956445 0.437503
Si Si3 0.085049 0.645093 0.661204
Si Si4 0.075336 0.140501 0.719710
Si Si5 0.410227 0.909186 0.348932
Si Si6 0.454767 0.874536 0.913564
Si Si7 0.368861 0.601896 0.614942
Si Si8 0.095186 0.692854 0.081219
O O1 0.531482 0.738783 0.970620
O O2 0.945544 0.938916 0.856848
O O3 0.822675 0.626310 0.074578
O O4 0.000000 0.000000 0.000000
O O5 0.976147 0.726999 0.546075
O O6 0.889543 0.913432 0.341069
O O7 0.359990 0.191540 0.377414
O O8 0.000000 0.000000 0.500000
O O9 0.135269 0.529720 0.662429
O O10 0.923658 0.486828 0.787217
O O11 0.362774 0.881374 0.642363
O O12 0.853123 0.145454 0.664086
O O13 0.326381 0.390058 0.689366
O O14 0.370093 0.706416 0.475945
O O15 0.507537 0.000380 0.226897
O O16 0.680020 0.073350 0.931592
O O17 0.185413 0.729723 0.983179
#
# Coordination Sequence:
#
# PCOD9087441 Si02
#       8
#     2   2   2   2   2   2   2   2
#     4   9  19  38  61  91 125 161 218 267 309 381
#     4  11  25  43  57  98 138 161 209 264 318 391
#     4  11  21  40  64  91 126 166 208 266 318 373
#     4  11  21  39  70  92 125 172 208 261 330 376
#     4  10  19  36  63  93 124 157 213 265 313 385
#     4   9  20  37  58  88 122 168 215 260 317 379
#     4  11  21  39  68  94 123 166 212 262 318 380
#     4  10  21  39  60  87 127 166 215 268 310 374
#
# _framework density 24.741862999999999
#
# number of rings (size 3 to 8) (size 9 to 14) (size 15 to 20)
#    0.000    1.750    2.500    3.375    1.750    3.000 
#    9.000    2.500    0.000    0.000    0.000    0.000 
#    0.000    0.000    0.000    0.000    0.000    0.000 
#
# Total GULP energy -89439.592268 kJ/mol
# GULP energy per Si atom -5589.974517 kJ/mol
# Density = 2.468555 g / cm^3
# Si number density = 24.741863 Si / 1000 Ang^3
#
#
#
# Elastic Constant Matrix: (Units=GPa)
#
#
# Indices 1 2 3 4 5 6 
#
# 1 75.2978 11.2683 31.9484 13.1039 -17.5741 -8.5068
# 2 11.2683 64.4170 -0.5455 7.5837 -2.4065 -25.4899
# 3 31.9484 -0.5455 99.5818 44.4151 -31.4816 -9.7211
# 4 13.1039 7.5837 44.4151 -17.2986 6.8216 -35.4245
# 5 -17.5741 -2.4065 -31.4816 6.8216 30.5974 20.3324
# 6 -8.5068 -25.4899 -9.7211 -35.4245 20.3324 10.5115
#
#
#
# Elastic Compliance Matrix: (Units=1/GPa)
#
#
# Indices 1 2 3 4 5 6 
#
# 1 0.016416 -0.003376 -0.004920 0.002016 0.004300 -0.000975
# 2 -0.003376 0.027688 0.009996 -0.015862 -0.002238 0.024527
# 3 -0.004920 0.009996 0.015528 -0.003640 0.000370 0.021637
# 4 0.002016 -0.015862 -0.003640 0.011436 0.018510 -0.037463
# 5 0.004300 -0.002238 0.000370 0.018510 0.032084 -0.001285
# 6 -0.000975 0.024527 0.021637 -0.037463 -0.001285 0.050065
#
#
# Mechanical properties :
#
#
# Convention : Reuss Voigt Hill
#
# Bulk Modulus (GPa) = 15.86473 36.07101 25.96787
# Shear Modulus (GPa) = 29.26923 17.87042 23.56983
#
# Velocity S-wave (km/s) = 3.44319 2.69043 3.08982
# Velocity P-wave (km/s) = 4.71523 4.92563 4.82158
#
# Compressibility (1/GPa) = 0.06303290
#
# Stress axis : x y z
#
# Youngs Moduli (GPa) = 60.91653 36.11636 64.40069
#
# Poissons Ratio (x) = 0.12192 0.31685
# Poissons Ratio (y) = 0.20565 -0.64377
# Poissons Ratio (z) = 0.29971 -0.36103
#
# Static dielectric constant tensor:
#      x y z
#    x 2.032280 0.026240 -0.006840 
#    y 0.026240 1.988330 -0.001260 
#    z -0.006840 -0.001260 1.937640 
# 
# From -- ./inp_files/226311.got.cif
#   From: 2010.05.17/outbox.cif.g08.bks.cpg/sg2_114_cif.got.tgz:226311.got - 2010.06.03 11:33:40.
