data_PCOD9087806
_publ_section_title
;
Structure prediction by ZEFSAII (Michael W. Deem and Ramdas Pophale) SiO2 
 PCOD9087806
Probable space group: P -1
;
_chemical_formula_sum "Si O2"
_cell_formula_units_Z 12
_cell_length_a 12.028486
_cell_length_b 9.256933
_cell_length_c 15.714568
_cell_angle_alpha 141.055280
_cell_angle_beta 153.106374
_cell_angle_gamma 49.198879
_cell_volume 492.504069
_symmetry_space_group_name_H-M "P -1"
_symmetry_group_IT_number 2
_symmetry_cell_setting 'triclinic'
loop_
_space_group_symop_operation_xyz
x,y,z
-x,-y,-z
loop_
_atom_site_type_symbol
_atom_site_label
_atom_site_fract_x
_atom_site_fract_y
_atom_site_fract_z
Si Si1 0.267138 0.235428 0.011731
Si Si2 0.550937 0.920710 0.304134
Si Si3 0.794983 0.456265 0.023422
Si Si4 0.922164 0.255081 0.379972
Si Si5 0.288228 0.696945 0.290358
Si Si6 0.809143 0.192465 0.461591
O O1 0.975074 0.281664 0.836573
O O2 0.337164 0.329631 0.006708
O O3 0.370910 0.442757 0.241695
O O4 0.234751 0.961687 0.875677
O O5 0.341982 0.700389 0.067875
O O6 0.810059 0.822258 0.451818
O O7 0.527317 0.102992 0.447828
O O8 0.585872 0.066439 0.308273
O O9 0.765395 0.295723 0.844397
O O10 0.053944 0.579885 0.293147
O O11 0.000000 0.500000 0.500000
O O12 0.774792 0.256663 0.369395
O O13 0.000000 0.000000 0.500000
#
# Coordination Sequence:
#
# PCOD9087806 Si02
#       6
#     2   2   2   2   2   2
#     4   8  14  28  49  69  96 122 152 195 233 274
#     4  10  18  29  54  75  92 126 155 198 240 271
#     4  10  16  27  52  80  93 115 159 202 239 273
#     4  10  20  34  47  66 100 134 158 187 237 288
#     4   8  13  28  47  76  99 112 151 203 239 271
#     4  10  17  32  47  68 100 121 160 202 228 273
#
# _framework density 24.365278
#
# number of rings (size 3 to 8) (size 9 to 14) (size 15 to 20)
#    1.000    1.667    5.000    0.500    0.000    2.667 
#    0.000    0.833    0.000    9.000    0.000    7.000 
#    0.000    0.000    0.000    0.000    0.000    0.000 
#
# Total GULP energy -66801.390128 kJ/mol
# GULP energy per Si atom -5566.782511 kJ/mol
# Density = 2.430982 g / cm^3
# Si number density = 24.365278 Si / 1000 Ang^3
#
#
#
# Elastic Constant Matrix: (Units=GPa)
#
#
# Indices 1 2 3 4 5 6 
#
# 1 92.5985 39.7040 63.2452 27.4887 -5.1794 21.4650
# 2 39.7040 95.9267 64.7966 24.2551 -4.3661 21.2470
# 3 63.2452 64.7966 156.9704 41.2031 8.5947 33.4814
# 4 27.4887 24.2551 41.2031 49.2319 13.0520 5.0629
# 5 -5.1794 -4.3661 8.5947 13.0520 37.1812 11.5359
# 6 21.4650 21.2470 33.4814 5.0629 11.5359 40.5995
#
#
#
# Elastic Compliance Matrix: (Units=1/GPa)
#
#
# Indices 1 2 3 4 5 6 
#
# 1 0.018416 -0.000979 -0.003729 -0.008161 0.008521 -0.007552
# 2 -0.000979 0.016564 -0.004167 -0.005226 0.006434 -0.005891
# 3 -0.003729 -0.004167 0.012105 -0.005383 -0.000347 -0.005060
# 4 -0.008161 -0.005226 -0.005383 0.035108 -0.016490 0.011797
# 5 0.008521 0.006434 -0.000347 -0.016490 0.039944 -0.016879
# 6 -0.007552 -0.005891 -0.005060 0.011797 -0.016879 0.039204
#
#
# Mechanical properties :
#
#
# Convention : Reuss Voigt Hill
#
# Bulk Modulus (GPa) = 34.09046 75.66524 54.87785
# Shear Modulus (GPa) = 26.47346 37.25250 31.86298
#
# Velocity S-wave (km/s) = 3.29982 3.91438 3.62017
# Velocity P-wave (km/s) = 5.34230 7.17996 6.32819
#
# Compressibility (1/GPa) = 0.02933372
#
# Stress axis : x y z
#
# Youngs Moduli (GPa) = 54.29961 60.37340 82.61385
#
# Poissons Ratio (x) = 0.05912 0.30809
# Poissons Ratio (y) = 0.05317 0.34423
# Poissons Ratio (z) = 0.20250 0.25156
#
# Static dielectric constant tensor:
#      x y z
#    x 2.010230 -0.033730 0.030250 
#    y -0.033730 2.095750 -0.027480 
#    z 0.030250 -0.027480 2.009400 
# 
# From -- ./inp_files/572496.got.cif
#   From: 2010.05.17/outbox.cif.g08.bks.cpg/sg2_287_cif.got.tgz:572496.got - 2010.06.03 11:33:40.
