data_PCOD9087404
_publ_section_title
;
Structure prediction by ZEFSAII (Michael W. Deem and Ramdas Pophale) SiO2 
 PCOD9087404
Probable space group: P -1
;
_chemical_formula_sum "Si O2"
_cell_formula_units_Z 16
_cell_length_a 11.801362
_cell_length_b 11.069329
_cell_length_c 5.516102
_cell_angle_alpha 90.734213
_cell_angle_beta 74.512875
_cell_angle_gamma 80.951511
_cell_volume 684.641846
_symmetry_space_group_name_H-M "P -1"
_symmetry_group_IT_number 2
_symmetry_cell_setting 'triclinic'
loop_
_space_group_symop_operation_xyz
x,y,z
-x,-y,-z
loop_
_atom_site_type_symbol
_atom_site_label
_atom_site_fract_x
_atom_site_fract_y
_atom_site_fract_z
Si Si1 0.631465 0.151016 0.138956
Si Si2 0.631894 0.884503 0.700639
Si Si3 0.195784 0.728097 0.274689
Si Si4 0.748728 0.765443 0.123892
Si Si5 0.972525 0.876962 0.146027
Si Si6 0.212906 0.945045 0.556123
Si Si7 0.301681 0.467674 0.110216
Si Si8 0.521708 0.396950 0.289924
O O1 0.510179 0.098423 0.190212
O O2 0.737156 0.059938 0.199359
O O3 0.585951 0.267119 0.348216
O O4 0.687032 0.223293 0.897576
O O5 0.680675 0.811477 0.418867
O O6 0.678339 0.013774 0.650880
O O7 0.686277 0.828753 0.920546
O O8 0.174115 0.815164 0.523849
O O9 0.212018 0.581218 0.286131
O O10 0.087828 0.783713 0.160613
O O11 0.880216 0.801472 0.068962
O O12 0.749556 0.621706 0.051214
O O13 0.894935 0.943510 0.417202
O O14 0.000000 0.000000 0.000000
O O15 0.395280 0.387506 0.237455
O O16 0.389246 0.545675 0.930640
O O17 0.500000 0.500000 0.500000
#
# Coordination Sequence:
#
# PCOD9087404 Si02
#       8
#     2   2   2   2   2   2   2   2
#     4  11  22  38  62 104 133 176 216 285 341 413
#     4  11  25  42  70 101 143 178 223 280 355 410
#     4  11  24  41  67  98 132 179 237 276 344 401
#     4  11  25  46  70 102 139 186 226 283 342 407
#     4  11  23  47  69  92 133 182 237 286 336 403
#     4  11  24  41  68  97 132 181 228 285 342 411
#     4  10  22  38  63 100 131 178 223 279 340 405
#     4  10  19  36  63  90 140 178 217 269 337 420
#
# _framework density 23.369879999999998
#
# number of rings (size 3 to 8) (size 9 to 14) (size 15 to 20)
#    0.000    1.250    2.500    3.000    3.500    2.000 
#    0.000    0.000    0.000    4.500    0.000    0.000 
#    0.000    0.000    0.000    0.000    0.000    0.000 
#
# Total GULP energy -89165.235525 kJ/mol
# GULP energy per Si atom -5572.827220 kJ/mol
# Density = 2.331669 g / cm^3
# Si number density = 23.369880 Si / 1000 Ang^3
#
#
#
# Elastic Constant Matrix: (Units=GPa)
#
#
# Indices 1 2 3 4 5 6 
#
# 1 132.8618 49.1331 22.7159 10.9143 9.4672 31.6814
# 2 49.1331 126.0024 21.0584 30.1548 15.1653 14.1760
# 3 22.7159 21.0584 63.2453 9.6231 15.5781 13.4257
# 4 10.9143 30.1548 9.6231 49.9344 8.4697 7.5862
# 5 9.4672 15.1653 15.5781 8.4697 30.8497 7.0874
# 6 31.6814 14.1760 13.4257 7.5862 7.0874 27.5342
#
#
#
# Elastic Compliance Matrix: (Units=1/GPa)
#
#
# Indices 1 2 3 4 5 6 
#
# 1 0.011588 -0.003485 -0.000963 0.001372 0.000953 -0.011692
# 2 -0.003485 0.010958 -0.001195 -0.005366 -0.002486 0.001069
# 3 -0.000963 -0.001195 0.019752 -0.000715 -0.007571 -0.005762
# 4 0.001372 -0.005366 -0.000715 0.024292 -0.003089 -0.004365
# 5 0.000953 -0.002486 -0.007571 -0.003089 0.039252 -0.005377
# 6 -0.011692 0.001069 -0.005762 -0.004365 -0.005377 0.054618
#
#
# Mechanical properties :
#
#
# Convention : Reuss Voigt Hill
#
# Bulk Modulus (GPa) = 32.24597 56.43603 44.34100
# Shear Modulus (GPa) = 27.46010 36.94381 32.20195
#
# Velocity S-wave (km/s) = 3.43158 3.98028 3.71607
# Velocity P-wave (km/s) = 5.43406 6.73238 6.11776
#
# Compressibility (1/GPa) = 0.03101163
#
# Stress axis : x y z
#
# Youngs Moduli (GPa) = 86.29969 91.25553 50.62774
#
# Poissons Ratio (x) = 0.31804 0.04875
# Poissons Ratio (y) = 0.30076 0.06050
# Poissons Ratio (z) = 0.08310 0.10905
#
# Static dielectric constant tensor:
#      x y z
#    x 1.978010 -0.013770 -0.131790 
#    y -0.013770 1.959200 0.101300 
#    z -0.131790 0.101300 2.279660 
# 
# From -- ./inp_files/66361.got.cif
#   From: 2010.05.17/outbox.cif.g08.bks.cpg/sg2_34_cif.got.tgz:66361.got - 2010.06.03 11:33:40.
