data_PCOD9087309
_publ_section_title
;
Structure prediction by ZEFSAII (Michael W. Deem and Ramdas Pophale) SiO2 
 PCOD9087309
Probable space group: P -1
;
_chemical_formula_sum "Si O2"
_cell_formula_units_Z 16
_cell_length_a 10.524762
_cell_length_b 12.346901
_cell_length_c 16.689016
_cell_angle_alpha 145.354886
_cell_angle_beta 150.628661
_cell_angle_gamma 40.334716
_cell_volume 596.647134
_symmetry_space_group_name_H-M "P -1"
_symmetry_group_IT_number 2
_symmetry_cell_setting 'triclinic'
loop_
_space_group_symop_operation_xyz
x,y,z
-x,-y,-z
loop_
_atom_site_type_symbol
_atom_site_label
_atom_site_fract_x
_atom_site_fract_y
_atom_site_fract_z
Si Si1 0.319693 0.278135 0.899623
Si Si2 0.514059 0.664274 0.522828
Si Si3 0.307344 0.955480 0.170927
Si Si4 0.940298 0.064791 0.827803
Si Si5 0.909521 0.578640 0.292672
Si Si6 0.042554 0.978659 0.660337
Si Si7 0.560329 0.725087 0.767758
Si Si8 0.190605 0.621902 0.726782
O O1 0.528760 0.149386 0.876339
O O2 0.173860 0.432821 0.851632
O O3 0.123086 0.144421 0.747955
O O4 0.506239 0.361020 0.117062
O O5 0.442942 0.722352 0.610621
O O6 0.364481 0.500629 0.305904
O O7 0.804460 0.542800 0.613230
O O8 0.553752 0.859576 0.622136
O O9 0.281098 0.855342 0.180925
O O10 0.000000 0.000000 0.000000
O O11 0.884357 0.067189 0.704432
O O12 0.032429 0.839003 0.763970
O O13 0.188865 0.173056 0.037949
O O14 0.768236 0.480093 0.225259
O O15 0.907833 0.806003 0.445650
O O16 0.328199 0.856078 0.768370
O O17 0.000000 0.500000 0.500000
#
# Coordination Sequence:
#
# PCOD9087309 Si02
#       8
#     2   2   2   2   2   2   2   2
#     4  12  25  43  67 100 135 176 217 270 338 396
#     4  10  19  36  62  97 127 163 227 274 311 384
#     4  12  20  39  64  97 128 173 225 271 320 390
#     4  12  22  38  65  94 130 169 222 278 327 374
#     4  11  24  40  68  99 135 173 219 274 332 397
#     4  11  22  41  64  95 132 175 217 269 331 398
#     4  10  20  34  62  94 124 164 223 277 313 370
#     4  12  23  40  65  97 133 168 223 275 326 388
#
# _framework density 26.816520000000001
#
# number of rings (size 3 to 8) (size 9 to 14) (size 15 to 20)
#    0.000    0.750    7.500    1.125    0.000    0.000 
#    0.000    0.625    0.000    2.250    0.000    0.000 
#    0.000    0.000    0.000    0.000    0.000    0.000 
#
# Total GULP energy -89485.270260 kJ/mol
# GULP energy per Si atom -5592.829391 kJ/mol
# Density = 2.675548 g / cm^3
# Si number density = 26.816520 Si / 1000 Ang^3
#
#
#
# Elastic Constant Matrix: (Units=GPa)
#
#
# Indices 1 2 3 4 5 6 
#
# 1 124.3832 26.3309 9.7786 3.5983 -7.0823 26.4915
# 2 26.3309 115.9264 56.0894 26.8009 4.3198 17.7799
# 3 9.7786 56.0894 143.0739 47.7176 1.3458 28.2809
# 4 3.5983 26.8009 47.7176 40.1686 7.3709 3.7799
# 5 -7.0823 4.3198 1.3458 7.3709 29.8908 2.6486
# 6 26.4915 17.7799 28.2809 3.7799 2.6486 37.4612
#
#
#
# Elastic Compliance Matrix: (Units=1/GPa)
#
#
# Indices 1 2 3 4 5 6 
#
# 1 0.010301 -0.001810 0.002483 -0.002611 0.003971 -0.008317
# 2 -0.001810 0.011576 -0.002744 -0.003988 -0.000846 -0.001681
# 3 0.002483 -0.002744 0.015671 -0.016974 0.005436 -0.010956
# 4 -0.002611 -0.003988 -0.016974 0.049071 -0.012485 0.012485
# 5 0.003971 -0.000846 0.005436 -0.012485 0.038056 -0.007942
# 6 -0.008317 -0.001681 -0.010956 0.012485 -0.007942 0.040946
#
#
# Mechanical properties :
#
#
# Convention : Reuss Voigt Hill
#
# Bulk Modulus (GPa) = 29.93471 63.08681 46.51076
# Shear Modulus (GPa) = 27.63986 40.91643 34.27815
#
# Velocity S-wave (km/s) = 3.21394 3.91038 3.57914
# Velocity P-wave (km/s) = 4.99595 6.63057 5.87044
#
# Compressibility (1/GPa) = 0.03340603
#
# Stress axis : x y z
#
# Youngs Moduli (GPa) = 97.08158 86.38321 63.81130
#
# Poissons Ratio (x) = 0.15633 -0.15843
# Poissons Ratio (y) = 0.17569 0.17511
# Poissons Ratio (z) = -0.24104 0.23705
#
# Static dielectric constant tensor:
#      x y z
#    x 2.180120 -0.006780 0.007670 
#    y -0.006780 2.161860 -0.003440 
#    z 0.007670 -0.003440 2.185460 
# 
# From -- ./inp_files/568908.got.cif
#   From: 2010.05.17/outbox.cif.g08.bks.cpg/sg2_285_cif.got.tgz:568908.got - 2010.06.03 11:33:40.
