data_PCOD9087182
_publ_section_title
;
Structure prediction by ZEFSAII (Michael W. Deem and Ramdas Pophale) SiO2 
 PCOD9087182
Probable space group: P -1
;
_chemical_formula_sum "Si O2"
_cell_formula_units_Z 16
_cell_length_a 19.869737
_cell_length_b 8.666040
_cell_length_c 11.564908
_cell_angle_alpha 88.035780
_cell_angle_beta 147.608000
_cell_angle_gamma 65.942087
_cell_volume 617.089737
_symmetry_space_group_name_H-M "P -1"
_symmetry_group_IT_number 2
_symmetry_cell_setting 'triclinic'
loop_
_space_group_symop_operation_xyz
x,y,z
-x,-y,-z
loop_
_atom_site_type_symbol
_atom_site_label
_atom_site_fract_x
_atom_site_fract_y
_atom_site_fract_z
Si Si1 0.400900 0.636233 0.121382
Si Si2 0.588448 0.997462 0.293674
Si Si3 0.734365 0.070698 0.675124
Si Si4 0.540826 0.193954 0.982771
Si Si5 0.925518 0.297653 0.641081
Si Si6 0.138813 0.611817 0.708657
Si Si7 0.487369 0.215699 0.538559
Si Si8 0.867232 0.595731 0.090652
O O1 0.621707 0.315855 0.430167
O O2 0.335265 0.804428 0.911894
O O3 0.469609 0.684516 0.319502
O O4 0.219510 0.689864 0.879488
O O5 0.757258 0.896778 0.633145
O O6 0.544572 0.859897 0.221762
O O7 0.646484 0.008423 0.251660
O O8 0.355260 0.306287 0.983121
O O9 0.559889 0.197423 0.516827
O O10 0.933955 0.920076 0.048669
O O11 0.323001 0.492314 0.707066
O O12 0.986403 0.221102 0.595799
O O13 0.972487 0.434258 0.722100
O O14 0.044229 0.590802 0.667863
O O15 0.241921 0.403113 0.164440
O O16 0.654723 0.908624 0.816610
#
# Coordination Sequence:
#
# PCOD9087182 Si02
#       8
#     2   2   2   2   2   2   2   2
#     4  11  22  36  63  85 115 154 196 233 280 352
#     4   9  19  39  62  83 111 149 205 233 275 334
#     4  10  21  38  59  86 117 152 188 246 286 339
#     4  10  22  38  60  88 113 154 196 236 277 352
#     4  10  23  37  57  86 122 153 191 233 298 331
#     4  10  20  38  62  86 116 152 193 241 286 341
#     4  10  20  36  63  92 109 148 203 237 285 336
#     4  10  19  36  62  87 113 151 188 250 282 334
#
# _framework density 25.928159000000001
#
# number of rings (size 3 to 8) (size 9 to 14) (size 15 to 20)
#    0.000    2.000    2.500    1.500    3.500    5.500 
#    0.000    2.500    8.250    0.000    0.000    0.000 
#    0.000    0.000    0.000    0.000    0.000    0.000 
#
# Total GULP energy -89500.026602 kJ/mol
# GULP energy per Si atom -5593.751663 kJ/mol
# Density = 2.586914 g / cm^3
# Si number density = 25.928159 Si / 1000 Ang^3
#
#
#
# Elastic Constant Matrix: (Units=GPa)
#
#
# Indices 1 2 3 4 5 6 
#
# 1 80.3263 13.3960 -5.6572 0.8281 -9.0219 17.0336
# 2 13.3960 81.3450 13.1724 11.1952 -12.4995 10.3391
# 3 -5.6572 13.1724 84.4181 8.7368 -23.7837 -2.8942
# 4 0.8281 11.1952 8.7368 50.3089 3.4766 -8.3842
# 5 -9.0219 -12.4995 -23.7837 3.4766 35.1871 -3.6338
# 6 17.0336 10.3391 -2.8942 -8.3842 -3.6338 29.5452
#
#
#
# Elastic Compliance Matrix: (Units=1/GPa)
#
#
# Indices 1 2 3 4 5 6 
#
# 1 0.015019 -0.000823 0.002347 -0.002149 0.004511 -0.008196
# 2 -0.000823 0.014483 -0.000874 -0.004243 0.004208 -0.005366
# 3 0.002347 -0.000874 0.015690 -0.003188 0.011312 0.000976
# 4 -0.002149 -0.004243 -0.003188 0.023183 -0.005647 0.008296
# 5 0.004511 0.004208 0.011312 -0.005647 0.039302 0.000266
# 6 -0.008196 -0.005366 0.000976 0.008296 0.000266 0.042932
#
#
# Mechanical properties :
#
#
# Convention : Reuss Voigt Hill
#
# Bulk Modulus (GPa) = 21.50923 31.99019 26.74971
# Shear Modulus (GPa) = 30.33875 38.02014 34.17944
#
# Velocity S-wave (km/s) = 3.42440 3.83347 3.63469
# Velocity P-wave (km/s) = 4.89377 5.65321 5.28714
#
# Compressibility (1/GPa) = 0.04649167
#
# Stress axis : x y z
#
# Youngs Moduli (GPa) = 66.58440 69.04716 63.73479
#
# Poissons Ratio (x) = 0.05680 -0.14960
# Poissons Ratio (y) = 0.05478 0.05573
# Poissons Ratio (z) = -0.15629 0.06037
#
# Static dielectric constant tensor:
#      x y z
#    x 2.021550 -0.035950 -0.001590 
#    y -0.035950 2.046970 -0.044070 
#    z -0.001590 -0.044070 2.118500 
# 
# From -- ./inp_files/259195.got.cif
#   From: 2010.05.17/outbox.cif.g08.bks.cpg/sg2_130_cif.got.tgz:259195.got - 2010.06.03 11:33:40.
