data_PCOD9087829
_publ_section_title
;
Structure prediction by ZEFSAII (Michael W. Deem and Ramdas Pophale) SiO2 
 PCOD9087829
Probable space group: P -1
;
_chemical_formula_sum "Si O2"
_cell_formula_units_Z 16
_cell_length_a 9.440033
_cell_length_b 12.845503
_cell_length_c 14.474214
_cell_angle_alpha 50.407019
_cell_angle_beta 86.010785
_cell_angle_gamma 129.374424
_cell_volume 633.495913
_symmetry_space_group_name_H-M "P -1"
_symmetry_group_IT_number 2
_symmetry_cell_setting 'triclinic'
loop_
_space_group_symop_operation_xyz
x,y,z
-x,-y,-z
loop_
_atom_site_type_symbol
_atom_site_label
_atom_site_fract_x
_atom_site_fract_y
_atom_site_fract_z
Si Si1 0.930125 0.032435 0.698211
Si Si2 0.465970 0.372540 0.773965
Si Si3 0.784147 0.186604 0.711109
Si Si4 0.415282 0.048284 0.543208
Si Si5 0.780623 0.567312 0.311874
Si Si6 0.212407 0.781658 0.884893
Si Si7 0.165326 0.252872 0.287685
Si Si8 0.747968 0.905948 0.237690
O O1 0.798258 0.068064 0.708279
O O2 0.226390 0.316954 0.464500
O O3 0.051723 0.056110 0.769614
O O4 0.761025 0.777217 0.788299
O O5 0.232067 0.296318 0.807905
O O6 0.566339 0.453201 0.830817
O O7 0.368038 0.177731 0.814237
O O8 0.000000 0.500000 0.500000
O O9 0.915431 0.235937 0.771638
O O10 0.427658 0.918725 0.880698
O O11 0.452768 0.018690 0.659878
O O12 0.084945 0.840227 0.667469
O O13 0.500000 0.000000 0.500000
O O14 0.651729 0.366939 0.349131
O O15 0.538492 0.353806 0.530775
O O16 0.075755 0.811250 0.900572
O O17 0.000000 0.500000 0.000000
O O18 0.000000 0.000000 0.500000
#
# Coordination Sequence:
#
# PCOD9087829 Si02
#       8
#     2   2   2   2   2   2   2   2
#     4  10  17  30  52  82 119 154 197 253 297 348
#     4  10  16  27  52  83 119 146 194 249 307 341
#     4  12  20  32  60  91 114 152 212 254 289 352
#     4  11  22  35  57  89 125 157 202 253 298 360
#     4  10  17  30  50  89 114 142 197 262 286 340
#     4  11  25  41  57  87 129 160 197 253 316 363
#     4  10  19  29  51  88 125 154 188 250 320 348
#     4  10  16  34  57  75 116 159 196 246 302 344
#
# _framework density 25.256678999999998
#
# number of rings (size 3 to 8) (size 9 to 14) (size 15 to 20)
#    0.000    1.500   10.000    0.750    3.500    1.000 
#    0.000    0.625    0.000    3.000    0.000    2.625 
#    0.000    0.000    0.000    0.000    0.000    0.000 
#
# Total GULP energy -89252.054440 kJ/mol
# GULP energy per Si atom -5578.253403 kJ/mol
# Density = 2.519919 g / cm^3
# Si number density = 25.256679 Si / 1000 Ang^3
#
#
#
# Elastic Constant Matrix: (Units=GPa)
#
#
# Indices 1 2 3 4 5 6 
#
# 1 145.6111 52.0344 15.8611 -23.7764 10.4179 -9.1596
# 2 52.0344 180.0977 14.7025 -44.7708 10.7003 -21.0817
# 3 15.8611 14.7025 81.6865 -13.7340 0.0028 -11.3651
# 4 -23.7764 -44.7708 -13.7340 28.5466 -8.8232 8.3408
# 5 10.4179 10.7003 0.0028 -8.8232 16.0805 -14.0537
# 6 -9.1596 -21.0817 -11.3651 8.3408 -14.0537 53.4849
#
#
#
# Elastic Compliance Matrix: (Units=1/GPa)
#
#
# Indices 1 2 3 4 5 6 
#
# 1 0.008190 -0.001283 -0.000831 0.003670 -0.002998 -0.000640
# 2 -0.001283 0.009747 0.001572 0.015849 0.005632 0.002965
# 3 -0.000831 0.001572 0.014427 0.010190 0.008813 0.004269
# 4 0.003670 0.015849 0.010190 0.076728 0.034553 0.006155
# 5 -0.002998 0.005632 0.008813 0.034553 0.100937 0.024713
# 6 -0.000640 0.002965 0.004269 0.006155 0.024713 0.026197
#
#
# Mechanical properties :
#
#
# Convention : Reuss Voigt Hill
#
# Bulk Modulus (GPa) = 31.96929 63.62125 47.79527
# Shear Modulus (GPa) = 20.18260 41.27556 30.72908
#
# Velocity S-wave (km/s) = 2.82990 4.04696 3.49187
# Velocity P-wave (km/s) = 4.83353 6.86162 5.93485
#
# Compressibility (1/GPa) = 0.03128002
#
# Stress axis : x y z
#
# Youngs Moduli (GPa) = 122.09883 102.59267 69.31243
#
# Poissons Ratio (x) = 0.13162 0.05761
# Poissons Ratio (y) = 0.15664 -0.10894
# Poissons Ratio (z) = 0.10149 -0.16125
#
# Static dielectric constant tensor:
#      x y z
#    x 2.201340 0.021070 -0.062620 
#    y 0.021070 2.158040 -0.072390 
#    z -0.062620 -0.072390 2.127110 
# 
# From -- ./inp_files/559028.got.cif
#   From: 2010.05.17/outbox.cif.g08.bks.cpg/sg2_280_cif.got.tgz:559028.got - 2010.06.03 11:33:40.
