data_PCOD9087037
_publ_section_title
;
Structure prediction by ZEFSAII (Michael W. Deem and Ramdas Pophale) SiO2 
 PCOD9087037
Probable space group: P -1
;
_chemical_formula_sum "Si O2"
_cell_formula_units_Z 16
_cell_length_a 8.690891
_cell_length_b 12.672317
_cell_length_c 8.845000
_cell_angle_alpha 109.151194
_cell_angle_beta 116.493125
_cell_angle_gamma 66.678764
_cell_volume 786.894981
_symmetry_space_group_name_H-M "P -1"
_symmetry_group_IT_number 2
_symmetry_cell_setting 'triclinic'
loop_
_space_group_symop_operation_xyz
x,y,z
-x,-y,-z
loop_
_atom_site_type_symbol
_atom_site_label
_atom_site_fract_x
_atom_site_fract_y
_atom_site_fract_z
Si Si1 0.850070 0.349377 0.535903
Si Si2 0.054254 0.727492 0.796387
Si Si3 0.824702 0.979230 0.840541
Si Si4 0.190365 0.007657 0.515277
Si Si5 0.217581 0.383636 0.411967
Si Si6 0.231796 0.266101 0.692939
Si Si7 0.401507 0.796779 0.008834
Si Si8 0.570833 0.222212 0.348835
O O1 0.909394 0.278456 0.370944
O O2 0.772843 0.485036 0.526202
O O3 0.702740 0.293305 0.506347
O O4 0.032682 0.328744 0.700801
O O5 0.882068 0.839036 0.808141
O O6 0.977956 0.618500 0.737419
O O7 0.237037 0.742739 0.953686
O O8 0.812938 0.011347 0.674517
O O9 0.661408 0.068299 0.898674
O O10 0.000000 0.000000 0.000000
O O11 0.227312 0.131958 0.613111
O O12 0.353816 0.906132 0.609056
O O13 0.000000 0.000000 0.500000
O O14 0.237713 0.329830 0.564794
O O15 0.374747 0.299050 0.344566
O O16 0.407276 0.266485 0.863160
O O17 0.417013 0.790158 0.832207
#
# Coordination Sequence:
#
# PCOD9087037 Si02
#       8
#     2   2   2   2   2   2   2   2
#     4  10  20  43  64  88 121 166 215 255 307 366
#     4   9  18  38  59  86 122 157 205 249 307 358
#     4  10  19  36  61  89 126 161 197 245 314 371
#     4  12  21  39  64  93 130 162 201 257 313 380
#     4  11  22  40  69  90 114 171 219 257 298 367
#     4  11  22  40  65  93 123 162 214 251 311 375
#     4  10  23  40  57  93 134 163 200 255 313 376
#     4  11  24  41  61  95 132 164 203 257 313 366
#
# _framework density 20.333082999999998
#
# number of rings (size 3 to 8) (size 9 to 14) (size 15 to 20)
#    0.000    1.500    3.750    4.125    1.750    1.500 
#    4.500    6.250    0.000    1.500    0.000    0.000 
#    0.000    0.000    0.000    0.000    0.000    0.000 
#
# Total GULP energy -89190.279028 kJ/mol
# GULP energy per Si atom -5574.392439 kJ/mol
# Density = 2.028680 g / cm^3
# Si number density = 20.333083 Si / 1000 Ang^3
#
#
#
# Elastic Constant Matrix: (Units=GPa)
#
#
# Indices 1 2 3 4 5 6 
#
# 1 73.0685 24.5767 33.0870 -7.1533 18.3482 -11.5601
# 2 24.5767 112.2815 33.7364 -8.2763 13.7316 10.7685
# 3 33.0870 33.7364 87.1403 -14.8396 13.0812 -9.0163
# 4 -7.1533 -8.2763 -14.8396 20.0322 -4.1286 5.0012
# 5 18.3482 13.7316 13.0812 -4.1286 23.3636 -2.5962
# 6 -11.5601 10.7685 -9.0163 5.0012 -2.5962 29.7686
#
#
#
# Elastic Compliance Matrix: (Units=1/GPa)
#
#
# Indices 1 2 3 4 5 6 
#
# 1 0.020391 -0.002387 -0.004603 -0.001127 -0.011502 0.006574
# 2 -0.002387 0.011719 -0.003408 0.002484 -0.003435 -0.006915
# 3 -0.004603 -0.003408 0.016498 0.008054 -0.001871 0.002926
# 4 -0.001127 0.002484 0.008054 0.059561 0.004495 -0.008511
# 5 -0.011502 -0.003435 -0.001871 0.004495 0.055730 0.000314
# 6 0.006574 -0.006915 0.002926 -0.008511 0.000314 0.040990
#
#
# Mechanical properties :
#
#
# Convention : Reuss Voigt Hill
#
# Bulk Modulus (GPa) = 35.95564 50.58785 43.27175
# Shear Modulus (GPa) = 21.28062 26.70555 23.99309
#
# Velocity S-wave (km/s) = 3.23863 3.62802 3.43884
# Velocity P-wave (km/s) = 5.63087 6.51795 6.09058
#
# Compressibility (1/GPa) = 0.02781205
#
# Stress axis : x y z
#
# Youngs Moduli (GPa) = 49.04066 85.33292 60.61350
#
# Poissons Ratio (x) = 0.20370 0.27903
# Poissons Ratio (y) = 0.11706 0.20654
# Poissons Ratio (z) = 0.22575 0.29078
#
# Static dielectric constant tensor:
#      x y z
#    x 1.766680 -0.001710 0.038760 
#    y -0.001710 1.741840 0.016770 
#    z 0.038760 0.016770 1.696290 
# 
# From -- ./inp_files/181826.got.cif
#   From: 2010.05.17/outbox.cif.g08.bks.cpg/sg2_91_cif.got.tgz:181826.got - 2010.06.03 11:33:40.
