data_PCOD9087597
_publ_section_title
;
Structure prediction by ZEFSAII (Michael W. Deem and Ramdas Pophale) SiO2 
 PCOD9087597
Probable space group: P -1
;
_chemical_formula_sum "Si O2"
_cell_formula_units_Z 16
_cell_length_a 13.940110
_cell_length_b 8.661167
_cell_length_c 14.426346
_cell_angle_alpha 143.407943
_cell_angle_beta 51.202207
_cell_angle_gamma 126.419845
_cell_volume 793.677515
_symmetry_space_group_name_H-M "P -1"
_symmetry_group_IT_number 2
_symmetry_cell_setting 'triclinic'
loop_
_space_group_symop_operation_xyz
x,y,z
-x,-y,-z
loop_
_atom_site_type_symbol
_atom_site_label
_atom_site_fract_x
_atom_site_fract_y
_atom_site_fract_z
Si Si1 0.791968 0.510397 0.687648
Si Si2 0.933862 0.006933 0.944821
Si Si3 0.870894 0.987162 0.337248
Si Si4 0.714098 0.584774 0.569110
Si Si5 0.478369 0.740443 0.187893
Si Si6 0.479766 0.717658 0.691366
Si Si7 0.631609 0.978507 0.365893
Si Si8 0.196732 0.488970 0.723062
O O1 0.781400 0.644973 0.657255
O O2 0.654650 0.345402 0.720455
O O3 0.837994 0.736034 0.844407
O O4 0.876539 0.284748 0.516231
O O5 0.034495 0.021588 0.808132
O O6 0.873419 0.265948 0.113267
O O7 0.000000 0.000000 0.000000
O O8 0.730579 0.906779 0.341658
O O9 0.878786 0.762406 0.297832
O O10 0.584418 0.695899 0.695361
O O11 0.782632 0.628547 0.449059
O O12 0.685152 0.267621 0.434805
O O13 0.593644 0.787500 0.212154
O O14 0.488174 0.001018 0.244279
O O15 0.500000 0.500000 0.000000
O O16 0.500000 0.500000 0.500000
O O17 0.331821 0.619098 0.751191
O O18 0.500000 0.000000 0.500000
#
# Coordination Sequence:
#
# PCOD9087597 Si02
#       8
#     2   2   2   2   2   2   2   2
#     4  11  24  43  65  98 127 168 221 263 311 391
#     4  12  27  47  66  89 128 175 218 271 324 368
#     4  11  24  42  70  92 128 171 223 257 312 387
#     4  10  20  37  69  93 129 170 211 254 319 386
#     4  12  23  36  61  99 137 159 210 263 327 372
#     4  10  19  36  64  95 131 169 205 250 322 390
#     4  11  19  38  64  97 126 168 208 261 317 388
#     4  11  22  41  65  97 130 169 214 263 322 375
#
# _framework density 20.159320999999998
#
# number of rings (size 3 to 8) (size 9 to 14) (size 15 to 20)
#    0.000    1.000    5.000    5.250    1.750    0.000 
#    2.250    6.250    0.000    0.000    0.000    0.000 
#    0.000    0.000    0.000    0.000    0.000    0.000 
#
# Total GULP energy -89244.177063 kJ/mol
# GULP energy per Si atom -5577.761066 kJ/mol
# Density = 2.011344 g / cm^3
# Si number density = 20.159321 Si / 1000 Ang^3
#
#
#
# Elastic Constant Matrix: (Units=GPa)
#
#
# Indices 1 2 3 4 5 6 
#
# 1 75.3713 11.3244 36.5215 19.7080 3.5937 -7.5342
# 2 11.3244 85.1154 8.9211 3.0047 -1.2201 -15.3404
# 3 36.5215 8.9211 89.4873 15.8009 -2.6493 -9.7349
# 4 19.7080 3.0047 15.8009 32.2277 5.0843 -6.4553
# 5 3.5937 -1.2201 -2.6493 5.0843 45.9410 1.0469
# 6 -7.5342 -15.3404 -9.7349 -6.4553 1.0469 24.7707
#
#
#
# Elastic Compliance Matrix: (Units=1/GPa)
#
#
# Indices 1 2 3 4 5 6 
#
# 1 0.018593 -0.001521 -0.006008 -0.008074 -0.000954 0.000288
# 2 -0.001521 0.013379 -0.000056 0.001318 0.000140 0.008139
# 3 -0.006008 -0.000056 0.014552 -0.003109 0.001584 0.002980
# 4 -0.008074 0.001318 -0.003109 0.039534 -0.004061 0.007613
# 5 -0.000954 0.000140 0.001584 -0.004061 0.022422 -0.001587
# 6 0.000288 0.008139 0.002980 0.007613 -0.001587 0.048720
#
#
# Mechanical properties :
#
#
# Convention : Reuss Voigt Hill
#
# Bulk Modulus (GPa) = 31.89319 40.38977 36.14148
# Shear Modulus (GPa) = 27.34900 33.46833 30.40866
#
# Velocity S-wave (km/s) = 3.68726 4.07896 3.88805
# Velocity P-wave (km/s) = 5.82947 6.50098 6.17436
#
# Compressibility (1/GPa) = 0.03135466
#
# Stress axis : x y z
#
# Youngs Moduli (GPa) = 53.78435 74.74227 68.71823
#
# Poissons Ratio (x) = 0.11366 0.41283
# Poissons Ratio (y) = 0.08179 0.00388
# Poissons Ratio (z) = 0.32312 0.00422
#
# Static dielectric constant tensor:
#      x y z
#    x 1.789830 0.012050 -0.003080 
#    y 0.012050 1.751490 -0.023710 
#    z -0.003080 -0.023710 1.681580 
# 
# From -- ./inp_files/318063.got.cif
#   From: 2010.05.17/outbox.cif.g08.bks.cpg/sg2_160_cif.got.tgz:318063.got - 2010.06.03 11:33:40.
