data_PCOD9087996
_publ_section_title
;
Structure prediction by ZEFSAII (Michael W. Deem and Ramdas Pophale) SiO2 
 PCOD9087996
Probable space group: P -1
;
_chemical_formula_sum "Si O2"
_cell_formula_units_Z 14
_cell_length_a 9.470425
_cell_length_b 6.755879
_cell_length_c 10.306482
_cell_angle_alpha 59.276666
_cell_angle_beta 99.225707
_cell_angle_gamma 93.603663
_cell_volume 559.392366
_symmetry_space_group_name_H-M "P -1"
_symmetry_group_IT_number 2
_symmetry_cell_setting 'triclinic'
loop_
_space_group_symop_operation_xyz
x,y,z
-x,-y,-z
loop_
_atom_site_type_symbol
_atom_site_label
_atom_site_fract_x
_atom_site_fract_y
_atom_site_fract_z
Si Si1 0.357329 0.994060 0.890904
Si Si2 0.308534 0.965989 0.597658
Si Si3 0.113523 0.313142 0.814473
Si Si4 0.876509 0.936923 0.836034
Si Si5 0.913165 0.714858 0.636955
Si Si6 0.487157 0.631336 0.590527
Si Si7 0.706670 0.304059 0.806442
O O1 0.368534 0.929130 0.764005
O O2 0.264622 0.230529 0.805892
O O3 0.500000 0.000000 0.000000
O O4 0.258468 0.807586 0.012338
O O5 0.150437 0.088584 0.534555
O O6 0.403453 0.161967 0.479935
O O7 0.343192 0.745174 0.587273
O O8 0.061059 0.572185 0.687176
O O9 0.119686 0.261259 0.987301
O O10 0.997832 0.125877 0.813640
O O11 0.898577 0.830122 0.736085
O O12 0.728142 0.085676 0.786397
O O13 0.808069 0.497821 0.702019
O O14 0.500000 0.500000 0.500000
O O15 0.557115 0.437768 0.757490
#
# Coordination Sequence:
#
# PCOD9087996 Si02
#       7
#     2   2   2   2   2   2   2
#     4  11  23  41  58  85 127 160 191 246 298 348
#     4  10  23  37  58  89 118 154 200 239 293 358
#     4   9  20  35  59  88 117 152 196 239 293 352
#     4   9  17  36  61  89 115 148 198 250 286 337
#     4  10  19  37  64  89 114 152 199 246 290 343
#     4  10  19  37  58  81 114 156 198 240 284 344
#     4   9  20  35  59  86 114 151 196 238 287 348
#
# _framework density 25.027155
#
# number of rings (size 3 to 8) (size 9 to 14) (size 15 to 20)
#    0.000    2.286    0.000    3.000    0.000    6.857 
#    0.000    6.429    0.000    0.000    0.000    0.000 
#    0.000    0.000    0.000    0.000    0.000    0.000 
#
# Total GULP energy -78166.901020 kJ/mol
# GULP energy per Si atom -5583.350073 kJ/mol
# Density = 2.497019 g / cm^3
# Si number density = 25.027155 Si / 1000 Ang^3
#
#
#
# Elastic Constant Matrix: (Units=GPa)
#
#
# Indices 1 2 3 4 5 6 
#
# 1 83.2692 44.2506 8.9003 -3.0396 -0.8431 -39.7977
# 2 44.2506 147.9615 52.1101 -22.3220 20.2946 -48.6150
# 3 8.9003 52.1101 84.0049 1.6669 17.1428 -24.1336
# 4 -3.0396 -22.3220 1.6669 37.3383 1.9138 7.1606
# 5 -0.8431 20.2946 17.1428 1.9138 23.6155 -10.3213
# 6 -39.7977 -48.6150 -24.1336 7.1606 -10.3213 35.9491
#
#
#
# Elastic Compliance Matrix: (Units=1/GPa)
#
#
# Indices 1 2 3 4 5 6 
#
# 1 0.035927 -0.000386 0.007439 -0.008513 0.019420 0.051516
# 2 -0.000386 0.014386 -0.004271 0.006299 -0.003742 0.013831
# 3 0.007439 -0.004271 0.018846 -0.005636 -0.002507 0.015514
# 4 -0.008513 0.006299 -0.005636 0.033412 -0.010625 -0.014395
# 5 0.019420 -0.003742 -0.002507 -0.010625 0.064389 0.035358
# 6 0.051516 0.013831 0.015514 -0.014395 0.035358 0.126987
#
#
# Mechanical properties :
#
#
# Convention : Reuss Voigt Hill
#
# Bulk Modulus (GPa) = 13.38283 58.41751 35.90017
# Shear Modulus (GPa) = 15.95970 33.37891 24.66930
#
# Velocity S-wave (km/s) = 2.52800 3.65596 3.14299
# Velocity P-wave (km/s) = 3.72559 6.41979 5.24851
#
# Compressibility (1/GPa) = 0.07472263
#
# Stress axis : x y z
#
# Youngs Moduli (GPa) = 27.83438 69.51153 53.06244
#
# Poissons Ratio (x) = 0.02683 -0.39473
# Poissons Ratio (y) = 0.01074 0.22663
# Poissons Ratio (z) = -0.20706 0.29688
#
# Static dielectric constant tensor:
#      x y z
#    x 0.977790 0.323260 -1.283180 
#    y 0.323260 1.866330 0.371320 
#    z -1.283180 0.371320 0.363300 
# 
# From -- ./inp_files/229623.got.cif
#   From: 2010.05.17/outbox.cif.g08.bks.cpg/sg2_115_cif.got.tgz:229623.got - 2010.06.03 11:33:40.
