data_PCOD9087324
_publ_section_title
;
Structure prediction by ZEFSAII (Michael W. Deem and Ramdas Pophale) SiO2 
 PCOD9087324
Probable space group: P -1
;
_chemical_formula_sum "Si O2"
_cell_formula_units_Z 16
_cell_length_a 12.266857
_cell_length_b 9.539921
_cell_length_c 8.094859
_cell_angle_alpha 48.670328
_cell_angle_beta 64.771166
_cell_angle_gamma 60.682931
_cell_volume 612.536762
_symmetry_space_group_name_H-M "P -1"
_symmetry_group_IT_number 2
_symmetry_cell_setting 'triclinic'
loop_
_space_group_symop_operation_xyz
x,y,z
-x,-y,-z
loop_
_atom_site_type_symbol
_atom_site_label
_atom_site_fract_x
_atom_site_fract_y
_atom_site_fract_z
Si Si1 0.084310 0.344112 0.202682
Si Si2 0.916494 0.973648 0.304473
Si Si3 0.510295 0.444511 0.223076
Si Si4 0.496474 0.130235 0.687653
Si Si5 0.986244 0.713504 0.157299
Si Si6 0.297514 0.756301 0.333089
Si Si7 0.711026 0.561282 0.196111
Si Si8 0.733339 0.980750 0.141074
O O1 0.078427 0.137063 0.438917
O O2 0.217376 0.322001 0.049774
O O3 0.000000 0.500000 0.000000
O O4 0.060872 0.487842 0.265032
O O5 0.779375 0.024537 0.258242
O O6 0.999689 0.815203 0.241610
O O7 0.962252 0.165154 0.109409
O O8 0.496124 0.234398 0.432825
O O9 0.405140 0.591699 0.291556
O O10 0.642079 0.457548 0.193549
O O11 0.500000 0.500000 0.000000
O O12 0.629619 0.125432 0.690162
O O13 0.397616 0.280266 0.757041
O O14 0.415967 0.981595 0.820947
O O15 0.832657 0.762532 0.210263
O O16 0.224415 0.627945 0.580628
O O17 0.227042 0.897547 0.124643
#
# Coordination Sequence:
#
# PCOD9087324 Si02
#       8
#     2   2   2   2   2   2   2   2
#     4  12  24  38  64  90 120 159 201 243 301 351
#     4   9  23  42  58  88 121 152 209 242 295 355
#     4   9  19  35  59  84 116 148 194 245 285 350
#     4   9  18  37  58  84 114 152 197 237 288 358
#     4   9  22  43  60  86 124 154 201 249 294 350
#     4   9  19  37  59  81 118 153 192 236 296 356
#     4   9  21  37  54  88 116 154 197 236 294 357
#     4  10  19  36  63  83 111 155 195 238 299 341
#
# _framework density 26.120882999999999
#
# number of rings (size 3 to 8) (size 9 to 14) (size 15 to 20)
#    0.750    1.750    0.000    3.000    3.500    1.500 
#    4.500    0.625    0.000    0.000    0.000    0.000 
#    0.000    0.000    0.000    0.000    0.000    0.000 
#
# Total GULP energy -89207.759036 kJ/mol
# GULP energy per Si atom -5575.484940 kJ/mol
# Density = 2.606143 g / cm^3
# Si number density = 26.120883 Si / 1000 Ang^3
#
#
#
# Elastic Constant Matrix: (Units=GPa)
#
#
# Indices 1 2 3 4 5 6 
#
# 1 69.2534 2.5809 31.2931 -6.8356 -0.8955 9.8196
# 2 2.5809 65.3783 6.7594 -0.3258 -7.1030 0.6527
# 3 31.2931 6.7594 194.9157 -5.7808 -0.5122 4.0534
# 4 -6.8356 -0.3258 -5.7808 32.9134 5.5276 -2.6455
# 5 -0.8955 -7.1030 -0.5122 5.5276 34.6379 1.9986
# 6 9.8196 0.6527 4.0534 -2.6455 1.9986 22.8719
#
#
#
# Elastic Compliance Matrix: (Units=1/GPa)
#
#
# Indices 1 2 3 4 5 6 
#
# 1 0.016732 -0.000294 -0.002467 0.002465 0.000316 -0.006480
# 2 -0.000294 0.015724 -0.000495 -0.000601 0.003340 -0.000596
# 3 -0.002467 -0.000495 0.005555 0.000500 -0.000172 0.000162
# 4 0.002465 -0.000601 0.000500 0.032121 -0.005354 0.003054
# 5 0.000316 0.003340 -0.000172 -0.005354 0.030617 -0.003495
# 6 -0.006480 -0.000596 0.000162 0.003054 -0.003495 0.047151
#
#
# Mechanical properties :
#
#
# Convention : Reuss Voigt Hill
#
# Bulk Modulus (GPa) = 31.74765 45.64604 38.69684
# Shear Modulus (GPa) = 30.31930 37.34556 33.83243
#
# Velocity S-wave (km/s) = 3.41065 3.78527 3.60283
# Velocity P-wave (km/s) = 5.26218 6.05121 5.67044
#
# Compressibility (1/GPa) = 0.03149839
#
# Stress axis : x y z
#
# Youngs Moduli (GPa) = 59.76639 63.59639 180.02706
#
# Poissons Ratio (x) = 0.01870 0.44419
# Poissons Ratio (y) = 0.01758 0.08907
# Poissons Ratio (z) = 0.14746 0.03146
#
# Static dielectric constant tensor:
#      x y z
#    x 2.128260 -0.047640 0.001220 
#    y -0.047640 2.089980 0.009600 
#    z 0.001220 0.009600 2.115980 
# 
# From -- ./inp_files/306181.got.cif
#   From: 2010.05.17/outbox.cif.g08.bks.cpg/sg2_154_cif.got.tgz:306181.got - 2010.06.03 11:33:40.
