data_PCOD9087879
_publ_section_title
;
Structure prediction by ZEFSAII (Michael W. Deem and Ramdas Pophale) SiO2 
 PCOD9087879
Probable space group: P -1
;
_chemical_formula_sum "Si O2"
_cell_formula_units_Z 16
_cell_length_a 11.963749
_cell_length_b 14.710326
_cell_length_c 17.008973
_cell_angle_alpha 37.852309
_cell_angle_beta 137.731928
_cell_angle_gamma 151.340428
_cell_volume 869.581242
_symmetry_space_group_name_H-M "P -1"
_symmetry_group_IT_number 2
_symmetry_cell_setting 'triclinic'
loop_
_space_group_symop_operation_xyz
x,y,z
-x,-y,-z
loop_
_atom_site_type_symbol
_atom_site_label
_atom_site_fract_x
_atom_site_fract_y
_atom_site_fract_z
Si Si1 0.362621 0.900449 0.372672
Si Si2 0.498060 0.158764 0.842779
Si Si3 0.440533 0.962769 0.790923
Si Si4 0.120452 0.289528 0.805541
Si Si5 0.977589 0.870088 0.808003
Si Si6 0.465807 0.221407 0.325977
Si Si7 0.067889 0.406436 0.154141
Si Si8 0.868922 0.039419 0.005892
O O1 0.425312 0.810242 0.526890
O O2 0.084654 0.742065 0.319147
O O3 0.491665 0.961980 0.314477
O O4 0.443831 0.104769 0.317143
O O5 0.704557 0.395644 0.816305
O O6 0.517226 0.133629 0.778048
O O7 0.246368 0.075495 0.784045
O O8 0.500000 0.000000 0.000000
O O9 0.162015 0.766439 0.793618
O O10 0.603347 0.927130 0.927339
O O11 0.364244 0.531639 0.768526
O O12 0.135634 0.141372 0.870966
O O13 0.027522 0.192435 0.910915
O O14 0.791329 0.882938 0.711765
O O15 0.891532 0.703483 0.809486
O O16 0.017922 0.828295 0.945018
O O17 0.000000 0.500000 0.000000
#
# Coordination Sequence:
#
# PCOD9087879 Si02
#       8
#     2   2   2   2   2   2   2   2
#     4  10  23  44  58  82 117 157 205 246 273 336
#     4  11  20  36  54  85 121 149 183 234 294 348
#     4  10  21  37  60  84 118 153 189 241 289 344
#     4  10  22  37  57  87 120 153 190 238 296 345
#     4  11  22  35  56  89 117 152 185 240 289 347
#     4  11  24  39  62  83 115 163 201 234 287 344
#     4  11  20  34  58  87 116 153 188 225 300 362
#     4  10  19  37  55  90 127 143 182 249 292 348
#
# _framework density 18.399660000000001
#
# number of rings (size 3 to 8) (size 9 to 14) (size 15 to 20)
#    0.000    1.500    5.000    0.375    3.500    3.500 
#    0.000    2.500    0.000    1.500    0.000    0.000 
#    0.000    0.000    0.000    0.000    0.000    0.000 
#
# Total GULP energy -89278.765964 kJ/mol
# GULP energy per Si atom -5579.922873 kJ/mol
# Density = 1.835778 g / cm^3
# Si number density = 18.399660 Si / 1000 Ang^3
#
#
#
# Elastic Constant Matrix: (Units=GPa)
#
#
# Indices 1 2 3 4 5 6 
#
# 1 133.6056 63.3674 29.4268 7.6648 -5.9047 -7.1483
# 2 63.3674 138.3894 23.4166 5.4188 3.6363 -8.1030
# 3 29.4268 23.4166 37.1910 7.0236 6.0322 0.3983
# 4 7.6648 5.4188 7.0236 19.0229 -2.4920 0.2960
# 5 -5.9047 3.6363 6.0322 -2.4920 19.8160 9.6423
# 6 -7.1483 -8.1030 0.3983 0.2960 9.6423 12.2893
#
#
#
# Elastic Compliance Matrix: (Units=1/GPa)
#
#
# Indices 1 2 3 4 5 6 
#
# 1 0.011374 -0.004235 -0.007588 0.000417 0.007365 -0.001719
# 2 -0.004235 0.010367 -0.001598 -0.001906 -0.008237 0.010933
# 3 -0.007588 -0.001598 0.039778 -0.014020 -0.020570 0.009721
# 4 0.000417 -0.001906 -0.014020 0.061264 0.021735 -0.019089
# 5 0.007365 -0.008237 -0.020570 0.021735 0.102965 -0.081792
# 6 -0.001719 0.010933 0.009721 -0.019089 -0.081792 0.151900
#
#
# Mechanical properties :
#
#
# Convention : Reuss Voigt Hill
#
# Bulk Modulus (GPa) = 28.83673 60.17863 44.50768
# Shear Modulus (GPa) = 12.01785 23.09065 17.55425
#
# Velocity S-wave (km/s) = 2.55846 3.54637 3.09213
# Velocity P-wave (km/s) = 4.94309 7.03892 6.08196
#
# Compressibility (1/GPa) = 0.03467799
#
# Stress axis : x y z
#
# Youngs Moduli (GPa) = 87.91949 96.46433 25.13952
#
# Poissons Ratio (x) = 0.40849 0.19076
# Poissons Ratio (y) = 0.37230 0.04016
# Poissons Ratio (z) = 0.66714 0.15411
#
# Static dielectric constant tensor:
#      x y z
#    x 1.622790 0.063320 0.046870 
#    y 0.063320 1.492070 -0.064560 
#    z 0.046870 -0.064560 1.572860 
# 
# From -- ./inp_files/569530.got.cif
#   From: 2010.05.17/outbox.cif.g08.bks.cpg/sg2_285_cif.got.tgz:569530.got - 2010.06.03 11:33:40.
