data_PCOD9087484
_publ_section_title
;
Structure prediction by ZEFSAII (Michael W. Deem and Ramdas Pophale) SiO2 
 PCOD9087484
Probable space group: P -1
;
_chemical_formula_sum "Si O2"
_cell_formula_units_Z 12
_cell_length_a 9.780112
_cell_length_b 7.297458
_cell_length_c 9.298434
_cell_angle_alpha 67.402647
_cell_angle_beta 111.511302
_cell_angle_gamma 119.956292
_cell_volume 517.998721
_symmetry_space_group_name_H-M "P -1"
_symmetry_group_IT_number 2
_symmetry_cell_setting 'triclinic'
loop_
_space_group_symop_operation_xyz
x,y,z
-x,-y,-z
loop_
_atom_site_type_symbol
_atom_site_label
_atom_site_fract_x
_atom_site_fract_y
_atom_site_fract_z
Si Si1 0.608463 0.666658 0.372522
Si Si2 0.407582 0.614266 0.024442
Si Si3 0.548036 0.957757 0.764520
Si Si4 0.702465 0.309945 0.490198
Si Si5 0.862310 0.021009 0.537167
Si Si6 0.157082 0.157875 0.098891
O O1 0.500000 0.500000 0.500000
O O2 0.501497 0.666411 0.195937
O O3 0.736542 0.562748 0.416260
O O4 0.701218 0.895184 0.417485
O O5 0.227325 0.420468 0.026512
O O6 0.500000 0.500000 0.000000
O O7 0.427495 0.837015 0.886580
O O8 0.452211 0.806293 0.639053
O O9 0.702831 0.911839 0.878068
O O10 0.638302 0.198355 0.654992
O O11 0.842649 0.239551 0.512294
O O12 0.858693 0.894630 0.721641
O O13 0.000000 0.000000 0.500000
O O14 0.000000 0.000000 0.000000
#
# Coordination Sequence:
#
# PCOD9087484 Si02
#       6
#     2   2   2   2   2   2
#     4  12  21  41  72  94 133 171 219 273 317 394
#     4  10  19  36  64 101 122 177 217 255 332 393
#     4   9  18  36  66  93 121 168 217 255 325 390
#     4  10  20  42  66  97 133 166 221 276 318 383
#     4  11  26  41  64 100 127 175 223 265 333 383
#     4  10  20  37  63  92 133 169 206 267 331 383
#
# _framework density 23.166081999999999
#
# number of rings (size 3 to 8) (size 9 to 14) (size 15 to 20)
#    0.000    1.667    5.000    2.000    4.667    0.667 
#    0.000    5.000    0.000    8.000    0.000    0.000 
#    0.000    0.000    0.000    0.000    0.000    0.000 
#
# Total GULP energy -66905.878366 kJ/mol
# GULP energy per Si atom -5575.489864 kJ/mol
# Density = 2.311335 g / cm^3
# Si number density = 23.166082 Si / 1000 Ang^3
#
#
#
# Elastic Constant Matrix: (Units=GPa)
#
#
# Indices 1 2 3 4 5 6 
#
# 1 87.3485 30.7261 12.6303 -3.1164 0.7375 -3.4178
# 2 30.7261 110.2495 69.0638 -3.9682 0.6591 -5.1897
# 3 12.6303 69.0638 164.0065 0.3759 -6.2771 11.5778
# 4 -3.1164 -3.9682 0.3759 38.6703 -8.3697 9.2926
# 5 0.7375 0.6591 -6.2771 -8.3697 27.6789 2.4860
# 6 -3.4178 -5.1897 11.5778 9.2926 2.4860 38.1677
#
#
#
# Elastic Compliance Matrix: (Units=1/GPa)
#
#
# Indices 1 2 3 4 5 6 
#
# 1 0.012769 -0.003937 0.000656 0.000565 0.000049 0.000268
# 2 -0.003937 0.014061 -0.005938 -0.000073 -0.001913 0.003503
# 3 0.000656 -0.005938 0.008923 0.000879 0.002759 -0.003849
# 4 0.000565 -0.000073 0.000879 0.030021 0.009999 -0.008186
# 5 0.000049 -0.001913 0.002759 0.009999 0.040375 -0.006157
# 6 0.000268 0.003503 -0.003849 -0.008186 -0.006157 0.030262
#
#
# Mechanical properties :
#
#
# Convention : Reuss Voigt Hill
#
# Bulk Modulus (GPa) = 57.75578 65.16057 61.45817
# Shear Modulus (GPa) = 31.12932 37.51566 34.32249
#
# Velocity S-wave (km/s) = 3.66969 4.02857 3.85331
# Velocity P-wave (km/s) = 6.55292 7.05888 6.81060
#
# Compressibility (1/GPa) = 0.01731428
#
# Stress axis : x y z
#
# Youngs Moduli (GPa) = 78.31698 71.11722 112.07277
#
# Poissons Ratio (x) = 0.27999 -0.07354
# Poissons Ratio (y) = 0.30833 0.66554
# Poissons Ratio (z) = -0.05139 0.42232
#
# Static dielectric constant tensor:
#      x y z
#    x 1.831500 0.139770 -0.130060 
#    y 0.139770 1.702650 0.085480 
#    z -0.130060 0.085480 1.764430 
# 
# From -- ./inp_files/242726.got.cif
#   From: 2010.05.17/outbox.cif.g08.bks.cpg/sg2_122_cif.got.tgz:242726.got - 2010.06.03 11:33:40.
