data_PCOD9087011
_publ_section_title
;
Structure prediction by ZEFSAII (Michael W. Deem and Ramdas Pophale) SiO2 
 PCOD9087011
Probable space group: P -1
;
_chemical_formula_sum "Si O2"
_cell_formula_units_Z 16
_cell_length_a 19.201785
_cell_length_b 8.162765
_cell_length_c 10.805182
_cell_angle_alpha 61.154328
_cell_angle_beta 47.716121
_cell_angle_gamma 100.032556
_cell_volume 700.609900
_symmetry_space_group_name_H-M "P -1"
_symmetry_group_IT_number 2
_symmetry_cell_setting 'triclinic'
loop_
_space_group_symop_operation_xyz
x,y,z
-x,-y,-z
loop_
_atom_site_type_symbol
_atom_site_label
_atom_site_fract_x
_atom_site_fract_y
_atom_site_fract_z
Si Si1 0.943464 0.131348 0.885721
Si Si2 0.861375 0.201566 0.343368
Si Si3 0.550010 0.871231 0.440355
Si Si4 0.679658 0.819798 0.499238
Si Si5 0.794381 0.692258 0.545908
Si Si6 0.809192 0.511276 0.848529
Si Si7 0.264942 0.297342 0.920644
Si Si8 0.897881 0.259715 0.561723
O O1 0.088826 0.235058 0.706827
O O2 0.016125 0.419446 0.622040
O O3 0.841396 0.857696 0.013582
O O4 0.833042 0.029930 0.161668
O O5 0.852135 0.237210 0.483799
O O6 0.718825 0.017076 0.494651
O O7 0.874811 0.997736 0.394721
O O8 0.000000 0.500000 0.000000
O O9 0.560491 0.732531 0.586884
O O10 0.500000 0.000000 0.500000
O O11 0.433996 0.611358 0.576742
O O12 0.715936 0.177472 0.094876
O O13 0.661447 0.586957 0.667588
O O14 0.764400 0.522812 0.763754
O O15 0.774203 0.613289 0.957360
O O16 0.978021 0.712440 0.592729
O O17 0.238486 0.046854 0.095000
#
# Coordination Sequence:
#
# PCOD9087011 Si02
#       8
#     2   2   2   2   2   2   2   2
#     4  12  22  36  62  96 133 158 206 257 323 367
#     4  10  19  36  61  88 125 164 201 254 315 358
#     4  10  23  43  65  89 123 168 215 254 308 375
#     4  10  22  40  58  91 128 166 201 257 312 371
#     4  10  22  37  63  93 127 162 202 261 317 361
#     4  11  20  42  65  91 124 162 218 262 301 365
#     4  11  23  36  62  97 122 164 211 261 308 368
#     4  12  20  37  62  97 124 162 209 267 302 364
#
# _framework density 22.837243000000001
#
# number of rings (size 3 to 8) (size 9 to 14) (size 15 to 20)
#    0.750    0.500    5.000    1.875    0.000    1.500 
#    0.000    5.625    0.000    1.500    0.000    0.000 
#    0.000    0.000    0.000    0.000    0.000    0.000 
#
# Total GULP energy -89172.274870 kJ/mol
# GULP energy per Si atom -5573.267179 kJ/mol
# Density = 2.278526 g / cm^3
# Si number density = 22.837243 Si / 1000 Ang^3
#
#
#
# Elastic Constant Matrix: (Units=GPa)
#
#
# Indices 1 2 3 4 5 6 
#
# 1 100.2097 16.7268 0.9811 -5.5490 9.7955 -6.5399
# 2 16.7268 80.0715 15.5224 -4.5139 -9.3163 3.8918
# 3 0.9811 15.5224 48.3546 -20.5128 -1.0359 12.5538
# 4 -5.5490 -4.5139 -20.5128 36.8980 6.6632 0.8048
# 5 9.7955 -9.3163 -1.0359 6.6632 28.3213 -0.0942
# 6 -6.5399 3.8918 12.5538 0.8048 -0.0942 26.8486
#
#
#
# Elastic Compliance Matrix: (Units=1/GPa)
#
#
# Indices 1 2 3 4 5 6 
#
# 1 0.011393 -0.003246 0.001313 0.003014 -0.005661 0.002521
# 2 -0.003246 0.014895 -0.005872 -0.003109 0.006539 -0.000088
# 3 0.001313 -0.005872 0.035247 0.020501 -0.005973 -0.015945
# 4 0.003014 -0.003109 0.020501 0.040757 -0.010936 -0.009661
# 5 -0.005661 0.006539 -0.005973 -0.010936 0.041776 0.000940
# 6 0.002521 -0.000088 -0.015945 -0.009661 0.000940 0.045621
#
#
# Mechanical properties :
#
#
# Convention : Reuss Voigt Hill
#
# Bulk Modulus (GPa) = 21.77369 32.78848 27.28108
# Shear Modulus (GPa) = 22.66485 31.44063 27.05274
#
# Velocity S-wave (km/s) = 3.15374 3.71445 3.44552
# Velocity P-wave (km/s) = 4.77665 5.72580 5.27263
#
# Compressibility (1/GPa) = 0.04592700
#
# Stress axis : x y z
#
# Youngs Moduli (GPa) = 87.77507 67.13699 28.37108
#
# Poissons Ratio (x) = 0.21791 -0.03726
# Poissons Ratio (y) = 0.28490 0.16658
# Poissons Ratio (z) = -0.11528 0.39419
#
# Static dielectric constant tensor:
#      x y z
#    x 1.971110 0.030910 0.034330 
#    y 0.030910 1.861450 0.042420 
#    z 0.034330 0.042420 1.916630 
# 
# From -- ./inp_files/469232.got.cif
#   From: 2010.05.17/outbox.cif.g08.bks.cpg/sg2_235_cif.got.tgz:469232.got - 2010.06.03 11:33:40.
