data_PCOD9087477
_publ_section_title
;
Structure prediction by ZEFSAII (Michael W. Deem and Ramdas Pophale) SiO2 
 PCOD9087477
Probable space group: P -1
;
_chemical_formula_sum "Si O2"
_cell_formula_units_Z 14
_cell_length_a 10.605532
_cell_length_b 5.141053
_cell_length_c 10.991083
_cell_angle_alpha 67.554844
_cell_angle_beta 101.889512
_cell_angle_gamma 93.370475
_cell_volume 541.862477
_symmetry_space_group_name_H-M "P -1"
_symmetry_group_IT_number 2
_symmetry_cell_setting 'triclinic'
loop_
_space_group_symop_operation_xyz
x,y,z
-x,-y,-z
loop_
_atom_site_type_symbol
_atom_site_label
_atom_site_fract_x
_atom_site_fract_y
_atom_site_fract_z
Si Si1 0.335893 0.909255 0.324265
Si Si2 0.215786 0.066502 0.513165
Si Si3 0.968044 0.403755 0.373752
Si Si4 0.086438 0.778886 0.160392
Si Si5 0.198275 0.355224 0.064506
Si Si6 0.615941 0.370838 0.125826
Si Si7 0.599757 0.728940 0.295961
O O1 0.320973 0.973698 0.451348
O O2 0.314467 0.199715 0.191614
O O3 0.464965 0.750317 0.337481
O O4 0.208361 0.749870 0.284959
O O5 0.091859 0.206638 0.396381
O O6 0.152977 0.798667 0.614361
O O7 0.282489 0.271618 0.585423
O O8 0.000000 0.500000 0.500000
O O9 0.968831 0.669914 0.237026
O O10 0.125326 0.573338 0.096787
O O11 0.102720 0.100422 0.064962
O O12 0.257574 0.510019 0.934637
O O13 0.612565 0.034274 0.180004
O O14 0.600952 0.489627 0.237934
O O15 0.500000 0.500000 0.000000
#
# Coordination Sequence:
#
# PCOD9087477 Si02
#       7
#     2   2   2   2   2   2   2
#     4  10  21  39  63  96 135 169 208 263 332 395
#     4  11  25  42  62 104 133 174 215 270 337 389
#     4  11  21  41  69  91 132 176 223 265 325 401
#     4  10  19  36  63  98 115 167 219 270 307 384
#     4  10  20  36  65  94 122 163 230 250 319 375
#     4  12  23  44  66  94 133 183 220 262 318 399
#     4  12  27  40  67 100 142 170 212 275 327 393
#
# _framework density 25.836815999999999
#
# number of rings (size 3 to 8) (size 9 to 14) (size 15 to 20)
#    0.857    0.286    4.286    2.571    4.000    0.000 
#    0.000    2.143    0.000    5.143    0.000    0.000 
#    0.000    0.000    0.000    0.000    0.000    0.000 
#
# Total GULP energy -78492.567975 kJ/mol
# GULP energy per Si atom -5606.611998 kJ/mol
# Density = 2.577801 g / cm^3
# Si number density = 25.836816 Si / 1000 Ang^3
#
#
#
# Elastic Constant Matrix: (Units=GPa)
#
#
# Indices 1 2 3 4 5 6 
#
# 1 76.6395 2.9572 29.4173 3.2981 -4.7400 2.4346
# 2 2.9572 88.0802 6.2637 3.0340 -10.5156 3.4106
# 3 29.4173 6.2637 90.0028 -0.6299 -20.2294 -1.3188
# 4 3.2981 3.0340 -0.6299 59.6942 3.6267 -1.5983
# 5 -4.7400 -10.5156 -20.2294 3.6267 51.9389 -1.3858
# 6 2.4346 3.4106 -1.3188 -1.5983 -1.3858 43.4618
#
#
#
# Elastic Compliance Matrix: (Units=1/GPa)
#
#
# Indices 1 2 3 4 5 6 
#
# 1 0.015028 -0.000146 -0.005057 -0.000868 -0.000595 -0.001035
# 2 -0.000146 0.011710 -0.000273 -0.000752 0.002280 -0.000874
# 3 -0.005057 -0.000273 0.013900 0.000165 0.004909 0.000889
# 4 -0.000868 -0.000752 0.000165 0.016939 -0.001331 0.000693
# 5 -0.000595 0.002280 0.004909 -0.001331 0.021683 0.000646
# 6 -0.001035 -0.000874 0.000889 0.000693 0.000646 0.023208
#
#
# Mechanical properties :
#
#
# Convention : Reuss Voigt Hill
#
# Bulk Modulus (GPa) = 33.68462 36.88876 35.28669
# Shear Modulus (GPa) = 40.54652 45.42457 42.98555
#
# Velocity S-wave (km/s) = 3.96578 4.19756 4.08331
# Velocity P-wave (km/s) = 5.83400 6.14827 5.99320
#
# Compressibility (1/GPa) = 0.02968714
#
# Stress axis : x y z
#
# Youngs Moduli (GPa) = 66.54195 85.40017 71.94173
#
# Poissons Ratio (x) = 0.01247 0.36378
# Poissons Ratio (y) = 0.00971 0.01962
# Poissons Ratio (z) = 0.33648 0.02329
#
# Static dielectric constant tensor:
#      x y z
#    x 2.029220 -0.004440 0.076960 
#    y -0.004440 2.002420 -0.068740 
#    z 0.076960 -0.068740 2.037540 
# 
# From -- ./inp_files/373063.got.cif
#   From: 2010.05.17/outbox.cif.g08.bks.cpg/sg2_187_cif.got.tgz:373063.got - 2010.06.03 11:33:40.
