data_PCOD9087861
_publ_section_title
;
Structure prediction by ZEFSAII (Michael W. Deem and Ramdas Pophale) SiO2 
 PCOD9087861
Probable space group: P -1
;
_chemical_formula_sum "Si O2"
_cell_formula_units_Z 14
_cell_length_a 6.900770
_cell_length_b 12.348810
_cell_length_c 9.448589
_cell_angle_alpha 38.040507
_cell_angle_beta 88.061679
_cell_angle_gamma 81.697412
_cell_volume 486.729235
_symmetry_space_group_name_H-M "P -1"
_symmetry_group_IT_number 2
_symmetry_cell_setting 'triclinic'
loop_
_space_group_symop_operation_xyz
x,y,z
-x,-y,-z
loop_
_atom_site_type_symbol
_atom_site_label
_atom_site_fract_x
_atom_site_fract_y
_atom_site_fract_z
Si Si1 0.848140 0.912588 0.243191
Si Si2 0.265052 0.105227 0.312711
Si Si3 0.662921 0.687209 0.305252
Si Si4 0.208092 0.809047 0.824958
Si Si5 0.311189 0.828333 0.369148
Si Si6 0.811470 0.557575 0.715542
Si Si7 0.722543 0.531640 0.153665
O O1 0.776710 0.852528 0.156592
O O2 0.762360 0.774160 0.494297
O O3 0.082521 0.856624 0.303789
O O4 0.787858 0.109747 0.101256
O O5 0.304444 0.944349 0.589166
O O6 0.343169 0.004412 0.269080
O O7 0.023833 0.154164 0.253071
O O8 0.326373 0.298165 0.123755
O O9 0.452687 0.761758 0.304194
O O10 0.777432 0.537992 0.566824
O O11 0.662278 0.611022 0.229284
O O12 0.280183 0.595810 0.047484
O O13 0.343322 0.658857 0.652707
O O14 0.038819 0.515684 0.799217
#
# Coordination Sequence:
#
# PCOD9087861 Si02
#       7
#     2   2   2   2   2   2   2
#     4   8  19  35  57  83 109 143 181 225 276 317
#     4   9  20  34  58  83 108 144 191 224 264 334
#     4  10  20  37  56  83 116 138 184 226 268 337
#     4   9  16  37  58  80 109 145 186 226 272 319
#     4  10  20  37  54  83 112 147 180 220 280 320
#     4   8  18  33  56  81 109 142 182 221 271 324
#     4  10  19  37  55  81 113 147 178 226 276 318
#
# _framework density 28.763425000000002
#
# number of rings (size 3 to 8) (size 9 to 14) (size 15 to 20)
#    0.857    2.000    0.000    0.857    0.000    1.714 
#    5.143    9.286    0.000    0.000    0.000    0.000 
#    0.000    0.000    0.000    0.000    0.000    0.000 
#
# Total GULP energy -78365.726498 kJ/mol
# GULP energy per Si atom -5597.551893 kJ/mol
# Density = 2.869796 g / cm^3
# Si number density = 28.763425 Si / 1000 Ang^3
#
#
#
# Elastic Constant Matrix: (Units=GPa)
#
#
# Indices 1 2 3 4 5 6 
#
# 1 96.8619 11.5795 28.5678 -14.7857 1.4104 3.8497
# 2 11.5795 99.1181 33.2087 -25.0035 -4.0861 9.3344
# 3 28.5678 33.2087 185.4288 -31.4442 -6.1809 8.3533
# 4 -14.7857 -25.0035 -31.4442 51.4158 11.3968 -1.3910
# 5 1.4104 -4.0861 -6.1809 11.3968 47.2895 -3.4916
# 6 3.8497 9.3344 8.3533 -1.3910 -3.4916 16.1208
#
#
#
# Elastic Compliance Matrix: (Units=1/GPa)
#
#
# Indices 1 2 3 4 5 6 
#
# 1 0.011199 -0.000091 -0.001207 0.002669 -0.001294 -0.002046
# 2 -0.000091 0.012360 -0.001033 0.005364 -0.000823 -0.006315
# 3 -0.001207 -0.001033 0.006369 0.003010 -0.000107 -0.002177
# 4 0.002669 0.005364 0.003010 0.025828 -0.005766 -0.004324
# 5 -0.001294 -0.000823 -0.000107 -0.005766 0.022881 0.005299
# 6 -0.002046 -0.006315 -0.002177 -0.004324 0.005299 0.068080
#
#
# Mechanical properties :
#
#
# Convention : Reuss Voigt Hill
#
# Bulk Modulus (GPa) = 39.58100 58.68008 49.13054
# Shear Modulus (GPa) = 31.28925 43.50208 37.39567
#
# Velocity S-wave (km/s) = 3.30178 3.89319 3.60962
# Velocity P-wave (km/s) = 5.32226 6.37609 5.87286
#
# Compressibility (1/GPa) = 0.02526465
#
# Stress axis : x y z
#
# Youngs Moduli (GPa) = 89.29728 80.90869 157.01369
#
# Poissons Ratio (x) = 0.00737 0.18956
# Poissons Ratio (y) = 0.00814 0.16216
# Poissons Ratio (z) = 0.10781 0.08356
#
# Static dielectric constant tensor:
#      x y z
#    x 2.240320 0.023470 0.015070 
#    y 0.023470 2.152800 0.082480 
#    z 0.015070 0.082480 2.294970 
# 
# From -- ./inp_files/398063.got.cif
#   From: 2010.05.17/outbox.cif.g08.bks.cpg/sg2_200_cif.got.tgz:398063.got - 2010.06.03 11:33:40.
