data_PCOD9087853
_publ_section_title
;
Structure prediction by ZEFSAII (Michael W. Deem and Ramdas Pophale) SiO2 
 PCOD9087853
Probable space group: P -1
;
_chemical_formula_sum "Si O2"
_cell_formula_units_Z 16
_cell_length_a 26.778134
_cell_length_b 16.891597
_cell_length_c 11.883141
_cell_angle_alpha 22.198124
_cell_angle_beta 30.124072
_cell_angle_gamma 21.003537
_cell_volume 727.865855
_symmetry_space_group_name_H-M "P -1"
_symmetry_group_IT_number 2
_symmetry_cell_setting 'triclinic'
loop_
_space_group_symop_operation_xyz
x,y,z
-x,-y,-z
loop_
_atom_site_type_symbol
_atom_site_label
_atom_site_fract_x
_atom_site_fract_y
_atom_site_fract_z
Si Si1 0.694698 0.643123 0.312407
Si Si2 0.933220 0.159127 0.798796
Si Si3 0.044807 0.965424 0.324703
Si Si4 0.657965 0.177138 0.613887
Si Si5 0.441082 0.034011 0.444601
Si Si6 0.825091 0.786818 0.206985
Si Si7 0.659063 0.303647 0.681091
Si Si8 0.342200 0.624370 0.867625
O O1 0.832467 0.389819 0.446852
O O2 0.691239 0.483684 0.428208
O O3 0.567974 0.769450 0.473339
O O4 0.674378 0.908174 0.961402
O O5 0.012448 0.983975 0.758521
O O6 0.904496 0.452036 0.473708
O O7 0.782112 0.258313 0.960854
O O8 0.000000 0.000000 0.000000
O O9 0.000000 0.000000 0.500000
O O10 0.089096 0.144924 0.002534
O O11 0.500000 0.500000 0.500000
O O12 0.711082 0.216818 0.567075
O O13 0.717275 0.144130 0.420445
O O14 0.311775 0.069775 0.643361
O O15 0.500000 0.000000 0.500000
O O16 0.386952 0.335549 0.107696
O O17 0.750837 0.989971 0.973912
O O18 0.494288 0.496619 0.771303
#
# Coordination Sequence:
#
# PCOD9087853 Si02
#       8
#     2   2   2   2   2   2   2   2
#     4  11  22  36  66  96 127 172 212 268 340 397
#     4  11  26  45  67  95 130 183 229 271 338 392
#     4  11  27  46  67  98 131 179 240 277 319 401
#     4  10  19  37  54  92 139 166 203 256 329 403
#     4  11  18  36  63  95 130 159 205 273 340 400
#     4  10  23  41  69  99 130 170 221 286 339 395
#     4  10  20  35  62  97 129 165 209 267 338 395
#     4  10  21  37  63  94 132 169 207 275 330 400
#
# _framework density 21.982071999999999
#
# number of rings (size 3 to 8) (size 9 to 14) (size 15 to 20)
#    0.000    1.500    3.750    2.250    1.750    7.000 
#    0.000    0.000    0.000    0.000    0.000    0.000 
#    0.000    0.000    0.000    0.000    0.000    0.000 
#
# Total GULP energy -89096.692643 kJ/mol
# GULP energy per Si atom -5568.543290 kJ/mol
# Density = 2.193204 g / cm^3
# Si number density = 21.982072 Si / 1000 Ang^3
#
#
#
# Elastic Constant Matrix: (Units=GPa)
#
#
# Indices 1 2 3 4 5 6 
#
# 1 107.8546 34.8343 70.1646 0.0388 8.9169 15.3557
# 2 34.8343 69.3451 32.0126 8.8773 -4.9689 6.9243
# 3 70.1646 32.0126 118.1791 1.0822 -4.6942 16.2592
# 4 0.0388 8.8773 1.0822 23.3451 -2.3722 -3.3501
# 5 8.9169 -4.9689 -4.6942 -2.3722 26.8286 3.5338
# 6 15.3557 6.9243 16.2592 -3.3501 3.5338 23.5407
#
#
#
# Elastic Compliance Matrix: (Units=1/GPa)
#
#
# Indices 1 2 3 4 5 6 
#
# 1 0.018030 -0.005276 -0.009281 0.001233 -0.008169 -0.002397
# 2 -0.005276 0.019297 -0.001423 -0.007202 0.004837 -0.003002
# 3 -0.009281 -0.001423 0.015299 -0.000254 0.006141 -0.005052
# 4 0.001233 -0.007202 -0.000254 0.046859 0.001307 0.007962
# 5 -0.008169 0.004837 0.006141 0.001307 0.042943 -0.006596
# 6 -0.002397 -0.003002 -0.005052 0.007962 -0.006596 0.050539
#
#
# Mechanical properties :
#
#
# Convention : Reuss Voigt Hill
#
# Bulk Modulus (GPa) = 48.39427 63.26687 55.83057
# Shear Modulus (GPa) = 21.56869 25.30069 23.43469
#
# Velocity S-wave (km/s) = 3.13580 3.39627 3.26863
# Velocity P-wave (km/s) = 5.93078 6.65005 6.30069
#
# Compressibility (1/GPa) = 0.02066360
#
# Stress axis : x y z
#
# Youngs Moduli (GPa) = 55.46298 51.82275 65.36313
#
# Poissons Ratio (x) = 0.27343 0.60667
# Poissons Ratio (y) = 0.29263 0.09304
# Poissons Ratio (z) = 0.51478 0.07376
#
# Static dielectric constant tensor:
#      x y z
#    x 1.766530 0.177610 -0.012610 
#    y 0.177610 1.680850 0.233240 
#    z -0.012610 0.233240 1.786770 
# 
# From -- ./inp_files/477711.got.cif
#   From: 2010.05.17/outbox.cif.g08.bks.cpg/sg2_239_cif.got.tgz:477711.got - 2010.06.03 11:33:40.
