data_PCOD9087473
_publ_section_title
;
Structure prediction by ZEFSAII (Michael W. Deem and Ramdas Pophale) SiO2 
 PCOD9087473
Probable space group: P -1
;
_chemical_formula_sum "Si O2"
_cell_formula_units_Z 13
_cell_length_a 14.823923
_cell_length_b 9.231965
_cell_length_c 7.243698
_cell_angle_alpha 129.392485
_cell_angle_beta 100.033128
_cell_angle_gamma 49.295312
_cell_volume 529.958726
_symmetry_space_group_name_H-M "P -1"
_symmetry_group_IT_number 2
_symmetry_cell_setting 'triclinic'
loop_
_space_group_symop_operation_xyz
x,y,z
-x,-y,-z
loop_
_atom_site_type_symbol
_atom_site_label
_atom_site_fract_x
_atom_site_fract_y
_atom_site_fract_z
Si Si1 0.500000 0.500000 0.000000
Si Si2 0.874907 0.770829 0.919873
Si Si3 0.841240 0.775263 0.467932
Si Si4 0.730385 0.624936 0.765317
Si Si5 0.751752 0.299135 0.809926
Si Si6 0.397014 0.061140 0.378036
Si Si7 0.039006 0.957015 0.767465
O O1 0.361272 0.576781 0.980674
O O2 0.429401 0.795211 0.143302
O O3 0.860142 0.799715 0.712946
O O4 0.768443 0.780128 0.965067
O O5 0.019933 0.480767 0.769135
O O6 0.878445 0.973765 0.163993
O O7 0.743335 0.743253 0.410839
O O8 0.778831 0.042517 0.557568
O O9 0.693105 0.529097 0.827891
O O10 0.625010 0.798195 0.706167
O O11 0.866659 0.348041 0.504814
O O12 0.898507 0.158405 0.782708
O O13 0.500000 0.000000 0.500000
O O14 0.000000 0.000000 0.000000
#
# Coordination Sequence:
#
# PCOD9087473 Si02
#       7
#     1   2   2   2   2   2   2
#     4  10  26  46  68  88 128 178 226 254 330 390
#     4  10  19  36  63  97 129 170 209 256 322 390
#     4   9  18  38  60  92 133 167 208 266 318 373
#     4  11  25  42  64 102 139 159 211 285 330 362
#     4  11  23  44  66  95 137 172 209 278 323 378
#     4  10  23  41  68  91 125 175 222 265 315 390
#     4  12  22  37  73 100 129 177 217 252 327 404
#
# _framework density 24.530211999999999
#
# number of rings (size 3 to 8) (size 9 to 14) (size 15 to 20)
#    0.000    1.538    3.077    2.308    4.308    1.231 
#    0.000    3.077    0.000    0.000    0.000    0.000 
#    0.000    0.000    0.000    0.000    0.000    0.000 
#
# Total GULP energy -72417.926966 kJ/mol
# GULP energy per Si atom -5570.609767 kJ/mol
# Density = 2.447438 g / cm^3
# Si number density = 24.530212 Si / 1000 Ang^3
#
#
#
# Elastic Constant Matrix: (Units=GPa)
#
#
# Indices 1 2 3 4 5 6 
#
# 1 148.1724 64.2062 9.8905 -17.4257 29.9543 -1.2743
# 2 64.2062 146.2354 15.5128 12.8747 19.8460 9.7368
# 3 9.8905 15.5128 34.5856 9.9627 13.3649 7.3776
# 4 -17.4257 12.8747 9.9627 29.3494 6.4664 -0.2010
# 5 29.9543 19.8460 13.3649 6.4664 37.3262 7.3805
# 6 -1.2743 9.7368 7.3776 -0.2010 7.3805 55.5491
#
#
#
# Elastic Compliance Matrix: (Units=1/GPa)
#
#
# Indices 1 2 3 4 5 6 
#
# 1 0.012550 -0.005340 -0.001776 0.012464 -0.009298 0.002740
# 2 -0.005340 0.009918 -0.000718 -0.007500 0.000948 -0.001919
# 3 -0.001776 -0.000718 0.037246 -0.011468 -0.008804 -0.003733
# 4 0.012464 -0.007500 -0.011468 0.051279 -0.011756 0.004871
# 5 -0.009298 0.000948 -0.008804 -0.011756 0.039836 -0.004545
# 6 0.002740 -0.001919 -0.003733 0.004871 -0.004545 0.019519
#
#
# Mechanical properties :
#
#
# Convention : Reuss Voigt Hill
#
# Bulk Modulus (GPa) = 22.70337 56.46804 39.58571
# Shear Modulus (GPa) = 24.91293 40.40385 32.65839
#
# Velocity S-wave (km/s) = 3.19031 4.06286 3.65273
# Velocity P-wave (km/s) = 4.77976 6.71408 5.82773
#
# Compressibility (1/GPa) = 0.04404632
#
# Stress axis : x y z
#
# Youngs Moduli (GPa) = 79.67875 100.82185 26.84865
#
# Poissons Ratio (x) = 0.53839 0.04768
# Poissons Ratio (y) = 0.42548 0.01928
# Poissons Ratio (z) = 0.14151 0.07241
#
# Static dielectric constant tensor:
#      x y z
#    x 1.257080 0.093350 0.016130 
#    y 0.093350 1.959690 -0.033020 
#    z 0.016130 -0.033020 1.998240 
# 
# From -- ./inp_files/198603.got.cif
#   From: 2010.05.17/outbox.cif.g08.bks.cpg/sg2_100_cif.got.tgz:198603.got - 2010.06.03 11:33:40.
