data_PCOD9087906
_publ_section_title
;
Structure prediction by ZEFSAII (Michael W. Deem and Ramdas Pophale) SiO2 
 PCOD9087906
Probable space group: P -1
;
_chemical_formula_sum "Si O2"
_cell_formula_units_Z 16
_cell_length_a 19.610545
_cell_length_b 12.032308
_cell_length_c 19.678462
_cell_angle_alpha 23.888290
_cell_angle_beta 21.745844
_cell_angle_gamma 33.211446
_cell_volume 694.180332
_symmetry_space_group_name_H-M "P -1"
_symmetry_group_IT_number 2
_symmetry_cell_setting 'triclinic'
loop_
_space_group_symop_operation_xyz
x,y,z
-x,-y,-z
loop_
_atom_site_type_symbol
_atom_site_label
_atom_site_fract_x
_atom_site_fract_y
_atom_site_fract_z
Si Si1 0.102681 0.104926 0.965119
Si Si2 0.325625 0.700907 0.902977
Si Si3 0.528579 0.751506 0.386159
Si Si4 0.701914 0.006897 0.372583
Si Si5 0.953831 0.983165 0.631596
Si Si6 0.655277 0.938250 0.723496
Si Si7 0.775528 0.502882 0.488075
Si Si8 0.558074 0.695845 0.179382
O O1 0.161328 0.841225 0.015058
O O2 0.255778 0.160010 0.850575
O O3 0.130279 0.358802 0.744104
O O4 0.890929 0.067634 0.204556
O O5 0.509849 0.890838 0.648317
O O6 0.313250 0.752974 0.804053
O O7 0.340869 0.384545 0.083722
O O8 0.500000 0.500000 0.500000
O O9 0.453127 0.602582 0.607683
O O10 0.423482 0.994319 0.314993
O O11 0.737515 0.747890 0.435569
O O12 0.897891 0.288043 0.530169
O O13 0.136596 0.923827 0.535814
O O14 0.000000 0.000000 0.500000
O O15 0.770276 0.784744 0.920624
O O16 0.527335 0.086216 0.812756
O O17 0.585279 0.338357 0.731012
#
# Coordination Sequence:
#
# PCOD9087906 Si02
#       8
#     2   2   2   2   2   2   2   2
#     4  10  20  40  59  81 117 157 196 237 289 355
#     4  10  21  35  58  92 117 154 193 243 298 344
#     4   9  22  44  63  81 116 165 198 243 294 340
#     4  10  20  36  59  85 123 155 191 237 298 362
#     4  12  23  33  59  95 119 154 193 242 305 355
#     4  11  22  40  60  86 123 157 203 248 286 346
#     4  10  19  37  56  85 126 152 185 245 300 347
#     4  10  22  40  57  86 126 157 195 243 296 351
#
# _framework density 23.048765
#
# number of rings (size 3 to 8) (size 9 to 14) (size 15 to 20)
#    0.000    1.750    1.250    4.125    1.750    1.000 
#    4.500    3.125    0.000    0.000    0.000    0.000 
#    0.000    0.000    0.000    0.000    0.000    0.000 
#
# Total GULP energy -89540.881847 kJ/mol
# GULP energy per Si atom -5596.305115 kJ/mol
# Density = 2.299631 g / cm^3
# Si number density = 23.048765 Si / 1000 Ang^3
#
#
#
# Elastic Constant Matrix: (Units=GPa)
#
#
# Indices 1 2 3 4 5 6 
#
# 1 57.3984 15.6575 33.6827 8.9142 -17.1334 -28.6725
# 2 15.6575 98.3234 62.3912 2.7494 3.0660 -17.3656
# 3 33.6827 62.3912 152.8554 25.2200 -21.5465 -25.7057
# 4 8.9142 2.7494 25.2200 57.2163 -11.5351 -10.1579
# 5 -17.1334 3.0660 -21.5465 -11.5351 29.8307 2.2990
# 6 -28.6725 -17.3656 -25.7057 -10.1579 2.2990 37.0830
#
#
#
# Elastic Compliance Matrix: (Units=1/GPa)
#
#
# Indices 1 2 3 4 5 6 
#
# 1 0.037566 -0.001331 -0.000814 0.003575 0.020382 0.027574
# 2 -0.001331 0.015234 -0.006749 0.001478 -0.006807 0.002253
# 3 -0.000814 -0.006749 0.011426 -0.002597 0.007246 0.002969
# 4 0.003575 0.001478 -0.002597 0.020728 0.007511 0.006868
# 5 0.020382 -0.006807 0.007246 0.007511 0.052804 0.016378
# 6 0.027574 0.002253 0.002969 0.006868 0.016378 0.052266
#
#
# Mechanical properties :
#
#
# Convention : Reuss Voigt Hill
#
# Bulk Modulus (GPa) = 21.53487 59.11555 40.32521
# Shear Modulus (GPa) = 22.39225 37.94907 30.17066
#
# Velocity S-wave (km/s) = 3.12030 4.06207 3.62193
# Velocity P-wave (km/s) = 4.72706 6.90683 5.91817
#
# Compressibility (1/GPa) = 0.04643631
#
# Stress axis : x y z
#
# Youngs Moduli (GPa) = 26.61995 65.64190 87.52245
#
# Poissons Ratio (x) = 0.08737 0.07127
# Poissons Ratio (y) = 0.03543 0.59072
# Poissons Ratio (z) = 0.02168 0.44304
#
# Static dielectric constant tensor:
#      x y z
#    x 1.893670 0.028280 0.004120 
#    y 0.028280 1.916490 0.008350 
#    z 0.004120 0.008350 1.884120 
# 
# From -- ./inp_files/613780.got.cif
#   From: 2010.05.17/outbox.cif.g08.bks.cpg/sg2_307_cif.got.tgz:613780.got - 2010.06.03 11:33:40.
