data_PCOD9087436
_publ_section_title
;
Structure prediction by ZEFSAII (Michael W. Deem and Ramdas Pophale) SiO2 
 PCOD9087436
Probable space group: P -1
;
_chemical_formula_sum "Si O2"
_cell_formula_units_Z 16
_cell_length_a 11.551568
_cell_length_b 9.186358
_cell_length_c 11.694403
_cell_angle_alpha 109.744211
_cell_angle_beta 121.508133
_cell_angle_gamma 45.758437
_cell_volume 757.234233
_symmetry_space_group_name_H-M "P -1"
_symmetry_group_IT_number 2
_symmetry_cell_setting 'triclinic'
loop_
_space_group_symop_operation_xyz
x,y,z
-x,-y,-z
loop_
_atom_site_type_symbol
_atom_site_label
_atom_site_fract_x
_atom_site_fract_y
_atom_site_fract_z
Si Si1 0.755224 0.361298 0.022058
Si Si2 0.830262 0.441788 0.860725
Si Si3 0.211741 0.221580 0.916191
Si Si4 0.139240 0.438678 0.715761
Si Si5 0.199719 0.828884 0.597807
Si Si6 0.359709 0.801539 0.917450
Si Si7 0.241499 0.425971 0.511970
Si Si8 0.514973 0.671695 0.577421
O O1 0.857832 0.398887 0.173061
O O2 0.735217 0.210133 0.028229
O O3 0.833335 0.305460 0.920836
O O4 0.557657 0.583204 0.962195
O O5 0.666957 0.565312 0.723483
O O6 0.012792 0.299344 0.847633
O O7 0.804159 0.616068 0.969162
O O8 0.233092 0.254969 0.805235
O O9 0.351532 0.991871 0.969255
O O10 0.243251 0.377450 0.633407
O O11 0.937335 0.526374 0.614698
O O12 0.257719 0.832825 0.756449
O O13 0.223520 0.625462 0.551057
O O14 0.323987 0.840627 0.581278
O O15 0.000000 0.000000 0.500000
O O16 0.414464 0.278975 0.479786
O O17 0.500000 0.500000 0.500000
#
# Coordination Sequence:
#
# PCOD9087436 Si02
#       8
#     2   2   2   2   2   2   2   2
#     4  10  22  39  65  88 127 168 208 262 313 369
#     4  10  20  40  61  91 122 164 207 258 319 367
#     4  10  22  37  64  90 124 161 209 261 311 372
#     4  10  19  36  63  93 120 167 209 254 310 372
#     4  11  22  38  61  93 124 163 214 262 312 376
#     4  11  22  39  61  94 124 162 216 261 310 370
#     4  10  20  37  63  88 123 170 212 248 314 379
#     4  10  21  37  62  91 121 167 208 257 311 371
#
# _framework density 21.129524
#
# number of rings (size 3 to 8) (size 9 to 14) (size 15 to 20)
#    0.000    1.750    3.750    0.750    1.750    2.500 
#    2.250    0.000    2.750    8.250    0.000    0.000 
#    0.000    0.000    0.000    0.000    0.000    0.000 
#
# Total GULP energy -89282.919648 kJ/mol
# GULP energy per Si atom -5580.182478 kJ/mol
# Density = 2.108143 g / cm^3
# Si number density = 21.129524 Si / 1000 Ang^3
#
#
#
# Elastic Constant Matrix: (Units=GPa)
#
#
# Indices 1 2 3 4 5 6 
#
# 1 180.7011 20.7938 60.5891 -19.5191 -30.7186 2.8065
# 2 20.7938 44.2218 8.1277 -15.4254 -11.1274 8.9238
# 3 60.5891 8.1277 87.1278 -8.1447 -10.4083 -13.8711
# 4 -19.5191 -15.4254 -8.1447 13.1637 5.2806 2.3702
# 5 -30.7186 -11.1274 -10.4083 5.2806 41.1429 -8.4684
# 6 2.8065 8.9238 -13.8711 2.3702 -8.4684 26.3759
#
#
#
# Elastic Compliance Matrix: (Units=1/GPa)
#
#
# Indices 1 2 3 4 5 6 
#
# 1 0.009290 0.003500 -0.005944 0.013771 0.003498 -0.005413
# 2 0.003500 0.049767 -0.004885 0.064448 0.001394 -0.025123
# 3 -0.005944 -0.004885 0.017769 -0.006793 0.002278 0.012971
# 4 0.013771 0.064448 -0.006793 0.178223 -0.006105 -0.044818
# 5 0.003498 0.001394 0.002278 -0.006105 0.030881 0.010817
# 6 -0.005413 -0.025123 0.012971 -0.044818 0.010817 0.061311
#
#
# Mechanical properties :
#
#
# Convention : Reuss Voigt Hill
#
# Bulk Modulus (GPa) = 16.08528 54.56355 35.32442
# Shear Modulus (GPa) = 13.06780 30.97253 22.02017
#
# Velocity S-wave (km/s) = 2.48959 3.83278 3.23174
# Velocity P-wave (km/s) = 3.98664 6.74288 5.53894
#
# Compressibility (1/GPa) = 0.06216862
#
# Stress axis : x y z
#
# Youngs Moduli (GPa) = 107.63843 20.09378 56.27922
#
# Poissons Ratio (x) = -0.07033 0.33450
# Poissons Ratio (y) = -0.37672 0.27491
# Poissons Ratio (z) = 0.63976 0.09815
#
# Static dielectric constant tensor:
#      x y z
#    x 1.820660 -0.020830 -0.028330 
#    y -0.020830 1.769040 0.039050 
#    z -0.028330 0.039050 1.719040 
# 
# From -- ./inp_files/261585.got.cif
#   From: 2010.05.17/outbox.cif.g08.bks.cpg/sg2_131_cif.got.tgz:261585.got - 2010.06.03 11:33:40.
