data_PCOD9087766
_publ_section_title
;
Structure prediction by ZEFSAII (Michael W. Deem and Ramdas Pophale) SiO2 
 PCOD9087766
Probable space group: P -1
;
_chemical_formula_sum "Si O2"
_cell_formula_units_Z 14
_cell_length_a 8.741374
_cell_length_b 27.286729
_cell_length_c 9.007456
_cell_angle_alpha 30.293656
_cell_angle_beta 41.223392
_cell_angle_gamma 32.911673
_cell_volume 585.937921
_symmetry_space_group_name_H-M "P -1"
_symmetry_group_IT_number 2
_symmetry_cell_setting 'triclinic'
loop_
_space_group_symop_operation_xyz
x,y,z
-x,-y,-z
loop_
_atom_site_type_symbol
_atom_site_label
_atom_site_fract_x
_atom_site_fract_y
_atom_site_fract_z
Si Si1 0.574257 0.178121 0.110865
Si Si2 0.162451 0.727449 0.531064
Si Si3 0.033853 0.064579 0.670295
Si Si4 0.791558 0.462468 0.202267
Si Si5 0.225457 0.366819 0.637877
Si Si6 0.788939 0.129307 0.383827
Si Si7 0.167071 0.662242 0.199871
O O1 0.522378 0.345361 0.438022
O O2 0.805566 0.203338 0.814052
O O3 0.540896 0.190740 0.280432
O O4 0.691837 0.043998 0.330122
O O5 0.973861 0.828705 0.525510
O O6 0.119699 0.629675 0.755723
O O7 0.686182 0.722156 0.056120
O O8 0.777530 0.114066 0.608217
O O9 0.000000 0.000000 0.000000
O O10 0.470192 0.578028 0.116122
O O11 0.782378 0.392107 0.532667
O O12 0.000000 0.500000 0.000000
O O13 0.000000 0.500000 0.500000
O O14 0.080169 0.339543 0.689137
O O15 0.916236 0.206168 0.082868
O O16 0.000000 0.000000 0.500000
#
# Coordination Sequence:
#
# PCOD9087766 Si02
#       7
#     2   2   2   2   2   2   2
#     4   8  17  36  66  94 130 178 229 277 342 414
#     4   9  18  39  65  96 135 174 227 288 339 404
#     4   9  18  36  66  99 136 174 224 294 345 403
#     4  11  24  43  68  99 139 185 235 289 352 412
#     4  10  19  36  67  94 129 184 228 280 343 405
#     4  10  20  39  69  98 132 186 227 279 348 414
#     4  11  22  43  67  99 139 183 237 288 341 429
#
# _framework density 23.893315999999999
#
# number of rings (size 3 to 8) (size 9 to 14) (size 15 to 20)
#    0.857    1.429    2.857    0.000    2.000    1.143 
#    2.571    5.714    0.000    3.429    0.000    0.000 
#    0.000    0.000    0.000    0.000    0.000    0.000 
#
# Total GULP energy -78080.748986 kJ/mol
# GULP energy per Si atom -5577.196356 kJ/mol
# Density = 2.383893 g / cm^3
# Si number density = 23.893316 Si / 1000 Ang^3
#
#
#
# Elastic Constant Matrix: (Units=GPa)
#
#
# Indices 1 2 3 4 5 6 
#
# 1 137.6576 64.1711 31.5180 -18.1003 1.6953 25.0079
# 2 64.1711 104.9003 37.5836 -27.9470 -19.3180 18.6322
# 3 31.5180 37.5836 73.0565 -23.1756 -2.6147 17.9662
# 4 -18.1003 -27.9470 -23.1756 44.5696 16.0703 -3.6503
# 5 1.6953 -19.3180 -2.6147 16.0703 63.7884 -5.8250
# 6 25.0079 18.6322 17.9662 -3.6503 -5.8250 43.6003
#
#
#
# Elastic Compliance Matrix: (Units=1/GPa)
#
#
# Indices 1 2 3 4 5 6 
#
# 1 0.011130 -0.006198 -0.000411 0.001122 -0.002824 -0.003849
# 2 -0.006198 0.016919 -0.004242 0.004389 0.003914 -0.001036
# 3 -0.000411 -0.004242 0.019989 0.008184 -0.003056 -0.005911
# 4 0.001122 0.004389 0.008184 0.032018 -0.006808 -0.004121
# 5 -0.002824 0.003914 -0.003056 -0.006808 0.018815 0.003150
# 6 -0.003849 -0.001036 -0.005911 -0.004121 0.003150 0.028097
#
#
# Mechanical properties :
#
#
# Convention : Reuss Voigt Hill
#
# Bulk Modulus (GPa) = 37.97545 64.68442 51.32994
# Shear Modulus (GPa) = 31.75631 42.54777 37.15204
#
# Velocity S-wave (km/s) = 3.64962 4.22446 3.94752
# Velocity P-wave (km/s) = 5.80413 7.13622 6.50437
#
# Compressibility (1/GPa) = 0.02633280
#
# Stress axis : x y z
#
# Youngs Moduli (GPa) = 89.85044 59.10543 50.02868
#
# Poissons Ratio (x) = 0.36636 0.02058
# Poissons Ratio (y) = 0.55694 0.21224
# Poissons Ratio (z) = 0.03696 0.25075
#
# Static dielectric constant tensor:
#      x y z
#    x 1.805130 -0.124360 -0.026770 
#    y -0.124360 1.949450 0.031770 
#    z -0.026770 0.031770 1.918760 
# 
# From -- ./inp_files/227229.got.cif
#   From: 2010.05.17/outbox.cif.g08.bks.cpg/sg2_114_cif.got.tgz:227229.got - 2010.06.03 11:33:40.
