data_PCOD9087372
_publ_section_title
;
Structure prediction by ZEFSAII (Michael W. Deem and Ramdas Pophale) SiO2 
 PCOD9087372
Probable space group: P -1
;
_chemical_formula_sum "Si O2"
_cell_formula_units_Z 16
_cell_length_a 18.462649
_cell_length_b 16.272390
_cell_length_c 25.380416
_cell_angle_alpha 18.491700
_cell_angle_beta 20.436901
_cell_angle_gamma 30.528896
_cell_volume 818.388656
_symmetry_space_group_name_H-M "P -1"
_symmetry_group_IT_number 2
_symmetry_cell_setting 'triclinic'
loop_
_space_group_symop_operation_xyz
x,y,z
-x,-y,-z
loop_
_atom_site_type_symbol
_atom_site_label
_atom_site_fract_x
_atom_site_fract_y
_atom_site_fract_z
Si Si1 0.165621 0.954231 0.992726
Si Si2 0.433137 0.250466 0.918909
Si Si3 0.302065 0.208270 0.637824
Si Si4 0.051624 0.487025 0.034757
Si Si5 0.805307 0.527608 0.678256
Si Si6 0.717160 0.655622 0.228157
Si Si7 0.588314 0.974237 0.514115
Si Si8 0.749021 0.172286 0.831175
O O1 0.286044 0.141745 0.750393
O O2 0.157921 0.145411 0.931974
O O3 0.264741 0.699127 0.091509
O O4 0.929428 0.823185 0.211189
O O5 0.546675 0.504829 0.652211
O O6 0.553549 0.270989 0.880111
O O7 0.188301 0.264194 0.083353
O O8 0.500000 0.000000 0.000000
O O9 0.405766 0.001142 0.662641
O O10 0.850815 0.468261 0.222347
O O11 0.000000 0.500000 0.000000
O O12 0.211350 0.770871 0.769021
O O13 0.662269 0.712871 0.639944
O O14 0.818650 0.327528 0.743195
O O15 0.037710 0.726596 0.410992
O O16 0.500000 0.500000 0.500000
O O17 0.686656 0.860277 0.078018
O O18 0.500000 0.000000 0.500000
#
# Coordination Sequence:
#
# PCOD9087372 Si02
#       8
#     2   2   2   2   2   2   2   2
#     4  10  22  39  61  90 128 168 206 260 322 384
#     4  11  23  38  66  90 126 163 219 260 319 377
#     4  10  22  39  61  93 125 163 214 262 324 376
#     4  11  24  40  63  98 126 167 217 260 317 387
#     4  10  19  36  63  88 122 157 214 257 316 372
#     4  11  24  40  66  89 130 171 209 258 329 381
#     4  11  22  37  67  94 124 162 218 272 312 376
#     4  10  20  37  60  92 114 163 209 261 306 379
#
# _framework density 19.550613999999999
#
# number of rings (size 3 to 8) (size 9 to 14) (size 15 to 20)
#    0.000    1.500    2.500    3.000    7.000    0.500 
#    0.000    0.625   11.000    0.000    0.000    0.000 
#    0.000    0.000    0.000    0.000    0.000    0.000 
#
# Total GULP energy -89159.457032 kJ/mol
# GULP energy per Si atom -5572.466064 kJ/mol
# Density = 1.950612 g / cm^3
# Si number density = 19.550614 Si / 1000 Ang^3
#
#
#
# Elastic Constant Matrix: (Units=GPa)
#
#
# Indices 1 2 3 4 5 6 
#
# 1 98.4364 34.3100 29.9304 9.4216 0.4184 -4.9036
# 2 34.3100 129.5220 42.1555 4.1361 14.6869 -13.0868
# 3 29.9304 42.1555 68.3479 -1.3396 12.9723 -7.1644
# 4 9.4216 4.1361 -1.3396 27.9808 1.7543 3.2444
# 5 0.4184 14.6869 12.9723 1.7543 24.7354 -2.7029
# 6 -4.9036 -13.0868 -7.1644 3.2444 -2.7029 36.0323
#
#
#
# Elastic Compliance Matrix: (Units=1/GPa)
#
#
# Indices 1 2 3 4 5 6 
#
# 1 0.012895 -0.001955 -0.005233 -0.004645 0.004096 0.000730
# 2 -0.001955 0.010436 -0.004714 -0.001184 -0.003341 0.002443
# 3 -0.005233 -0.004714 0.021640 0.003935 -0.008645 0.000876
# 4 -0.004645 -0.001184 0.003935 0.038418 -0.004452 -0.004073
# 5 0.004096 -0.003341 -0.008645 -0.004452 0.047364 0.001579
# 6 0.000730 0.002443 0.000876 -0.004073 0.001579 0.029399
#
#
# Mechanical properties :
#
#
# Convention : Reuss Voigt Hill
#
# Bulk Modulus (GPa) = 47.24311 56.56647 51.90479
# Shear Modulus (GPa) = 26.17651 30.41038 28.29345
#
# Velocity S-wave (km/s) = 3.66308 3.94822 3.80832
# Velocity P-wave (km/s) = 6.48906 7.05555 6.77822
#
# Compressibility (1/GPa) = 0.02116711
#
# Stress axis : x y z
#
# Youngs Moduli (GPa) = 77.54972 95.82004 46.21135
#
# Poissons Ratio (x) = 0.18733 0.24183
# Poissons Ratio (y) = 0.15161 0.21783
# Poissons Ratio (z) = 0.40582 0.45167
#
# Static dielectric constant tensor:
#      x y z
#    x 1.776600 -0.007480 -0.023800 
#    y -0.007480 1.718400 -0.000150 
#    z -0.023800 -0.000150 1.724240 
# 
# From -- ./inp_files/402532.got.cif
#   From: 2010.05.17/outbox.cif.g08.bks.cpg/sg2_202_cif.got.tgz:402532.got - 2010.06.03 11:33:40.
