data_PCOD9087433
_publ_section_title
;
Structure prediction by ZEFSAII (Michael W. Deem and Ramdas Pophale) SiO2 
 PCOD9087433
Probable space group: P -1
;
_chemical_formula_sum "Si O2"
_cell_formula_units_Z 14
_cell_length_a 15.694555
_cell_length_b 6.038193
_cell_length_c 8.277899
_cell_angle_alpha 94.894706
_cell_angle_beta 122.349751
_cell_angle_gamma 116.078510
_cell_volume 539.525342
_symmetry_space_group_name_H-M "P -1"
_symmetry_group_IT_number 2
_symmetry_cell_setting 'triclinic'
loop_
_space_group_symop_operation_xyz
x,y,z
-x,-y,-z
loop_
_atom_site_type_symbol
_atom_site_label
_atom_site_fract_x
_atom_site_fract_y
_atom_site_fract_z
Si Si1 0.526400 0.545394 0.281822
Si Si2 0.934538 0.906208 0.692669
Si Si3 0.119231 0.957911 0.684257
Si Si4 0.861872 0.218451 0.824648
Si Si5 0.352079 0.543583 0.888393
Si Si6 0.602896 0.947038 0.662953
Si Si7 0.226876 0.707654 0.599525
O O1 0.609105 0.582154 0.217684
O O2 0.596664 0.730908 0.517404
O O3 0.447210 0.231561 0.236564
O O4 0.443037 0.638397 0.135885
O O5 0.825977 0.599178 0.523110
O O6 0.051002 0.892201 0.781818
O O7 0.952834 0.082407 0.561440
O O8 0.897697 0.004833 0.813903
O O9 0.161614 0.763065 0.677512
O O10 0.226660 0.277442 0.815007
O O11 0.795372 0.193174 0.582484
O O12 0.752619 0.174546 0.829270
O O13 0.000000 0.500000 0.000000
O O14 0.349868 0.779673 0.815577
O O15 0.500000 0.000000 0.500000
#
# Coordination Sequence:
#
# PCOD9087433 Si02
#       7
#     2   2   2   2   2   2   2
#     4  10  23  42  66  95 130 173 225 276 334 396
#     4   9  19  36  58  87 126 171 211 264 327 392
#     4   9  18  33  57  91 127 161 208 266 333 394
#     4  11  25  42  64  96 134 180 228 271 332 401
#     4  10  21  39  65  96 128 168 220 281 334 392
#     4  11  24  44  68  96 133 178 225 275 330 399
#     4  10  19  36  63  92 131 171 216 274 333 395
#
# _framework density 25.948734999999999
#
# number of rings (size 3 to 8) (size 9 to 14) (size 15 to 20)
#    0.000    2.000    0.000    3.857    0.000    6.286 
#    0.000    3.571    0.000    0.000    0.000    0.000 
#    0.000    0.000    0.000    0.000    0.000    0.000 
#
# Total GULP energy -77976.879620 kJ/mol
# GULP energy per Si atom -5569.777116 kJ/mol
# Density = 2.588967 g / cm^3
# Si number density = 25.948735 Si / 1000 Ang^3
#
#
#
# Elastic Constant Matrix: (Units=GPa)
#
#
# Indices 1 2 3 4 5 6 
#
# 1 97.7408 27.7796 24.8541 11.9131 19.3579 6.4003
# 2 27.7796 70.1807 20.8173 -1.3927 9.4963 1.4658
# 3 24.8541 20.8173 69.0349 -6.8903 0.2732 5.9525
# 4 11.9131 -1.3927 -6.8903 33.3486 -9.6244 1.5510
# 5 19.3579 9.4963 0.2732 -9.6244 43.5798 7.8307
# 6 6.4003 1.4658 5.9525 1.5510 7.8307 46.8461
#
#
#
# Elastic Compliance Matrix: (Units=1/GPa)
#
#
# Indices 1 2 3 4 5 6 
#
# 1 0.015266 -0.003565 -0.005321 -0.009034 -0.008028 0.000343
# 2 -0.003565 0.017094 -0.003877 0.000532 -0.002141 0.000785
# 3 -0.005321 -0.003877 0.018489 0.007163 0.005141 -0.002598
# 4 -0.009034 0.000532 0.007163 0.038596 0.012939 -0.003133
# 5 -0.008028 -0.002141 0.005141 0.012939 0.030712 -0.005052
# 6 0.000343 0.000785 -0.002598 -0.003133 -0.005052 0.022553
#
#
# Mechanical properties :
#
#
# Convention : Reuss Voigt Hill
#
# Bulk Modulus (GPa) = 39.48959 42.65094 41.07026
# Shear Modulus (GPa) = 28.30043 35.65526 31.97785
#
# Velocity S-wave (km/s) = 3.30605 3.71086 3.51429
# Velocity P-wave (km/s) = 5.46119 5.90194 5.68584
#
# Compressibility (1/GPa) = 0.02532313
#
# Stress axis : x y z
#
# Youngs Moduli (GPa) = 65.50566 58.50046 54.08683
#
# Poissons Ratio (x) = 0.20853 0.28778
# Poissons Ratio (y) = 0.23350 0.20972
# Poissons Ratio (z) = 0.34853 0.22683
#
# Static dielectric constant tensor:
#      x y z
#    x 2.173450 -0.005230 0.130330 
#    y -0.005230 2.086180 -0.107000 
#    z 0.130330 -0.107000 2.249580 
# 
# From -- ./inp_files/288941.got.cif
#   From: 2010.05.17/outbox.cif.g08.bks.cpg/sg2_145_cif.got.tgz:288941.got - 2010.06.03 11:33:40.
