data_PCOD9087106
_publ_section_title
;
Structure prediction by ZEFSAII (Michael W. Deem and Ramdas Pophale) SiO2 
 PCOD9087106
Probable space group: P -1
;
_chemical_formula_sum "Si O2"
_cell_formula_units_Z 14
_cell_length_a 11.146472
_cell_length_b 7.978484
_cell_length_c 9.179625
_cell_angle_alpha 73.855098
_cell_angle_beta 128.429149
_cell_angle_gamma 76.396037
_cell_volume 516.139471
_symmetry_space_group_name_H-M "P -1"
_symmetry_group_IT_number 2
_symmetry_cell_setting 'triclinic'
loop_
_space_group_symop_operation_xyz
x,y,z
-x,-y,-z
loop_
_atom_site_type_symbol
_atom_site_label
_atom_site_fract_x
_atom_site_fract_y
_atom_site_fract_z
Si Si1 0.121519 0.576928 0.149961
Si Si2 0.261371 0.633275 0.529334
Si Si3 0.685573 0.967065 0.317706
Si Si4 0.643335 0.718369 0.821063
Si Si5 0.583813 0.194363 0.897397
Si Si6 0.214612 0.988031 0.201292
Si Si7 0.935606 0.398483 0.355144
O O1 0.681356 0.888655 0.743265
O O2 0.993060 0.823900 0.980485
O O3 0.171415 0.551178 0.364262
O O4 0.309541 0.439996 0.237622
O O5 0.463162 0.440303 0.763080
O O6 0.252904 0.813300 0.386105
O O7 0.155246 0.691511 0.587521
O O8 0.550699 0.150828 0.279475
O O9 0.567242 0.865936 0.220359
O O10 0.891341 0.787555 0.555520
O O11 0.695646 0.072031 0.152683
O O12 0.000000 0.500000 0.000000
O O13 0.788386 0.577836 0.092670
O O14 0.715490 0.116128 0.878385
O O15 0.000000 0.500000 0.500000
#
# Coordination Sequence:
#
# PCOD9087106 Si02
#       7
#     2   2   2   2   2   2   2
#     4  10  22  40  59  90 132 164 207 258 314 381
#     4  12  22  38  67  97 122 166 213 262 319 368
#     4  10  19  36  62  95 125 158 215 266 302 362
#     4  10  22  43  63  93 131 163 209 262 312 380
#     4  10  19  36  61  96 125 154 214 269 302 369
#     4  10  22  39  63  92 129 163 205 267 319 368
#     4  12  20  36  69  93 120 168 217 255 308 373
#
# _framework density 27.124454
#
# number of rings (size 3 to 8) (size 9 to 14) (size 15 to 20)
#    0.000    1.429    2.857    5.143    0.000    0.000 
#    2.571    2.857    0.000    5.143    0.000    0.000 
#    0.000    0.000    0.000    0.000    0.000    0.000 
#
# Total GULP energy -78442.899628 kJ/mol
# GULP energy per Si atom -5603.064259 kJ/mol
# Density = 2.706272 g / cm^3
# Si number density = 27.124454 Si / 1000 Ang^3
#
#
#
# Elastic Constant Matrix: (Units=GPa)
#
#
# Indices 1 2 3 4 5 6 
#
# 1 186.7212 60.6218 68.0897 -30.6067 -15.8912 -25.2768
# 2 60.6218 121.1515 61.9486 -39.7336 2.4923 -30.7904
# 3 68.0897 61.9486 149.9081 -25.4925 -16.5357 10.4814
# 4 -30.6067 -39.7336 -25.4925 57.0646 3.7307 11.8103
# 5 -15.8912 2.4923 -16.5357 3.7307 51.1478 -18.7407
# 6 -25.2768 -30.7904 10.4814 11.8103 -18.7407 40.4929
#
#
#
# Elastic Compliance Matrix: (Units=1/GPa)
#
#
# Indices 1 2 3 4 5 6 
#
# 1 0.008249 -0.000134 -0.003624 0.000858 0.004138 0.007651
# 2 -0.000134 0.017233 -0.006849 0.005918 0.001518 0.013769
# 3 -0.003624 -0.006849 0.012003 0.001096 -0.001185 -0.011445
# 4 0.000858 0.005918 0.001096 0.023442 -0.002578 -0.003278
# 5 0.004138 0.001518 -0.001185 -0.002578 0.026884 0.017239
# 6 0.007651 0.013769 -0.011445 -0.003278 0.017239 0.051838
#
#
# Mechanical properties :
#
#
# Convention : Reuss Voigt Hill
#
# Bulk Modulus (GPa) = 61.46134 93.23343 77.34738
# Shear Modulus (GPa) = 30.06863 47.54912 38.80887
#
# Velocity S-wave (km/s) = 3.33309 4.19142 3.78666
# Velocity P-wave (km/s) = 6.12543 7.60731 6.90623
#
# Compressibility (1/GPa) = 0.01627039
#
# Stress axis : x y z
#
# Youngs Moduli (GPa) = 121.22472 58.02974 83.31240
#
# Poissons Ratio (x) = 0.00777 0.30192
# Poissons Ratio (y) = 0.01624 0.57063
# Poissons Ratio (z) = 0.43931 0.39746
#
# Static dielectric constant tensor:
#      x y z
#    x 2.236900 0.139790 0.078550 
#    y 0.139790 2.198360 0.042490 
#    z 0.078550 0.042490 2.073840 
# 
# From -- ./inp_files/243149.got.cif
#   From: 2010.05.17/outbox.cif.g08.bks.cpg/sg2_122_cif.got.tgz:243149.got - 2010.06.03 11:33:40.
