data_PCOD9087277
_publ_section_title
;
Structure prediction by ZEFSAII (Michael W. Deem and Ramdas Pophale) SiO2 
 PCOD9087277
Probable space group: P -1
;
_chemical_formula_sum "Si O2"
_cell_formula_units_Z 14
_cell_length_a 5.330403
_cell_length_b 11.925503
_cell_length_c 14.403657
_cell_angle_alpha 115.155686
_cell_angle_beta 121.941151
_cell_angle_gamma 66.305324
_cell_volume 684.363986
_symmetry_space_group_name_H-M "P -1"
_symmetry_group_IT_number 2
_symmetry_cell_setting 'triclinic'
loop_
_space_group_symop_operation_xyz
x,y,z
-x,-y,-z
loop_
_atom_site_type_symbol
_atom_site_label
_atom_site_fract_x
_atom_site_fract_y
_atom_site_fract_z
Si Si1 0.931536 0.530122 0.104039
Si Si2 0.781135 0.123293 0.455003
Si Si3 0.228408 0.931587 0.941875
Si Si4 0.802696 0.451273 0.321965
Si Si5 0.638478 0.353271 0.068194
Si Si6 0.236094 0.605665 0.361461
Si Si7 0.932495 0.841736 0.675212
O O1 0.941769 0.393754 0.106544
O O2 0.091280 0.609737 0.231484
O O3 0.585822 0.610913 0.050426
O O4 0.000000 0.500000 0.000000
O O5 0.785698 0.254466 0.555151
O O6 0.430798 0.114584 0.385680
O O7 0.902241 0.136914 0.379854
O O8 0.000000 0.000000 0.500000
O O9 0.350335 0.788740 0.952090
O O10 0.052726 0.917093 0.807710
O O11 0.500000 0.000000 0.000000
O O12 0.000000 0.000000 0.000000
O O13 0.594366 0.432624 0.184553
O O14 0.579724 0.524395 0.383551
O O15 0.960704 0.468267 0.638880
O O16 0.971939 0.309241 0.334758
#
# Coordination Sequence:
#
# PCOD9087277 Si02
#       7
#     2   2   2   2   2   2   2
#     4  10  19  36  62  92 130 170 206 269 339 377
#     4  12  27  47  64  94 134 181 226 270 316 401
#     4  11  25  43  68 100 130 172 225 270 328 405
#     4  10  21  40  66  98 124 160 215 279 334 386
#     4   9  21  37  58  95 133 163 207 275 331 391
#     4  11  23  38  65  96 130 169 223 264 324 394
#     4  11  25  46  71  91 135 173 216 285 338 371
#
# _framework density 20.456951
#
# number of rings (size 3 to 8) (size 9 to 14) (size 15 to 20)
#    0.000    1.429    1.429    3.000    2.000    8.000 
#    0.000    0.000    0.000    0.000    0.000    0.000 
#    0.000    0.000    0.000    0.000    0.000    0.000 
#
# Total GULP energy -78143.783602 kJ/mol
# GULP energy per Si atom -5581.698829 kJ/mol
# Density = 2.041039 g / cm^3
# Si number density = 20.456951 Si / 1000 Ang^3
#
#
#
# Elastic Constant Matrix: (Units=GPa)
#
#
# Indices 1 2 3 4 5 6 
#
# 1 139.8538 40.1997 61.6879 26.8792 -10.7852 -5.8445
# 2 40.1997 92.1919 54.2082 21.1479 -3.5553 -1.2629
# 3 61.6879 54.2082 143.6114 18.9822 -8.3212 -3.8402
# 4 26.8792 21.1479 18.9822 35.1000 -0.9560 5.3802
# 5 -10.7852 -3.5553 -8.3212 -0.9560 31.4462 -2.7468
# 6 -5.8445 -1.2629 -3.8402 5.3802 -2.7468 32.0428
#
#
#
# Elastic Compliance Matrix: (Units=1/GPa)
#
#
# Indices 1 2 3 4 5 6 
#
# 1 0.010243 -0.001269 -0.002924 -0.005835 0.002652 0.002675
# 2 -0.001269 0.015416 -0.004451 -0.006040 0.000021 0.000859
# 3 -0.002924 -0.004451 0.010067 -0.000598 0.001201 0.000701
# 4 -0.005835 -0.006040 -0.000598 0.038078 -0.002381 -0.007972
# 5 0.002652 0.000021 0.001201 -0.002381 0.033297 0.003883
# 6 0.002675 0.000859 0.000701 -0.007972 0.003883 0.033485
#
#
# Mechanical properties :
#
#
# Convention : Reuss Voigt Hill
#
# Bulk Modulus (GPa) = 54.24179 76.42765 65.33472
# Shear Modulus (GPa) = 30.48405 34.35522 32.41964
#
# Velocity S-wave (km/s) = 3.86444 4.10248 3.98524
# Velocity P-wave (km/s) = 6.81796 7.73834 7.29268
#
# Compressibility (1/GPa) = 0.01843597
#
# Stress axis : x y z
#
# Youngs Moduli (GPa) = 97.62901 64.86877 99.33690
#
# Poissons Ratio (x) = 0.08235 0.29047
# Poissons Ratio (y) = 0.12394 0.44216
# Poissons Ratio (z) = 0.28548 0.28874
#
# Static dielectric constant tensor:
#      x y z
#    x 1.861150 -0.048520 0.064340 
#    y -0.048520 1.729070 -0.041110 
#    z 0.064340 -0.041110 1.794500 
# 
# From -- ./inp_files/365330.got.cif
#   From: 2010.05.17/outbox.cif.g08.bks.cpg/sg2_183_cif.got.tgz:365330.got - 2010.06.03 11:33:40.
