data_PCOD9087036
_publ_section_title
;
Structure prediction by ZEFSAII (Michael W. Deem and Ramdas Pophale) SiO2 
 PCOD9087036
Probable space group: P -1
;
_chemical_formula_sum "Si O2"
_cell_formula_units_Z 14
_cell_length_a 12.520148
_cell_length_b 9.714330
_cell_length_c 8.245733
_cell_angle_alpha 46.652068
_cell_angle_beta 86.057988
_cell_angle_gamma 113.370456
_cell_volume 575.505684
_symmetry_space_group_name_H-M "P -1"
_symmetry_group_IT_number 2
_symmetry_cell_setting 'triclinic'
loop_
_space_group_symop_operation_xyz
x,y,z
-x,-y,-z
loop_
_atom_site_type_symbol
_atom_site_label
_atom_site_fract_x
_atom_site_fract_y
_atom_site_fract_z
Si Si1 0.857701 0.192862 0.642419
Si Si2 0.670391 0.320406 0.413253
Si Si3 0.872453 0.007821 0.320594
Si Si4 0.126384 0.615513 0.163828
Si Si5 0.335022 0.307070 0.677581
Si Si6 0.818193 0.770577 0.860625
Si Si7 0.408610 0.958313 0.893157
O O1 0.762431 0.246942 0.525120
O O2 0.897240 0.291320 0.741654
O O3 0.997328 0.338352 0.404837
O O4 0.785744 0.909488 0.875631
O O5 0.692297 0.520946 0.369799
O O6 0.512595 0.093750 0.624033
O O7 0.723424 0.484214 0.114763
O O8 0.778232 0.805822 0.361613
O O9 0.817902 0.875137 0.604771
O O10 0.030375 0.128735 0.193124
O O11 0.868619 0.230036 0.108995
O O12 0.275687 0.688104 0.099592
O O13 0.500000 0.500000 0.500000
O O14 0.343500 0.084643 0.853906
O O15 0.500000 0.000000 0.000000
#
# Coordination Sequence:
#
# PCOD9087036 Si02
#       7
#     2   2   2   2   2   2   2
#     4  11  23  37  66  95 126 160 214 275 311 369
#     4  11  22  40  64  97 125 162 216 266 318 371
#     4  10  22  41  61  91 134 168 210 257 320 390
#     4  10  21  39  60  97 122 164 214 266 313 364
#     4   9  21  38  63  91 122 163 210 265 306 367
#     4  11  24  40  61  94 135 171 204 259 322 388
#     4  10  19  36  61  89 126 158 203 259 320 371
#
# _framework density 24.326432
#
# number of rings (size 3 to 8) (size 9 to 14) (size 15 to 20)
#    0.000    1.714    2.857    1.714    4.000    1.714 
#    0.000    6.429    0.000    7.714    0.000    0.000 
#    0.000    0.000    0.000    0.000    0.000    0.000 
#
# Total GULP energy -78007.463921 kJ/mol
# GULP energy per Si atom -5571.961709 kJ/mol
# Density = 2.427106 g / cm^3
# Si number density = 24.326432 Si / 1000 Ang^3
#
#
#
# Elastic Constant Matrix: (Units=GPa)
#
#
# Indices 1 2 3 4 5 6 
#
# 1 90.3815 -4.5082 31.2821 -8.0411 1.0848 9.2878
# 2 -4.5082 28.1829 -21.2718 -2.8461 -2.0306 -4.3290
# 3 31.2821 -21.2718 70.5535 -24.2634 19.4196 14.5168
# 4 -8.0411 -2.8461 -24.2634 35.9057 2.4993 -1.1416
# 5 1.0848 -2.0306 19.4196 2.4993 35.9803 -11.1406
# 6 9.2878 -4.3290 14.5168 -1.1416 -11.1406 26.2390
#
#
#
# Elastic Compliance Matrix: (Units=1/GPa)
#
#
# Indices 1 2 3 4 5 6 
#
# 1 0.014960 -0.010206 -0.017970 -0.010178 0.011697 0.007487
# 2 -0.010206 0.080621 0.067237 0.051590 -0.046747 -0.037889
# 3 -0.017970 0.067237 0.104836 0.075422 -0.079472 -0.071008
# 4 -0.010178 0.051590 0.075422 0.083116 -0.059079 -0.051081
# 5 0.011697 -0.046747 -0.079472 -0.059079 0.093200 0.069116
# 6 0.007487 -0.037889 -0.071008 -0.051081 0.069116 0.095619
#
#
# Mechanical properties :
#
#
# Convention : Reuss Voigt Hill
#
# Bulk Modulus (GPa) = 3.59018 22.23579 12.91298
# Shear Modulus (GPa) = 10.26537 31.86603 21.06570
#
# Velocity S-wave (km/s) = 2.05645 3.62323 2.94591
# Velocity P-wave (km/s) = 2.66790 5.16373 4.10986
#
# Compressibility (1/GPa) = 0.27853752
#
# Stress axis : x y z
#
# Youngs Moduli (GPa) = 66.84683 12.40378 9.53873
#
# Poissons Ratio (x) = 0.12659 0.17141
# Poissons Ratio (y) = 0.68222 -0.64135
# Poissons Ratio (z) = 1.20125 -0.83399
#
# Static dielectric constant tensor:
#      x y z
#    x 1.995890 0.026550 -0.074200 
#    y 0.026550 1.997720 0.010980 
#    z -0.074200 0.010980 2.103110 
# 
# From -- ./inp_files/255961.got.cif
#   From: 2010.05.17/outbox.cif.g08.bks.cpg/sg2_128_cif.got.tgz:255961.got - 2010.06.03 11:33:40.
