data_PCOD9087506
_publ_section_title
;
Structure prediction by ZEFSAII (Michael W. Deem and Ramdas Pophale) SiO2 
 PCOD9087506
Probable space group: P -1
;
_chemical_formula_sum "Si O2"
_cell_formula_units_Z 16
_cell_length_a 9.662925
_cell_length_b 12.442507
_cell_length_c 11.579550
_cell_angle_alpha 71.693717
_cell_angle_beta 112.380882
_cell_angle_gamma 143.927666
_cell_volume 757.947876
_symmetry_space_group_name_H-M "P -1"
_symmetry_group_IT_number 2
_symmetry_cell_setting 'triclinic'
loop_
_space_group_symop_operation_xyz
x,y,z
-x,-y,-z
loop_
_atom_site_type_symbol
_atom_site_label
_atom_site_fract_x
_atom_site_fract_y
_atom_site_fract_z
Si Si1 0.600240 0.805587 0.750954
Si Si2 0.127117 0.580716 0.759300
Si Si3 0.679014 0.190205 0.741614
Si Si4 0.700743 0.985002 0.968470
Si Si5 0.248856 0.580919 0.027578
Si Si6 0.136804 0.840947 0.660528
Si Si7 0.839372 0.719038 0.819089
Si Si8 0.232286 0.889913 0.425077
O O1 0.318826 0.673335 0.688002
O O2 0.689481 0.905578 0.871642
O O3 0.645814 0.701329 0.785495
O O4 0.747976 0.967571 0.651472
O O5 0.219029 0.543303 0.893560
O O6 0.178102 0.739312 0.759498
O O7 0.842229 0.397509 0.731012
O O8 0.819277 0.208266 0.675727
O O9 0.676112 0.100028 0.877374
O O10 0.402137 0.053270 0.673504
O O11 0.481885 0.800587 0.036224
O O12 0.942187 0.126862 0.073247
O O13 0.258267 0.465961 0.130078
O O14 0.000000 0.500000 0.000000
O O15 0.074255 0.783480 0.525634
O O16 0.951165 0.791192 0.701762
O O17 0.500000 0.000000 0.500000
#
# Coordination Sequence:
#
# PCOD9087506 Si02
#       8
#     2   2   2   2   2   2   2   2
#     4  10  22  42  57  89 116 152 196 239 285 348
#     4  11  20  36  62  85 116 148 199 233 285 345
#     4  10  19  36  64  87 109 153 196 241 283 338
#     4  10  21  38  58  85 119 156 193 227 289 354
#     4  11  21  36  56  87 123 153 185 241 280 343
#     4  11  22  38  59  90 113 151 196 243 286 336
#     4  12  24  36  61  85 124 157 184 235 299 342
#     4   9  18  41  63  82 115 146 199 249 278 335
#
# _framework density 21.109632000000001
#
# number of rings (size 3 to 8) (size 9 to 14) (size 15 to 20)
#    0.000    1.500    7.500    0.375    1.750    4.000 
#    4.500    0.000    0.000    0.750    0.000    0.000 
#    0.000    0.000    0.000    0.000    0.000    0.000 
#
# Total GULP energy -89119.455351 kJ/mol
# GULP energy per Si atom -5569.965959 kJ/mol
# Density = 2.106159 g / cm^3
# Si number density = 21.109632 Si / 1000 Ang^3
#
#
#
# Elastic Constant Matrix: (Units=GPa)
#
#
# Indices 1 2 3 4 5 6 
#
# 1 87.2246 10.1254 8.7463 -4.8592 -10.7188 -13.4447
# 2 10.1254 98.3005 13.0005 -3.1700 -5.3965 3.8374
# 3 8.7463 13.0005 55.8063 -19.7963 -15.6856 -5.6583
# 4 -4.8592 -3.1700 -19.7963 16.5759 5.9397 -0.0353
# 5 -10.7188 -5.3965 -15.6856 5.9397 21.6715 -3.3510
# 6 -13.4447 3.8374 -5.6583 -0.0353 -3.3510 20.4822
#
#
#
# Elastic Compliance Matrix: (Units=1/GPa)
#
#
# Indices 1 2 3 4 5 6 
#
# 1 0.014848 -0.001853 0.004290 0.005378 0.010525 0.013010
# 2 -0.001853 0.010925 -0.004041 -0.002923 -0.001024 -0.004552
# 3 0.004290 -0.004041 0.041139 0.041642 0.022365 0.018668
# 4 0.005378 -0.002923 0.041642 0.109455 0.004628 0.016527
# 5 0.010525 -0.001024 0.022365 0.004628 0.069834 0.024712
# 6 0.013010 -0.004552 0.018668 0.016527 0.024712 0.067444
#
#
# Mechanical properties :
#
#
# Convention : Reuss Voigt Hill
#
# Bulk Modulus (GPa) = 15.69779 33.89732 24.79756
# Shear Modulus (GPa) = 14.78901 25.70986 20.24944
#
# Velocity S-wave (km/s) = 2.64972 3.49366 3.10054
# Velocity P-wave (km/s) = 4.10047 5.68918 4.95886
#
# Compressibility (1/GPa) = 0.06370322
#
# Stress axis : x y z
#
# Youngs Moduli (GPa) = 67.34948 91.52937 24.30799
#
# Poissons Ratio (x) = 0.16964 -0.10427
# Poissons Ratio (y) = 0.12482 0.09822
# Poissons Ratio (z) = -0.28890 0.36984
#
# Static dielectric constant tensor:
#      x y z
#    x 1.756270 0.005760 -0.076210 
#    y 0.005760 1.816620 0.015230 
#    z -0.076210 0.015230 1.851070 
# 
# From -- ./inp_files/284705.got.cif
#   From: 2010.05.17/outbox.cif.g08.bks.cpg/sg2_143_cif.got.tgz:284705.got - 2010.06.03 11:33:40.
