data_PCOD9087038
_publ_section_title
;
Structure prediction by ZEFSAII (Michael W. Deem and Ramdas Pophale) SiO2 
 PCOD9087038
Probable space group: P -1
;
_chemical_formula_sum "Si O2"
_cell_formula_units_Z 16
_cell_length_a 16.251745
_cell_length_b 12.017060
_cell_length_c 9.169938
_cell_angle_alpha 112.637101
_cell_angle_beta 134.814999
_cell_angle_gamma 35.613768
_cell_volume 658.645171
_symmetry_space_group_name_H-M "P -1"
_symmetry_group_IT_number 2
_symmetry_cell_setting 'triclinic'
loop_
_space_group_symop_operation_xyz
x,y,z
-x,-y,-z
loop_
_atom_site_type_symbol
_atom_site_label
_atom_site_fract_x
_atom_site_fract_y
_atom_site_fract_z
Si Si1 0.927386 0.203113 0.804308
Si Si2 0.047687 0.677938 0.817603
Si Si3 0.019904 0.368546 0.848286
Si Si4 0.170241 0.752973 0.802936
Si Si5 0.599311 0.960117 0.396854
Si Si6 0.577528 0.483112 0.289133
Si Si7 0.794652 0.694515 0.235099
Si Si8 0.443857 0.235129 0.583884
O O1 0.698617 0.385080 0.542179
O O2 0.035745 0.227136 0.877665
O O3 0.919923 0.245981 0.985051
O O4 0.046380 0.978528 0.804893
O O5 0.035401 0.754454 0.684627
O O6 0.228576 0.423764 0.905679
O O7 0.835375 0.792003 0.653771
O O8 0.170199 0.264781 0.849983
O O9 0.798730 0.549673 0.584915
O O10 0.000000 0.500000 0.000000
O O11 0.246129 0.690141 0.699649
O O12 0.387984 0.557246 0.064289
O O13 0.631860 0.898736 0.239637
O O14 0.495333 0.932944 0.330437
O O15 0.477914 0.175070 0.425813
O O16 0.476798 0.702017 0.247042
O O17 0.000000 0.500000 0.500000
#
# Coordination Sequence:
#
# PCOD9087038 Si02
#       8
#     2   2   2   2   2   2   2   2
#     4  11  23  39  66  96 125 171 216 263 321 387
#     4  11  21  38  65  92 128 169 211 263 321 386
#     4  11  20  38  63  90 129 167 208 265 328 385
#     4  11  24  43  65  93 127 172 221 263 316 386
#     4  10  20  34  62  98 122 162 215 260 318 385
#     4  10  24  42  65  93 125 173 217 266 324 375
#     4  10  19  36  62  97 122 164 216 258 317 390
#     4  10  19  36  61  89 126 163 204 267 318 374
#
# _framework density 24.292289
#
# number of rings (size 3 to 8) (size 9 to 14) (size 15 to 20)
#    0.000    1.500    3.750    2.250    5.250    1.500 
#    0.000    1.875    5.500    0.000    0.000    0.000 
#    0.000    0.000    0.000    0.000    0.000    0.000 
#
# Total GULP energy -89370.497656 kJ/mol
# GULP energy per Si atom -5585.656103 kJ/mol
# Density = 2.423700 g / cm^3
# Si number density = 24.292289 Si / 1000 Ang^3
#
#
#
# Elastic Constant Matrix: (Units=GPa)
#
#
# Indices 1 2 3 4 5 6 
#
# 1 91.4197 27.9659 -7.9376 0.7601 -6.4247 -5.5924
# 2 27.9659 116.8888 -6.7757 30.6055 -8.1885 -14.0955
# 3 -7.9376 -6.7757 74.2080 0.0793 -3.9682 -7.9916
# 4 0.7601 30.6055 0.0793 31.1344 -7.8492 -4.8197
# 5 -6.4247 -8.1885 -3.9682 -7.8492 33.3276 9.4684
# 6 -5.5924 -14.0955 -7.9916 -4.8197 9.4684 36.6418
#
#
#
# Elastic Compliance Matrix: (Units=1/GPa)
#
#
# Indices 1 2 3 4 5 6 
#
# 1 0.012344 -0.003697 0.001174 0.004028 0.002380 0.000633
# 2 -0.003697 0.013127 0.001114 -0.012616 -0.001293 0.003403
# 3 0.001174 0.001114 0.014125 -0.000352 0.001148 0.003345
# 4 0.004028 -0.012616 -0.000352 0.046554 0.008726 -0.000447
# 5 0.002380 -0.001293 0.001148 0.008726 0.034513 -0.007654
# 6 0.000633 0.003403 0.003345 -0.000447 -0.007654 0.031346
#
#
# Mechanical properties :
#
#
# Convention : Reuss Voigt Hill
#
# Bulk Modulus (GPa) = 27.18986 34.33575 30.76281
# Shear Modulus (GPa) = 29.92490 38.17171 34.04830
#
# Velocity S-wave (km/s) = 3.51361 3.96833 3.74787
# Velocity P-wave (km/s) = 5.26096 5.92975 5.60534
#
# Compressibility (1/GPa) = 0.03677842
#
# Stress axis : x y z
#
# Youngs Moduli (GPa) = 81.01222 76.17725 70.79661
#
# Poissons Ratio (x) = 0.28161 -0.08311
# Poissons Ratio (y) = 0.29948 -0.07887
# Poissons Ratio (z) = -0.09510 -0.08486
#
# Static dielectric constant tensor:
#      x y z
#    x 1.930210 0.029940 0.007520 
#    y 0.029940 1.939480 -0.014530 
#    z 0.007520 -0.014530 2.014260 
# 
# From -- ./inp_files/308178.got.cif
#   From: 2010.05.17/outbox.cif.g08.bks.cpg/sg2_155_cif.got.tgz:308178.got - 2010.06.03 11:33:40.
