data_PCOD9087061
_publ_section_title
;
Structure prediction by ZEFSAII (Michael W. Deem and Ramdas Pophale) SiO2 
 PCOD9087061
Probable space group: P -1
;
_chemical_formula_sum "Si O2"
_cell_formula_units_Z 12
_cell_length_a 13.533132
_cell_length_b 8.123359
_cell_length_c 5.203947
_cell_angle_alpha 119.803921
_cell_angle_beta 100.297589
_cell_angle_gamma 62.814304
_cell_volume 440.717486
_symmetry_space_group_name_H-M "P -1"
_symmetry_group_IT_number 2
_symmetry_cell_setting 'triclinic'
loop_
_space_group_symop_operation_xyz
x,y,z
-x,-y,-z
loop_
_atom_site_type_symbol
_atom_site_label
_atom_site_fract_x
_atom_site_fract_y
_atom_site_fract_z
Si Si1 0.572438 0.273860 0.973525
Si Si2 0.110865 0.908083 0.655271
Si Si3 0.820133 0.143403 0.847184
Si Si4 0.225216 0.405089 0.415012
Si Si5 0.488655 0.172843 0.352092
Si Si6 0.122076 0.455735 0.911663
O O1 0.700128 0.222870 0.974149
O O2 0.548348 0.132103 0.629998
O O3 0.500000 0.500000 0.000000
O O4 0.542143 0.281622 0.265041
O O5 0.188367 0.940142 0.503499
O O6 0.161283 0.659137 0.545661
O O7 0.102017 0.005410 0.007728
O O8 0.000000 0.000000 0.500000
O O9 0.855081 0.335195 0.956175
O O10 0.356625 0.314338 0.450904
O O11 0.158305 0.354313 0.570364
O O12 0.207553 0.323257 0.068354
O O13 0.500000 0.000000 0.000000
O O14 0.000000 0.500000 0.000000
#
# Coordination Sequence:
#
# PCOD9087061 Si02
#       6
#     2   2   2   2   2   2
#     4  12  23  43  75 106 140 189 240 303 368 430
#     4  10  19  36  61  90 130 174 221 290 350 403
#     4  10  21  37  60  98 132 169 227 286 346 421
#     4  10  21  40  63  94 132 176 230 284 344 427
#     4  12  26  46  71 106 147 192 239 295 367 444
#     4  10  20  38  64  94 132 180 226 286 355 417
#
# _framework density 27.228328000000001
#
# number of rings (size 3 to 8) (size 9 to 14) (size 15 to 20)
#    0.000    1.333    0.000    8.000    0.000    0.000 
#    0.000   13.333    0.000    0.000    0.000    0.000 
#    0.000    0.000    0.000    0.000    0.000    0.000 
#
# Total GULP energy -66929.557665 kJ/mol
# GULP energy per Si atom -5577.463139 kJ/mol
# Density = 2.716636 g / cm^3
# Si number density = 27.228328 Si / 1000 Ang^3
#
#
#
# Elastic Constant Matrix: (Units=GPa)
#
#
# Indices 1 2 3 4 5 6 
#
# 1 170.7025 41.3196 42.0357 -11.4407 -16.8707 -22.1811
# 2 41.3196 67.7215 36.8132 -13.5751 2.8460 -8.2698
# 3 42.0357 36.8132 203.5122 -49.2468 -15.9767 20.7271
# 4 -11.4407 -13.5751 -49.2468 67.5029 13.9863 8.6034
# 5 -16.8707 2.8460 -15.9767 13.9863 59.8757 -2.1530
# 6 -22.1811 -8.2698 20.7271 8.6034 -2.1530 45.4053
#
#
#
# Elastic Compliance Matrix: (Units=1/GPa)
#
#
# Indices 1 2 3 4 5 6 
#
# 1 0.007877 -0.003868 -0.001567 -0.001657 0.002526 0.004292
# 2 -0.003868 0.019406 -0.002849 0.001474 -0.003026 0.002523
# 3 -0.001567 -0.002849 0.007685 0.005455 0.000261 -0.005814
# 4 -0.001657 0.001474 0.005455 0.020577 -0.004144 -0.007126
# 5 0.002526 -0.003026 0.000261 -0.004144 0.018675 0.002234
# 6 0.004292 0.002523 -0.005814 -0.007126 0.002234 0.028691
#
#
# Mechanical properties :
#
#
# Convention : Reuss Voigt Hill
#
# Bulk Modulus (GPa) = 54.34915 75.80814 65.07864
# Shear Modulus (GPa) = 39.80505 56.00796 47.90650
#
# Velocity S-wave (km/s) = 3.82763 4.54031 4.19911
# Velocity P-wave (km/s) = 6.28794 7.44231 6.88934
#
# Compressibility (1/GPa) = 0.01839955
#
# Stress axis : x y z
#
# Youngs Moduli (GPa) = 126.95600 51.53039 130.11521
#
# Poissons Ratio (x) = 0.19933 0.20388
# Poissons Ratio (y) = 0.49110 0.37072
# Poissons Ratio (z) = 0.19893 0.14682
#
# Static dielectric constant tensor:
#      x y z
#    x 2.418080 0.198700 -0.108550 
#    y 0.198700 2.077520 -0.043880 
#    z -0.108550 -0.043880 2.367940 
# 
# From -- ./inp_files/61199.got.cif
#   From: 2010.05.17/outbox.cif.g08.bks.cpg/sg2_31_cif.got.tgz:61199.got - 2010.06.03 11:33:40.
