data_PCOD9087206
_publ_section_title
;
Structure prediction by ZEFSAII (Michael W. Deem and Ramdas Pophale) SiO2 
 PCOD9087206
Probable space group: P -1
;
_chemical_formula_sum "Si O2"
_cell_formula_units_Z 14
_cell_length_a 9.789227
_cell_length_b 15.095406
_cell_length_c 8.379593
_cell_angle_alpha 66.449681
_cell_angle_beta 147.533023
_cell_angle_gamma 111.579552
_cell_volume 608.170155
_symmetry_space_group_name_H-M "P -1"
_symmetry_group_IT_number 2
_symmetry_cell_setting 'triclinic'
loop_
_space_group_symop_operation_xyz
x,y,z
-x,-y,-z
loop_
_atom_site_type_symbol
_atom_site_label
_atom_site_fract_x
_atom_site_fract_y
_atom_site_fract_z
Si Si1 0.584412 0.097650 0.353892
Si Si2 0.108936 0.048446 0.407715
Si Si3 0.973197 0.355489 0.211717
Si Si4 0.557607 0.735760 0.116348
Si Si5 0.540060 0.605267 0.884931
Si Si6 0.045598 0.576004 0.217585
Si Si7 0.366307 0.895165 0.254098
O O1 0.833839 0.043216 0.584631
O O2 0.611529 0.150233 0.514819
O O3 0.497680 0.158257 0.074400
O O4 0.373648 0.009263 0.225896
O O5 0.388950 0.106978 0.621129
O O6 0.000000 0.000000 0.500000
O O7 0.900454 0.119636 0.087001
O O8 0.191836 0.283793 0.522309
O O9 0.040277 0.458413 0.292875
O O10 0.696821 0.311450 0.020459
O O11 0.957018 0.384337 0.991630
O O12 0.583711 0.680302 0.015109
O O13 0.291369 0.617000 0.525384
O O14 0.500000 0.500000 0.000000
O O15 0.789750 0.605910 0.024719
#
# Coordination Sequence:
#
# PCOD9087206 Si02
#       7
#     2   2   2   2   2   2   2
#     4   9  23  37  62  84 120 148 196 236 287 347
#     4  10  19  36  62  89 109 150 195 235 279 350
#     4  11  23  39  61  86 115 161 195 242 299 347
#     4  12  24  37  61  90 120 151 200 248 291 337
#     4  12  21  38  61  90 114 155 201 248 286 342
#     4  11  22  41  61  82 118 158 203 237 291 361
#     4   9  20  38  62  83 112 157 192 224 290 353
#
# _framework density 23.019874000000002
#
# number of rings (size 3 to 8) (size 9 to 14) (size 15 to 20)
#    0.857    0.571    2.857    3.000    2.000    2.286 
#    0.000    4.286    0.000    0.000    0.000    0.000 
#    0.000    0.000    0.000    0.000    0.000    0.000 
#
# Total GULP energy -78203.008811 kJ/mol
# GULP energy per Si atom -5585.929201 kJ/mol
# Density = 2.296748 g / cm^3
# Si number density = 23.019874 Si / 1000 Ang^3
#
#
#
# Elastic Constant Matrix: (Units=GPa)
#
#
# Indices 1 2 3 4 5 6 
#
# 1 131.6722 26.1947 63.9052 4.6413 13.0400 28.2308
# 2 26.1947 28.6127 18.4333 -9.3553 -1.7871 3.6373
# 3 63.9052 18.4333 197.2543 9.1895 9.3967 10.8927
# 4 4.6413 -9.3553 9.1895 40.4235 20.0198 0.8607
# 5 13.0400 -1.7871 9.3967 20.0198 51.3142 10.3185
# 6 28.2308 3.6373 10.8927 0.8607 10.3185 29.3261
#
#
#
# Elastic Compliance Matrix: (Units=1/GPa)
#
#
# Indices 1 2 3 4 5 6 
#
# 1 0.013208 -0.010074 -0.002622 -0.003061 0.000063 -0.010424
# 2 -0.010074 0.049399 -0.002168 0.013784 -0.001613 0.004540
# 3 -0.002622 -0.002168 0.006167 -0.001602 -0.000026 0.000559
# 4 -0.003061 0.013784 -0.001602 0.035081 -0.013233 0.005459
# 5 0.000063 -0.001613 -0.000026 -0.013233 0.026339 -0.008730
# 6 -0.010424 0.004540 0.000559 0.005459 -0.008730 0.046275
#
#
# Mechanical properties :
#
#
# Convention : Reuss Voigt Hill
#
# Bulk Modulus (GPa) = 25.61272 63.84504 44.72888
# Shear Modulus (GPa) = 22.80892 40.81315 31.81103
#
# Velocity S-wave (km/s) = 3.15117 4.21521 3.72142
# Velocity P-wave (km/s) = 4.93866 7.17535 6.15938
#
# Compressibility (1/GPa) = 0.03904310
#
# Stress axis : x y z
#
# Youngs Moduli (GPa) = 75.71167 20.24350 162.15819
#
# Poissons Ratio (x) = 0.20394 0.42524
# Poissons Ratio (y) = 0.76274 0.35164
# Poissons Ratio (z) = 0.19855 0.04390
#
# Static dielectric constant tensor:
#      x y z
#    x 1.880970 -0.088420 -0.167310 
#    y -0.088420 1.831390 -0.103910 
#    z -0.167310 -0.103910 1.760900 
# 
# From -- ./inp_files/223305.got.cif
#   From: 2010.05.17/outbox.cif.g08.bks.cpg/sg2_112_cif.got.tgz:223305.got - 2010.06.03 11:33:40.
