data_PCOD9087970
_publ_section_title
;
Structure prediction by ZEFSAII (Michael W. Deem and Ramdas Pophale) SiO2 
 PCOD9087970
Probable space group: P -1
;
_chemical_formula_sum "Si O2"
_cell_formula_units_Z 16
_cell_length_a 12.900884
_cell_length_b 14.494318
_cell_length_c 15.967469
_cell_angle_alpha 149.582048
_cell_angle_beta 134.211011
_cell_angle_gamma 30.981578
_cell_volume 767.983056
_symmetry_space_group_name_H-M "P -1"
_symmetry_group_IT_number 2
_symmetry_cell_setting 'triclinic'
loop_
_space_group_symop_operation_xyz
x,y,z
-x,-y,-z
loop_
_atom_site_type_symbol
_atom_site_label
_atom_site_fract_x
_atom_site_fract_y
_atom_site_fract_z
Si Si1 0.775853 0.453905 0.339873
Si Si2 0.792786 0.725264 0.806175
Si Si3 0.774171 0.403303 0.652761
Si Si4 0.200987 0.205318 0.316074
Si Si5 0.422229 0.936400 0.833024
Si Si6 0.050910 0.026629 0.860206
Si Si7 0.990211 0.870825 0.268349
Si Si8 0.306024 0.707533 0.996376
O O1 0.675080 0.736925 0.528117
O O2 0.009531 0.310851 0.345642
O O3 0.794628 0.281079 0.285437
O O4 0.702929 0.417832 0.186617
O O5 0.865543 0.500975 0.733621
O O6 0.883067 0.642844 0.700220
O O7 0.550504 0.897308 0.795914
O O8 0.833121 0.886628 0.993223
O O9 0.533025 0.647350 0.693243
O O10 0.871762 0.142815 0.459364
O O11 0.832511 0.345209 0.737660
O O12 0.310871 0.915221 0.133762
O O13 0.184684 0.127811 0.836866
O O14 0.500000 0.000000 0.000000
O O15 0.891058 0.152809 0.945845
O O16 0.949934 0.124678 0.788368
O O17 0.500000 0.500000 0.000000
#
# Coordination Sequence:
#
# PCOD9087970 Si02
#       8
#     2   2   2   2   2   2   2   2
#     4  10  20  37  66  85 113 156 201 248 295 363
#     4  10  19  37  57  91 114 152 208 241 296 369
#     4   9  23  37  59  88 124 160 204 249 305 354
#     4  10  19  39  63  86 115 156 200 244 300 357
#     4  10  21  36  58  86 117 156 204 245 298 356
#     4  11  20  38  64  84 115 161 204 240 310 360
#     4  11  20  42  59  85 127 161 199 260 296 360
#     4  11  23  41  58  93 125 153 198 253 303 370
#
# _framework density 20.833794000000001
#
# number of rings (size 3 to 8) (size 9 to 14) (size 15 to 20)
#    0.750    1.000    3.750    1.875    0.000    2.500 
#    6.750    1.250    0.000    0.000    0.000    0.000 
#    0.000    0.000    0.000    0.000    0.000    0.000 
#
# Total GULP energy -89100.546035 kJ/mol
# GULP energy per Si atom -5568.784127 kJ/mol
# Density = 2.078637 g / cm^3
# Si number density = 20.833794 Si / 1000 Ang^3
#
#
#
# Elastic Constant Matrix: (Units=GPa)
#
#
# Indices 1 2 3 4 5 6 
#
# 1 63.2998 7.3633 15.1048 -11.0911 5.2950 24.2281
# 2 7.3633 58.7724 22.8428 -15.4123 11.1500 18.7052
# 3 15.1048 22.8428 133.3379 -14.5665 22.1916 18.9305
# 4 -11.0911 -15.4123 -14.5665 18.0882 4.8929 -8.1535
# 5 5.2950 11.1500 22.1916 4.8929 30.8720 -4.0174
# 6 24.2281 18.7052 18.9305 -8.1535 -4.0174 31.2943
#
#
#
# Elastic Compliance Matrix: (Units=1/GPa)
#
#
# Indices 1 2 3 4 5 6 
#
# 1 0.033749 0.018242 0.006038 0.032164 -0.026461 -0.035701
# 2 0.018242 0.042289 0.006657 0.045862 -0.035139 -0.035989
# 3 0.006038 0.006657 0.012375 0.017750 -0.016930 -0.013688
# 4 0.032164 0.045862 0.017750 0.127704 -0.059956 -0.037476
# 5 -0.026461 -0.035139 -0.016930 -0.059956 0.077283 0.046030
# 6 -0.035701 -0.035989 -0.013688 -0.037476 0.046030 0.085531
#
#
# Mechanical properties :
#
#
# Convention : Reuss Voigt Hill
#
# Bulk Modulus (GPa) = 6.65393 38.44799 22.55096
# Shear Modulus (GPa) = 13.61827 30.05750 21.83789
#
# Velocity S-wave (km/s) = 2.55946 3.80245 3.24110
# Velocity P-wave (km/s) = 3.45473 6.14596 4.98538
#
# Compressibility (1/GPa) = 0.15028722
#
# Stress axis : x y z
#
# Youngs Moduli (GPa) = 29.63067 23.64664 80.80488
#
# Poissons Ratio (x) = -0.43137 -0.48790
# Poissons Ratio (y) = -0.54053 -0.53789
# Poissons Ratio (z) = -0.17891 -0.15741
#
# Static dielectric constant tensor:
#      x y z
#    x 1.801800 -0.002230 -0.030670 
#    y -0.002230 1.737360 0.039490 
#    z -0.030670 0.039490 1.847440 
# 
# From -- ./inp_files/534612.got.cif
#   From: 2010.05.17/outbox.cif.g08.bks.cpg/sg2_268_cif.got.tgz:534612.got - 2010.06.03 11:33:40.
