data_PCOD9087610
_publ_section_title
;
Structure prediction by ZEFSAII (Michael W. Deem and Ramdas Pophale) SiO2 
 PCOD9087610
Probable space group: P -1
;
_chemical_formula_sum "Si O2"
_cell_formula_units_Z 14
_cell_length_a 19.791941
_cell_length_b 7.670506
_cell_length_c 5.104821
_cell_angle_alpha 75.721144
_cell_angle_beta 83.024865
_cell_angle_gamma 129.681576
_cell_volume 536.064435
_symmetry_space_group_name_H-M "P -1"
_symmetry_group_IT_number 2
_symmetry_cell_setting 'triclinic'
loop_
_space_group_symop_operation_xyz
x,y,z
-x,-y,-z
loop_
_atom_site_type_symbol
_atom_site_label
_atom_site_fract_x
_atom_site_fract_y
_atom_site_fract_z
Si Si1 0.266357 0.971013 0.479426
Si Si2 0.810561 0.687843 0.404724
Si Si3 0.648998 0.181540 0.820763
Si Si4 0.929941 0.581371 0.197070
Si Si5 0.678870 0.710107 0.164625
Si Si6 0.487067 0.808329 0.384093
Si Si7 0.966557 0.147118 0.455921
O O1 0.287290 0.082896 0.714379
O O2 0.328920 0.909061 0.399428
O O3 0.157048 0.710753 0.597008
O O4 0.298879 0.175696 0.173371
O O5 0.752530 0.453750 0.721000
O O6 0.883736 0.694956 0.215143
O O7 0.740462 0.648244 0.241920
O O8 0.864183 0.937164 0.452910
O O9 0.586155 0.243461 0.774847
O O10 0.585261 0.955379 0.137454
O O11 0.014160 0.733831 0.314338
O O12 0.968646 0.633822 0.868296
O O13 0.569153 0.454246 0.351619
O O14 0.500000 0.000000 0.500000
O O15 0.000000 0.000000 0.500000
#
# Coordination Sequence:
#
# PCOD9087610 Si02
#       7
#     2   2   2   2   2   2   2
#     4  11  25  44  61  95 129 174 204 248 320 375
#     4   9  20  40  62  93 119 168 211 260 307 364
#     4   9  22  42  65  90 127 164 206 262 312 375
#     4  10  21  40  64  90 128 163 211 261 307 366
#     4  11  26  41  64  91 132 164 211 256 308 384
#     4  10  23  43  67  95 121 160 212 265 314 365
#     4  10  19  36  64  97 121 158 215 267 302 357
#
# _framework density 26.116261999999999
#
# number of rings (size 3 to 8) (size 9 to 14) (size 15 to 20)
#    0.000    2.000    0.000    2.571    8.000    4.571 
#   10.286    4.286    0.000    0.000    0.000    0.000 
#    0.000    0.000    0.000    0.000    0.000    0.000 
#
# Total GULP energy -78418.492041 kJ/mol
# GULP energy per Si atom -5601.320860 kJ/mol
# Density = 2.605682 g / cm^3
# Si number density = 26.116262 Si / 1000 Ang^3
#
#
#
# Elastic Constant Matrix: (Units=GPa)
#
#
# Indices 1 2 3 4 5 6 
#
# 1 64.5856 1.5637 10.6243 -4.3961 5.8211 -4.8371
# 2 1.5637 86.6563 17.8296 -12.1509 -11.3458 -6.0016
# 3 10.6243 17.8296 96.1069 -28.8193 -5.4259 22.6787
# 4 -4.3961 -12.1509 -28.8193 50.9015 -1.5408 -2.8572
# 5 5.8211 -11.3458 -5.4259 -1.5408 37.2508 -1.1049
# 6 -4.8371 -6.0016 22.6787 -2.8572 -1.1049 33.1429
#
#
#
# Elastic Compliance Matrix: (Units=1/GPa)
#
#
# Indices 1 2 3 4 5 6 
#
# 1 0.016580 0.000273 -0.003144 -0.000115 -0.002837 0.004516
# 2 0.000273 0.013197 -0.002757 0.001987 0.003794 0.004614
# 3 -0.003144 -0.002757 0.016414 0.007782 0.002025 -0.011452
# 4 -0.000115 0.001987 0.007782 0.024441 0.002685 -0.002786
# 5 -0.002837 0.003794 0.002025 0.002685 0.028852 0.000081
# 6 0.004516 0.004614 -0.011452 -0.002786 0.000081 0.039266
#
#
# Mechanical properties :
#
#
# Convention : Reuss Voigt Hill
#
# Bulk Modulus (GPa) = 28.62475 34.15378 31.38926
# Shear Modulus (GPa) = 30.93063 38.74778 34.83920
#
# Velocity S-wave (km/s) = 3.44516 3.85602 3.65636
# Velocity P-wave (km/s) = 5.17782 5.73856 5.46539
#
# Compressibility (1/GPa) = 0.03493481
#
# Stress axis : x y z
#
# Youngs Moduli (GPa) = 60.31402 75.77390 60.92223
#
# Poissons Ratio (x) = -0.02068 0.19153
# Poissons Ratio (y) = -0.01646 0.16798
# Poissons Ratio (z) = 0.18962 0.20894
#
# Static dielectric constant tensor:
#      x y z
#    x 2.149020 0.021250 0.039320 
#    y 0.021250 2.018260 -0.008830 
#    z 0.039320 -0.008830 2.027280 
# 
# From -- ./inp_files/42075.got.cif
#   From: 2010.05.17/outbox.cif.g08.bks.cpg/sg2_22_cif.got.tgz:42075.got - 2010.06.03 11:33:40.
