data_PCOD9087239
_publ_section_title
;
Structure prediction by ZEFSAII (Michael W. Deem and Ramdas Pophale) SiO2 
 PCOD9087239
Probable space group: P -1
;
_chemical_formula_sum "Si O2"
_cell_formula_units_Z 14
_cell_length_a 7.712314
_cell_length_b 19.677996
_cell_length_c 13.006034
_cell_angle_alpha 155.174973
_cell_angle_beta 118.930519
_cell_angle_gamma 70.803178
_cell_volume 691.888031
_symmetry_space_group_name_H-M "P -1"
_symmetry_group_IT_number 2
_symmetry_cell_setting 'triclinic'
loop_
_space_group_symop_operation_xyz
x,y,z
-x,-y,-z
loop_
_atom_site_type_symbol
_atom_site_label
_atom_site_fract_x
_atom_site_fract_y
_atom_site_fract_z
Si Si1 0.515486 0.764291 0.356819
Si Si2 0.547007 0.476645 0.811712
Si Si3 0.610302 0.319222 0.249194
Si Si4 0.843788 0.100056 0.911664
Si Si5 0.702617 0.666042 0.652345
Si Si6 0.219840 0.256906 0.898317
Si Si7 0.799677 0.105954 0.678622
O O1 0.432565 0.672292 0.313516
O O2 0.371380 0.868730 0.412814
O O3 0.742589 0.899018 0.621453
O O4 0.508251 0.618671 0.071427
O O5 0.364471 0.401944 0.574625
O O6 0.739144 0.580866 0.940096
O O7 0.737406 0.512230 0.519782
O O8 0.494961 0.301999 0.302136
O O9 0.751585 0.198425 0.105267
O O10 0.419381 0.276935 0.055082
O O11 0.761687 0.142844 0.835757
O O12 0.091812 0.175040 0.076802
O O13 0.019118 0.226007 0.868153
O O14 0.191356 0.086285 0.590091
#
# Coordination Sequence:
#
# PCOD9087239 Si02
#       7
#     2   2   2   2   2   2   2
#     4  11  23  39  63  88 124 162 208 246 306 363
#     4  10  23  43  58  86 128 167 195 254 305 366
#     4  10  20  37  60  93 122 155 198 257 307 356
#     4  12  21  37  66  94 118 159 207 256 299 363
#     4  10  22  39  60  88 128 159 198 252 308 361
#     4  10  19  36  62  90 123 152 202 258 307 345
#     4  11  20  34  64  96 114 154 207 260 299 352
#
# _framework density 20.234487000000001
#
# number of rings (size 3 to 8) (size 9 to 14) (size 15 to 20)
#    0.000    1.429    4.286    2.571    0.000    1.143 
#    0.000    0.714    0.000    0.000    0.000    0.000 
#    0.000    0.000    0.000    0.000    0.000    0.000 
#
# Total GULP energy -78152.737560 kJ/mol
# GULP energy per Si atom -5582.338397 kJ/mol
# Density = 2.018843 g / cm^3
# Si number density = 20.234487 Si / 1000 Ang^3
#
#
#
# Elastic Constant Matrix: (Units=GPa)
#
#
# Indices 1 2 3 4 5 6 
#
# 1 71.0274 20.8732 37.7572 5.9445 7.9760 15.3913
# 2 20.8732 53.5534 44.2857 8.0517 11.5646 18.3245
# 3 37.7572 44.2857 101.0597 0.5436 20.7369 18.6691
# 4 5.9445 8.0517 0.5436 22.9446 8.5128 2.8669
# 5 7.9760 11.5646 20.7369 8.5128 40.8160 0.6036
# 6 15.3913 18.3245 18.6691 2.8669 0.6036 18.0932
#
#
#
# Elastic Compliance Matrix: (Units=1/GPa)
#
#
# Indices 1 2 3 4 5 6 
#
# 1 0.019593 0.002024 -0.005888 -0.004000 -0.000399 -0.011995
# 2 0.002024 0.039580 -0.012392 -0.009620 -0.002903 -0.027401
# 3 -0.005888 -0.012392 0.019622 0.008489 -0.007022 -0.003799
# 4 -0.004000 -0.009620 0.008489 0.052587 -0.011721 -0.003555
# 5 -0.000399 -0.002903 -0.007022 -0.011721 0.031245 0.011340
# 6 -0.011995 -0.027401 -0.003799 -0.003555 0.011340 0.097328
#
#
# Mechanical properties :
#
#
# Convention : Reuss Voigt Hill
#
# Bulk Modulus (GPa) = 21.60555 47.94142 34.77349
# Shear Modulus (GPa) = 16.23933 24.55238 20.39586
#
# Velocity S-wave (km/s) = 2.83602 3.48716 3.17831
# Velocity P-wave (km/s) = 4.62869 6.32124 5.53998
#
# Compressibility (1/GPa) = 0.04628441
#
# Stress axis : x y z
#
# Youngs Moduli (GPa) = 51.03878 25.26526 50.96299
#
# Poissons Ratio (x) = -0.05114 0.30007
# Poissons Ratio (y) = -0.10331 0.63151
# Poissons Ratio (z) = 0.30052 0.31308
#
# Static dielectric constant tensor:
#      x y z
#    x 1.715860 0.018650 -0.002150 
#    y 0.018650 1.695880 -0.011110 
#    z -0.002150 -0.011110 1.764770 
# 
# From -- ./inp_files/175001.got.cif
#   From: 2010.05.17/outbox.cif.g08.bks.cpg/sg2_88_cif.got.tgz:175001.got - 2010.06.03 11:33:40.
