data_PCOD9087925
_publ_section_title
;
Structure prediction by ZEFSAII (Michael W. Deem and Ramdas Pophale) SiO2 
 PCOD9087925
Probable space group: P -1
;
_chemical_formula_sum "Si O2"
_cell_formula_units_Z 16
_cell_length_a 13.256837
_cell_length_b 11.939021
_cell_length_c 13.266394
_cell_angle_alpha 76.129242
_cell_angle_beta 147.553602
_cell_angle_gamma 127.744085
_cell_volume 674.995656
_symmetry_space_group_name_H-M "P -1"
_symmetry_group_IT_number 2
_symmetry_cell_setting 'triclinic'
loop_
_space_group_symop_operation_xyz
x,y,z
-x,-y,-z
loop_
_atom_site_type_symbol
_atom_site_label
_atom_site_fract_x
_atom_site_fract_y
_atom_site_fract_z
Si Si1 0.429025 0.298785 0.910005
Si Si2 0.790026 0.296404 0.328750
Si Si3 0.164774 0.277495 0.267635
Si Si4 0.814258 0.200602 0.173653
Si Si5 0.500514 0.255690 0.777929
Si Si6 0.030111 0.631232 0.063704
Si Si7 0.683700 0.905974 0.566763
Si Si8 0.987958 0.732969 0.307372
O O1 0.300584 0.199550 0.715405
O O2 0.216151 0.283747 0.790666
O O3 0.495531 0.218455 0.052099
O O4 0.758292 0.520935 0.126419
O O5 0.963712 0.318755 0.377250
O O6 0.000000 0.500000 0.500000
O O7 0.755747 0.195970 0.416797
O O8 0.500000 0.500000 0.500000
O O9 0.189574 0.156709 0.280809
O O10 0.018605 0.221613 0.268111
O O11 0.964699 0.254808 0.026187
O O12 0.715193 0.261357 0.008041
O O13 0.500000 0.000000 0.000000
O O14 0.361689 0.137988 0.583896
O O15 0.710103 0.467377 0.884437
O O16 0.348427 0.767620 0.358802
O O17 0.000000 0.500000 0.000000
O O18 0.879930 0.116461 0.696748
#
# Coordination Sequence:
#
# PCOD9087925 Si02
#       8
#     2   2   2   2   2   2   2   2
#     4   9  21  37  55  79 113 149 186 231 282 341
#     4   9  20  37  55  77 114 155 182 224 292 346
#     4  12  22  37  59  86 119 159 188 233 297 346
#     4  11  22  34  57  92 118 139 189 249 282 333
#     4  10  19  37  57  79 112 146 183 237 285 330
#     4  10  19  38  54  80 116 148 190 234 280 339
#     4  11  22  33  58  85 108 148 192 232 280 336
#     4  10  21  37  54  80 115 149 185 229 286 342
#
# _framework density 23.703855000000001
#
# number of rings (size 3 to 8) (size 9 to 14) (size 15 to 20)
#    0.000    1.750    5.000    0.750    5.250    0.500 
#    0.000    0.625    0.000    0.750    0.000    0.000 
#    0.000    0.000    0.000    0.000    0.000    0.000 
#
# Total GULP energy -89301.791610 kJ/mol
# GULP energy per Si atom -5581.361976 kJ/mol
# Density = 2.364990 g / cm^3
# Si number density = 23.703855 Si / 1000 Ang^3
#
#
#
# Elastic Constant Matrix: (Units=GPa)
#
#
# Indices 1 2 3 4 5 6 
#
# 1 54.7624 2.6865 19.5909 4.5544 3.3218 -0.2078
# 2 2.6865 147.9428 43.8485 -4.3137 14.4529 0.5757
# 3 19.5909 43.8485 39.8830 1.1952 8.6297 2.4750
# 4 4.5544 -4.3137 1.1952 49.1024 4.7033 8.0176
# 5 3.3218 14.4529 8.6297 4.7033 17.7941 -4.6084
# 6 -0.2078 0.5757 2.4750 8.0176 -4.6084 26.4573
#
#
#
# Elastic Compliance Matrix: (Units=1/GPa)
#
#
# Indices 1 2 3 4 5 6 
#
# 1 0.024303 0.004467 -0.017248 -0.001992 0.001387 0.002552
# 2 0.004467 0.011117 -0.013698 0.001217 -0.003518 0.000093
# 3 -0.017248 -0.013698 0.051871 0.001616 -0.013174 -0.007474
# 4 -0.001992 0.001217 0.001616 0.023002 -0.009777 -0.008867
# 5 0.001387 -0.003518 -0.013174 -0.009777 0.072133 0.016847
# 6 0.002552 0.000093 -0.007474 -0.008867 0.016847 0.044136
#
#
# Mechanical properties :
#
#
# Convention : Reuss Voigt Hill
#
# Bulk Modulus (GPa) = 29.12543 41.64887 35.38715
# Shear Modulus (GPa) = 17.18420 30.43491 23.80955
#
# Velocity S-wave (km/s) = 2.69542 3.58713 3.17276
# Velocity P-wave (km/s) = 4.69051 5.89621 5.32758
#
# Compressibility (1/GPa) = 0.03433425
#
# Stress axis : x y z
#
# Youngs Moduli (GPa) = 41.14682 89.95309 19.27845
#
# Poissons Ratio (x) = -0.40186 0.33252
# Poissons Ratio (y) = -0.18382 0.26407
# Poissons Ratio (z) = 0.70972 1.23215
#
# Static dielectric constant tensor:
#      x y z
#    x 1.879410 0.035910 -0.040770 
#    y 0.035910 1.946500 0.025350 
#    z -0.040770 0.025350 1.974640 
# 
# From -- ./inp_files/532539.got.cif
#   From: 2010.05.17/outbox.cif.g08.bks.cpg/sg2_267_cif.got.tgz:532539.got - 2010.06.03 11:33:40.
