data_PCOD9087033
_publ_section_title
;
Structure prediction by ZEFSAII (Michael W. Deem and Ramdas Pophale) SiO2 
 PCOD9087033
Probable space group: P -1
;
_chemical_formula_sum "Si O2"
_cell_formula_units_Z 14
_cell_length_a 7.279878
_cell_length_b 8.386979
_cell_length_c 13.212011
_cell_angle_alpha 114.544989
_cell_angle_beta 64.122588
_cell_angle_gamma 126.813525
_cell_volume 567.645501
_symmetry_space_group_name_H-M "P -1"
_symmetry_group_IT_number 2
_symmetry_cell_setting 'triclinic'
loop_
_space_group_symop_operation_xyz
x,y,z
-x,-y,-z
loop_
_atom_site_type_symbol
_atom_site_label
_atom_site_fract_x
_atom_site_fract_y
_atom_site_fract_z
Si Si1 0.114804 0.426318 0.316979
Si Si2 0.122893 0.808287 0.493684
Si Si3 0.378903 0.756829 0.979572
Si Si4 0.088574 0.854476 0.209837
Si Si5 0.342760 0.158887 0.406223
Si Si6 0.133697 0.154292 0.097561
Si Si7 0.619501 0.475615 0.275425
O O1 0.138402 0.643425 0.377056
O O2 0.063288 0.317162 0.192227
O O3 0.369308 0.456321 0.299042
O O4 0.916509 0.275663 0.405127
O O5 0.878415 0.804112 0.527073
O O6 0.331538 0.035982 0.476399
O O7 0.588224 0.728974 0.966364
O O8 0.327989 0.647528 0.855321
O O9 0.170283 0.715519 0.094376
O O10 0.500000 0.000000 0.000000
O O11 0.832182 0.705717 0.279031
O O12 0.272117 0.995924 0.288588
O O13 0.086809 0.012263 0.170655
O O14 0.570459 0.363855 0.366141
O O15 0.000000 0.000000 0.000000
#
# Coordination Sequence:
#
# PCOD9087033 Si02
#       7
#     2   2   2   2   2   2   2
#     4   9  18  40  63  88 129 163 200 258 318 358
#     4   9  18  37  68  85 119 171 201 257 313 355
#     4   9  17  37  59  82 124 168 196 251 307 358
#     4  11  20  38  62  90 127 162 202 258 309 362
#     4  10  19  38  63  90 122 160 211 255 302 366
#     4  10  20  39  63  94 128 160 207 253 309 377
#     4  10  19  36  61  89 124 163 204 251 308 371
#
# _framework density 24.663278999999999
#
# number of rings (size 3 to 8) (size 9 to 14) (size 15 to 20)
#    0.000    2.286    5.714    0.429    0.000    0.000 
#   10.286    8.571    0.000    0.000    0.000    1.000 
#    0.000    0.000    0.000    0.000    0.000    0.000 
#
# Total GULP energy -78296.001048 kJ/mol
# GULP energy per Si atom -5592.571503 kJ/mol
# Density = 2.460714 g / cm^3
# Si number density = 24.663279 Si / 1000 Ang^3
#
#
#
# Elastic Constant Matrix: (Units=GPa)
#
#
# Indices 1 2 3 4 5 6 
#
# 1 41.8564 15.4273 20.8212 -12.4866 -3.7066 -7.7533
# 2 15.4273 98.8077 35.9726 -29.1538 -19.7257 0.2994
# 3 20.8212 35.9726 135.3380 23.3476 -24.8279 -9.3503
# 4 -12.4866 -29.1538 23.3476 50.0326 -1.9235 -12.2209
# 5 -3.7066 -19.7257 -24.8279 -1.9235 28.4347 0.9329
# 6 -7.7533 0.2994 -9.3503 -12.2209 0.9329 32.6095
#
#
#
# Elastic Compliance Matrix: (Units=1/GPa)
#
#
# Indices 1 2 3 4 5 6 
#
# 1 0.034095 0.002375 -0.007914 0.016515 -0.000094 0.012008
# 2 0.002375 0.018130 -0.005959 0.015288 0.008581 0.004173
# 3 -0.007914 -0.005959 0.013090 -0.012010 0.005541 -0.002733
# 4 0.016515 0.015288 -0.012010 0.042765 0.004631 0.016237
# 5 -0.000094 0.008581 0.005541 0.004631 0.046198 0.001902
# 6 0.012008 0.004173 -0.002733 0.016237 0.001902 0.038730
#
#
# Mechanical properties :
#
#
# Convention : Reuss Voigt Hill
#
# Bulk Modulus (GPa) = 23.62911 46.71601 35.17256
# Shear Modulus (GPa) = 21.72872 35.80077 28.76474
#
# Velocity S-wave (km/s) = 2.97141 3.81410 3.41882
# Velocity P-wave (km/s) = 4.62319 6.19509 5.46594
#
# Compressibility (1/GPa) = 0.04232068
#
# Stress axis : x y z
#
# Youngs Moduli (GPa) = 29.32979 55.15578 76.39413
#
# Poissons Ratio (x) = -0.13102 0.60455
# Poissons Ratio (y) = -0.06967 0.45526
# Poissons Ratio (z) = 0.23210 0.32869
#
# Static dielectric constant tensor:
#      x y z
#    x 1.994050 -0.016960 -0.015190 
#    y -0.016960 1.920180 -0.010200 
#    z -0.015190 -0.010200 1.995990 
# 
# From -- ./inp_files/297468.got.cif
#   From: 2010.05.17/outbox.cif.g08.bks.cpg/sg2_149_cif.got.tgz:297468.got - 2010.06.03 11:33:40.
