data_PCOD9087458
_publ_section_title
;
Structure prediction by ZEFSAII (Michael W. Deem and Ramdas Pophale) SiO2 
 PCOD9087458
Probable space group: P -1
;
_chemical_formula_sum "Si O2"
_cell_formula_units_Z 14
_cell_length_a 17.332100
_cell_length_b 9.443990
_cell_length_c 17.482303
_cell_angle_alpha 38.158676
_cell_angle_beta 157.130407
_cell_angle_gamma 143.170402
_cell_volume 651.848769
_symmetry_space_group_name_H-M "P -1"
_symmetry_group_IT_number 2
_symmetry_cell_setting 'triclinic'
loop_
_space_group_symop_operation_xyz
x,y,z
-x,-y,-z
loop_
_atom_site_type_symbol
_atom_site_label
_atom_site_fract_x
_atom_site_fract_y
_atom_site_fract_z
Si Si1 0.943483 0.223743 0.538621
Si Si2 0.052468 0.802973 0.185249
Si Si3 0.631503 0.447232 0.485577
Si Si4 0.622743 0.974292 0.476384
Si Si5 0.689521 0.882903 0.141135
Si Si6 0.722486 0.987014 0.301606
Si Si7 0.586590 0.638383 0.839600
O O1 0.000000 0.500000 0.500000
O O2 0.134405 0.112607 0.761533
O O3 0.748185 0.054469 0.479143
O O4 0.879673 0.202704 0.400330
O O5 0.180879 0.658197 0.318282
O O6 0.200801 0.925159 0.339362
O O7 0.821315 0.643666 0.066702
O O8 0.000000 0.000000 0.000000
O O9 0.503956 0.302490 0.502640
O O10 0.720604 0.734498 0.444247
O O11 0.471357 0.380071 0.295470
O O12 0.461455 0.126515 0.273407
O O13 0.769906 0.987811 0.254275
O O14 0.572653 0.598827 0.168290
O O15 0.511832 0.999740 0.908673
#
# Coordination Sequence:
#
# PCOD9087458 Si02
#       7
#     2   2   2   2   2   2   2
#     4  12  26  43  64  97 135 172 211 268 328 382
#     4  11  19  35  66  98 123 169 216 263 319 376
#     4  10  21  39  62  94 128 163 216 265 315 379
#     4  11  22  38  60  96 132 160 210 265 323 376
#     4  10  23  45  68  94 126 173 225 258 315 390
#     4  10  25  44  67  92 129 175 218 264 319 384
#     4  10  19  36  63  95 125 161 213 269 309 370
#
# _framework density 21.477374999999999
#
# number of rings (size 3 to 8) (size 9 to 14) (size 15 to 20)
#    0.000    1.429    4.286    1.286    2.000    5.714 
#    0.000    0.714    0.000    0.000    0.000    0.000 
#    0.000    0.000    0.000    0.000    0.000    0.000 
#
# Total GULP energy -78255.898763 kJ/mol
# GULP energy per Si atom -5589.707054 kJ/mol
# Density = 2.142849 g / cm^3
# Si number density = 21.477375 Si / 1000 Ang^3
#
#
#
# Elastic Constant Matrix: (Units=GPa)
#
#
# Indices 1 2 3 4 5 6 
#
# 1 52.1630 17.9967 23.1544 -6.0639 24.4575 -1.2620
# 2 17.9967 67.9530 30.0040 -11.4918 1.7033 -12.3299
# 3 23.1544 30.0040 111.0302 -9.6433 15.8873 -11.3438
# 4 -6.0639 -11.4918 -9.6433 35.5664 7.4014 0.5791
# 5 24.4575 1.7033 15.8873 7.4014 26.8349 -2.2736
# 6 -1.2620 -12.3299 -11.3438 0.5791 -2.2736 33.3121
#
#
#
# Elastic Compliance Matrix: (Units=1/GPa)
#
#
# Indices 1 2 3 4 5 6 
#
# 1 0.044708 -0.009385 0.000311 0.014043 -0.044629 -0.004964
# 2 -0.009385 0.020208 -0.004107 0.001677 0.009779 0.006364
# 3 0.000311 -0.004107 0.011647 0.003459 -0.007714 0.001871
# 4 0.014043 0.001677 0.003459 0.037241 -0.025227 -0.000039
# 5 -0.044629 0.009779 -0.007714 -0.025227 0.089339 0.005838
# 6 -0.004964 0.006364 0.001871 -0.000039 0.005838 0.033223
#
#
# Mechanical properties :
#
#
# Convention : Reuss Voigt Hill
#
# Bulk Modulus (GPa) = 19.92000 41.49517 30.70759
# Shear Modulus (GPa) = 17.89153 29.80877 23.85015
#
# Velocity S-wave (km/s) = 2.88938 3.72951 3.33600
# Velocity P-wave (km/s) = 4.51955 6.15695 5.40067
#
# Compressibility (1/GPa) = 0.05020079
#
# Stress axis : x y z
#
# Youngs Moduli (GPa) = 22.36729 49.48456 85.85990
#
# Poissons Ratio (x) = 0.46442 -0.02671
# Poissons Ratio (y) = 0.20992 0.35265
# Poissons Ratio (z) = -0.00696 0.20324
#
# Static dielectric constant tensor:
#      x y z
#    x 1.799520 0.023690 0.001070 
#    y 0.023690 1.807450 0.021960 
#    z 0.001070 0.021960 1.781220 
# 
# From -- ./inp_files/336672.got.cif
#   From: 2010.05.17/outbox.cif.g08.bks.cpg/sg2_169_cif.got.tgz:336672.got - 2010.06.03 11:33:40.
