data_PCOD9087063
_publ_section_title
;
Structure prediction by ZEFSAII (Michael W. Deem and Ramdas Pophale) SiO2 
 PCOD9087063
Probable space group: P -1
;
_chemical_formula_sum "Si O2"
_cell_formula_units_Z 16
_cell_length_a 16.084268
_cell_length_b 10.270907
_cell_length_c 22.405095
_cell_angle_alpha 30.998733
_cell_angle_beta 157.146918
_cell_angle_gamma 146.719547
_cell_volume 720.397104
_symmetry_space_group_name_H-M "P -1"
_symmetry_group_IT_number 2
_symmetry_cell_setting 'triclinic'
loop_
_space_group_symop_operation_xyz
x,y,z
-x,-y,-z
loop_
_atom_site_type_symbol
_atom_site_label
_atom_site_fract_x
_atom_site_fract_y
_atom_site_fract_z
Si Si1 0.855939 0.794694 0.899266
Si Si2 0.953567 0.275484 0.439504
Si Si3 0.752281 0.204312 0.765467
Si Si4 0.469731 0.391618 0.418831
Si Si5 0.399537 0.588255 0.627743
Si Si6 0.521389 0.968968 0.232826
Si Si7 0.873202 0.105649 0.588310
Si Si8 0.842407 0.824295 0.144681
O O1 0.636285 0.596595 0.809784
O O2 0.793245 0.004994 0.820341
O O3 0.989385 0.955625 0.869070
O O4 0.028963 0.681648 0.097044
O O5 0.899428 0.220076 0.495115
O O6 0.891174 0.544674 0.272733
O O7 0.217663 0.327215 0.593020
O O8 0.783764 0.059621 0.374992
O O9 0.652101 0.412810 0.582345
O O10 0.578015 0.044722 0.760249
O O11 0.547002 0.277677 0.454058
O O12 0.437768 0.673991 0.271737
O O13 0.256698 0.192299 0.380014
O O14 0.272732 0.740035 0.529284
O O15 0.399876 0.151708 0.042900
O O16 0.097617 0.132475 0.763105
#
# Coordination Sequence:
#
# PCOD9087063 Si02
#       8
#     2   2   2   2   2   2   2   2
#     4  10  19  36  61  91 116 147 203 250 291 332
#     4  11  23  38  64  88 119 156 196 249 297 348
#     4  10  20  35  60  90 117 149 195 251 287 342
#     4  12  22  38  63  86 124 159 196 243 289 362
#     4  11  21  38  62  90 117 153 201 245 291 349
#     4  11  24  39  56  90 123 162 195 235 303 356
#     4  11  21  38  64  92 112 152 203 250 295 343
#     4  10  21  38  61  91 116 151 203 252 289 346
#
# _framework density 22.209973999999999
#
# number of rings (size 3 to 8) (size 9 to 14) (size 15 to 20)
#    0.000    1.250    3.750    4.125    0.000    1.000 
#    0.000    3.750    0.000    3.750    0.000    0.000 
#    0.000    0.000    0.000    0.000    0.000    0.000 
#
# Total GULP energy -89360.258847 kJ/mol
# GULP energy per Si atom -5585.016178 kJ/mol
# Density = 2.215942 g / cm^3
# Si number density = 22.209974 Si / 1000 Ang^3
#
#
#
# Elastic Constant Matrix: (Units=GPa)
#
#
# Indices 1 2 3 4 5 6 
#
# 1 59.4264 0.1791 22.8192 4.8845 -6.8764 4.1218
# 2 0.1791 89.1479 27.9205 30.1211 4.4416 3.1442
# 3 22.8192 27.9205 94.2004 37.3319 -23.2150 -0.8280
# 4 4.8845 30.1211 37.3319 44.6382 -1.1616 2.7105
# 5 -6.8764 4.4416 -23.2150 -1.1616 22.9295 3.2539
# 6 4.1218 3.1442 -0.8280 2.7105 3.2539 21.5589
#
#
#
# Elastic Compliance Matrix: (Units=1/GPa)
#
#
# Indices 1 2 3 4 5 6 
#
# 1 0.019234 0.001162 -0.005867 0.002295 0.000346 -0.004413
# 2 0.001162 0.015189 -0.003205 -0.007816 -0.006143 -0.000651
# 3 -0.005867 -0.003205 0.026498 -0.018794 0.024558 0.001263
# 4 0.002295 -0.007816 -0.018794 0.042973 -0.014183 -0.003283
# 5 0.000346 -0.006143 0.024558 -0.014183 0.070047 -0.007016
# 6 -0.004413 -0.000651 0.001263 -0.003283 -0.007016 0.048843
#
#
# Mechanical properties :
#
#
# Convention : Reuss Voigt Hill
#
# Bulk Modulus (GPa) = 22.17251 38.29026 30.23139
# Shear Modulus (GPa) = 19.71311 30.61572 25.16442
#
# Velocity S-wave (km/s) = 2.98246 3.71680 3.36969
# Velocity P-wave (km/s) = 4.67599 5.97470 5.36479
#
# Compressibility (1/GPa) = 0.04510089
#
# Stress axis : x y z
#
# Youngs Moduli (GPa) = 51.99066 65.83872 37.73837
#
# Poissons Ratio (x) = -0.07649 0.22139
# Poissons Ratio (y) = -0.06040 0.12097
# Poissons Ratio (z) = 0.30501 0.21104
#
# Static dielectric constant tensor:
#      x y z
#    x 1.822330 -0.016610 0.022070 
#    y -0.016610 1.830980 0.037910 
#    z 0.022070 0.037910 1.834170 
# 
# From -- ./inp_files/279385.got.cif
#   From: 2010.05.17/outbox.cif.g08.bks.cpg/sg2_140_cif.got.tgz:279385.got - 2010.06.03 11:33:40.
