data_PCOD9087361
_publ_section_title
;
Structure prediction by ZEFSAII (Michael W. Deem and Ramdas Pophale) SiO2 
 PCOD9087361
Probable space group: P -1
;
_chemical_formula_sum "Si O2"
_cell_formula_units_Z 16
_cell_length_a 11.356074
_cell_length_b 20.851716
_cell_length_c 19.759691
_cell_angle_alpha 23.356113
_cell_angle_beta 28.615787
_cell_angle_gamma 19.097777
_cell_volume 604.981464
_symmetry_space_group_name_H-M "P -1"
_symmetry_group_IT_number 2
_symmetry_cell_setting 'triclinic'
loop_
_space_group_symop_operation_xyz
x,y,z
-x,-y,-z
loop_
_atom_site_type_symbol
_atom_site_label
_atom_site_fract_x
_atom_site_fract_y
_atom_site_fract_z
Si Si1 0.967723 0.103652 0.344186
Si Si2 0.941264 0.654424 0.572615
Si Si3 0.102192 0.641161 0.035911
Si Si4 0.894902 0.475599 0.648506
Si Si5 0.388235 0.274901 0.145561
Si Si6 0.636125 0.763405 0.951946
Si Si7 0.901393 0.944090 0.956795
Si Si8 0.906049 0.888378 0.474693
O O1 0.539662 0.334666 0.322831
O O2 0.235641 0.121322 0.204762
O O3 0.080280 0.946546 0.373483
O O4 0.000000 0.000000 0.500000
O O5 0.013609 0.467325 0.765003
O O6 0.052613 0.542706 0.551587
O O7 0.083086 0.737269 0.463230
O O8 0.503838 0.870604 0.574346
O O9 0.170371 0.542973 0.019879
O O10 0.857310 0.894592 0.951327
O O11 0.500000 0.500000 0.000000
O O12 0.000000 0.500000 0.500000
O O13 0.012600 0.250113 0.845750
O O14 0.554997 0.165856 0.092509
O O15 0.156535 0.230856 0.326012
O O16 0.746133 0.114627 0.165107
O O17 0.415646 0.810006 0.082635
O O18 0.000000 0.500000 0.000000
#
# Coordination Sequence:
#
# PCOD9087361 Si02
#       8
#     2   2   2   2   2   2   2   2
#     4  11  21  37  58  86 124 164 195 241 319 371
#     4   8  16  30  54  89 116 143 201 254 284 347
#     4   8  16  33  60  88 115 150 195 258 302 345
#     4  10  20  35  61  90 121 154 209 260 298 361
#     4  10  19  36  63  87 119 156 205 253 301 360
#     4  12  25  40  57  87 127 163 202 256 319 372
#     4  10  21  39  62  89 118 161 210 257 303 360
#     4   9  17  33  58  85 117 156 199 248 298 356
#
# _framework density 26.447092999999999
#
# number of rings (size 3 to 8) (size 9 to 14) (size 15 to 20)
#    0.000    2.250    1.250    1.875    1.750    1.000 
#    0.000    0.625    2.750    3.000    0.000    0.000 
#    0.000    0.000    0.000    0.000    0.000    0.000 
#
# Total GULP energy -89230.298243 kJ/mol
# GULP energy per Si atom -5576.893640 kJ/mol
# Density = 2.638690 g / cm^3
# Si number density = 26.447093 Si / 1000 Ang^3
#
#
#
# Elastic Constant Matrix: (Units=GPa)
#
#
# Indices 1 2 3 4 5 6 
#
# 1 181.3924 49.4094 43.0970 2.6631 -25.6954 53.0575
# 2 49.4094 78.6031 12.0378 8.8521 5.1675 17.4915
# 3 43.0970 12.0378 65.0792 5.2228 4.6501 21.5866
# 4 2.6631 8.8521 5.2228 21.8147 11.3005 8.1529
# 5 -25.6954 5.1675 4.6501 11.3005 46.7347 -6.4206
# 6 53.0575 17.4915 21.5866 8.1529 -6.4206 64.3838
#
#
#
# Elastic Compliance Matrix: (Units=1/GPa)
#
#
# Indices 1 2 3 4 5 6 
#
# 1 0.010308 -0.005110 -0.004683 0.000821 0.005805 -0.005062
# 2 -0.005110 0.016606 0.001093 -0.004213 -0.003806 -0.000513
# 3 -0.004683 0.001093 0.019837 -0.000742 -0.004969 -0.003490
# 4 0.000821 -0.004213 -0.000742 0.057944 -0.014123 -0.008029
# 5 0.005805 -0.003806 -0.004969 -0.014123 0.029280 0.002625
# 6 -0.005062 -0.000513 -0.003490 -0.008029 0.002625 0.022291
#
#
# Mechanical properties :
#
#
# Convention : Reuss Voigt Hill
#
# Bulk Modulus (GPa) = 34.07119 59.35145 46.71132
# Shear Modulus (GPa) = 27.25531 41.28869 34.27200
#
# Velocity S-wave (km/s) = 3.21372 3.95546 3.60372
# Velocity P-wave (km/s) = 5.16540 6.58416 5.91746
#
# Compressibility (1/GPa) = 0.02935031
#
# Stress axis : x y z
#
# Youngs Moduli (GPa) = 97.01011 60.21988 50.41010
#
# Poissons Ratio (x) = 0.30774 0.23606
# Poissons Ratio (y) = 0.49575 -0.05508
# Poissons Ratio (z) = 0.45428 -0.06580
#
# Static dielectric constant tensor:
#      x y z
#    x 98.455270 4.929520 50.594800 
#    y 4.929520 2.572870 2.551330 
#    z 50.594800 2.551330 28.655520 
# 
# From -- ./inp_files/596183.got.cif
#   From: 2010.05.17/outbox.cif.g08.bks.cpg/sg2_299_cif.got.tgz:596183.got - 2010.06.03 11:33:40.
