data_PCOD9087236
_publ_section_title
;
Structure prediction by ZEFSAII (Michael W. Deem and Ramdas Pophale) SiO2 
 PCOD9087236
Probable space group: P -1
;
_chemical_formula_sum "Si O2"
_cell_formula_units_Z 16
_cell_length_a 10.128956
_cell_length_b 7.327006
_cell_length_c 15.716834
_cell_angle_alpha 76.444750
_cell_angle_beta 46.412944
_cell_angle_gamma 50.938858
_cell_volume 613.107429
_symmetry_space_group_name_H-M "P -1"
_symmetry_group_IT_number 2
_symmetry_cell_setting 'triclinic'
loop_
_space_group_symop_operation_xyz
x,y,z
-x,-y,-z
loop_
_atom_site_type_symbol
_atom_site_label
_atom_site_fract_x
_atom_site_fract_y
_atom_site_fract_z
Si Si1 0.798890 0.804202 0.345363
Si Si2 0.543424 0.076059 0.172755
Si Si3 0.553872 0.412896 0.859443
Si Si4 0.970741 0.219133 0.908456
Si Si5 0.684815 0.754753 0.573565
Si Si6 0.163486 0.042681 0.090133
Si Si7 0.241809 0.733573 0.392205
Si Si8 0.668732 0.496850 0.357752
O O1 0.822860 0.787638 0.438197
O O2 0.720837 0.653256 0.366130
O O3 0.025827 0.701172 0.197875
O O4 0.579514 0.082619 0.375342
O O5 0.461932 0.348541 0.163028
O O6 0.348262 0.148093 0.325401
O O7 0.786709 0.884156 0.141961
O O8 0.650508 0.946662 0.045587
O O9 0.710529 0.246848 0.727868
O O10 0.661882 0.222317 0.909769
O O11 0.270853 0.552874 0.962509
O O12 0.967227 0.997519 0.919381
O O13 0.780988 0.476926 0.565299
O O14 0.938484 0.255432 0.228014
O O15 0.484617 0.631137 0.345704
O O16 0.000000 0.000000 0.500000
O O17 0.500000 0.500000 0.500000
#
# Coordination Sequence:
#
# PCOD9087236 Si02
#       8
#     2   2   2   2   2   2   2   2
#     4  10  21  37  63  92 122 158 202 246 309 360
#     4   9  17  34  60  87 116 154 200 250 292 353
#     4  10  20  35  60  90 123 159 204 251 296 357
#     4  10  19  36  62  90 120 160 200 253 304 357
#     4   9  19  38  62  87 122 155 196 245 298 356
#     4  11  21  36  63  92 117 159 209 248 295 362
#     4  11  22  41  64  90 123 158 203 252 299 360
#     4  12  23  38  63  90 118 159 207 250 305 364
#
# _framework density 26.09657
#
# number of rings (size 3 to 8) (size 9 to 14) (size 15 to 20)
#    0.000    1.750    1.250    6.750    1.750    0.000 
#    0.000    6.875   11.000    0.000    0.000    0.000 
#    0.000    0.000    0.000    0.000    0.000    0.000 
#
# Total GULP energy -89341.310920 kJ/mol
# GULP energy per Si atom -5583.831933 kJ/mol
# Density = 2.603717 g / cm^3
# Si number density = 26.096570 Si / 1000 Ang^3
#
#
#
# Elastic Constant Matrix: (Units=GPa)
#
#
# Indices 1 2 3 4 5 6 
#
# 1 30.0477 18.9633 10.8250 3.3173 -5.2135 -9.1359
# 2 18.9633 121.6105 64.8091 17.1102 -1.0773 -17.2115
# 3 10.8250 64.8091 237.2562 -4.3416 13.7809 -0.5159
# 4 3.3173 17.1102 -4.3416 62.7247 -10.2001 3.6103
# 5 -5.2135 -1.0773 13.7809 -10.2001 26.4162 -1.7290
# 6 -9.1359 -17.2115 -0.5159 3.6103 -1.7290 39.2995
#
#
#
# Elastic Compliance Matrix: (Units=1/GPa)
#
#
# Indices 1 2 3 4 5 6 
#
# 1 0.040454 -0.004541 -0.001105 0.000021 0.008893 0.007790
# 2 -0.004541 0.011632 -0.003031 -0.003368 0.000141 0.004314
# 3 -0.001105 -0.003031 0.005272 0.000883 -0.002863 -0.001722
# 4 0.000021 -0.003368 0.000883 0.018095 0.006206 -0.002848
# 5 0.008893 0.000141 -0.002863 0.006206 0.043732 0.003445
# 6 0.007790 0.004314 -0.001722 -0.002848 0.003445 0.029537
#
#
# Mechanical properties :
#
#
# Convention : Reuss Voigt Hill
#
# Bulk Modulus (GPa) = 24.99693 64.23434 44.61564
# Shear Modulus (GPa) = 27.86941 45.30920 36.58930
#
# Velocity S-wave (km/s) = 3.27147 4.17131 3.74849
# Velocity P-wave (km/s) = 4.88564 6.91862 5.98902
#
# Compressibility (1/GPa) = 0.04000491
#
# Stress axis : x y z
#
# Youngs Moduli (GPa) = 24.71973 85.97035 189.68697
#
# Poissons Ratio (x) = 0.39039 0.20951
# Poissons Ratio (y) = 0.11225 0.57487
# Poissons Ratio (z) = 0.02730 0.26055
#
# Static dielectric constant tensor:
#      x y z
#    x 2.093880 0.013180 -0.002640 
#    y 0.013180 2.038140 -0.055360 
#    z -0.002640 -0.055360 2.219360 
# 
# From -- ./inp_files/515320.got.cif
#   From: 2010.05.17/outbox.cif.g08.bks.cpg/sg2_258_cif.got.tgz:515320.got - 2010.06.03 11:33:40.
