data_PCOD9087453
_publ_section_title
;
Structure prediction by ZEFSAII (Michael W. Deem and Ramdas Pophale) SiO2 
 PCOD9087453
Probable space group: P -1
;
_chemical_formula_sum "Si O2"
_cell_formula_units_Z 16
_cell_length_a 14.841978
_cell_length_b 12.079491
_cell_length_c 8.828590
_cell_angle_alpha 72.416493
_cell_angle_beta 148.456701
_cell_angle_gamma 104.764186
_cell_volume 789.342386
_symmetry_space_group_name_H-M "P -1"
_symmetry_group_IT_number 2
_symmetry_cell_setting 'triclinic'
loop_
_space_group_symop_operation_xyz
x,y,z
-x,-y,-z
loop_
_atom_site_type_symbol
_atom_site_label
_atom_site_fract_x
_atom_site_fract_y
_atom_site_fract_z
Si Si1 0.216627 0.539038 0.386715
Si Si2 0.862247 0.516120 0.030713
Si Si3 0.239202 0.680415 0.846309
Si Si4 0.259756 0.261534 0.585879
Si Si5 0.932880 0.121349 0.288667
Si Si6 0.581833 0.709311 0.504852
Si Si7 0.392811 0.882734 0.388229
Si Si8 0.404757 0.723694 0.746379
O O1 0.187851 0.561259 0.158050
O O2 0.231944 0.400416 0.478514
O O3 0.378276 0.607342 0.656280
O O4 0.043398 0.571597 0.216869
O O5 0.714421 0.612878 0.795653
O O6 0.874099 0.430537 0.225240
O O7 0.153222 0.796091 0.742050
O O8 0.287062 0.701826 0.733337
O O9 0.418313 0.656063 0.203442
O O10 0.323765 0.224085 0.525911
O O11 0.090581 0.193588 0.416326
O O12 0.407941 0.248880 0.929334
O O13 0.784875 0.100284 0.962224
O O14 0.000000 0.000000 0.500000
O O15 0.507979 0.790643 0.495959
O O16 0.355297 0.827795 0.520874
O O17 0.500000 0.000000 0.500000
#
# Coordination Sequence:
#
# PCOD9087453 Si02
#       8
#     2   2   2   2   2   2   2   2
#     4  10  20  35  63  95 133 166 205 258 308 368
#     4  10  19  36  63  94 129 168 211 246 314 380
#     4  10  21  40  60  93 130 168 208 250 316 380
#     4  10  21  41  63  94 127 168 210 249 315 380
#     4  11  23  44  69  88 122 171 212 259 313 379
#     4   9  21  37  66  89 123 170 209 250 311 381
#     4  11  25  46  65  92 125 162 215 267 313 365
#     4  11  24  39  62  94 130 164 205 265 313 365
#
# _framework density 20.270038
#
# number of rings (size 3 to 8) (size 9 to 14) (size 15 to 20)
#    0.000    1.750    1.250    3.000    3.500    4.500 
#    4.500    5.000    0.000    0.000    0.000    0.000 
#    0.000    0.000    0.000    0.000    0.000    0.000 
#
# Total GULP energy -89393.274962 kJ/mol
# GULP energy per Si atom -5587.079685 kJ/mol
# Density = 2.022390 g / cm^3
# Si number density = 20.270038 Si / 1000 Ang^3
#
#
#
# Elastic Constant Matrix: (Units=GPa)
#
#
# Indices 1 2 3 4 5 6 
#
# 1 96.2923 43.7891 55.8018 6.0398 -3.0738 22.4110
# 2 43.7891 95.5708 58.6810 0.5964 -9.6900 23.0391
# 3 55.8018 58.6810 112.9583 -5.8125 -3.8982 2.2803
# 4 6.0398 0.5964 -5.8125 40.8070 -0.2745 2.1630
# 5 -3.0738 -9.6900 -3.8982 -0.2745 28.4438 -3.7533
# 6 22.4110 23.0391 2.2803 2.1630 -3.7533 24.8152
#
#
#
# Elastic Compliance Matrix: (Units=1/GPa)
#
#
# Indices 1 2 3 4 5 6 
#
# 1 0.020515 0.001791 -0.010908 -0.003614 -0.001217 -0.019057
# 2 0.001791 0.022360 -0.012027 -0.001187 0.003426 -0.020651
# 3 -0.010908 -0.012027 0.020300 0.003684 0.000027 0.018835
# 4 -0.003614 -0.001187 0.003684 0.025487 0.000198 0.001837
# 5 -0.001217 0.003426 0.000027 0.000198 0.036653 0.003442
# 6 -0.019057 -0.020651 0.018835 0.001837 0.003442 0.075312
#
#
# Mechanical properties :
#
#
# Convention : Reuss Voigt Hill
#
# Bulk Modulus (GPa) = 47.87599 69.04058 58.45828
# Shear Modulus (GPa) = 20.00985 28.58316 24.29650
#
# Velocity S-wave (km/s) = 3.14532 3.75923 3.46590
# Velocity P-wave (km/s) = 6.07134 7.27851 6.70216
#
# Compressibility (1/GPa) = 0.02088730
#
# Stress axis : x y z
#
# Youngs Moduli (GPa) = 48.74434 44.72185 49.26152
#
# Poissons Ratio (x) = -0.08011 0.53737
# Poissons Ratio (y) = -0.08732 0.59247
# Poissons Ratio (z) = 0.53173 0.53787
#
# Static dielectric constant tensor:
#      x y z
#    x 1.752670 0.007750 0.000640 
#    y 0.007750 1.694820 0.005000 
#    z 0.000640 0.005000 1.740600 
# 
# From -- ./inp_files/205825.got.cif
#   From: 2010.05.17/outbox.cif.g08.bks.cpg/sg2_103_cif.got.tgz:205825.got - 2010.06.03 11:33:40.
