data_PCOD9087402
_publ_section_title
;
Structure prediction by ZEFSAII (Michael W. Deem and Ramdas Pophale) SiO2 
 PCOD9087402
Probable space group: P -1
;
_chemical_formula_sum "Si O2"
_cell_formula_units_Z 12
_cell_length_a 11.879011
_cell_length_b 7.791499
_cell_length_c 7.958016
_cell_angle_alpha 49.015254
_cell_angle_beta 91.061020
_cell_angle_gamma 69.146961
_cell_volume 485.314644
_symmetry_space_group_name_H-M "P -1"
_symmetry_group_IT_number 2
_symmetry_cell_setting 'triclinic'
loop_
_space_group_symop_operation_xyz
x,y,z
-x,-y,-z
loop_
_atom_site_type_symbol
_atom_site_label
_atom_site_fract_x
_atom_site_fract_y
_atom_site_fract_z
Si Si1 0.412433 0.781663 0.232456
Si Si2 0.845820 0.872057 0.822243
Si Si3 0.236998 0.828053 0.691491
Si Si4 0.692300 0.748233 0.645927
Si Si5 0.093076 0.758134 0.044946
Si Si6 0.539671 0.757496 0.922354
O O1 0.500000 0.500000 0.500000
O O2 0.434054 0.761194 0.046750
O O3 0.261837 0.924677 0.184284
O O4 0.457070 0.981377 0.184474
O O5 0.778491 0.721687 0.831314
O O6 0.851487 0.043159 0.557309
O O7 0.983869 0.690397 0.019434
O O8 0.342815 0.532705 0.844285
O O9 0.310536 0.001358 0.599490
O O10 0.845755 0.157150 0.159364
O O11 0.785075 0.491303 0.710218
O O12 0.569187 0.751626 0.724950
O O13 0.000000 0.000000 0.000000
#
# Coordination Sequence:
#
# PCOD9087402 Si02
#       6
#     2   2   2   2   2   2
#     4  10  16  27  48  79 107 120 161 213 251 280
#     4   9  18  33  50  76 102 130 167 203 245 294
#     4   9  18  33  51  71 100 134 167 202 244 296
#     4   8  18  32  52  69 100 130 170 198 250 289
#     4  11  21  33  50  74 103 133 166 207 251 293
#     4   9  15  27  49  78 100 125 158 208 251 286
#
# _framework density 24.726226
#
# number of rings (size 3 to 8) (size 9 to 14) (size 15 to 20)
#    1.000    1.667    1.667    1.000    0.000    0.667 
#    0.000    0.000    0.000    4.000    0.000   10.500 
#    0.000    0.000    0.000    0.000    0.000    0.000 
#
# Total GULP energy -66848.887507 kJ/mol
# GULP energy per Si atom -5570.740626 kJ/mol
# Density = 2.466995 g / cm^3
# Si number density = 24.726226 Si / 1000 Ang^3
#
#
#
# Elastic Constant Matrix: (Units=GPa)
#
#
# Indices 1 2 3 4 5 6 
#
# 1 104.4334 51.3820 23.6671 -4.1880 -21.0642 -36.0333
# 2 51.3820 144.0646 35.5527 -23.5425 -6.7964 -29.7908
# 3 23.6671 35.5527 107.4191 -16.9834 -14.6491 -15.5171
# 4 -4.1880 -23.5425 -16.9834 38.8726 1.1314 -7.6576
# 5 -21.0642 -6.7964 -14.6491 1.1314 25.1934 -11.3575
# 6 -36.0333 -29.7908 -15.5171 -7.6576 -11.3575 56.5408
#
#
#
# Elastic Compliance Matrix: (Units=1/GPa)
#
#
# Indices 1 2 3 4 5 6 
#
# 1 0.024437 -0.002452 0.004122 0.006494 0.032130 0.022747
# 2 -0.002452 0.010179 -0.000815 0.006444 0.002132 0.004878
# 3 0.004122 -0.000815 0.013300 0.007265 0.015079 0.009861
# 4 0.006494 0.006444 0.007265 0.036540 0.017898 0.018072
# 5 0.032130 0.002132 0.015079 0.017898 0.096534 0.047553
# 6 0.022747 0.004878 0.009861 0.018072 0.047553 0.049459
#
#
# Mechanical properties :
#
#
# Convention : Reuss Voigt Hill
#
# Bulk Modulus (GPa) = 20.15052 64.12453 42.13752
# Shear Modulus (GPa) = 20.38470 40.47568 30.43019
#
# Velocity S-wave (km/s) = 2.87438 4.05032 3.51192
# Velocity P-wave (km/s) = 4.37987 6.91835 5.78994
#
# Compressibility (1/GPa) = 0.04962650
#
# Stress axis : x y z
#
# Youngs Moduli (GPa) = 40.92102 98.23924 75.18617
#
# Poissons Ratio (x) = 0.24091 -0.30990
# Poissons Ratio (y) = 0.10035 0.06125
# Poissons Ratio (z) = -0.16867 0.08003
#
# Static dielectric constant tensor:
#      x y z
#    x 2.098890 0.086360 0.081860 
#    y 0.086360 2.072000 -0.003530 
#    z 0.081860 -0.003530 2.002610 
# 
# From -- ./inp_files/294090.got.cif
#   From: 2010.05.17/outbox.cif.g08.bks.cpg/sg2_148_cif.got.tgz:294090.got - 2010.06.03 11:33:40.
