data_PCOD9087679
_publ_section_title
;
Structure prediction by ZEFSAII (Michael W. Deem and Ramdas Pophale) SiO2 
 PCOD9087679
Probable space group: P -1
;
_chemical_formula_sum "Si O2"
_cell_formula_units_Z 16
_cell_length_a 18.239807
_cell_length_b 8.788282
_cell_length_c 7.434465
_cell_angle_alpha 62.607065
_cell_angle_beta 133.562578
_cell_angle_gamma 129.097866
_cell_volume 669.483758
_symmetry_space_group_name_H-M "P -1"
_symmetry_group_IT_number 2
_symmetry_cell_setting 'triclinic'
loop_
_space_group_symop_operation_xyz
x,y,z
-x,-y,-z
loop_
_atom_site_type_symbol
_atom_site_label
_atom_site_fract_x
_atom_site_fract_y
_atom_site_fract_z
Si Si1 0.358824 0.172244 0.930720
Si Si2 0.726790 0.277532 0.072292
Si Si3 0.154069 0.256350 0.498279
Si Si4 0.498113 0.792105 0.151451
Si Si5 0.032523 0.411462 0.777291
Si Si6 0.690320 0.897273 0.713922
Si Si7 0.805545 0.328656 0.596171
Si Si8 0.070685 0.084374 0.850528
O O1 0.257258 0.209055 0.662855
O O2 0.476751 0.279256 0.956659
O O3 0.314609 0.940782 0.949118
O O4 0.364967 0.208975 0.134000
O O5 0.834152 0.431000 0.053694
O O6 0.765317 0.289535 0.339922
O O7 0.623021 0.328724 0.885418
O O8 0.201183 0.486097 0.445160
O O9 0.111462 0.188926 0.667816
O O10 0.039377 0.127095 0.258475
O O11 0.600661 0.820891 0.441265
O O12 0.500000 0.000000 0.000000
O O13 0.026184 0.209981 0.816987
O O14 0.000000 0.500000 0.500000
O O15 0.939575 0.382894 0.784887
O O16 0.728095 0.126752 0.675522
O O17 0.812205 0.902298 0.881417
#
# Coordination Sequence:
#
# PCOD9087679 Si02
#       8
#     2   2   2   2   2   2   2   2
#     4  10  22  41  69  93 130 174 215 268 328 376
#     4  10  20  40  68  92 123 175 221 259 320 392
#     4  10  20  37  63  93 135 175 205 265 335 391
#     4  10  21  43  69  92 127 177 222 265 325 386
#     4  10  19  36  65  93 128 175 210 260 334 385
#     4  11  24  40  66 102 131 166 226 272 312 394
#     4  11  21  38  66  98 134 168 217 264 329 398
#     4  10  21  36  61  95 133 170 217 263 323 391
#
# _framework density 23.899010000000001
#
# number of rings (size 3 to 8) (size 9 to 14) (size 15 to 20)
#    0.000    1.750    5.000    1.500    3.500    3.000 
#    0.000    1.250    0.000    0.000    0.000    0.875 
#    0.000    0.000    0.000    0.000    0.000    0.000 
#
# Total GULP energy -89537.490034 kJ/mol
# GULP energy per Si atom -5596.093127 kJ/mol
# Density = 2.384462 g / cm^3
# Si number density = 23.899010 Si / 1000 Ang^3
#
#
#
# Elastic Constant Matrix: (Units=GPa)
#
#
# Indices 1 2 3 4 5 6 
#
# 1 97.3073 -7.7576 28.5443 -6.5427 16.1592 -9.5788
# 2 -7.7576 32.9352 -7.9713 -4.4804 -6.1659 -4.8120
# 3 28.5443 -7.9713 119.6027 -11.2778 0.5395 -6.6607
# 4 -6.5427 -4.4804 -11.2778 13.2559 1.4094 7.0045
# 5 16.1592 -6.1659 0.5395 1.4094 29.5563 2.7588
# 6 -9.5788 -4.8120 -6.6607 7.0045 2.7588 30.4802
#
#
#
# Elastic Compliance Matrix: (Units=1/GPa)
#
#
# Indices 1 2 3 4 5 6 
#
# 1 0.012943 0.002230 -0.002329 0.003994 -0.007098 0.003635
# 2 0.002230 0.034920 0.003216 0.013305 0.005055 0.003402
# 3 -0.002329 0.003216 0.009899 0.008257 0.001378 -0.000083
# 4 0.003994 0.013305 0.008257 0.098295 -0.002642 -0.017190
# 5 -0.007098 0.005055 0.001378 -0.002642 0.039250 -0.004077
# 6 0.003635 0.003402 -0.000083 -0.017190 -0.004077 0.038789
#
#
# Mechanical properties :
#
#
# Convention : Reuss Voigt Hill
#
# Bulk Modulus (GPa) = 15.62583 30.60844 23.11714
# Shear Modulus (GPa) = 20.06478 30.46048 25.26263
#
# Velocity S-wave (km/s) = 2.90067 3.57396 3.25477
# Velocity P-wave (km/s) = 4.21556 5.46499 4.88042
#
# Compressibility (1/GPa) = 0.06399660
#
# Stress axis : x y z
#
# Youngs Moduli (GPa) = 77.26217 28.63713 101.02061
#
# Poissons Ratio (x) = -0.06387 0.23530
# Poissons Ratio (y) = -0.17233 -0.32491
# Poissons Ratio (z) = 0.17996 -0.09210
#
# Static dielectric constant tensor:
#      x y z
#    x 1.930760 0.047420 -0.010210 
#    y 0.047420 1.899030 0.005640 
#    z -0.010210 0.005640 1.938470 
# 
# From -- ./inp_files/341769.got.cif
#   From: 2010.05.17/outbox.cif.g08.bks.cpg/sg2_171_cif.got.tgz:341769.got - 2010.06.03 11:33:40.
