data_PCOD9087183
_publ_section_title
;
Structure prediction by ZEFSAII (Michael W. Deem and Ramdas Pophale) SiO2 
 PCOD9087183
Probable space group: P -1
;
_chemical_formula_sum "Si O2"
_cell_formula_units_Z 16
_cell_length_a 10.189197
_cell_length_b 12.118485
_cell_length_c 11.599949
_cell_angle_alpha 131.344590
_cell_angle_beta 69.824503
_cell_angle_gamma 127.925627
_cell_volume 843.696106
_symmetry_space_group_name_H-M "P -1"
_symmetry_group_IT_number 2
_symmetry_cell_setting 'triclinic'
loop_
_space_group_symop_operation_xyz
x,y,z
-x,-y,-z
loop_
_atom_site_type_symbol
_atom_site_label
_atom_site_fract_x
_atom_site_fract_y
_atom_site_fract_z
Si Si1 0.799724 0.127571 0.877226
Si Si2 0.867499 0.791784 0.906526
Si Si3 0.096498 0.180732 0.665729
Si Si4 0.250751 0.455199 0.607664
Si Si5 0.034940 0.599612 0.775154
Si Si6 0.828972 0.396719 0.905722
Si Si7 0.633634 0.732883 0.730323
Si Si8 0.682731 0.625096 0.083793
O O1 0.731269 0.202150 0.853693
O O2 0.964345 0.158611 0.785825
O O3 0.686710 0.925559 0.806338
O O4 0.853192 0.247911 0.058246
O O5 0.715252 0.741892 0.834115
O O6 0.954249 0.683008 0.781105
O O7 0.798206 0.739152 0.020484
O O8 0.000000 0.000000 0.000000
O O9 0.145543 0.330605 0.660311
O O10 0.265293 0.243898 0.732035
O O11 0.000000 0.000000 0.500000
O O12 0.150022 0.537524 0.646002
O O13 0.434277 0.606713 0.700375
O O14 0.285587 0.342024 0.431326
O O15 0.887951 0.436464 0.782537
O O16 0.731191 0.490147 0.017997
O O17 0.000000 0.500000 0.000000
O O18 0.500000 0.500000 0.000000
#
# Coordination Sequence:
#
# PCOD9087183 Si02
#       8
#     2   2   2   2   2   2   2   2
#     4  11  18  37  63  87 115 153 211 247 286 360
#     4  11  21  39  60  82 121 160 200 235 296 368
#     4  12  20  36  66  93 113 160 208 250 293 362
#     4  11  24  38  59  91 123 153 201 250 308 347
#     4  10  19  36  62  87 113 157 208 245 290 355
#     4   9  16  32  60  86 111 147 207 249 280 342
#     4  11  24  40  56  89 128 159 185 253 311 359
#     4  11  22  38  61  93 122 154 199 257 309 346
#
# _framework density 18.964174
#
# number of rings (size 3 to 8) (size 9 to 14) (size 15 to 20)
#    0.000    1.250    7.500    1.500    0.000    1.000 
#    2.250    0.000    0.000    0.750    0.000    0.000 
#    0.000    0.000    0.000    0.000    0.000    0.000 
#
# Total GULP energy -89186.948389 kJ/mol
# GULP energy per Si atom -5574.184274 kJ/mol
# Density = 1.892101 g / cm^3
# Si number density = 18.964174 Si / 1000 Ang^3
#
#
#
# Elastic Constant Matrix: (Units=GPa)
#
#
# Indices 1 2 3 4 5 6 
#
# 1 87.5163 33.1018 21.9947 13.0512 3.6440 -23.7798
# 2 33.1018 105.9075 26.1104 22.9763 -3.6084 -25.6712
# 3 21.9947 26.1104 68.2800 15.3581 5.7206 -5.1238
# 4 13.0512 22.9763 15.3581 22.4135 -1.3118 -4.3746
# 5 3.6440 -3.6084 5.7206 -1.3118 26.1807 -0.3266
# 6 -23.7798 -25.6712 -5.1238 -4.3746 -0.3266 29.4501
#
#
#
# Elastic Compliance Matrix: (Units=1/GPa)
#
#
# Indices 1 2 3 4 5 6 
#
# 1 0.016266 -0.000660 -0.002933 -0.004679 -0.001807 0.011333
# 2 -0.000660 0.015465 -0.002495 -0.011509 0.002327 0.010829
# 3 -0.002933 -0.002495 0.018847 -0.009447 -0.004561 -0.002717
# 4 -0.004679 -0.011509 -0.009447 0.064734 0.004300 -0.005791
# 5 -0.001807 0.002327 -0.004561 0.004300 0.039991 0.000858
# 6 0.011333 0.010829 -0.002717 -0.005791 0.000858 0.051223
#
#
# Mechanical properties :
#
#
# Convention : Reuss Voigt Hill
#
# Bulk Modulus (GPa) = 26.04010 47.12418 36.58214
# Shear Modulus (GPa) = 21.59809 27.64197 24.62003
#
# Velocity S-wave (km/s) = 3.37840 3.82198 3.60702
# Velocity P-wave (km/s) = 5.38323 6.66181 6.05636
#
# Compressibility (1/GPa) = 0.03840231
#
# Stress axis : x y z
#
# Youngs Moduli (GPa) = 61.47916 64.66300 53.05792
#
# Poissons Ratio (x) = 0.04270 0.15561
# Poissons Ratio (y) = 0.04060 0.13236
# Poissons Ratio (z) = 0.18031 0.16131
#
# Static dielectric constant tensor:
#      x y z
#    x 1.691030 -0.003210 -0.000600 
#    y -0.003210 1.679750 0.009400 
#    z -0.000600 0.009400 1.714560 
# 
# From -- ./inp_files/393085.got.cif
#   From: 2010.05.17/outbox.cif.g08.bks.cpg/sg2_197_cif.got.tgz:393085.got - 2010.06.03 11:33:40.
