data_PCOD9087096
_publ_section_title
;
Structure prediction by ZEFSAII (Michael W. Deem and Ramdas Pophale) SiO2 
 PCOD9087096
Probable space group: P -1
;
_chemical_formula_sum "Si O2"
_cell_formula_units_Z 14
_cell_length_a 18.039153
_cell_length_b 15.842479
_cell_length_c 10.337466
_cell_angle_alpha 131.760022
_cell_angle_beta 154.523846
_cell_angle_gamma 33.273718
_cell_volume 645.997299
_symmetry_space_group_name_H-M "P -1"
_symmetry_group_IT_number 2
_symmetry_cell_setting 'triclinic'
loop_
_space_group_symop_operation_xyz
x,y,z
-x,-y,-z
loop_
_atom_site_type_symbol
_atom_site_label
_atom_site_fract_x
_atom_site_fract_y
_atom_site_fract_z
Si Si1 0.748254 0.184199 0.731908
Si Si2 0.280742 0.334196 0.323002
Si Si3 0.948756 0.761439 0.651020
Si Si4 0.428741 0.000071 0.191796
Si Si5 0.196881 0.011904 0.574232
Si Si6 0.777065 0.116527 0.165577
Si Si7 0.636010 0.540689 0.180515
O O1 0.501856 0.278755 0.524338
O O2 0.691408 0.159560 0.476294
O O3 0.840879 0.267504 0.971027
O O4 0.000000 0.000000 0.000000
O O5 0.310367 0.386775 0.557367
O O6 0.338916 0.171276 0.250192
O O7 0.000000 0.500000 0.000000
O O8 0.728508 0.834895 0.478366
O O9 0.791739 0.911647 0.452061
O O10 0.112665 0.605764 0.653934
O O11 0.323201 0.961665 0.091289
O O12 0.311022 0.013935 0.882820
O O13 0.904878 0.118495 0.248721
O O14 0.565690 0.303593 0.073016
O O15 0.000000 0.000000 0.500000
O O16 0.500000 0.500000 0.000000
#
# Coordination Sequence:
#
# PCOD9087096 Si02
#       7
#     2   2   2   2   2   2   2
#     4  10  19  36  61  94 125 168 221 264 321 387
#     4  12  25  38  66 107 133 164 228 281 318 387
#     4  11  21  37  68  92 126 168 226 267 322 392
#     4  11  24  40  63  96 133 169 217 273 329 392
#     4  10  19  38  65  91 124 174 216 258 325 396
#     4  10  24  42  67  95 133 175 217 268 342 390
#     4  12  23  42  68  95 131 176 219 270 325 390
#
# _framework density 21.671917000000001
#
# number of rings (size 3 to 8) (size 9 to 14) (size 15 to 20)
#    0.000    1.143    5.714    2.143    4.000    1.143 
#    0.000    0.000    0.000    2.571    0.000    0.000 
#    0.000    0.000    0.000    0.000    0.000    0.000 
#
# Total GULP energy -78041.598216 kJ/mol
# GULP energy per Si atom -5574.399873 kJ/mol
# Density = 2.162259 g / cm^3
# Si number density = 21.671917 Si / 1000 Ang^3
#
#
#
# Elastic Constant Matrix: (Units=GPa)
#
#
# Indices 1 2 3 4 5 6 
#
# 1 28.0872 27.8090 36.8334 4.3497 13.9130 -11.8145
# 2 27.8090 132.4535 70.9415 11.7200 6.5013 -30.1885
# 3 36.8334 70.9415 120.3685 4.8415 16.9272 -10.0324
# 4 4.3497 11.7200 4.8415 45.4457 -10.4118 -4.6896
# 5 13.9130 6.5013 16.9272 -10.4118 53.9232 2.1110
# 6 -11.8145 -30.1885 -10.0324 -4.6896 2.1110 39.5803
#
#
#
# Elastic Compliance Matrix: (Units=1/GPa)
#
#
# Indices 1 2 3 4 5 6 
#
# 1 0.078662 -0.000333 -0.019799 -0.007150 -0.016134 0.018221
# 2 -0.000333 0.013410 -0.007052 -0.001834 0.000011 0.008123
# 3 -0.019799 -0.007052 0.017787 0.001335 0.000894 -0.006670
# 4 -0.007150 -0.001834 0.001335 0.024416 0.006386 -0.000643
# 5 -0.016134 0.000011 0.000894 0.006386 0.023859 -0.005097
# 6 0.018221 0.008123 -0.006670 -0.000643 -0.005097 0.035405
#
#
# Mechanical properties :
#
#
# Convention : Reuss Voigt Hill
#
# Bulk Modulus (GPa) = 18.02134 61.34187 39.68160
# Shear Modulus (GPa) = 18.76839 37.47819 28.12329
#
# Velocity S-wave (km/s) = 2.94602 4.16305 3.60625
# Velocity P-wave (km/s) = 4.46157 7.17455 5.97410
#
# Compressibility (1/GPa) = 0.05548977
#
# Stress axis : x y z
#
# Youngs Moduli (GPa) = 12.71265 74.57038 56.21932
#
# Poissons Ratio (x) = 0.02487 1.11310
# Poissons Ratio (y) = 0.00424 0.39647
# Poissons Ratio (z) = 0.25170 0.52588
#
# Static dielectric constant tensor:
#      x y z
#    x 2.024480 -0.229320 0.052170 
#    y -0.229320 2.139660 -0.052290 
#    z 0.052170 -0.052290 1.875330 
# 
# From -- ./inp_files/196800.got.cif
#   From: 2010.05.17/outbox.cif.g08.bks.cpg/sg2_99_cif.got.tgz:196800.got - 2010.06.03 11:33:40.
