data_PCOD9087244
_publ_section_title
;
Structure prediction by ZEFSAII (Michael W. Deem and Ramdas Pophale) SiO2 
 PCOD9087244
Probable space group: P -1
;
_chemical_formula_sum "Si O2"
_cell_formula_units_Z 14
_cell_length_a 8.401725
_cell_length_b 9.615041
_cell_length_c 12.291576
_cell_angle_alpha 47.235264
_cell_angle_beta 70.342150
_cell_angle_gamma 63.772466
_cell_volume 652.925439
_symmetry_space_group_name_H-M "P -1"
_symmetry_group_IT_number 2
_symmetry_cell_setting 'triclinic'
loop_
_space_group_symop_operation_xyz
x,y,z
-x,-y,-z
loop_
_atom_site_type_symbol
_atom_site_label
_atom_site_fract_x
_atom_site_fract_y
_atom_site_fract_z
Si Si1 0.824076 0.287299 0.428053
Si Si2 0.679066 0.024770 0.001819
Si Si3 0.510133 0.787821 0.562442
Si Si4 0.637236 0.722318 0.332640
Si Si5 0.092576 0.391604 0.145188
Si Si6 0.366345 0.552043 0.104535
Si Si7 0.769709 0.032843 0.746654
O O1 0.683747 0.210811 0.433732
O O2 0.717669 0.497809 0.394605
O O3 0.891712 0.126478 0.594692
O O4 0.963413 0.330365 0.291230
O O5 0.730986 0.856833 0.171592
O O6 0.642122 0.237995 0.952701
O O7 0.810437 0.006284 0.879206
O O8 0.500000 0.000000 0.000000
O O9 0.637612 0.741552 0.452061
O O10 0.572931 0.616358 0.728081
O O11 0.500000 0.000000 0.500000
O O12 0.427805 0.810904 0.303013
O O13 0.183323 0.534942 0.108351
O O14 0.229591 0.179630 0.188672
O O15 0.000000 0.500000 0.000000
O O16 0.500000 0.500000 0.000000
#
# Coordination Sequence:
#
# PCOD9087244 Si02
#       7
#     2   2   2   2   2   2   2
#     4  11  22  41  64  93 129 166 206 263 321 371
#     4  10  19  36  62  91 119 157 206 257 300 360
#     4  11  21  37  63  95 123 162 216 263 306 374
#     4  10  20  38  65  94 122 164 210 254 309 377
#     4  12  26  43  62  93 131 169 209 264 324 373
#     4  12  23  40  64  93 124 167 215 260 313 384
#     4  10  20  39  65  91 124 169 210 251 310 379
#
# _framework density 21.441956999999999
#
# number of rings (size 3 to 8) (size 9 to 14) (size 15 to 20)
#    0.000    1.143    0.000   10.714    0.000    0.000 
#    0.000    7.143    0.000    0.000    0.000    0.000 
#    0.000    0.000    0.000    0.000    0.000    0.000 
#
# Total GULP energy -78280.423484 kJ/mol
# GULP energy per Si atom -5591.458820 kJ/mol
# Density = 2.139315 g / cm^3
# Si number density = 21.441957 Si / 1000 Ang^3
#
#
#
# Elastic Constant Matrix: (Units=GPa)
#
#
# Indices 1 2 3 4 5 6 
#
# 1 66.5260 43.7021 45.5214 8.1444 -20.5303 26.3474
# 2 43.7021 163.8236 54.3197 -10.1846 -14.3481 41.1762
# 3 45.5214 54.3197 212.2808 19.5235 -9.8008 22.5141
# 4 8.1444 -10.1846 19.5235 52.8408 5.5493 -5.7180
# 5 -20.5303 -14.3481 -9.8008 5.5493 18.1567 -8.4634
# 6 26.3474 41.1762 22.5141 -5.7180 -8.4634 34.0686
#
#
#
# Elastic Compliance Matrix: (Units=1/GPa)
#
#
# Indices 1 2 3 4 5 6 
#
# 1 0.037137 -0.002225 -0.003031 -0.010454 0.033674 -0.017418
# 2 -0.002225 0.009314 -0.001166 0.001673 -0.000284 -0.008556
# 3 -0.003031 -0.001166 0.005862 -0.001900 -0.000914 -0.000667
# 4 -0.010454 0.001673 -0.001900 0.023987 -0.015344 0.007533
# 5 0.033674 -0.000284 -0.000914 -0.015344 0.095257 -0.004007
# 6 -0.017418 -0.008556 -0.000667 0.007533 -0.004007 0.053874
#
#
# Mechanical properties :
#
#
# Convention : Reuss Voigt Hill
#
# Bulk Modulus (GPa) = 25.33520 81.07965 53.20742
# Shear Modulus (GPa) = 19.88625 40.95238 30.41931
#
# Velocity S-wave (km/s) = 3.04870 4.37500 3.77063
# Velocity P-wave (km/s) = 4.92282 7.96345 6.62007
#
# Compressibility (1/GPa) = 0.03947078
#
# Stress axis : x y z
#
# Youngs Moduli (GPa) = 26.92701 107.36926 170.58338
#
# Poissons Ratio (x) = 0.23885 0.51703
# Poissons Ratio (y) = 0.05990 0.19886
# Poissons Ratio (z) = 0.08162 0.12516
#
# Static dielectric constant tensor:
#      x y z
#    x 1.807210 -0.038360 -0.011180 
#    y -0.038360 1.770510 0.040900 
#    z -0.011180 0.040900 1.799450 
# 
# From -- ./inp_files/156739.got.cif
#   From: 2010.05.17/outbox.cif.g08.bks.cpg/sg2_79_cif.got.tgz:156739.got - 2010.06.03 11:33:40.
