data_PCOD9087116
_publ_section_title
;
Structure prediction by ZEFSAII (Michael W. Deem and Ramdas Pophale) SiO2 
 PCOD9087116
Probable space group: P -1
;
_chemical_formula_sum "Si O2"
_cell_formula_units_Z 12
_cell_length_a 4.988080
_cell_length_b 14.542163
_cell_length_c 12.290747
_cell_angle_alpha 40.296151
_cell_angle_beta 106.093449
_cell_angle_gamma 126.658408
_cell_volume 434.419031
_symmetry_space_group_name_H-M "P -1"
_symmetry_group_IT_number 2
_symmetry_cell_setting 'triclinic'
loop_
_space_group_symop_operation_xyz
x,y,z
-x,-y,-z
loop_
_atom_site_type_symbol
_atom_site_label
_atom_site_fract_x
_atom_site_fract_y
_atom_site_fract_z
Si Si1 0.854941 0.519050 0.332345
Si Si2 0.498303 0.388639 0.946482
Si Si3 0.512257 0.980078 0.347281
Si Si4 0.650304 0.745557 0.171016
Si Si5 0.766763 0.876972 0.292090
Si Si6 0.325345 0.717674 0.745898
O O1 0.876306 0.671799 0.267682
O O2 0.575552 0.325773 0.528985
O O3 0.698801 0.533746 0.188649
O O4 0.240327 0.577155 0.304791
O O5 0.378702 0.234221 0.980281
O O6 0.919253 0.545035 0.839852
O O7 0.450681 0.326287 0.120898
O O8 0.713027 0.005823 0.235585
O O9 0.502898 0.835873 0.551426
O O10 0.106867 0.896220 0.353249
O O11 0.680249 0.153984 0.283908
O O12 0.758089 0.885847 0.152383
#
# Coordination Sequence:
#
# PCOD9087116 Si02
#       6
#     2   2   2   2   2   2
#     4  10  19  36  61  99 118 156 204 250 314 344
#     4   9  21  41  67  92 121 162 208 256 305 350
#     4  11  25  41  64  91 126 167 200 249 312 363
#     4  10  21  37  64  96 122 155 205 262 304 357
#     4  12  21  41  63  94 125 160 205 252 310 369
#     4  10  21  46  61  92 125 166 208 252 295 377
#
# _framework density 27.623103
#
# number of rings (size 3 to 8) (size 9 to 14) (size 15 to 20)
#    1.000    0.667    1.667    4.000    0.000    2.667 
#    9.000    4.167    0.000    0.000    0.000    0.000 
#    0.000    0.000    0.000    0.000    0.000    0.000 
#
# Total GULP energy -67287.932519 kJ/mol
# GULP energy per Si atom -5607.327710 kJ/mol
# Density = 2.756023 g / cm^3
# Si number density = 27.623103 Si / 1000 Ang^3
#
#
#
# Elastic Constant Matrix: (Units=GPa)
#
#
# Indices 1 2 3 4 5 6 
#
# 1 105.8702 20.6831 15.4944 17.1274 -19.5328 -8.9009
# 2 20.6831 167.5926 16.5272 27.5993 -9.3341 -6.5017
# 3 15.4944 16.5272 108.0796 30.3465 -1.2515 6.1554
# 4 17.1274 27.5993 30.3465 41.2982 -3.8390 2.3663
# 5 -19.5328 -9.3341 -1.2515 -3.8390 44.4212 4.4825
# 6 -8.9009 -6.5017 6.1554 2.3663 4.4825 51.6954
#
#
#
# Elastic Compliance Matrix: (Units=1/GPa)
#
#
# Indices 1 2 3 4 5 6 
#
# 1 0.011135 -0.000415 -0.000563 -0.003625 0.004306 0.001725
# 2 -0.000415 0.006821 0.000252 -0.004551 0.000774 0.000898
# 3 -0.000563 0.000252 0.011750 -0.008556 -0.000499 -0.001029
# 4 -0.003625 -0.004551 -0.008556 0.035191 0.000434 -0.001826
# 5 0.004306 0.000774 -0.000499 0.000434 0.024719 -0.001265
# 6 0.001725 0.000898 -0.001029 -0.001826 -0.001265 0.020070
#
#
# Mechanical properties :
#
#
# Convention : Reuss Voigt Hill
#
# Bulk Modulus (GPa) = 35.39428 54.10574 44.75001
# Shear Modulus (GPa) = 41.47478 49.40547 45.44012
#
# Velocity S-wave (km/s) = 3.87906 4.23372 4.06027
# Velocity P-wave (km/s) = 5.73619 6.59764 6.18194
#
# Compressibility (1/GPa) = 0.02825315
#
# Stress axis : x y z
#
# Youngs Moduli (GPa) = 89.80739 146.61585 85.10699
#
# Poissons Ratio (x) = 0.06083 0.04794
# Poissons Ratio (y) = 0.03726 -0.02146
# Poissons Ratio (z) = 0.05059 -0.03696
#
# Static dielectric constant tensor:
#      x y z
#    x 2.046460 -0.064670 0.024140 
#    y -0.064670 2.205170 -0.016500 
#    z 0.024140 -0.016500 2.144720 
# 
# From -- ./inp_files/241762.got.cif
#   From: 2010.05.17/outbox.cif.g08.bks.cpg/sg2_121_cif.got.tgz:241762.got - 2010.06.03 11:33:40.
