data_PCOD9087150
_publ_section_title
;
Structure prediction by ZEFSAII (Michael W. Deem and Ramdas Pophale) SiO2 
 PCOD9087150
Probable space group: P -1
;
_chemical_formula_sum "Si O2"
_cell_formula_units_Z 16
_cell_length_a 10.117047
_cell_length_b 10.640028
_cell_length_c 11.859558
_cell_angle_alpha 55.210287
_cell_angle_beta 56.717528
_cell_angle_gamma 85.015591
_cell_volume 827.516806
_symmetry_space_group_name_H-M "P -1"
_symmetry_group_IT_number 2
_symmetry_cell_setting 'triclinic'
loop_
_space_group_symop_operation_xyz
x,y,z
-x,-y,-z
loop_
_atom_site_type_symbol
_atom_site_label
_atom_site_fract_x
_atom_site_fract_y
_atom_site_fract_z
Si Si1 0.631050 0.673962 0.465174
Si Si2 0.133866 0.418952 0.935544
Si Si3 0.061187 0.666855 0.458933
Si Si4 0.686073 0.618305 0.714023
Si Si5 0.380104 0.318151 0.035451
Si Si6 0.870435 0.850810 0.078133
Si Si7 0.312289 0.005942 0.086279
Si Si8 0.327190 0.612713 0.527943
O O1 0.645697 0.697601 0.578287
O O2 0.794335 0.742064 0.278029
O O3 0.492586 0.737959 0.440910
O O4 0.595507 0.483350 0.550688
O O5 0.056858 0.243486 0.000702
O O6 0.242290 0.519008 0.729246
O O7 0.258362 0.400993 0.985495
O O8 0.000000 0.500000 0.000000
O O9 0.167373 0.831235 0.259245
O O10 0.188850 0.658950 0.501269
O O11 0.000000 0.500000 0.500000
O O12 0.885499 0.664281 0.594401
O O13 0.634942 0.674866 0.827076
O O14 0.571262 0.427393 0.858688
O O15 0.320268 0.134003 0.116425
O O16 0.734722 0.908621 0.044877
O O17 0.000000 0.000000 0.000000
O O18 0.500000 0.000000 0.000000
#
# Coordination Sequence:
#
# PCOD9087150 Si02
#       8
#     2   2   2   2   2   2   2   2
#     4  10  19  36  62  84 118 164 196 257 306 366
#     4  10  20  39  64  89 124 162 205 251 314 372
#     4  12  23  36  62  95 120 161 212 257 304 375
#     4  11  21  39  63  90 123 158 213 255 308 374
#     4  10  23  42  62  93 125 171 205 261 319 374
#     4  10  22  39  61  95 122 157 208 261 311 364
#     4  11  24  42  62  90 131 165 205 259 323 371
#     4  10  20  34  59  87 117 154 206 248 303 362
#
# _framework density 19.334954
#
# number of rings (size 3 to 8) (size 9 to 14) (size 15 to 20)
#    0.000    1.500    2.500    3.000    3.500    0.500 
#    4.500    1.250    0.000    2.250    0.000    0.000 
#    0.000    0.000    0.000    0.000    0.000    0.000 
#
# Total GULP energy -89083.226450 kJ/mol
# GULP energy per Si atom -5567.701653 kJ/mol
# Density = 1.929095 g / cm^3
# Si number density = 19.334954 Si / 1000 Ang^3
#
#
#
# Elastic Constant Matrix: (Units=GPa)
#
#
# Indices 1 2 3 4 5 6 
#
# 1 114.7861 41.6537 28.1628 14.8247 8.5702 1.9070
# 2 41.6537 79.2736 44.9805 4.0901 0.9613 8.1847
# 3 28.1628 44.9805 94.4701 15.3231 4.9560 8.0912
# 4 14.8247 4.0901 15.3231 25.1021 7.5096 0.8341
# 5 8.5702 0.9613 4.9560 7.5096 42.6765 8.4694
# 6 1.9070 8.1847 8.0912 0.8341 8.4694 32.4154
#
#
#
# Elastic Compliance Matrix: (Units=1/GPa)
#
#
# Indices 1 2 3 4 5 6 
#
# 1 0.011691 -0.006158 0.000337 -0.005700 -0.001508 0.001324
# 2 -0.006158 0.020860 -0.008746 0.005234 0.001506 -0.003250
# 3 0.000337 -0.008746 0.016185 -0.008628 0.000096 -0.001655
# 4 -0.005700 0.005234 -0.008628 0.049670 -0.007055 0.001733
# 5 -0.001508 0.001506 0.000096 -0.007055 0.026323 -0.007012
# 6 0.001324 -0.003250 -0.001655 0.001733 -0.007012 0.033793
#
#
# Mechanical properties :
#
#
# Convention : Reuss Voigt Hill
#
# Bulk Modulus (GPa) = 51.01596 57.56931 54.29263
# Shear Modulus (GPa) = 25.74796 31.62100 28.68448
#
# Velocity S-wave (km/s) = 3.65318 4.04843 3.85587
# Velocity P-wave (km/s) = 6.65108 7.18975 6.92565
#
# Compressibility (1/GPa) = 0.01960171
#
# Stress axis : x y z
#
# Youngs Moduli (GPa) = 85.53913 47.93802 61.78472
#
# Poissons Ratio (x) = 0.29522 -0.02084
# Poissons Ratio (y) = 0.52679 0.54037
# Poissons Ratio (z) = -0.02886 0.41927
#
# Static dielectric constant tensor:
#      x y z
#    x 1.731940 -0.018340 0.003610 
#    y -0.018340 1.750950 -0.082640 
#    z 0.003610 -0.082640 1.728520 
# 
# From -- ./inp_files/392015.got.cif
#   From: 2010.05.17/outbox.cif.g08.bks.cpg/sg2_197_cif.got.tgz:392015.got - 2010.06.03 11:33:40.
