data_PCOD9087927
_publ_section_title
;
Structure prediction by ZEFSAII (Michael W. Deem and Ramdas Pophale) SiO2 
 PCOD9087927
Probable space group: P -1
;
_chemical_formula_sum "Si O2"
_cell_formula_units_Z 12
_cell_length_a 6.850650
_cell_length_b 10.750098
_cell_length_c 11.090555
_cell_angle_alpha 127.303051
_cell_angle_beta 43.213650
_cell_angle_gamma 118.689899
_cell_volume 443.749157
_symmetry_space_group_name_H-M "P -1"
_symmetry_group_IT_number 2
_symmetry_cell_setting 'triclinic'
loop_
_space_group_symop_operation_xyz
x,y,z
-x,-y,-z
loop_
_atom_site_type_symbol
_atom_site_label
_atom_site_fract_x
_atom_site_fract_y
_atom_site_fract_z
Si Si1 0.153554 0.682556 0.539153
Si Si2 0.628598 0.734756 0.177026
Si Si3 0.673128 0.036204 0.197443
Si Si4 0.531807 0.758900 0.795225
Si Si5 0.939416 0.321556 0.868335
Si Si6 0.922290 0.471937 0.272698
O O1 0.863039 0.750572 0.664704
O O2 0.107799 0.548941 0.583615
O O3 0.309237 0.823055 0.631905
O O4 0.372915 0.646835 0.313729
O O5 0.976268 0.641752 0.285305
O O6 0.857132 0.783178 0.208175
O O7 0.533449 0.883423 0.236263
O O8 0.808220 0.626993 0.946107
O O9 0.533903 0.093116 0.170394
O O10 0.000000 0.000000 0.000000
O O11 0.360044 0.617685 0.713430
O O12 0.373729 0.738403 0.983653
O O13 0.000000 0.500000 0.000000
#
# Coordination Sequence:
#
# PCOD9087927 Si02
#       6
#     2   2   2   2   2   2
#     4  11  22  34  58  84 111 139 183 229 266 321
#     4  10  19  37  57  81 109 147 181 218 276 322
#     4  11  19  39  57  77 112 147 178 222 274 324
#     4   9  19  35  57  83 108 141 185 221 268 322
#     4   8  16  36  59  76 109 150 176 219 273 317
#     4   9  20  41  57  77 115 146 178 224 269 320
#
# _framework density 27.042304000000001
#
# number of rings (size 3 to 8) (size 9 to 14) (size 15 to 20)
#    0.000    2.667    5.000    0.500    0.000    2.667 
#    0.000   14.167    0.000    0.000    0.000    0.000 
#    0.000    0.000    0.000    0.000    0.000    0.000 
#
# Total GULP energy -67239.537713 kJ/mol
# GULP energy per Si atom -5603.294809 kJ/mol
# Density = 2.698075 g / cm^3
# Si number density = 27.042304 Si / 1000 Ang^3
#
#
#
# Elastic Constant Matrix: (Units=GPa)
#
#
# Indices 1 2 3 4 5 6 
#
# 1 164.7240 50.4216 47.0694 -22.7212 4.2644 -37.9031
# 2 50.4216 162.9017 42.0499 -25.2589 1.3375 -40.2637
# 3 47.0694 42.0499 86.6035 -28.5589 -2.4792 -5.2874
# 4 -22.7212 -25.2589 -28.5589 46.4640 -2.5005 -1.3626
# 5 4.2644 1.3375 -2.4792 -2.5005 44.8878 -10.4250
# 6 -37.9031 -40.2637 -5.2874 -1.3626 -10.4250 55.9557
#
#
#
# Elastic Compliance Matrix: (Units=1/GPa)
#
#
# Indices 1 2 3 4 5 6 
#
# 1 0.008717 -0.000015 -0.003646 0.002203 0.000413 0.005680
# 2 -0.000015 0.008998 -0.002796 0.003426 0.001285 0.006523
# 3 -0.003646 -0.002796 0.017156 0.007235 0.001209 -0.002459
# 4 0.002203 0.003426 0.007235 0.029249 0.003095 0.005930
# 5 0.000413 0.001285 0.001209 0.003095 0.023793 0.005826
# 6 0.005680 0.006523 -0.002459 0.005930 0.005826 0.027410
#
#
# Mechanical properties :
#
#
# Convention : Reuss Voigt Hill
#
# Bulk Modulus (GPa) = 45.54061 77.03454 61.28757
# Shear Modulus (GPa) = 36.88509 47.77405 42.32957
#
# Velocity S-wave (km/s) = 3.69721 4.20770 3.96069
# Velocity P-wave (km/s) = 5.92477 7.22183 6.60522
#
# Compressibility (1/GPa) = 0.02195842
#
# Stress axis : x y z
#
# Youngs Moduli (GPa) = 114.71569 111.13587 58.28759
#
# Poissons Ratio (x) = 0.00168 0.21249
# Poissons Ratio (y) = 0.00173 0.16297
# Poissons Ratio (z) = 0.41820 0.31073
#
# Static dielectric constant tensor:
#      x y z
#    x 2.181490 0.052030 0.073790 
#    y 0.052030 2.139530 0.017950 
#    z 0.073790 0.017950 2.160120 
# 
# From -- ./inp_files/62848.got.cif
#   From: 2010.05.17/outbox.cif.g08.bks.cpg/sg2_32_cif.got.tgz:62848.got - 2010.06.03 11:33:40.
