data_PCOD9087738
_publ_section_title
;
Structure prediction by ZEFSAII (Michael W. Deem and Ramdas Pophale) SiO2 
 PCOD9087738
Probable space group: P -1
;
_chemical_formula_sum "Si O2"
_cell_formula_units_Z 14
_cell_length_a 8.015487
_cell_length_b 11.880167
_cell_length_c 16.421065
_cell_angle_alpha 37.964671
_cell_angle_beta 41.317696
_cell_angle_gamma 35.149933
_cell_volume 528.212709
_symmetry_space_group_name_H-M "P -1"
_symmetry_group_IT_number 2
_symmetry_cell_setting 'triclinic'
loop_
_space_group_symop_operation_xyz
x,y,z
-x,-y,-z
loop_
_atom_site_type_symbol
_atom_site_label
_atom_site_fract_x
_atom_site_fract_y
_atom_site_fract_z
Si Si1 0.707330 0.737206 0.575066
Si Si2 0.965896 0.202269 0.852076
Si Si3 0.386692 0.831481 0.143076
Si Si4 0.162116 0.759805 0.815480
Si Si5 0.811952 0.481821 0.903317
Si Si6 0.665645 0.657523 0.448480
Si Si7 0.151254 0.661263 0.689249
O O1 0.512788 0.682154 0.735881
O O2 0.687973 0.655386 0.539359
O O3 0.068892 0.584557 0.544724
O O4 0.500000 0.000000 0.500000
O O5 0.690034 0.252780 0.863004
O O6 0.987626 0.323876 0.853864
O O7 0.227067 0.187975 0.709427
O O8 0.000000 0.000000 0.000000
O O9 0.614446 0.606581 0.236004
O O10 0.060284 0.991139 0.214091
O O11 0.500000 0.000000 0.000000
O O12 0.101210 0.753532 0.746340
O O13 0.100808 0.613426 0.981455
O O14 0.838778 0.687736 0.765951
O O15 0.500000 0.500000 0.000000
O O16 0.318101 0.731083 0.526028
#
# Coordination Sequence:
#
# PCOD9087738 Si02
#       7
#     2   2   2   2   2   2   2
#     4  10  19  36  66  97 131 169 221 284 325 390
#     4  12  24  43  65  98 139 176 220 276 342 410
#     4  12  23  41  69 100 133 174 228 282 328 396
#     4  11  22  40  66  98 130 173 225 271 329 391
#     4  12  25  41  65  98 137 180 216 279 345 403
#     4  10  22  40  64  95 134 177 224 274 339 396
#     4  11  24  44  68  99 133 175 231 284 326 399
#
# _framework density 26.504473999999998
#
# number of rings (size 3 to 8) (size 9 to 14) (size 15 to 20)
#    0.000    0.857    2.857    6.429    2.000    0.571 
#    0.000    0.000    0.000    0.857    0.000    0.000 
#    0.000    0.000    0.000    0.000    0.000    0.000 
#
# Total GULP energy -78123.228599 kJ/mol
# GULP energy per Si atom -5580.230614 kJ/mol
# Density = 2.644415 g / cm^3
# Si number density = 26.504474 Si / 1000 Ang^3
#
#
#
# Elastic Constant Matrix: (Units=GPa)
#
#
# Indices 1 2 3 4 5 6 
#
# 1 109.9853 16.6353 30.9107 7.9312 -21.7692 25.1395
# 2 16.6353 117.9346 13.8980 10.3652 2.1667 12.8120
# 3 30.9107 13.8980 184.3169 18.1289 -17.2565 0.9221
# 4 7.9312 10.3652 18.1289 47.3722 -0.3905 -1.8114
# 5 -21.7692 2.1667 -17.2565 -0.3905 31.0100 -1.0894
# 6 25.1395 12.8120 0.9221 -1.8114 -1.0894 28.6317
#
#
#
# Elastic Compliance Matrix: (Units=1/GPa)
#
#
# Indices 1 2 3 4 5 6 
#
# 1 0.014158 -0.000525 -0.001234 -0.002168 0.008841 -0.011957
# 2 -0.000525 0.009225 -0.000541 -0.001882 -0.001472 -0.003825
# 3 -0.001234 -0.000541 0.006101 -0.001946 0.002581 0.001104
# 4 -0.002168 -0.001882 -0.001946 0.022772 -0.002040 0.004171
# 5 0.008841 -0.001472 0.002581 -0.002040 0.039764 -0.005803
# 6 -0.011957 -0.003825 0.001104 0.004171 -0.005803 0.047144
#
#
# Mechanical properties :
#
#
# Convention : Reuss Voigt Hill
#
# Bulk Modulus (GPa) = 40.18664 59.45832 49.82248
# Shear Modulus (GPa) = 32.88246 44.78895 38.83571
#
# Velocity S-wave (km/s) = 3.52609 4.11526 3.83201
# Velocity P-wave (km/s) = 5.63674 6.71286 6.19820
#
# Compressibility (1/GPa) = 0.02488389
#
# Stress axis : x y z
#
# Youngs Moduli (GPa) = 70.63382 108.40073 163.91544
#
# Poissons Ratio (x) = 0.05686 0.20226
# Poissons Ratio (y) = 0.03705 0.08871
# Poissons Ratio (z) = 0.08716 0.05867
#
# Static dielectric constant tensor:
#      x y z
#    x 2.236590 -0.224810 -0.141780 
#    y -0.224810 2.868040 0.445070 
#    z -0.141780 0.445070 2.345900 
# 
# From -- ./inp_files/559623.got.cif
#   From: 2010.05.17/outbox.cif.g08.bks.cpg/sg2_280_cif.got.tgz:559623.got - 2010.06.03 11:33:40.
