data_PCOD9087914
_publ_section_title
;
Structure prediction by ZEFSAII (Michael W. Deem and Ramdas Pophale) SiO2 
 PCOD9087914
Probable space group: P -1
;
_chemical_formula_sum "Si O2"
_cell_formula_units_Z 16
_cell_length_a 7.878078
_cell_length_b 15.703013
_cell_length_c 16.081910
_cell_angle_alpha 139.750460
_cell_angle_beta 131.281379
_cell_angle_gamma 40.915118
_cell_volume 825.537745
_symmetry_space_group_name_H-M "P -1"
_symmetry_group_IT_number 2
_symmetry_cell_setting 'triclinic'
loop_
_space_group_symop_operation_xyz
x,y,z
-x,-y,-z
loop_
_atom_site_type_symbol
_atom_site_label
_atom_site_fract_x
_atom_site_fract_y
_atom_site_fract_z
Si Si1 0.709788 0.728940 0.873192
Si Si2 0.003886 0.101526 0.459883
Si Si3 0.017698 0.849196 0.968540
Si Si4 0.229970 0.561203 0.404612
Si Si5 0.544607 0.127913 0.931174
Si Si6 0.611008 0.027010 0.368535
Si Si7 0.122783 0.879344 0.754136
Si Si8 0.935768 0.654734 0.545670
O O1 0.760915 0.561146 0.747232
O O2 0.426108 0.835423 0.814442
O O3 0.656586 0.789258 0.995694
O O4 0.936454 0.744919 0.914274
O O5 0.834951 0.286009 0.550590
O O6 0.833724 0.035807 0.394618
O O7 0.019751 0.079054 0.349402
O O8 0.272555 0.032004 0.546158
O O9 0.298697 0.781955 0.965264
O O10 0.015306 0.973090 0.123025
O O11 0.773392 0.957601 0.909837
O O12 0.500000 0.500000 0.500000
O O13 0.004025 0.605911 0.434752
O O14 0.435672 0.093187 0.787356
O O15 0.355061 0.199228 0.421243
O O16 0.111920 0.733959 0.678783
O O17 0.000000 0.500000 0.500000
#
# Coordination Sequence:
#
# PCOD9087914 Si02
#       8
#     2   2   2   2   2   2   2   2
#     4  11  21  36  59  88 124 155 198 253 304 351
#     4  10  22  38  63  85 122 161 198 246 311 365
#     4  10  20  34  57  88 116 156 204 253 299 349
#     4  11  22  38  57  90 125 158 193 248 311 356
#     4  10  21  35  59  86 119 155 202 255 293 354
#     4  11  22  40  60  92 116 160 204 248 301 365
#     4  10  19  37  56  90 119 157 196 253 303 352
#     4  11  23  34  61  89 125 154 192 257 301 359
#
# _framework density 19.381308000000001
#
# number of rings (size 3 to 8) (size 9 to 14) (size 15 to 20)
#    0.000    1.500    3.750    3.750    1.750    2.000 
#    0.000    0.625    0.000    0.750    0.000    0.000 
#    0.000    0.000    0.000    0.000    0.000    0.000 
#
# Total GULP energy -89213.118288 kJ/mol
# GULP energy per Si atom -5575.819893 kJ/mol
# Density = 1.933719 g / cm^3
# Si number density = 19.381308 Si / 1000 Ang^3
#
#
#
# Elastic Constant Matrix: (Units=GPa)
#
#
# Indices 1 2 3 4 5 6 
#
# 1 57.2035 3.2363 18.6238 -11.5688 17.3114 6.3842
# 2 3.2363 54.3284 30.3167 -4.3128 1.3897 6.6119
# 3 18.6238 30.3167 89.0008 -7.6469 -6.6348 1.7803
# 4 -11.5688 -4.3128 -7.6469 21.9559 4.4542 0.0489
# 5 17.3114 1.3897 -6.6348 4.4542 33.7531 5.8073
# 6 6.3842 6.6119 1.7803 0.0489 5.8073 22.8392
#
#
#
# Elastic Compliance Matrix: (Units=1/GPa)
#
#
# Indices 1 2 3 4 5 6 
#
# 1 0.029166 0.004841 -0.007525 0.017396 -0.018179 -0.004383
# 2 0.004841 0.024563 -0.009166 0.005183 -0.004857 -0.006526
# 3 -0.007525 -0.009166 0.016314 -0.001583 0.007375 0.001614
# 4 0.017396 0.005183 -0.001583 0.058596 -0.016820 -0.002088
# 5 -0.018179 -0.004857 0.007375 -0.016820 0.043709 -0.005165
# 6 -0.004383 -0.006526 0.001614 -0.002088 -0.005165 0.048091
#
#
# Mechanical properties :
#
#
# Convention : Reuss Voigt Hill
#
# Bulk Modulus (GPa) = 21.57814 33.87626 27.72720
# Shear Modulus (GPa) = 19.26139 25.60002 22.43070
#
# Velocity S-wave (km/s) = 3.15590 3.63831 3.40566
# Velocity P-wave (km/s) = 4.94340 5.93013 5.45911
#
# Compressibility (1/GPa) = 0.04634319
#
# Stress axis : x y z
#
# Youngs Moduli (GPa) = 34.28623 40.71144 61.29580
#
# Poissons Ratio (x) = -0.19709 0.46126
# Poissons Ratio (y) = -0.16598 0.56185
# Poissons Ratio (z) = 0.25801 0.37317
#
# Static dielectric constant tensor:
#      x y z
#    x 1.760420 -0.016330 0.007760 
#    y -0.016330 1.674630 -0.011290 
#    z 0.007760 -0.011290 1.695160 
# 
# From -- ./inp_files/561792.got.cif
#   From: 2010.05.17/outbox.cif.g08.bks.cpg/sg2_281_cif.got.tgz:561792.got - 2010.06.03 11:33:40.
