data_PCOD9087950
_publ_section_title
;
Structure prediction by ZEFSAII (Michael W. Deem and Ramdas Pophale) SiO2 
 PCOD9087950
Probable space group: P -1
;
_chemical_formula_sum "Si O2"
_cell_formula_units_Z 14
_cell_length_a 8.019920
_cell_length_b 12.567114
_cell_length_c 9.105946
_cell_angle_alpha 123.802467
_cell_angle_beta 53.006273
_cell_angle_gamma 107.458618
_cell_volume 608.274508
_symmetry_space_group_name_H-M "P -1"
_symmetry_group_IT_number 2
_symmetry_cell_setting 'triclinic'
loop_
_space_group_symop_operation_xyz
x,y,z
-x,-y,-z
loop_
_atom_site_type_symbol
_atom_site_label
_atom_site_fract_x
_atom_site_fract_y
_atom_site_fract_z
Si Si1 0.592578 0.371233 0.281130
Si Si2 0.821053 0.945838 0.786253
Si Si3 0.990955 0.533350 0.778794
Si Si4 0.263373 0.834196 0.503179
Si Si5 0.894110 0.681568 0.678531
Si Si6 0.534190 0.112205 0.272363
Si Si7 0.614826 0.386424 0.946213
O O1 0.500000 0.500000 0.500000
O O2 0.520416 0.257611 0.334391
O O3 0.842230 0.384479 0.165989
O O4 0.533918 0.367174 0.138013
O O5 0.777288 0.810620 0.783928
O O6 0.674787 0.952481 0.724665
O O7 0.072313 0.931791 0.624657
O O8 0.731371 0.050588 0.028684
O O9 0.855879 0.631793 0.822429
O O10 0.846500 0.443378 0.878763
O O11 0.105171 0.433962 0.526502
O O12 0.416392 0.893625 0.585771
O O13 0.368162 0.748419 0.253077
O O14 0.134635 0.728262 0.581398
O O15 0.500000 0.500000 0.000000
#
# Coordination Sequence:
#
# PCOD9087950 Si02
#       7
#     2   2   2   2   2   2   2
#     4  12  24  37  61  89 117 156 204 247 300 367
#     4   9  20  35  62  90 120 154 204 248 287 361
#     4  10  19  37  57  86 122 154 192 244 304 347
#     4   9  19  39  57  83 124 155 194 247 295 345
#     4   8  17  32  60  82 115 156 186 239 293 350
#     4  11  20  36  63  93 113 159 208 238 297 361
#     4  11  25  37  56  89 124 158 195 250 306 355
#
# _framework density 23.015924999999999
#
# number of rings (size 3 to 8) (size 9 to 14) (size 15 to 20)
#    0.857    1.143    1.429    2.571    6.000    0.000 
#    2.571    0.714    0.000    3.429    0.000    0.000 
#    0.000    0.000    0.000    0.000    0.000    0.000 
#
# Total GULP energy -78115.355357 kJ/mol
# GULP energy per Si atom -5579.668240 kJ/mol
# Density = 2.296354 g / cm^3
# Si number density = 23.015925 Si / 1000 Ang^3
#
#
#
# Elastic Constant Matrix: (Units=GPa)
#
#
# Indices 1 2 3 4 5 6 
#
# 1 103.8252 -2.2306 37.0271 -6.2148 18.1439 -21.1172
# 2 -2.2306 32.7048 4.7584 -10.9090 -2.8626 -3.8109
# 3 37.0271 4.7584 98.1545 -1.5605 -0.1033 -20.4271
# 4 -6.2148 -10.9090 -1.5605 34.1020 -7.9561 -7.8956
# 5 18.1439 -2.8626 -0.1033 -7.9561 35.6532 4.8452
# 6 -21.1172 -3.8109 -20.4271 -7.8956 4.8452 20.2520
#
#
#
# Elastic Compliance Matrix: (Units=1/GPa)
#
#
# Indices 1 2 3 4 5 6 
#
# 1 0.017139 0.005835 -0.001994 0.007835 -0.009541 0.022295
# 2 0.005835 0.039899 0.000599 0.019159 0.001619 0.021279
# 3 -0.001994 0.000599 0.013721 0.003542 0.000095 0.013232
# 4 0.007835 0.019159 0.003542 0.045266 0.003285 0.032209
# 5 -0.009541 0.001619 0.000095 0.003285 0.036063 -0.016895
# 6 0.022295 0.021279 0.013232 0.032209 -0.016895 0.106576
#
#
# Mechanical properties :
#
#
# Convention : Reuss Voigt Hill
#
# Bulk Modulus (GPa) = 12.55641 34.86605 23.71123
# Shear Modulus (GPa) = 18.09434 31.01006 24.55220
#
# Velocity S-wave (km/s) = 2.80691 3.67458 3.26965
# Velocity P-wave (km/s) = 3.99654 5.76064 4.95769
#
# Compressibility (1/GPa) = 0.07964060
#
# Stress axis : x y z
#
# Youngs Moduli (GPa) = 58.34649 25.06318 72.87992
#
# Poissons Ratio (x) = -0.14625 0.14531
# Poissons Ratio (y) = -0.34047 -0.04367
# Poissons Ratio (z) = 0.11633 -0.01502
#
# Static dielectric constant tensor:
#      x y z
#    x 2.056540 0.046230 -0.029900 
#    y 0.046230 1.834330 0.001660 
#    z -0.029900 0.001660 1.810920 
# 
# From -- ./inp_files/204688.got.cif
#   From: 2010.05.17/outbox.cif.g08.bks.cpg/sg2_103_cif.got.tgz:204688.got - 2010.06.03 11:33:40.
