data_PCOD9087019
_publ_section_title
;
Structure prediction by ZEFSAII (Michael W. Deem and Ramdas Pophale) SiO2 
 PCOD9087019
Probable space group: P -1
;
_chemical_formula_sum "Si O2"
_cell_formula_units_Z 16
_cell_length_a 12.715643
_cell_length_b 11.453769
_cell_length_c 7.115929
_cell_angle_alpha 100.436052
_cell_angle_beta 60.813225
_cell_angle_gamma 137.356598
_cell_volume 584.656918
_symmetry_space_group_name_H-M "P -1"
_symmetry_group_IT_number 2
_symmetry_cell_setting 'triclinic'
loop_
_space_group_symop_operation_xyz
x,y,z
-x,-y,-z
loop_
_atom_site_type_symbol
_atom_site_label
_atom_site_fract_x
_atom_site_fract_y
_atom_site_fract_z
Si Si1 0.828813 0.303614 0.001468
Si Si2 0.127274 0.262273 0.340132
Si Si3 0.676674 0.425989 0.186934
Si Si4 0.550951 0.027461 0.739525
Si Si5 0.031672 0.221010 0.794273
Si Si6 0.706940 0.807389 0.070181
Si Si7 0.681146 0.371182 0.621656
Si Si8 0.710660 0.882536 0.508857
O O1 0.732005 0.347195 0.008237
O O2 0.654954 0.119197 0.211874
O O3 0.000000 0.500000 0.000000
O O4 0.922547 0.256563 0.820481
O O5 0.158532 0.260161 0.533941
O O6 0.260986 0.288585 0.099009
O O7 0.170981 0.434896 0.348324
O O8 0.919714 0.061679 0.438334
O O9 0.843155 0.642296 0.103166
O O10 0.682072 0.395394 0.400370
O O11 0.469155 0.307004 0.286687
O O12 0.679602 0.230918 0.624495
O O13 0.637999 0.966327 0.590951
O O14 0.500000 0.000000 0.000000
O O15 0.875463 0.015485 0.925706
O O16 0.515079 0.725946 0.168588
O O17 0.717454 0.816715 0.288506
#
# Coordination Sequence:
#
# PCOD9087019 Si02
#       8
#     2   2   2   2   2   2   2   2
#     4   9  17  33  58  85 116 147 188 242 292 349
#     4  11  23  42  58  88 124 162 202 242 294 354
#     4   8  19  36  58  88 121 153 193 242 303 360
#     4  11  22  39  60  91 124 151 193 250 309 356
#     4  10  19  36  61  89 114 157 206 240 289 352
#     4  11  22  40  65  87 117 161 208 247 285 351
#     4  10  22  39  63  87 117 161 200 245 298 356
#     4  10  23  39  61  87 126 154 193 251 307 350
#
# _framework density 27.366474
#
# number of rings (size 3 to 8) (size 9 to 14) (size 15 to 20)
#    0.000    2.000    1.250    1.875    1.750    2.000 
#    6.750    0.625    0.000    0.000    0.000    0.000 
#    0.000    0.000    0.000    0.000    0.000    0.000 
#
# Total GULP energy -89405.165803 kJ/mol
# GULP energy per Si atom -5587.822863 kJ/mol
# Density = 2.730419 g / cm^3
# Si number density = 27.366474 Si / 1000 Ang^3
#
#
#
# Elastic Constant Matrix: (Units=GPa)
#
#
# Indices 1 2 3 4 5 6 
#
# 1 59.0597 8.5009 47.9871 9.6770 -16.5583 1.6531
# 2 8.5009 159.7154 29.1933 1.9405 -13.9885 8.2683
# 3 47.9871 29.1933 99.6557 21.1844 -11.3858 -8.0045
# 4 9.6770 1.9405 21.1844 52.4638 6.2697 -3.4515
# 5 -16.5583 -13.9885 -11.3858 6.2697 50.2200 -4.2912
# 6 1.6531 8.2683 -8.0045 -3.4515 -4.2912 38.6406
#
#
#
# Elastic Compliance Matrix: (Units=1/GPa)
#
#
# Indices 1 2 3 4 5 6 
#
# 1 0.030921 0.001900 -0.014757 -0.000937 0.007147 -0.004076
# 2 0.001900 0.006950 -0.002972 0.000261 0.001687 -0.001973
# 3 -0.014757 -0.002972 0.019346 -0.004624 -0.000318 0.004826
# 4 -0.000937 0.000261 -0.004624 0.021596 -0.003936 0.000518
# 5 0.007147 0.001687 -0.000318 -0.003936 0.023287 0.001502
# 6 -0.004076 -0.001973 0.004826 0.000518 0.001502 0.027689
#
#
# Mechanical properties :
#
#
# Convention : Reuss Voigt Hill
#
# Bulk Modulus (GPa) = 39.12773 54.42148 46.77460
# Shear Modulus (GPa) = 29.41767 43.78151 36.59959
#
# Velocity S-wave (km/s) = 3.28220 4.00412 3.66100
# Velocity P-wave (km/s) = 5.35654 6.42702 5.91605
#
# Compressibility (1/GPa) = 0.02555732
#
# Stress axis : x y z
#
# Youngs Moduli (GPa) = 32.34079 143.88425 51.69116
#
# Poissons Ratio (x) = -0.27339 0.76283
# Poissons Ratio (y) = -0.06145 0.15363
# Poissons Ratio (z) = 0.47727 0.42764
#
# Static dielectric constant tensor:
#      x y z
#    x 2.285450 -0.000160 0.099340 
#    y -0.000160 2.162290 -0.027470 
#    z 0.099340 -0.027470 2.157900 
# 
# From -- ./inp_files/294439.got.cif
#   From: 2010.05.17/outbox.cif.g08.bks.cpg/sg2_148_cif.got.tgz:294439.got - 2010.06.03 11:33:40.
