data_PCOD9087331
_publ_section_title
;
Structure prediction by ZEFSAII (Michael W. Deem and Ramdas Pophale) SiO2 
 PCOD9087331
Probable space group: P -1
;
_chemical_formula_sum "Si O2"
_cell_formula_units_Z 16
_cell_length_a 5.340233
_cell_length_b 18.664495
_cell_length_c 9.176796
_cell_angle_alpha 54.122808
_cell_angle_beta 77.097625
_cell_angle_gamma 90.678457
_cell_volume 710.538049
_symmetry_space_group_name_H-M "P -1"
_symmetry_group_IT_number 2
_symmetry_cell_setting 'triclinic'
loop_
_space_group_symop_operation_xyz
x,y,z
-x,-y,-z
loop_
_atom_site_type_symbol
_atom_site_label
_atom_site_fract_x
_atom_site_fract_y
_atom_site_fract_z
Si Si1 0.014984 0.587362 0.797128
Si Si2 0.993256 0.237388 0.254937
Si Si3 0.266773 0.074301 0.503732
Si Si4 0.222219 0.940569 0.059946
Si Si5 0.215247 0.887052 0.802329
Si Si6 0.057908 0.410803 0.522111
Si Si7 0.575705 0.158924 0.614986
Si Si8 0.539520 0.327116 0.570542
O O1 0.869110 0.570659 0.680630
O O2 0.909222 0.662627 0.819135
O O3 0.307614 0.622388 0.650882
O O4 0.000000 0.500000 0.000000
O O5 0.938122 0.206069 0.133167
O O6 0.712862 0.215773 0.395120
O O7 0.140796 0.161371 0.389263
O O8 0.498150 0.086329 0.339609
O O9 0.391464 0.082173 0.641524
O O10 0.094723 0.973543 0.655911
O O11 0.199443 0.872012 0.279963
O O12 0.231687 0.887975 0.971263
O O13 0.500000 0.000000 0.000000
O O14 0.000000 0.000000 0.000000
O O15 0.300226 0.371569 0.600650
O O16 0.000000 0.500000 0.500000
O O17 0.782704 0.340623 0.635059
O O18 0.445439 0.224005 0.657336
#
# Coordination Sequence:
#
# PCOD9087331 Si02
#       8
#     2   2   2   2   2   2   2   2
#     4   9  21  39  60  91 123 160 201 259 316 364
#     4  10  20  38  62  89 117 164 209 254 304 375
#     4  10  19  36  63  84 122 156 210 246 305 361
#     4  12  26  41  60  89 127 164 205 253 309 361
#     4  10  22  36  57  90 120 160 202 252 303 365
#     4  10  20  39  64  88 121 157 208 251 307 370
#     4  10  21  38  61  88 121 164 206 253 304 367
#     4   9  21  37  64  90 119 160 209 247 306 371
#
# _framework density 22.518146000000002
#
# number of rings (size 3 to 8) (size 9 to 14) (size 15 to 20)
#    0.750    1.250    1.250    2.250    1.750    0.500 
#    2.250    1.250    0.000    0.000    0.000    0.000 
#    0.000    0.000    0.000    0.000    0.000    0.000 
#
# Total GULP energy -89105.283426 kJ/mol
# GULP energy per Si atom -5569.080214 kJ/mol
# Density = 2.246689 g / cm^3
# Si number density = 22.518146 Si / 1000 Ang^3
#
#
#
# Elastic Constant Matrix: (Units=GPa)
#
#
# Indices 1 2 3 4 5 6 
#
# 1 88.2112 31.8280 2.5883 12.5485 8.4971 -16.1771
# 2 31.8280 166.7093 24.1995 13.5581 10.3184 -5.7726
# 3 2.5883 24.1995 42.6200 17.7890 7.4479 9.4697
# 4 12.5485 13.5581 17.7890 34.8775 3.0222 10.8114
# 5 8.4971 10.3184 7.4479 3.0222 16.7319 2.8508
# 6 -16.1771 -5.7726 9.4697 10.8114 2.8508 31.5791
#
#
#
# Elastic Compliance Matrix: (Units=1/GPa)
#
#
# Indices 1 2 3 4 5 6 
#
# 1 0.016051 -0.001841 0.002988 -0.009229 -0.008540 0.010920
# 2 -0.001841 0.007133 -0.003752 -0.000604 -0.002004 0.001873
# 3 0.002988 -0.003752 0.034445 -0.015199 -0.011234 -0.003266
# 4 -0.009229 -0.000604 -0.015199 0.044393 0.006544 -0.016069
# 5 -0.008540 -0.002004 -0.011234 0.006544 0.070863 -0.010010
# 6 0.010920 0.001873 -0.003266 -0.016069 -0.010010 0.044988
#
#
# Mechanical properties :
#
#
# Convention : Reuss Voigt Hill
#
# Bulk Modulus (GPa) = 19.07695 46.08577 32.58136
# Shear Modulus (GPa) = 20.78527 32.56603 26.67565
#
# Velocity S-wave (km/s) = 3.04146 3.80704 3.44558
# Velocity P-wave (km/s) = 4.56335 6.31151 5.50724
#
# Compressibility (1/GPa) = 0.05241928
#
# Stress axis : x y z
#
# Youngs Moduli (GPa) = 62.30086 140.20125 29.03171
#
# Poissons Ratio (x) = 0.25811 -0.08676
# Poissons Ratio (y) = 0.11470 0.10893
# Poissons Ratio (z) = -0.18619 0.52607
#
# Static dielectric constant tensor:
#      x y z
#    x 1.933980 0.039920 0.003960 
#    y 0.039920 1.964130 0.004720 
#    z 0.003960 0.004720 1.928920 
# 
# From -- ./inp_files/137342.got.cif
#   From: 2010.05.17/outbox.cif.g08.bks.cpg/sg2_69_cif.got.tgz:137342.got - 2010.06.03 11:33:40.
