data_PCOD9087411
_publ_section_title
;
Structure prediction by ZEFSAII (Michael W. Deem and Ramdas Pophale) SiO2 
 PCOD9087411
Probable space group: P -1
;
_chemical_formula_sum "Si O2"
_cell_formula_units_Z 14
_cell_length_a 8.935031
_cell_length_b 11.081555
_cell_length_c 10.633787
_cell_angle_alpha 121.480826
_cell_angle_beta 138.846905
_cell_angle_gamma 74.424997
_cell_volume 576.127670
_symmetry_space_group_name_H-M "P -1"
_symmetry_group_IT_number 2
_symmetry_cell_setting 'triclinic'
loop_
_space_group_symop_operation_xyz
x,y,z
-x,-y,-z
loop_
_atom_site_type_symbol
_atom_site_label
_atom_site_fract_x
_atom_site_fract_y
_atom_site_fract_z
Si Si1 0.500890 0.333645 0.520999
Si Si2 0.857582 0.613666 0.417263
Si Si3 0.027777 0.404662 0.799634
Si Si4 0.495828 0.394996 0.186231
Si Si5 0.121515 0.098447 0.013661
Si Si6 0.753051 0.174818 0.112714
Si Si7 0.739224 0.255224 0.859831
O O1 0.763819 0.357203 0.649411
O O2 0.440193 0.490462 0.596202
O O3 0.313719 0.233800 0.260650
O O4 0.528526 0.256408 0.631490
O O5 0.599819 0.512165 0.205547
O O6 0.000000 0.500000 0.500000
O O7 0.930391 0.651352 0.342334
O O8 0.972589 0.749182 0.650624
O O9 0.109269 0.579698 0.946382
O O10 0.219088 0.354490 0.980298
O O11 0.608574 0.258140 0.159543
O O12 0.903933 0.155489 0.853693
O O13 0.253079 0.993689 0.963655
O O14 0.000000 0.000000 0.000000
O O15 0.680007 0.205041 0.939486
#
# Coordination Sequence:
#
# PCOD9087411 Si02
#       7
#     2   2   2   2   2   2   2
#     4  11  25  40  65  93 128 163 204 258 316 364
#     4  10  19  36  63  91 121 160 208 255 303 360
#     4  11  22  39  60  98 126 157 205 260 315 364
#     4  10  19  37  64  92 118 158 207 259 300 359
#     4  10  23  43  62  90 127 168 208 250 305 377
#     4  10  21  38  62  95 119 159 216 255 298 362
#     4  10  20  40  64  95 124 158 210 253 310 367
#
# _framework density 24.300169
#
# number of rings (size 3 to 8) (size 9 to 14) (size 15 to 20)
#    0.000    1.714    2.857    3.857    4.000    2.857 
#    7.714    1.429    0.000    0.000    0.000    0.000 
#    0.000    0.000    0.000    0.000    0.000    0.000 
#
# Total GULP energy -78204.139435 kJ/mol
# GULP energy per Si atom -5586.009960 kJ/mol
# Density = 2.424486 g / cm^3
# Si number density = 24.300169 Si / 1000 Ang^3
#
#
#
# Elastic Constant Matrix: (Units=GPa)
#
#
# Indices 1 2 3 4 5 6 
#
# 1 85.3292 25.7268 18.3643 7.0943 7.5604 -23.7628
# 2 25.7268 127.4682 40.5610 0.8870 -3.0330 -49.7610
# 3 18.3643 40.5610 92.5667 -2.8582 -4.4574 -16.0439
# 4 7.0943 0.8870 -2.8582 36.9770 -4.5278 -8.2856
# 5 7.5604 -3.0330 -4.4574 -4.5278 41.1585 -1.1313
# 6 -23.7628 -49.7610 -16.0439 -8.2856 -1.1313 47.8507
#
#
#
# Elastic Compliance Matrix: (Units=1/GPa)
#
#
# Indices 1 2 3 4 5 6 
#
# 1 0.014230 0.000090 -0.002001 -0.001871 -0.002862 0.006098
# 2 0.000090 0.014763 -0.003798 0.002783 0.001368 0.014638
# 3 -0.002001 -0.003798 0.012945 0.001615 0.001660 -0.000284
# 4 -0.001871 0.002783 0.001615 0.029713 0.004205 0.007750
# 5 -0.002862 0.001368 0.001660 0.004205 0.025617 0.001892
# 6 0.006098 0.014638 -0.000284 0.007750 0.001892 0.040440
#
#
# Mechanical properties :
#
#
# Convention : Reuss Voigt Hill
#
# Bulk Modulus (GPa) = 32.76569 52.74090 42.75329
# Shear Modulus (GPa) = 31.38751 39.91137 35.64944
#
# Velocity S-wave (km/s) = 3.59786 4.05709 3.83436
# Velocity P-wave (km/s) = 5.54730 6.61042 6.10206
#
# Compressibility (1/GPa) = 0.03051973
#
# Stress axis : x y z
#
# Youngs Moduli (GPa) = 70.27320 67.73745 77.25143
#
# Poissons Ratio (x) = -0.00611 0.15461
# Poissons Ratio (y) = -0.00633 0.29339
# Poissons Ratio (z) = 0.14064 0.25726
#
# Static dielectric constant tensor:
#      x y z
#    x 2.120390 -0.001380 0.001930 
#    y -0.001380 1.966820 -0.001070 
#    z 0.001930 -0.001070 1.930730 
# 
# From -- ./inp_files/399701.got.cif
#   From: 2010.05.17/outbox.cif.g08.bks.cpg/sg2_200_cif.got.tgz:399701.got - 2010.06.03 11:33:40.
