data_PCOD9087415
_publ_section_title
;
Structure prediction by ZEFSAII (Michael W. Deem and Ramdas Pophale) SiO2 
 PCOD9087415
Probable space group: P -1
;
_chemical_formula_sum "Si O2"
_cell_formula_units_Z 16
_cell_length_a 12.685383
_cell_length_b 11.260611
_cell_length_c 9.046136
_cell_angle_alpha 137.366915
_cell_angle_beta 46.647512
_cell_angle_gamma 126.170393
_cell_volume 626.819776
_symmetry_space_group_name_H-M "P -1"
_symmetry_group_IT_number 2
_symmetry_cell_setting 'triclinic'
loop_
_space_group_symop_operation_xyz
x,y,z
-x,-y,-z
loop_
_atom_site_type_symbol
_atom_site_label
_atom_site_fract_x
_atom_site_fract_y
_atom_site_fract_z
Si Si1 0.438794 0.591598 0.781329
Si Si2 0.838071 0.527697 0.218428
Si Si3 0.898697 0.851092 0.264893
Si Si4 0.812160 0.042771 0.061450
Si Si5 0.671833 0.649624 0.064579
Si Si6 0.858396 0.627652 0.611205
Si Si7 0.834325 0.183497 0.498511
Si Si8 0.516873 0.862809 0.172896
O O1 0.500000 0.500000 0.500000
O O2 0.275160 0.602237 0.893116
O O3 0.422224 0.471603 0.834825
O O4 0.532010 0.771591 0.915687
O O5 0.836934 0.730116 0.349794
O O6 0.803762 0.525655 0.421778
O O7 0.000000 0.500000 0.000000
O O8 0.800239 0.767142 0.143784
O O9 0.876816 0.053752 0.467919
O O10 0.070041 0.849946 0.065151
O O11 0.857817 0.110567 0.243898
O O12 0.637813 0.042606 0.213048
O O13 0.832551 0.834918 0.832803
O O14 0.573824 0.763127 0.168251
O O15 0.756898 0.545325 0.769258
O O16 0.035383 0.644850 0.459393
O O17 0.658139 0.159568 0.661325
#
# Coordination Sequence:
#
# PCOD9087415 Si02
#       8
#     2   2   2   2   2   2   2   2
#     4  11  24  45  62  87 132 169 203 257 310 373
#     4  11  25  44  63  90 127 164 214 262 298 366
#     4  10  20  40  63  89 123 169 200 253 323 355
#     4  10  19  36  63  91 127 158 201 257 306 368
#     4  10  20  40  66  88 120 168 212 244 316 371
#     4  10  19  39  67  87 119 165 210 254 311 366
#     4  11  19  36  64  97 131 148 207 270 302 369
#     4  11  22  35  64  98 124 163 206 255 310 372
#
# _framework density 25.525677999999999
#
# number of rings (size 3 to 8) (size 9 to 14) (size 15 to 20)
#    0.000    1.500    3.750    3.750    0.000    2.000 
#    4.500    1.875    0.000    6.000    0.000    0.000 
#    0.000    0.000    0.000    0.000    0.000    0.000 
#
# Total GULP energy -89444.551913 kJ/mol
# GULP energy per Si atom -5590.284495 kJ/mol
# Density = 2.546758 g / cm^3
# Si number density = 25.525678 Si / 1000 Ang^3
#
#
#
# Elastic Constant Matrix: (Units=GPa)
#
#
# Indices 1 2 3 4 5 6 
#
# 1 116.3354 25.8974 31.7981 -14.9109 -10.8290 26.4976
# 2 25.8974 65.1281 9.4611 -23.1362 0.5881 13.2537
# 3 31.7981 9.4611 86.6362 -27.0035 2.6579 -8.6626
# 4 -14.9109 -23.1362 -27.0035 32.4786 9.5012 -1.4489
# 5 -10.8290 0.5881 2.6579 9.5012 50.8865 -6.9244
# 6 26.4976 13.2537 -8.6626 -1.4489 -6.9244 37.1977
#
#
#
# Elastic Compliance Matrix: (Units=1/GPa)
#
#
# Indices 1 2 3 4 5 6 
#
# 1 0.013028 -0.003406 -0.006264 -0.002767 0.002406 -0.009186
# 2 -0.003406 0.024957 0.004977 0.021894 -0.006122 -0.005594
# 3 -0.006264 0.004977 0.020169 0.019239 -0.005057 0.007194
# 4 -0.002767 0.021894 0.019239 0.065207 -0.014220 -0.001457
# 5 0.002406 -0.006122 -0.005057 -0.014220 0.023579 0.003125
# 6 -0.009186 -0.005594 0.007194 -0.001457 0.003125 0.037620
#
#
# Mechanical properties :
#
#
# Convention : Reuss Voigt Hill
#
# Bulk Modulus (GPa) = 20.50499 44.71256 32.60877
# Shear Modulus (GPa) = 23.78680 37.50878 30.64779
#
# Velocity S-wave (km/s) = 3.05598 3.83750 3.46882
# Velocity P-wave (km/s) = 4.52797 6.09836 5.37087
#
# Compressibility (1/GPa) = 0.04876861
#
# Stress axis : x y z
#
# Youngs Moduli (GPa) = 76.75988 40.06893 49.58053
#
# Poissons Ratio (x) = 0.13646 0.31058
# Poissons Ratio (y) = 0.26141 -0.24677
# Poissons Ratio (z) = 0.48084 -0.19943
#
# Static dielectric constant tensor:
#      x y z
#    x 2.012680 -0.016480 -0.097540 
#    y -0.016480 2.109350 0.041370 
#    z -0.097540 0.041370 2.082630 
# 
# From -- ./inp_files/263307.got.cif
#   From: 2010.05.17/outbox.cif.g08.bks.cpg/sg2_132_cif.got.tgz:263307.got - 2010.06.03 11:33:40.
