data_PCOD9087303
_publ_section_title
;
Structure prediction by ZEFSAII (Michael W. Deem and Ramdas Pophale) SiO2 
 PCOD9087303
Probable space group: P -1
;
_chemical_formula_sum "Si O2"
_cell_formula_units_Z 16
_cell_length_a 7.955517
_cell_length_b 22.117241
_cell_length_c 6.102551
_cell_angle_alpha 128.442058
_cell_angle_beta 61.173936
_cell_angle_gamma 127.284291
_cell_volume 659.480950
_symmetry_space_group_name_H-M "P -1"
_symmetry_group_IT_number 2
_symmetry_cell_setting 'triclinic'
loop_
_space_group_symop_operation_xyz
x,y,z
-x,-y,-z
loop_
_atom_site_type_symbol
_atom_site_label
_atom_site_fract_x
_atom_site_fract_y
_atom_site_fract_z
Si Si1 0.869597 0.366372 0.305823
Si Si2 0.068054 0.725702 0.312073
Si Si3 0.427523 0.043362 0.834583
Si Si4 0.352238 0.343501 0.324125
Si Si5 0.670390 0.493943 0.709430
Si Si6 0.831064 0.779971 0.202763
Si Si7 0.802558 0.114408 0.119274
Si Si8 0.535026 0.784924 0.738983
O O1 0.782049 0.434154 0.586751
O O2 0.711798 0.275500 0.310813
O O3 0.126312 0.416879 0.278584
O O4 0.837820 0.333611 0.996075
O O5 0.874439 0.667560 0.463138
O O6 0.971929 0.757803 0.239779
O O7 0.207120 0.813269 0.551763
O O8 0.500000 0.000000 0.500000
O O9 0.221331 0.966742 0.902491
O O10 0.609746 0.079752 0.989549
O O11 0.420107 0.130411 0.961439
O O12 0.534726 0.437948 0.464887
O O13 0.401505 0.279202 0.307047
O O14 0.329990 0.306990 0.013915
O O15 0.500000 0.500000 0.000000
O O16 0.690929 0.815868 0.503375
O O17 0.981911 0.841127 0.057573
#
# Coordination Sequence:
#
# PCOD9087303 Si02
#       8
#     2   2   2   2   2   2   2   2
#     4  10  20  35  64  91 124 169 208 256 320 368
#     4  10  19  39  63  87 124 164 209 256 308 372
#     4  11  23  40  60  90 125 157 210 262 311 375
#     4   9  20  38  62  88 121 167 203 257 318 370
#     4  10  19  36  62  96 126 162 210 261 316 374
#     4  10  21  39  61  88 123 163 213 256 309 373
#     4  10  22  38  63  90 119 167 205 256 319 366
#     4  10  22  38  60  89 124 162 208 258 309 377
#
# _framework density 24.261503999999999
#
# number of rings (size 3 to 8) (size 9 to 14) (size 15 to 20)
#    0.000    2.000    1.250    2.250    0.000    4.500 
#    0.000   10.000    0.000    0.000    0.000    0.000 
#    0.000    0.000    0.000    0.000    0.000    0.000 
#
# Total GULP energy -89412.969928 kJ/mol
# GULP energy per Si atom -5588.310621 kJ/mol
# Density = 2.420628 g / cm^3
# Si number density = 24.261504 Si / 1000 Ang^3
#
#
#
# Elastic Constant Matrix: (Units=GPa)
#
#
# Indices 1 2 3 4 5 6 
#
# 1 51.9664 45.2101 38.7835 3.4504 -0.0863 15.8927
# 2 45.2101 119.1222 66.1895 11.9745 -11.1760 -3.6403
# 3 38.7835 66.1895 165.7267 14.4326 -9.7658 21.6553
# 4 3.4504 11.9745 14.4326 41.0787 10.2132 -0.5101
# 5 -0.0863 -11.1760 -9.7658 10.2132 50.6775 0.9531
# 6 15.8927 -3.6403 21.6553 -0.5101 0.9531 30.3461
#
#
#
# Elastic Compliance Matrix: (Units=1/GPa)
#
#
# Indices 1 2 3 4 5 6 
#
# 1 0.040743 -0.016534 -0.000335 0.002136 -0.003641 -0.022931
# 2 -0.016534 0.018440 -0.004894 -0.002941 0.003421 0.014207
# 3 -0.000335 -0.004894 0.009263 -0.002207 0.001283 -0.007099
# 4 0.002136 -0.002941 -0.002207 0.027452 -0.006617 0.000773
# 5 -0.003641 0.003421 0.001283 -0.006617 0.022050 0.000597
# 6 -0.022931 0.014207 -0.007099 0.000773 0.000597 0.051727
#
#
# Mechanical properties :
#
#
# Convention : Reuss Voigt Hill
#
# Bulk Modulus (GPa) = 40.13025 70.79792 55.46409
# Shear Modulus (GPa) = 22.57274 36.86262 29.71768
#
# Velocity S-wave (km/s) = 3.05354 3.90216 3.50364
# Velocity P-wave (km/s) = 5.38598 7.03896 6.26721
#
# Compressibility (1/GPa) = 0.02491886
#
# Stress axis : x y z
#
# Youngs Moduli (GPa) = 24.54429 54.23057 107.96176
#
# Poissons Ratio (x) = 0.89663 0.03621
# Poissons Ratio (y) = 0.40581 0.52837
# Poissons Ratio (z) = 0.00823 0.26541
#
# Static dielectric constant tensor:
#      x y z
#    x 2.049450 -0.008580 -0.021900 
#    y -0.008580 1.948820 0.005770 
#    z -0.021900 0.005770 1.908600 
# 
# From -- ./inp_files/55693.got.cif
#   From: 2010.05.17/outbox.cif.g08.bks.cpg/sg2_28_cif.got.tgz:55693.got - 2010.06.03 11:33:40.
