data_PCOD9087042
_publ_section_title
;
Structure prediction by ZEFSAII (Michael W. Deem and Ramdas Pophale) SiO2 
 PCOD9087042
Probable space group: P -1
;
_chemical_formula_sum "Si O2"
_cell_formula_units_Z 14
_cell_length_a 8.312243
_cell_length_b 17.201050
_cell_length_c 16.442459
_cell_angle_alpha 149.874102
_cell_angle_beta 40.613436
_cell_angle_gamma 147.478123
_cell_volume 630.472141
_symmetry_space_group_name_H-M "P -1"
_symmetry_group_IT_number 2
_symmetry_cell_setting 'triclinic'
loop_
_space_group_symop_operation_xyz
x,y,z
-x,-y,-z
loop_
_atom_site_type_symbol
_atom_site_label
_atom_site_fract_x
_atom_site_fract_y
_atom_site_fract_z
Si Si1 0.274374 0.154547 0.634717
Si Si2 0.072021 0.620204 0.453326
Si Si3 0.750549 0.762850 0.469162
Si Si4 0.816778 0.234017 0.281066
Si Si5 0.766272 0.000384 0.943860
Si Si6 0.153055 0.326154 0.976213
Si Si7 0.669242 0.423616 0.284058
O O1 0.628198 0.256866 0.604187
O O2 0.256477 0.207479 0.597111
O O3 0.117477 0.227294 0.815276
O O4 0.083833 0.931514 0.520201
O O5 0.107048 0.738470 0.627486
O O6 0.048828 0.436620 0.332588
O O7 0.787016 0.529968 0.421898
O O8 0.504011 0.792885 0.627060
O O9 0.669212 0.562424 0.345792
O O10 0.795318 0.070736 0.089111
O O11 0.064485 0.165545 0.932585
O O12 0.641670 0.783345 0.784904
O O13 0.500000 0.000000 0.000000
O O14 0.500000 0.500000 0.000000
O O15 0.927539 0.389195 0.130620
#
# Coordination Sequence:
#
# PCOD9087042 Si02
#       7
#     2   2   2   2   2   2   2
#     4  10  21  41  60  83 117 166 193 233 310 358
#     4  10  20  36  61  88 114 156 198 243 287 357
#     4  10  23  38  62  87 118 153 202 248 291 353
#     4  10  19  39  62  82 117 161 195 234 298 361
#     4  10  19  36  61  90 114 158 197 239 294 355
#     4  11  20  38  62  86 120 161 193 238 296 361
#     4  11  22  38  60  96 116 148 206 254 285 342
#
# _framework density 22.205580000000001
#
# number of rings (size 3 to 8) (size 9 to 14) (size 15 to 20)
#    0.000    1.714    4.286    1.714    0.000    1.714 
#    0.000    0.000    0.000    8.571    0.000    0.000 
#    0.000    0.000    0.000    0.000    0.000    0.000 
#
# Total GULP energy -78205.837371 kJ/mol
# GULP energy per Si atom -5586.131241 kJ/mol
# Density = 2.215504 g / cm^3
# Si number density = 22.205580 Si / 1000 Ang^3
#
#
#
# Elastic Constant Matrix: (Units=GPa)
#
#
# Indices 1 2 3 4 5 6 
#
# 1 55.9414 37.9680 34.0556 10.8715 -1.9067 10.6864
# 2 37.9680 168.4187 64.9091 23.8051 -2.3614 5.7211
# 3 34.0556 64.9091 105.5599 14.0201 22.5924 0.2917
# 4 10.8715 23.8051 14.0201 39.3238 -2.0826 1.2903
# 5 -1.9067 -2.3614 22.5924 -2.0826 35.3660 3.6527
# 6 10.6864 5.7211 0.2917 1.2903 3.6527 31.5971
#
#
#
# Elastic Compliance Matrix: (Units=1/GPa)
#
#
# Indices 1 2 3 4 5 6 
#
# 1 0.027182 -0.001901 -0.008939 -0.002445 0.007894 -0.009579
# 2 -0.001901 0.008897 -0.005319 -0.002718 0.003859 -0.001254
# 3 -0.008939 -0.005319 0.018750 -0.001887 -0.013489 0.005450
# 4 -0.002445 -0.002718 -0.001887 0.028566 0.002588 -0.000129
# 5 0.007894 0.003859 -0.013489 0.002588 0.038534 -0.007804
# 6 -0.009579 -0.001254 0.005450 -0.000129 -0.007804 0.035972
#
#
# Mechanical properties :
#
#
# Convention : Reuss Voigt Hill
#
# Bulk Modulus (GPa) = 44.42140 67.08726 55.75433
# Shear Modulus (GPa) = 25.28797 34.12322 29.70559
#
# Velocity S-wave (km/s) = 3.37829 3.92432 3.66150
# Velocity P-wave (km/s) = 5.93845 7.12820 6.56035
#
# Compressibility (1/GPa) = 0.02251167
#
# Stress axis : x y z
#
# Youngs Moduli (GPa) = 36.78927 112.39747 53.33290
#
# Poissons Ratio (x) = 0.21369 0.47673
# Poissons Ratio (y) = 0.06994 0.28366
# Poissons Ratio (z) = 0.32885 0.59781
#
# Static dielectric constant tensor:
#      x y z
#    x 1.822950 0.039870 0.032570 
#    y 0.039870 1.864170 -0.001320 
#    z 0.032570 -0.001320 1.851520 
# 
# From -- ./inp_files/447885.got.cif
#   From: 2010.05.17/outbox.cif.g08.bks.cpg/sg2_224_cif.got.tgz:447885.got - 2010.06.03 11:33:40.
