data_PCOD9087910
_publ_section_title
;
Structure prediction by ZEFSAII (Michael W. Deem and Ramdas Pophale) SiO2 
 PCOD9087910
Probable space group: P -1
;
_chemical_formula_sum "Si O2"
_cell_formula_units_Z 16
_cell_length_a 20.542596
_cell_length_b 7.985078
_cell_length_c 19.530444
_cell_angle_alpha 136.798268
_cell_angle_beta 158.501158
_cell_angle_gamma 38.053615
_cell_volume 723.607586
_symmetry_space_group_name_H-M "P -1"
_symmetry_group_IT_number 2
_symmetry_cell_setting 'triclinic'
loop_
_space_group_symop_operation_xyz
x,y,z
-x,-y,-z
loop_
_atom_site_type_symbol
_atom_site_label
_atom_site_fract_x
_atom_site_fract_y
_atom_site_fract_z
Si Si1 0.990435 0.269122 0.513112
Si Si2 0.646292 0.237382 0.227917
Si Si3 0.586335 0.081201 0.910022
Si Si4 0.469215 0.099230 0.347467
Si Si5 0.020248 0.174287 0.733454
Si Si6 0.384061 0.431230 0.577974
Si Si7 0.306820 0.415726 0.841995
Si Si8 0.276724 0.636934 0.388447
O O1 0.081153 0.477831 0.649636
O O2 0.769878 0.392657 0.363102
O O3 0.169625 0.058581 0.673645
O O4 0.989291 0.070810 0.392024
O O5 0.570843 0.374578 0.267935
O O6 0.467715 0.265885 0.014084
O O7 0.661188 0.317070 0.056962
O O8 0.383840 0.208778 0.791679
O O9 0.762504 0.847190 0.054554
O O10 0.575239 0.002509 0.798411
O O11 0.292934 0.380053 0.284188
O O12 0.644162 0.185712 0.525792
O O13 0.519839 0.869436 0.386764
O O14 0.855771 0.447025 0.619416
O O15 0.931545 0.190472 0.727648
O O16 0.417437 0.496955 0.551743
#
# Coordination Sequence:
#
# PCOD9087910 Si02
#       8
#     2   2   2   2   2   2   2   2
#     4  10  20  35  60  81 125 161 205 251 299 369
#     4  10  19  37  56  89 118 166 206 244 309 364
#     4  11  23  36  57  90 125 158 204 258 303 364
#     4  11  20  40  67  85 121 154 208 257 299 374
#     4   9  20  39  56  86 124 158 201 250 307 354
#     4   9  20  39  62  86 119 160 198 253 304 365
#     4  11  22  37  55  90 124 164 205 251 303 366
#     4   9  22  38  65  92 110 161 207 248 315 359
#
# _framework density 22.111431
#
# number of rings (size 3 to 8) (size 9 to 14) (size 15 to 20)
#    0.750    1.250    2.500    1.500    0.000    2.000 
#    0.000    0.000    2.750    1.500    0.000    0.000 
#    0.000    0.000    0.000    0.000    0.000    0.000 
#
# Total GULP energy -89205.476093 kJ/mol
# GULP energy per Si atom -5575.342256 kJ/mol
# Density = 2.206110 g / cm^3
# Si number density = 22.111431 Si / 1000 Ang^3
#
#
#
# Elastic Constant Matrix: (Units=GPa)
#
#
# Indices 1 2 3 4 5 6 
#
# 1 66.9013 7.5833 18.6889 16.7917 -9.2551 -11.9395
# 2 7.5833 43.6859 6.4269 -0.3018 -4.3662 9.7099
# 3 18.6889 6.4269 72.0998 -9.8632 0.1855 1.5818
# 4 16.7917 -0.3018 -9.8632 20.8359 9.5717 -10.4169
# 5 -9.2551 -4.3662 0.1855 9.5717 34.8473 3.3928
# 6 -11.9395 9.7099 1.5818 -10.4169 3.3928 38.4006
#
#
#
# Elastic Compliance Matrix: (Units=1/GPa)
#
#
# Indices 1 2 3 4 5 6 
#
# 1 0.032547 -0.001121 -0.014359 -0.044079 0.020962 -0.002815
# 2 -0.001121 0.026147 -0.002880 -0.007534 0.005980 -0.009413
# 3 -0.014359 -0.002880 0.021919 0.030272 -0.013066 0.004727
# 4 -0.044079 -0.007534 0.030272 0.136451 -0.053082 0.028658
# 5 0.020962 0.005980 -0.013066 -0.053082 0.050963 -0.013359
# 6 -0.002815 -0.009413 0.004727 0.028658 -0.013359 0.036306
#
#
# Mechanical properties :
#
#
# Convention : Reuss Voigt Hill
#
# Bulk Modulus (GPa) = 22.78220 27.56504 25.17362
# Shear Modulus (GPa) = 14.05747 28.81596 21.43671
#
# Velocity S-wave (km/s) = 2.52415 3.61392 3.11703
# Velocity P-wave (km/s) = 4.33830 5.46877 4.93600
#
# Compressibility (1/GPa) = 0.04389393
#
# Stress axis : x y z
#
# Youngs Moduli (GPa) = 30.72523 38.24559 45.62186
#
# Poissons Ratio (x) = 0.04288 0.65507
# Poissons Ratio (y) = 0.03444 0.13137
# Poissons Ratio (z) = 0.44117 0.11013
#
# Static dielectric constant tensor:
#      x y z
#    x 1.936740 0.115350 -0.006670 
#    y 0.115350 1.972590 -0.026210 
#    z -0.006670 -0.026210 1.793480 
# 
# From -- ./inp_files/601899.got.cif
#   From: 2010.05.17/outbox.cif.g08.bks.cpg/sg2_301_cif.got.tgz:601899.got - 2010.06.03 11:33:40.
