data_PCOD9087494
_publ_section_title
;
Structure prediction by ZEFSAII (Michael W. Deem and Ramdas Pophale) SiO2 
 PCOD9087494
Probable space group: P -1
;
_chemical_formula_sum "Si O2"
_cell_formula_units_Z 16
_cell_length_a 19.701470
_cell_length_b 10.840210
_cell_length_c 13.608144
_cell_angle_alpha 147.447467
_cell_angle_beta 148.474715
_cell_angle_gamma 33.054802
_cell_volume 740.028792
_symmetry_space_group_name_H-M "P -1"
_symmetry_group_IT_number 2
_symmetry_cell_setting 'triclinic'
loop_
_space_group_symop_operation_xyz
x,y,z
-x,-y,-z
loop_
_atom_site_type_symbol
_atom_site_label
_atom_site_fract_x
_atom_site_fract_y
_atom_site_fract_z
Si Si1 0.578716 0.480291 0.686073
Si Si2 0.940416 0.258019 0.666491
Si Si3 0.280915 0.874761 0.613874
Si Si4 0.937854 0.794576 0.802136
Si Si5 0.485164 0.242932 0.786723
Si Si6 0.165945 0.360074 0.922167
Si Si7 0.284776 0.082592 0.543319
Si Si8 0.708727 0.781080 0.648419
O O1 0.500000 0.500000 0.500000
O O2 0.440053 0.666965 0.699855
O O3 0.647806 0.191976 0.612384
O O4 0.707249 0.551731 0.863398
O O5 0.851533 0.207101 0.611366
O O6 0.812893 0.500437 0.623124
O O7 0.072013 0.342440 0.887582
O O8 0.000000 0.000000 0.500000
O O9 0.239669 0.077951 0.784306
O O10 0.282064 0.014592 0.607479
O O11 0.867743 0.760961 0.591202
O O12 0.808651 0.883993 0.781402
O O13 0.055536 0.540054 0.824704
O O14 0.000000 0.000000 0.000000
O O15 0.391662 0.206828 0.735111
O O16 0.397911 0.255332 0.586683
O O17 0.627497 0.982470 0.768787
O O18 0.500000 0.500000 0.000000
#
# Coordination Sequence:
#
# PCOD9087494 Si02
#       8
#     2   2   2   2   2   2   2   2
#     4  10  20  37  58  84 123 152 197 255 300 361
#     4   9  19  39  63  87 122 163 206 249 306 373
#     4  10  21  37  60  91 121 156 197 257 307 357
#     4  10  19  36  64  84 117 159 199 250 299 368
#     4  10  21  40  62  92 124 158 207 255 309 372
#     4  10  20  37  62  89 114 164 207 240 311 370
#     4  10  21  38  59  90 120 150 202 254 306 361
#     4   9  20  39  64  89 121 164 203 254 311 357
#
# _framework density 21.620778999999999
#
# number of rings (size 3 to 8) (size 9 to 14) (size 15 to 20)
#    0.000    2.250    1.250    1.125    0.000    1.500 
#   13.500    6.250    0.000    0.000    0.000    0.000 
#    0.000    0.000    0.000    0.000    0.000    0.000 
#
# Total GULP energy -89138.639145 kJ/mol
# GULP energy per Si atom -5571.164947 kJ/mol
# Density = 2.157157 g / cm^3
# Si number density = 21.620779 Si / 1000 Ang^3
#
#
#
# Elastic Constant Matrix: (Units=GPa)
#
#
# Indices 1 2 3 4 5 6 
#
# 1 107.2018 28.1266 45.9334 6.5267 36.9777 -2.6023
# 2 28.1266 101.2824 39.6280 1.7601 7.4116 -20.8217
# 3 45.9334 39.6280 97.3418 6.1908 49.7472 -11.2482
# 4 6.5267 1.7601 6.1908 33.7934 3.3064 3.4971
# 5 36.9777 7.4116 49.7472 3.3064 42.6985 3.3150
# 6 -2.6023 -20.8217 -11.2482 3.4971 3.3150 28.3104
#
#
#
# Elastic Compliance Matrix: (Units=1/GPa)
#
#
# Indices 1 2 3 4 5 6 
#
# 1 0.014433 -0.003521 0.002472 -0.001786 -0.014760 0.001668
# 2 -0.003521 0.014844 -0.009255 -0.000041 0.010820 0.005655
# 3 0.002472 -0.009255 0.038306 -0.004017 -0.045980 0.014521
# 4 -0.001786 -0.000041 -0.004017 0.030884 0.004316 -0.006111
# 5 -0.014760 0.010820 -0.045980 0.004316 0.089320 -0.022660
# 6 0.001668 0.005655 0.014521 -0.006111 -0.022660 0.048813
#
#
# Mechanical properties :
#
#
# Convention : Reuss Voigt Hill
#
# Bulk Modulus (GPa) = 21.28777 59.24467 40.26622
# Shear Modulus (GPa) = 18.32401 33.76968 26.04684
#
# Velocity S-wave (km/s) = 2.91438 3.95639 3.47466
# Velocity P-wave (km/s) = 4.60349 6.95211 5.89593
#
# Compressibility (1/GPa) = 0.04697534
#
# Stress axis : x y z
#
# Youngs Moduli (GPa) = 69.28494 67.36844 26.10553
#
# Poissons Ratio (x) = 0.23723 -0.06454
# Poissons Ratio (y) = 0.24398 0.24159
# Poissons Ratio (z) = -0.17129 0.62346
#
# Static dielectric constant tensor:
#      x y z
#    x 2.147460 -0.295760 0.041900 
#    y -0.295760 1.907150 -0.041540 
#    z 0.041900 -0.041540 1.808600 
# 
# From -- ./inp_files/541020.got.cif
#   From: 2010.05.17/outbox.cif.g08.bks.cpg/sg2_271_cif.got.tgz:541020.got - 2010.06.03 11:33:40.
