data_PCOD9087546
_publ_section_title
;
Structure prediction by ZEFSAII (Michael W. Deem and Ramdas Pophale) SiO2 
 PCOD9087546
Probable space group: P -1
;
_chemical_formula_sum "Si O2"
_cell_formula_units_Z 14
_cell_length_a 22.475512
_cell_length_b 8.420420
_cell_length_c 9.261328
_cell_angle_alpha 50.614780
_cell_angle_beta 133.985852
_cell_angle_gamma 151.760723
_cell_volume 595.373105
_symmetry_space_group_name_H-M "P -1"
_symmetry_group_IT_number 2
_symmetry_cell_setting 'triclinic'
loop_
_space_group_symop_operation_xyz
x,y,z
-x,-y,-z
loop_
_atom_site_type_symbol
_atom_site_label
_atom_site_fract_x
_atom_site_fract_y
_atom_site_fract_z
Si Si1 0.646881 0.675310 0.137373
Si Si2 0.170660 0.322979 0.930118
Si Si3 0.369014 0.809512 0.479999
Si Si4 0.310493 0.926479 0.602375
Si Si5 0.117516 0.311351 0.165944
Si Si6 0.581335 0.382209 0.898989
Si Si7 0.852988 0.113792 0.480920
O O1 0.652318 0.451673 0.330175
O O2 0.759706 0.989822 0.255249
O O3 0.500000 0.500000 0.000000
O O4 0.662429 0.656815 0.004511
O O5 0.225551 0.579554 0.746190
O O6 0.130102 0.359181 0.987911
O O7 0.302997 0.448935 0.115695
O O8 0.032242 0.927518 0.891164
O O9 0.360779 0.948718 0.519758
O O10 0.251507 0.663019 0.261898
O O11 0.500000 0.000000 0.500000
O O12 0.215329 0.931256 0.464215
O O13 0.452369 0.266842 0.718317
O O14 0.130958 0.097388 0.354336
O O15 0.500000 0.000000 0.000000
O O16 0.000000 0.500000 0.500000
#
# Coordination Sequence:
#
# PCOD9087546 Si02
#       7
#     2   2   2   2   2   2   2
#     4  11  22  38  62  93 121 161 210 252 310 369
#     4  10  20  39  64  86 119 169 212 249 303 384
#     4  11  24  41  60  96 125 158 211 266 309 369
#     4  11  21  39  67  85 125 169 207 249 317 373
#     4  10  23  38  62  91 126 160 208 258 313 360
#     4  10  19  36  64  91 113 164 214 248 299 377
#     4  11  23  40  60  94 131 165 203 263 314 368
#
# _framework density 23.514665999999998
#
# number of rings (size 3 to 8) (size 9 to 14) (size 15 to 20)
#    0.000    1.429    5.714    0.857    2.000    1.714 
#    2.571    2.143    0.000    2.571    0.000    0.000 
#    0.000    0.000    0.000    0.000    0.000    0.000 
#
# Total GULP energy -77938.712709 kJ/mol
# GULP energy per Si atom -5567.050908 kJ/mol
# Density = 2.346115 g / cm^3
# Si number density = 23.514666 Si / 1000 Ang^3
#
#
#
# Elastic Constant Matrix: (Units=GPa)
#
#
# Indices 1 2 3 4 5 6 
#
# 1 102.6604 54.8766 17.3990 15.9321 -4.2381 26.3372
# 2 54.8766 101.8431 41.8475 22.7696 -9.7735 27.2693
# 3 17.3990 41.8475 75.8466 29.3977 -14.7019 7.8919
# 4 15.9321 22.7696 29.3977 39.7877 1.9462 10.3674
# 5 -4.2381 -9.7735 -14.7019 1.9462 42.5403 8.9401
# 6 26.3372 27.2693 7.8919 10.3674 8.9401 44.6828
#
#
#
# Elastic Compliance Matrix: (Units=1/GPa)
#
#
# Indices 1 2 3 4 5 6 
#
# 1 0.014671 -0.006847 0.002175 -0.002440 0.001725 -0.004631
# 2 -0.006847 0.018617 -0.007119 -0.001131 0.002512 -0.006308
# 3 0.002175 -0.007119 0.023705 -0.014896 0.007271 0.000878
# 4 -0.002440 -0.001131 -0.014896 0.038851 -0.006821 -0.002890
# 5 0.001725 0.002512 0.007271 -0.006821 0.028763 -0.008006
# 6 -0.004631 -0.006308 0.000878 -0.002890 -0.008006 0.031077
#
#
# Mechanical properties :
#
#
# Convention : Reuss Voigt Hill
#
# Bulk Modulus (GPa) = 29.93210 56.51068 43.22139
# Shear Modulus (GPa) = 26.25995 36.48398 31.37197
#
# Velocity S-wave (km/s) = 3.34540 3.94323 3.65656
# Velocity P-wave (km/s) = 5.26109 6.69451 6.02061
#
# Compressibility (1/GPa) = 0.03340895
#
# Stress axis : x y z
#
# Youngs Moduli (GPa) = 68.16343 53.71416 42.18508
#
# Poissons Ratio (x) = 0.36780 -0.09174
# Poissons Ratio (y) = 0.46674 0.30032
# Poissons Ratio (z) = -0.14823 0.38240
#
# Static dielectric constant tensor:
#      x y z
#    x 1.838250 -0.086270 -0.001260 
#    y -0.086270 2.012700 0.027000 
#    z -0.001260 0.027000 2.060140 
# 
# From -- ./inp_files/186494.got.cif
#   From: 2010.05.17/outbox.cif.g08.bks.cpg/sg2_94_cif.got.tgz:186494.got - 2010.06.03 11:33:40.
