data_PCOD9087526
_publ_section_title
;
Structure prediction by ZEFSAII (Michael W. Deem and Ramdas Pophale) SiO2 
 PCOD9087526
Probable space group: P -1
;
_chemical_formula_sum "Si O2"
_cell_formula_units_Z 16
_cell_length_a 5.245829
_cell_length_b 10.850498
_cell_length_c 12.386549
_cell_angle_alpha 104.405321
_cell_angle_beta 111.755387
_cell_angle_gamma 94.746276
_cell_volume 622.126005
_symmetry_space_group_name_H-M "P -1"
_symmetry_group_IT_number 2
_symmetry_cell_setting 'triclinic'
loop_
_space_group_symop_operation_xyz
x,y,z
-x,-y,-z
loop_
_atom_site_type_symbol
_atom_site_label
_atom_site_fract_x
_atom_site_fract_y
_atom_site_fract_z
Si Si1 0.902512 0.986069 0.647129
Si Si2 0.658441 0.425414 0.309004
Si Si3 0.845842 0.546863 0.146788
Si Si4 0.743023 0.159606 0.475169
Si Si5 0.378352 0.168910 0.111468
Si Si6 0.749407 0.448726 0.606894
Si Si7 0.569722 0.293480 0.950753
Si Si8 0.173913 0.906575 0.119836
O O1 0.582333 0.907916 0.585433
O O2 0.100381 0.892910 0.612098
O O3 0.896388 0.104544 0.588972
O O4 0.969801 0.041361 0.788906
O O5 0.639080 0.494654 0.204720
O O6 0.477901 0.282076 0.237793
O O7 0.006828 0.559645 0.630179
O O8 0.533735 0.501406 0.400146
O O9 0.139440 0.576022 0.258761
O O10 0.724224 0.663307 0.103251
O O11 0.795645 0.425149 0.032058
O O12 0.754487 0.313210 0.518983
O O13 0.382632 0.029487 0.129691
O O14 0.556535 0.213588 0.042638
O O15 0.060075 0.152692 0.016925
O O16 0.651043 0.203453 0.850874
#
# Coordination Sequence:
#
# PCOD9087526 Si02
#       8
#     2   2   2   2   2   2   2   2
#     4  10  24  40  61  91 123 161 201 259 304 360
#     4   9  20  36  60  91 123 160 201 252 306 363
#     4   8  20  31  57  93 123 159 191 254 306 369
#     4  10  22  41  62  91 123 152 206 259 314 364
#     4  10  23  40  56  90 125 166 213 244 294 371
#     4  10  19  36  64  89 118 161 195 253 320 363
#     4  10  19  37  55  90 125 158 204 247 299 375
#     4  11  24  37  63  84 124 175 206 246 301 370
#
# _framework density 25.718264000000001
#
# number of rings (size 3 to 8) (size 9 to 14) (size 15 to 20)
#    0.750    1.500    0.000    1.875    5.250    1.000 
#    0.000    3.750    0.000    4.500    0.000    0.000 
#    0.000    0.000    0.000    0.000    0.000    0.000 
#
# Total GULP energy -89555.046850 kJ/mol
# GULP energy per Si atom -5597.190428 kJ/mol
# Density = 2.565973 g / cm^3
# Si number density = 25.718264 Si / 1000 Ang^3
#
#
#
# Elastic Constant Matrix: (Units=GPa)
#
#
# Indices 1 2 3 4 5 6 
#
# 1 137.1736 47.7889 48.3553 25.2920 -18.9140 -5.1982
# 2 47.7889 117.2221 39.5146 27.6699 -17.6252 1.8528
# 3 48.3553 39.5146 63.6316 16.2154 4.3125 7.6256
# 4 25.2920 27.6699 16.2154 38.8769 -1.4484 -5.9176
# 5 -18.9140 -17.6252 4.3125 -1.4484 42.6141 5.7303
# 6 -5.1982 1.8528 7.6256 -5.9176 5.7303 28.5672
#
#
#
# Elastic Compliance Matrix: (Units=1/GPa)
#
#
# Indices 1 2 3 4 5 6 
#
# 1 0.011974 -0.000372 -0.008746 -0.003251 0.005566 0.002748
# 2 -0.000372 0.013383 -0.006544 -0.006597 0.006046 -0.001768
# 3 -0.008746 -0.006544 0.028737 -0.003141 -0.008558 -0.007772
# 4 -0.003251 -0.006597 -0.003141 0.035024 -0.003833 0.008699
# 5 0.005566 0.006046 -0.008558 -0.003833 0.029690 -0.003844
# 6 0.002748 -0.001768 -0.007772 0.008699 -0.003844 0.040268
#
#
# Mechanical properties :
#
#
# Convention : Reuss Voigt Hill
#
# Bulk Modulus (GPa) = 43.91985 65.48275 54.70130
# Shear Modulus (GPa) = 25.25382 34.16954 29.71168
#
# Velocity S-wave (km/s) = 3.13699 3.64896 3.40262
# Velocity P-wave (km/s) = 5.49867 6.57800 6.06240
#
# Compressibility (1/GPa) = 0.02276875
#
# Stress axis : x y z
#
# Youngs Moduli (GPa) = 83.51586 74.72260 34.79795
#
# Poissons Ratio (x) = 0.02783 0.30434
# Poissons Ratio (y) = 0.03111 0.22773
# Poissons Ratio (z) = 0.73042 0.48900
#
# Static dielectric constant tensor:
#      x y z
#    x 1.972590 -0.001150 0.017740 
#    y -0.001150 2.022160 -0.066440 
#    z 0.017740 -0.066440 2.083170 
# 
# From -- ./inp_files/365260.got.cif
#   From: 2010.05.17/outbox.cif.g08.bks.cpg/sg2_183_cif.got.tgz:365260.got - 2010.06.03 11:33:40.
