data_PCOD9087559
_publ_section_title
;
Structure prediction by ZEFSAII (Michael W. Deem and Ramdas Pophale) SiO2 
 PCOD9087559
Probable space group: P -1
;
_chemical_formula_sum "Si O2"
_cell_formula_units_Z 16
_cell_length_a 6.170810
_cell_length_b 14.960323
_cell_length_c 7.900919
_cell_angle_alpha 71.184271
_cell_angle_beta 78.003509
_cell_angle_gamma 92.152876
_cell_volume 671.011347
_symmetry_space_group_name_H-M "P -1"
_symmetry_group_IT_number 2
_symmetry_cell_setting 'triclinic'
loop_
_space_group_symop_operation_xyz
x,y,z
-x,-y,-z
loop_
_atom_site_type_symbol
_atom_site_label
_atom_site_fract_x
_atom_site_fract_y
_atom_site_fract_z
Si Si1 0.524107 0.423567 0.710330
Si Si2 0.837322 0.980869 0.383593
Si Si3 0.401242 0.777312 0.290523
Si Si4 0.394992 0.848682 0.635081
Si Si5 0.918666 0.811034 0.248792
Si Si6 0.193891 0.385139 0.405590
Si Si7 0.467375 0.654051 0.876904
Si Si8 0.141009 0.520167 0.796322
O O1 0.593278 0.335934 0.648664
O O2 0.637955 0.530078 0.590559
O O3 0.260921 0.429513 0.777785
O O4 0.594507 0.398048 0.907023
O O5 0.622546 0.915966 0.529151
O O6 0.930545 0.915006 0.268601
O O7 0.771511 0.085221 0.291343
O O8 0.000000 0.000000 0.500000
O O9 0.345157 0.811481 0.471111
O O10 0.671116 0.811318 0.188675
O O11 0.190352 0.801146 0.191664
O O12 0.430583 0.762631 0.804221
O O13 0.852705 0.714640 0.429946
O O14 0.286924 0.358641 0.221813
O O15 0.986542 0.440037 0.361398
O O16 0.320911 0.602478 0.784498
O O17 0.000000 0.500000 0.000000
#
# Coordination Sequence:
#
# PCOD9087559 Si02
#       8
#     2   2   2   2   2   2   2   2
#     4  11  25  37  59  88 127 170 203 248 313 370
#     4  10  19  36  64  92 113 155 207 266 315 360
#     4  11  24  42  60  93 131 167 201 254 316 376
#     4  10  21  38  63  92 121 154 207 266 311 369
#     4  11  24  41  64  92 126 162 208 263 309 369
#     4  11  21  38  59  88 120 165 211 258 291 364
#     4  11  20  39  58  90 119 160 215 256 302 364
#     4  11  20  35  58  82 123 168 212 254 292 356
#
# _framework density 23.844604
#
# number of rings (size 3 to 8) (size 9 to 14) (size 15 to 20)
#    0.000    1.250    6.250    1.500    3.500    1.000 
#    0.000    0.000    0.000    7.500    0.000    0.000 
#    0.000    0.000    0.000    0.000    0.000    0.000 
#
# Total GULP energy -89129.548766 kJ/mol
# GULP energy per Si atom -5570.596798 kJ/mol
# Density = 2.379033 g / cm^3
# Si number density = 23.844604 Si / 1000 Ang^3
#
#
#
# Elastic Constant Matrix: (Units=GPa)
#
#
# Indices 1 2 3 4 5 6 
#
# 1 126.3658 40.6889 5.4420 7.5137 2.0644 -23.3854
# 2 40.6889 168.6823 16.9620 2.1378 -4.8374 -35.4219
# 3 5.4420 16.9620 45.6838 11.8229 -3.9039 -1.4645
# 4 7.5137 2.1378 11.8229 18.8474 -5.7699 9.8101
# 5 2.0644 -4.8374 -3.9039 -5.7699 11.8195 -0.6100
# 6 -23.3854 -35.4219 -1.4645 9.8101 -0.6100 46.2615
#
#
#
# Elastic Compliance Matrix: (Units=1/GPa)
#
#
# Indices 1 2 3 4 5 6 
#
# 1 0.010126 -0.001359 0.001542 -0.010014 -0.006386 0.006166
# 2 -0.001359 0.007677 -0.002015 -0.001127 0.002442 0.005399
# 3 0.001542 -0.002015 0.027805 -0.020710 -0.001789 0.004485
# 4 -0.010014 -0.001127 -0.020710 0.096196 0.040042 -0.026452
# 5 -0.006386 0.002442 -0.001789 0.040042 0.105237 -0.008518
# 6 0.006166 0.005399 0.004485 -0.026452 -0.008518 0.034506
#
#
# Mechanical properties :
#
#
# Convention : Reuss Voigt Hill
#
# Bulk Modulus (GPa) = 23.84168 51.87975 37.86071
# Shear Modulus (GPa) = 16.71178 33.89495 25.30336
#
# Velocity S-wave (km/s) = 2.65025 3.77436 3.26111
# Velocity P-wave (km/s) = 4.40291 6.38741 5.48565
#
# Compressibility (1/GPa) = 0.04194335
#
# Stress axis : x y z
#
# Youngs Moduli (GPa) = 98.75990 130.26501 35.96519
#
# Poissons Ratio (x) = 0.17701 -0.05546
# Poissons Ratio (y) = 0.13420 0.07247
# Poissons Ratio (z) = -0.15229 0.26247
#
# Static dielectric constant tensor:
#      x y z
#    x 2.114130 -0.024850 -0.014880 
#    y -0.024850 1.938910 0.039720 
#    z -0.014880 0.039720 1.913990 
# 
# From -- ./inp_files/98044.got.cif
#   From: 2010.05.17/outbox.cif.g08.bks.cpg/sg2_50_cif.got.tgz:98044.got - 2010.06.03 11:33:40.
