data_PCOD9087112
_publ_section_title
;
Structure prediction by ZEFSAII (Michael W. Deem and Ramdas Pophale) SiO2 
 PCOD9087112
Probable space group: P -1
;
_chemical_formula_sum "Si O2"
_cell_formula_units_Z 16
_cell_length_a 14.998662
_cell_length_b 8.534602
_cell_length_c 20.765714
_cell_angle_alpha 110.214430
_cell_angle_beta 19.041322
_cell_angle_gamma 118.113362
_cell_volume 717.335172
_symmetry_space_group_name_H-M "P -1"
_symmetry_group_IT_number 2
_symmetry_cell_setting 'triclinic'
loop_
_space_group_symop_operation_xyz
x,y,z
-x,-y,-z
loop_
_atom_site_type_symbol
_atom_site_label
_atom_site_fract_x
_atom_site_fract_y
_atom_site_fract_z
Si Si1 0.662111 0.955354 0.200905
Si Si2 0.342800 0.546707 0.552003
Si Si3 0.947227 0.744444 0.828041
Si Si4 0.185792 0.830848 0.122796
Si Si5 0.969532 0.844790 0.135595
Si Si6 0.812099 0.847804 0.661580
Si Si7 0.655236 0.445488 0.704538
Si Si8 0.941748 0.119459 0.362459
O O1 0.478481 0.732632 0.277432
O O2 0.430713 0.995016 0.408014
O O3 0.000000 0.000000 0.000000
O O4 0.756591 0.088439 0.092967
O O5 0.500000 0.500000 0.500000
O O6 0.630717 0.674490 0.326933
O O7 0.167257 0.671763 0.701177
O O8 0.059112 0.348007 0.694436
O O9 0.954622 0.725183 0.742756
O O10 0.597199 0.626533 0.075783
O O11 0.055833 0.964181 0.803087
O O12 0.082270 0.782649 0.112767
O O13 0.538240 0.876215 0.885363
O O14 0.122071 0.003035 0.206596
O O15 0.672227 0.639831 0.696067
O O16 0.005638 0.843041 0.591747
O O17 0.000000 0.000000 0.500000
O O18 0.000000 0.500000 0.500000
#
# Coordination Sequence:
#
# PCOD9087112 Si02
#       8
#     2   2   2   2   2   2   2   2
#     4  11  23  43  67 100 136 171 235 281 339 403
#     4  10  19  36  61  97 132 170 222 271 337 413
#     4  10  21  40  68  96 131 174 230 285 334 401
#     4  10  22  41  63  99 133 174 226 282 348 402
#     4   9  20  38  66  87 135 182 220 271 343 408
#     4  12  25  46  70  94 140 182 230 282 349 413
#     4  11  24  46  71  99 131 186 233 279 341 415
#     4  11  24  43  66  98 136 180 226 285 337 404
#
# _framework density 22.304776
#
# number of rings (size 3 to 8) (size 9 to 14) (size 15 to 20)
#    0.000    1.500    2.500    2.250    3.500    5.500 
#    4.500    0.625    0.000    0.000    0.000    0.000 
#    0.000    0.000    0.000    0.000    0.000    0.000 
#
# Total GULP energy -89194.885751 kJ/mol
# GULP energy per Si atom -5574.680359 kJ/mol
# Density = 2.225401 g / cm^3
# Si number density = 22.304776 Si / 1000 Ang^3
#
#
#
# Elastic Constant Matrix: (Units=GPa)
#
#
# Indices 1 2 3 4 5 6 
#
# 1 78.3105 26.7980 48.1156 -7.9681 -0.9715 -9.9082
# 2 26.7980 66.8600 52.5122 -5.5934 -1.8121 -25.7841
# 3 48.1156 52.5122 166.1775 -0.3468 -7.7447 -13.5468
# 4 -7.9681 -5.5934 -0.3468 43.4779 -13.0146 -1.2376
# 5 -0.9715 -1.8121 -7.7447 -13.0146 37.9224 -1.4518
# 6 -9.9082 -25.7841 -13.5468 -1.2376 -1.4518 22.1257
#
#
#
# Elastic Compliance Matrix: (Units=1/GPa)
#
#
# Indices 1 2 3 4 5 6 
#
# 1 0.016550 -0.002462 -0.003780 0.002947 0.000639 0.002435
# 2 -0.002462 0.037633 -0.007840 0.006584 0.003870 0.038575
# 3 -0.003780 -0.007840 0.009189 -0.001579 0.000662 -0.005248
# 4 0.002947 0.006584 -0.001579 0.027643 0.009946 0.010225
# 5 0.000639 0.003870 0.000662 0.009946 0.030416 0.007754
# 6 0.002435 0.038575 -0.005248 0.010225 0.007754 0.089108
#
#
# Mechanical properties :
#
#
# Convention : Reuss Voigt Hill
#
# Bulk Modulus (GPa) = 28.40214 62.91107 45.65660
# Shear Modulus (GPa) = 19.96481 32.96668 26.46575
#
# Velocity S-wave (km/s) = 2.99505 3.84866 3.44837
# Velocity P-wave (km/s) = 4.97210 6.92936 6.03066
#
# Compressibility (1/GPa) = 0.03520862
#
# Stress axis : x y z
#
# Youngs Moduli (GPa) = 60.42176 26.57216 108.82141
#
# Poissons Ratio (x) = 0.06543 0.41130
# Poissons Ratio (y) = 0.14877 0.85321
# Poissons Ratio (z) = 0.22837 0.20834
#
# Static dielectric constant tensor:
#      x y z
#    x 1.998550 0.019500 0.012620 
#    y 0.019500 1.867600 -0.028350 
#    z 0.012620 -0.028350 1.866400 
# 
# From -- ./inp_files/388868.got.cif
#   From: 2010.05.17/outbox.cif.g08.bks.cpg/sg2_195_cif.got.tgz:388868.got - 2010.06.03 11:33:40.
