data_PCOD9087940
_publ_section_title
;
Structure prediction by ZEFSAII (Michael W. Deem and Ramdas Pophale) SiO2 
 PCOD9087940
Probable space group: P -1
;
_chemical_formula_sum "Si O2"
_cell_formula_units_Z 16
_cell_length_a 9.253768
_cell_length_b 11.658535
_cell_length_c 17.431601
_cell_angle_alpha 56.137155
_cell_angle_beta 99.087169
_cell_angle_gamma 53.521599
_cell_volume 854.559366
_symmetry_space_group_name_H-M "P -1"
_symmetry_group_IT_number 2
_symmetry_cell_setting 'triclinic'
loop_
_space_group_symop_operation_xyz
x,y,z
-x,-y,-z
loop_
_atom_site_type_symbol
_atom_site_label
_atom_site_fract_x
_atom_site_fract_y
_atom_site_fract_z
Si Si1 0.102214 0.986807 0.406562
Si Si2 0.114285 0.821612 0.146506
Si Si3 0.613704 0.761402 0.581044
Si Si4 0.696182 0.407449 0.328475
Si Si5 0.807520 0.237671 0.647948
Si Si6 0.986637 0.613926 0.385197
Si Si7 0.439709 0.168545 0.829028
Si Si8 0.097601 0.286838 0.876374
O O1 0.858885 0.263143 0.317676
O O2 0.368466 0.857341 0.501678
O O3 0.127928 0.815716 0.512924
O O4 0.086655 0.963216 0.324983
O O5 0.413144 0.556371 0.244142
O O6 0.151746 0.838504 0.231562
O O7 0.931741 0.830009 0.132337
O O8 0.000000 0.000000 0.000000
O O9 0.812583 0.596307 0.586522
O O10 0.799079 0.576244 0.738574
O O11 0.500000 0.000000 0.500000
O O12 0.626963 0.618124 0.267958
O O13 0.500000 0.500000 0.500000
O O14 0.940490 0.284208 0.630627
O O15 0.000000 0.500000 0.500000
O O16 0.695203 0.819757 0.250248
O O17 0.284958 0.250112 0.864184
O O18 0.745687 0.889625 0.970463
#
# Coordination Sequence:
#
# PCOD9087940 Si02
#       8
#     2   2   2   2   2   2   2   2
#     4  11  22  36  61  90 129 157 201 258 314 358
#     4  12  22  39  65  91 120 164 215 251 305 371
#     4  11  21  39  60  89 123 156 196 252 316 364
#     4  11  21  36  61  94 119 158 209 251 302 371
#     4  12  21  41  60  88 129 164 200 258 308 363
#     4  11  22  36  60  93 119 155 206 252 307 361
#     4  10  20  35  59  86 116 156 204 245 298 362
#     4  10  19  37  57  84 115 157 196 254 294 359
#
# _framework density 18.723099999999999
#
# number of rings (size 3 to 8) (size 9 to 14) (size 15 to 20)
#    0.000    1.000    7.500    2.250    0.000    1.000 
#    0.000    0.625    0.000    0.750    0.000    0.000 
#    0.000    0.000    0.000    0.000    0.000    0.000 
#
# Total GULP energy -89093.987281 kJ/mol
# GULP energy per Si atom -5568.374205 kJ/mol
# Density = 1.868049 g / cm^3
# Si number density = 18.723100 Si / 1000 Ang^3
#
#
#
# Elastic Constant Matrix: (Units=GPa)
#
#
# Indices 1 2 3 4 5 6 
#
# 1 95.4845 29.4227 36.1548 2.1089 3.7429 16.0493
# 2 29.4227 77.1557 51.2602 5.2034 12.8353 1.9878
# 3 36.1548 51.2602 114.1477 12.5127 8.1614 14.1274
# 4 2.1089 5.2034 12.5127 22.6170 2.9826 -1.5704
# 5 3.7429 12.8353 8.1614 2.9826 36.8547 -0.5760
# 6 16.0493 1.9878 14.1274 -1.5704 -0.5760 29.3991
#
#
#
# Elastic Compliance Matrix: (Units=1/GPa)
#
#
# Indices 1 2 3 4 5 6 
#
# 1 0.013341 -0.003786 -0.001800 0.000163 0.000253 -0.006148
# 2 -0.003786 0.020621 -0.008424 0.001249 -0.004960 0.004690
# 3 -0.001800 -0.008424 0.014498 -0.006358 0.000331 -0.005748
# 4 0.000163 0.001249 -0.006358 0.048181 -0.002858 0.005400
# 5 0.000253 -0.004960 0.000331 -0.002858 0.029000 0.000454
# 6 -0.006148 0.004690 -0.005748 0.005400 0.000454 0.040113
#
#
# Mechanical properties :
#
#
# Convention : Reuss Voigt Hill
#
# Bulk Modulus (GPa) = 48.92385 57.82923 53.37654
# Shear Modulus (GPa) = 24.92646 29.10417 27.01532
#
# Velocity S-wave (km/s) = 3.65269 3.94693 3.80266
# Velocity P-wave (km/s) = 6.63147 7.19199 6.91741
#
# Compressibility (1/GPa) = 0.02043993
#
# Stress axis : x y z
#
# Youngs Moduli (GPa) = 74.95593 48.49383 68.97287
#
# Poissons Ratio (x) = 0.18360 0.12418
# Poissons Ratio (y) = 0.28379 0.58102
# Poissons Ratio (z) = 0.13496 0.40851
#
# Static dielectric constant tensor:
#      x y z
#    x 1.700540 -0.015630 -0.022080 
#    y -0.015630 1.649710 0.027050 
#    z -0.022080 0.027050 1.719030 
# 
# From -- ./inp_files/268968.got.cif
#   From: 2010.05.17/outbox.cif.g08.bks.cpg/sg2_135_cif.got.tgz:268968.got - 2010.06.03 11:33:40.
