data_PCOD9087194
_publ_section_title
;
Structure prediction by ZEFSAII (Michael W. Deem and Ramdas Pophale) SiO2 
 PCOD9087194
Probable space group: P -1
;
_chemical_formula_sum "Si O2"
_cell_formula_units_Z 14
_cell_length_a 16.303957
_cell_length_b 12.496624
_cell_length_c 12.288006
_cell_angle_alpha 130.528326
_cell_angle_beta 142.171175
_cell_angle_gamma 26.111822
_cell_volume 659.230328
_symmetry_space_group_name_H-M "P -1"
_symmetry_group_IT_number 2
_symmetry_cell_setting 'triclinic'
loop_
_space_group_symop_operation_xyz
x,y,z
-x,-y,-z
loop_
_atom_site_type_symbol
_atom_site_label
_atom_site_fract_x
_atom_site_fract_y
_atom_site_fract_z
Si Si1 0.935104 0.119422 0.657739
Si Si2 0.813055 0.356525 0.481890
Si Si3 0.633294 0.258702 0.838791
Si Si4 0.927430 0.963592 0.757498
Si Si5 0.749215 0.749380 0.658716
Si Si6 0.646948 0.053287 0.927867
Si Si7 0.897966 0.468561 0.297559
O O1 0.767120 0.353960 0.557300
O O2 0.968941 0.935236 0.514471
O O3 0.864012 0.133139 0.713285
O O4 0.160702 0.029701 0.853041
O O5 0.618697 0.459251 0.264503
O O6 0.806843 0.530932 0.576069
O O7 0.617627 0.171228 0.865822
O O8 0.711542 0.122659 0.717178
O O9 0.842087 0.183138 0.032739
O O10 0.029256 0.725132 0.676281
O O11 0.956819 0.647524 0.740279
O O12 0.500000 0.000000 0.500000
O O13 0.728921 0.833442 0.814580
O O14 0.382914 0.275639 0.846966
O O15 0.000000 0.500000 0.500000
#
# Coordination Sequence:
#
# PCOD9087194 Si02
#       7
#     2   2   2   2   2   2   2
#     4  10  24  41  61  88 123 167 205 250 306 366
#     4  11  22  42  62  85 126 165 204 253 305 366
#     4  10  19  36  62  88 119 155 203 258 296 355
#     4  10  20  35  60  93 119 152 206 252 304 356
#     4  12  22  40  63  95 123 158 206 257 302 365
#     4  11  22  40  63  94 124 157 208 256 305 357
#     4  12  21  33  63  94 121 159 199 254 310 357
#
# _framework density 21.236888
#
# number of rings (size 3 to 8) (size 9 to 14) (size 15 to 20)
#    0.000    1.143    4.286    2.571    0.000    3.429 
#    0.000    0.714    0.000    0.000    0.000    0.000 
#    0.000    0.000    0.000    0.000    0.000    0.000 
#
# Total GULP energy -77941.641206 kJ/mol
# GULP energy per Si atom -5567.260086 kJ/mol
# Density = 2.118855 g / cm^3
# Si number density = 21.236888 Si / 1000 Ang^3
#
#
#
# Elastic Constant Matrix: (Units=GPa)
#
#
# Indices 1 2 3 4 5 6 
#
# 1 80.8112 35.9500 19.8234 -14.0882 12.0837 0.9997
# 2 35.9500 65.4408 17.9866 14.0631 9.9911 8.2906
# 3 19.8234 17.9866 65.8602 8.2516 3.3459 11.1560
# 4 -14.0882 14.0631 8.2516 29.5036 4.2383 0.4522
# 5 12.0837 9.9911 3.3459 4.2383 26.7497 -6.3943
# 6 0.9997 8.2906 11.1560 0.4522 -6.3943 44.3223
#
#
#
# Elastic Compliance Matrix: (Units=1/GPa)
#
#
# Indices 1 2 3 4 5 6 
#
# 1 0.027121 -0.017443 -0.006509 0.024200 -0.008068 0.002879
# 2 -0.017443 0.030430 0.000782 -0.022786 -0.001276 -0.005447
# 3 -0.006509 0.000782 0.018765 -0.008746 0.000600 -0.004547
# 4 0.024200 -0.022786 -0.008746 0.060124 -0.009928 0.003872
# 5 -0.008068 -0.001276 0.000600 -0.009928 0.044631 0.006810
# 6 0.002879 -0.005447 -0.004547 0.003872 0.006810 0.025603
#
#
# Mechanical properties :
#
#
# Convention : Reuss Voigt Hill
#
# Bulk Modulus (GPa) = 33.36112 39.95910 36.66011
# Shear Modulus (GPa) = 19.01097 29.33860 24.17479
#
# Velocity S-wave (km/s) = 2.99521 3.72088 3.37759
# Velocity P-wave (km/s) = 5.26354 6.10873 5.70182
#
# Compressibility (1/GPa) = 0.02997502
#
# Stress axis : x y z
#
# Youngs Moduli (GPa) = 36.87184 32.86227 53.29150
#
# Poissons Ratio (x) = 0.57323 0.34688
# Poissons Ratio (y) = 0.64317 -0.04168
# Poissons Ratio (z) = 0.24000 -0.02570
#
# Static dielectric constant tensor:
#      x y z
#    x 1.856310 -0.021130 -0.032270 
#    y -0.021130 1.926310 0.077450 
#    z -0.032270 0.077450 1.841170 
# 
# From -- ./inp_files/261274.got.cif
#   From: 2010.05.17/outbox.cif.g08.bks.cpg/sg2_131_cif.got.tgz:261274.got - 2010.06.03 11:33:40.
