data_PCOD9087164
_publ_section_title
;
Structure prediction by ZEFSAII (Michael W. Deem and Ramdas Pophale) SiO2 
 PCOD9087164
Probable space group: P -1
;
_chemical_formula_sum "Si O2"
_cell_formula_units_Z 16
_cell_length_a 20.023985
_cell_length_b 9.323277
_cell_length_c 8.297025
_cell_angle_alpha 134.271052
_cell_angle_beta 34.328979
_cell_angle_gamma 128.791260
_cell_volume 620.668681
_symmetry_space_group_name_H-M "P -1"
_symmetry_group_IT_number 2
_symmetry_cell_setting 'triclinic'
loop_
_space_group_symop_operation_xyz
x,y,z
-x,-y,-z
loop_
_atom_site_type_symbol
_atom_site_label
_atom_site_fract_x
_atom_site_fract_y
_atom_site_fract_z
Si Si1 0.856271 0.011809 0.596756
Si Si2 0.778216 0.207383 0.392530
Si Si3 0.153915 0.547545 0.049120
Si Si4 0.638695 0.982407 0.208611
Si Si5 0.391078 0.293831 0.677529
Si Si6 0.378557 0.722842 0.952648
Si Si7 0.855846 0.856281 0.115820
Si Si8 0.878324 0.594728 0.343714
O O1 0.871788 0.960336 0.339457
O O2 0.895414 0.837775 0.499881
O O3 0.906966 0.248040 0.701654
O O4 0.713923 0.991140 0.903498
O O5 0.710619 0.144641 0.312534
O O6 0.822291 0.446086 0.480252
O O7 0.875260 0.049208 0.105320
O O8 0.686704 0.169665 0.693526
O O9 0.273278 0.633687 0.973266
O O10 0.089298 0.356102 0.129845
O O11 0.186466 0.457538 0.740928
O O12 0.500000 0.000000 0.500000
O O13 0.647089 0.774390 0.121401
O O14 0.425155 0.531889 0.798438
O O15 0.504414 0.188384 0.308275
O O16 0.278221 0.232672 0.740126
O O17 0.000000 0.500000 0.000000
#
# Coordination Sequence:
#
# PCOD9087164 Si02
#       8
#     2   2   2   2   2   2   2   2
#     4  11  21  42  67  91 133 172 208 266 319 372
#     4  11  22  40  63  94 128 168 216 268 313 381
#     4  10  20  42  64  91 122 163 209 268 320 376
#     4  11  23  35  58  96 137 174 211 247 314 391
#     4   9  20  34  53  92 127 174 213 246 305 386
#     4  10  19  36  62  85 128 169 212 260 312 368
#     4   9  21  36  64  90 128 169 211 260 309 379
#     4  11  26  46  68  94 124 166 219 273 333 383
#
# _framework density 25.778648
#
# number of rings (size 3 to 8) (size 9 to 14) (size 15 to 20)
#    0.000    1.750    2.500    1.500    1.750    1.500 
#    0.000    4.375    0.000    0.000    0.000    0.000 
#    0.000    0.000    0.000    0.000    0.000    0.000 
#
# Total GULP energy -89263.351469 kJ/mol
# GULP energy per Si atom -5578.959467 kJ/mol
# Density = 2.571997 g / cm^3
# Si number density = 25.778648 Si / 1000 Ang^3
#
#
#
# Elastic Constant Matrix: (Units=GPa)
#
#
# Indices 1 2 3 4 5 6 
#
# 1 71.0205 8.9138 18.2332 3.7004 -3.2677 3.5189
# 2 8.9138 183.0014 41.2086 40.9033 -12.6548 -33.7924
# 3 18.2332 41.2086 72.3773 18.4106 -13.4730 -8.3212
# 4 3.7004 40.9033 18.4106 54.7666 -9.3066 -9.1143
# 5 -3.2677 -12.6548 -13.4730 -9.3066 32.4440 6.3310
# 6 3.5189 -33.7924 -8.3212 -9.1143 6.3310 30.4934
#
#
#
# Elastic Compliance Matrix: (Units=1/GPa)
#
#
# Indices 1 2 3 4 5 6 
#
# 1 0.015335 -0.000503 -0.003933 0.000163 0.000433 -0.003442
# 2 -0.000503 0.008394 -0.002854 -0.004135 -0.000606 0.007471
# 3 -0.003933 -0.002854 0.018136 -0.002765 0.005162 0.000342
# 4 0.000163 -0.004135 -0.002765 0.023023 0.003712 0.000755
# 5 0.000433 -0.000606 0.005162 0.003712 0.034901 -0.005450
# 6 -0.003442 0.007471 0.000342 0.000755 -0.005450 0.042920
#
#
# Mechanical properties :
#
#
# Convention : Reuss Voigt Hill
#
# Bulk Modulus (GPa) = 36.65220 51.45671 44.05445
# Shear Modulus (GPa) = 30.05075 40.74369 35.39722
#
# Velocity S-wave (km/s) = 3.41797 3.97989 3.70959
# Velocity P-wave (km/s) = 5.46128 6.41277 5.95606
#
# Compressibility (1/GPa) = 0.02728349
#
# Stress axis : x y z
#
# Youngs Moduli (GPa) = 65.20865 119.13976 55.13911
#
# Poissons Ratio (x) = 0.05996 0.21687
# Poissons Ratio (y) = 0.03282 0.15738
# Poissons Ratio (z) = 0.25648 0.34005
#
# Static dielectric constant tensor:
#      x y z
#    x 2.027390 -0.069960 -0.036070 
#    y -0.069960 2.150910 -0.007500 
#    z -0.036070 -0.007500 2.167330 
# 
# From -- ./inp_files/342978.got.cif
#   From: 2010.05.17/outbox.cif.g08.bks.cpg/sg2_172_cif.got.tgz:342978.got - 2010.06.03 11:33:40.
