data_PCOD9087066
_publ_section_title
;
Structure prediction by ZEFSAII (Michael W. Deem and Ramdas Pophale) SiO2 
 PCOD9087066
Probable space group: P -1
;
_chemical_formula_sum "Si O2"
_cell_formula_units_Z 16
_cell_length_a 12.348343
_cell_length_b 11.783606
_cell_length_c 13.823447
_cell_angle_alpha 65.430780
_cell_angle_beta 137.598401
_cell_angle_gamma 145.923292
_cell_volume 649.897638
_symmetry_space_group_name_H-M "P -1"
_symmetry_group_IT_number 2
_symmetry_cell_setting 'triclinic'
loop_
_space_group_symop_operation_xyz
x,y,z
-x,-y,-z
loop_
_atom_site_type_symbol
_atom_site_label
_atom_site_fract_x
_atom_site_fract_y
_atom_site_fract_z
Si Si1 0.954438 0.280809 0.033887
Si Si2 0.486215 0.463809 0.303207
Si Si3 0.936192 0.051850 0.814741
Si Si4 0.799493 0.119704 0.183183
Si Si5 0.044366 0.322655 0.624668
Si Si6 0.587018 0.830610 0.855934
Si Si7 0.829350 0.842846 0.539566
Si Si8 0.421673 0.059798 0.681217
O O1 0.013534 0.327867 0.170743
O O2 0.265761 0.433882 0.139583
O O3 0.774860 0.273662 0.866396
O O4 0.697432 0.002210 0.947011
O O5 0.278943 0.204753 0.270046
O O6 0.736604 0.598192 0.339799
O O7 0.626181 0.595060 0.451900
O O8 0.762784 0.985669 0.819038
O O9 0.987855 0.192060 0.721666
O O10 0.253468 0.196764 0.002936
O O11 0.907656 0.046817 0.261777
O O12 0.758183 0.086782 0.284285
O O13 0.500000 0.000000 0.000000
O O14 0.234156 0.566508 0.700915
O O15 0.724200 0.129461 0.426830
O O16 0.651473 0.851912 0.442590
O O17 0.000000 0.000000 0.500000
#
# Coordination Sequence:
#
# PCOD9087066 Si02
#       8
#     2   2   2   2   2   2   2   2
#     4  10  22  39  59  91 132 167 206 262 316 366
#     4  10  21  37  64  91 125 162 212 257 313 381
#     4   9  20  37  60  95 122 158 211 265 315 372
#     4   9  19  38  60  88 127 162 201 255 313 368
#     4  11  20  39  66  92 123 165 211 263 316 370
#     4   9  20  37  60  92 124 161 214 258 311 378
#     4  10  19  36  61  91 121 161 208 253 303 374
#     4  10  22  38  60  93 132 161 213 261 304 385
#
# _framework density 24.619261000000002
#
# number of rings (size 3 to 8) (size 9 to 14) (size 15 to 20)
#    0.000    2.250    2.500    1.125    3.500    1.500 
#    0.000    0.625    0.000    7.500    0.000    0.000 
#    0.000    0.000    0.000    0.000    0.000    0.000 
#
# Total GULP energy -89178.365626 kJ/mol
# GULP energy per Si atom -5573.647852 kJ/mol
# Density = 2.456323 g / cm^3
# Si number density = 24.619261 Si / 1000 Ang^3
#
#
#
# Elastic Constant Matrix: (Units=GPa)
#
#
# Indices 1 2 3 4 5 6 
#
# 1 65.3729 25.5431 23.6608 -13.5544 4.5161 -3.0400
# 2 25.5431 92.2931 47.9756 -19.4003 -13.7128 -8.2101
# 3 23.6608 47.9756 132.7908 -26.2762 10.1125 -4.1649
# 4 -13.5544 -19.4003 -26.2762 49.1950 -7.9907 -4.7057
# 5 4.5161 -13.7128 10.1125 -7.9907 51.7034 -3.0734
# 6 -3.0400 -8.2101 -4.1649 -4.7057 -3.0734 27.0731
#
#
#
# Elastic Compliance Matrix: (Units=1/GPa)
#
#
# Indices 1 2 3 4 5 6 
#
# 1 0.017989 -0.004143 -0.001030 0.002520 -0.002031 0.000813
# 2 -0.004143 0.016969 -0.004828 0.004611 0.006847 0.005517
# 3 -0.001030 -0.004828 0.010237 0.002852 -0.002742 0.000180
# 4 0.002520 0.004611 0.002852 0.025839 0.004864 0.007164
# 5 -0.002031 0.006847 -0.002742 0.004864 0.022912 0.004873
# 6 0.000813 0.005517 0.000180 0.007164 0.004873 0.040527
#
#
# Mechanical properties :
#
#
# Convention : Reuss Voigt Hill
#
# Bulk Modulus (GPa) = 39.69332 53.86845 46.78088
# Shear Modulus (GPa) = 30.69865 38.47946 34.58905
#
# Velocity S-wave (km/s) = 3.53503 3.95775 3.75234
# Velocity P-wave (km/s) = 5.72886 6.54317 6.14951
#
# Compressibility (1/GPa) = 0.02519315
#
# Stress axis : x y z
#
# Youngs Moduli (GPa) = 55.58948 58.93087 97.68193
#
# Poissons Ratio (x) = 0.24416 0.10057
# Poissons Ratio (y) = 0.23031 0.47165
# Poissons Ratio (z) = 0.05723 0.28454
#
# Static dielectric constant tensor:
#      x y z
#    x 2.038860 -0.040570 0.003610 
#    y -0.040570 1.950410 0.038810 
#    z 0.003610 0.038810 2.065610 
# 
# From -- ./inp_files/533275.got.cif
#   From: 2010.05.17/outbox.cif.g08.bks.cpg/sg2_267_cif.got.tgz:533275.got - 2010.06.03 11:33:40.
