data_PCOD9087892
_publ_section_title
;
Structure prediction by ZEFSAII (Michael W. Deem and Ramdas Pophale) SiO2 
 PCOD9087892
Probable space group: P -1
;
_chemical_formula_sum "Si O2"
_cell_formula_units_Z 16
_cell_length_a 9.059334
_cell_length_b 32.311213
_cell_length_c 9.973973
_cell_angle_alpha 143.416684
_cell_angle_beta 149.192525
_cell_angle_gamma 41.540705
_cell_volume 874.474504
_symmetry_space_group_name_H-M "P -1"
_symmetry_group_IT_number 2
_symmetry_cell_setting 'triclinic'
loop_
_space_group_symop_operation_xyz
x,y,z
-x,-y,-z
loop_
_atom_site_type_symbol
_atom_site_label
_atom_site_fract_x
_atom_site_fract_y
_atom_site_fract_z
Si Si1 0.650048 0.033715 0.581042
Si Si2 0.660160 0.022816 0.055204
Si Si3 0.861791 0.540377 0.792675
Si Si4 0.565701 0.331121 0.702159
Si Si5 0.682556 0.170077 0.351208
Si Si6 0.643213 0.824703 0.168371
Si Si7 0.424829 0.452563 0.120014
Si Si8 0.237230 0.336395 0.180403
O O1 0.527385 0.117654 0.713270
O O2 0.500000 0.000000 0.500000
O O3 0.002146 0.015405 0.805158
O O4 0.530091 0.998927 0.269944
O O5 0.661655 0.106485 0.269086
O O6 0.500000 0.000000 0.000000
O O7 0.728688 0.477789 0.454731
O O8 0.710466 0.555968 0.860882
O O9 0.781462 0.606226 0.801805
O O10 0.203326 0.513721 0.025298
O O11 0.555687 0.249139 0.509608
O O12 0.408447 0.350342 0.485623
O O13 0.448437 0.383622 0.867627
O O14 0.905008 0.335328 0.960819
O O15 0.019160 0.167400 0.562500
O O16 0.505541 0.159299 0.051109
O O17 0.631613 0.743017 0.975451
#
# Coordination Sequence:
#
# PCOD9087892 Si02
#       8
#     2   2   2   2   2   2   2   2
#     4  12  21  38  65  84 109 159 198 231 278 352
#     4  12  24  38  58  88 122 147 190 246 290 329
#     4  10  21  37  57  78 114 143 180 229 273 321
#     4  10  21  35  58  81 110 145 187 224 281 333
#     4  10  19  37  56  81 115 150 180 237 285 334
#     4  10  20  35  60  84 109 145 197 231 277 332
#     4  10  21  37  56  80 109 151 180 215 277 346
#     4  10  21  36  56  85 112 140 181 244 271 314
#
# _framework density 18.296702
#
# number of rings (size 3 to 8) (size 9 to 14) (size 15 to 20)
#    0.000    1.500    2.500    3.000    0.000    3.000 
#    2.250    0.000    5.500    0.000    0.000    0.000 
#    0.000    0.000    0.000    0.000    0.000    0.000 
#
# Total GULP energy -89293.261090 kJ/mol
# GULP energy per Si atom -5580.828818 kJ/mol
# Density = 1.825506 g / cm^3
# Si number density = 18.296702 Si / 1000 Ang^3
#
#
#
# Elastic Constant Matrix: (Units=GPa)
#
#
# Indices 1 2 3 4 5 6 
#
# 1 -338.1918 -48.0983 -660.9114 94.4577 -86.9754 10.0592
# 2 -48.0983 98.3695 -145.2256 38.2684 -44.3714 -6.8067
# 3 -660.9114 -145.2256-1032.2747 132.7746 -120.6224 23.4768
# 4 94.4577 38.2684 132.7746 21.1244 3.8307 -1.7180
# 5 -86.9754 -44.3714 -120.6224 3.8307 21.5394 10.9312
# 6 10.0592 -6.8067 23.4768 -1.7180 10.9312 37.6663
#
#
#
# Elastic Compliance Matrix: (Units=1/GPa)
#
#
# Indices 1 2 3 4 5 6 
#
# 1 0.014755 -0.005504 -0.008713 -0.001061 -0.000694 0.000649
# 2 -0.005504 0.012720 0.000553 -0.003069 0.006980 0.001258
# 3 -0.008713 0.000553 0.005522 0.004004 -0.004000 0.000329
# 4 -0.001061 -0.003069 0.004004 0.030671 0.008272 -0.003769
# 5 -0.000694 0.006980 -0.004000 0.008272 0.037459 -0.006554
# 6 0.000649 0.001258 0.000329 -0.003769 -0.006554 0.028128
#
#
# Mechanical properties :
#
#
# Convention : Reuss Voigt Hill
#
# Bulk Modulus (GPa) = 176.43630 -331.17419 -77.36894
# Shear Modulus (GPa) = 31.55067 -11.79142 9.87962
#
# Velocity S-wave (km/s) = 4.15708 -2.54137 2.32624
# Velocity P-wave (km/s) = 10.93992 13.78428 5.92978
#
# Compressibility (1/GPa) = 0.00566777
#
# Stress axis : x y z
#
# Youngs Moduli (GPa) = 67.77257 78.61589 181.08952
#
# Poissons Ratio (x) = 0.43272 1.57790
# Poissons Ratio (y) = 0.37303 -0.10009
# Poissons Ratio (z) = 0.59053 -0.04345
#
# Static dielectric constant tensor:
#      x y z
#    x 1.537760 -0.009730 0.006770 
#    y -0.009730 1.665620 0.012770 
#    z 0.006770 0.012770 1.618700 
# 
# From -- ./inp_files/53199.got.cif
#   From: 2010.05.17/outbox.cif.g08.bks.cpg/sg2_27_cif.got.tgz:53199.got - 2010.06.03 11:33:40.
