data_PCOD9087635
_publ_section_title
;
Structure prediction by ZEFSAII (Michael W. Deem and Ramdas Pophale) SiO2 
 PCOD9087635
Probable space group: P -1
;
_chemical_formula_sum "Si O2"
_cell_formula_units_Z 16
_cell_length_a 12.037446
_cell_length_b 9.017208
_cell_length_c 11.640091
_cell_angle_alpha 65.978952
_cell_angle_beta 49.023433
_cell_angle_gamma 76.822333
_cell_volume 869.884636
_symmetry_space_group_name_H-M "P -1"
_symmetry_group_IT_number 2
_symmetry_cell_setting 'triclinic'
loop_
_space_group_symop_operation_xyz
x,y,z
-x,-y,-z
loop_
_atom_site_type_symbol
_atom_site_label
_atom_site_fract_x
_atom_site_fract_y
_atom_site_fract_z
Si Si1 0.380001 0.628268 0.509930
Si Si2 0.142733 0.898531 0.954127
Si Si3 0.922251 0.349694 0.729896
Si Si4 0.469426 0.022779 0.649618
Si Si5 0.162318 0.578888 0.883207
Si Si6 0.769416 0.496260 0.580114
Si Si7 0.439301 0.295233 0.186292
Si Si8 0.287264 0.455044 0.053815
O O1 0.500000 0.500000 0.500000
O O2 0.458300 0.805921 0.413678
O O3 0.248855 0.609590 0.697469
O O4 0.313931 0.588807 0.442345
O O5 0.150615 0.747858 0.907080
O O6 0.294744 0.004457 0.799888
O O7 0.125329 0.812195 0.117511
O O8 0.000000 0.000000 0.000000
O O9 0.844992 0.369172 0.653248
O O10 0.863358 0.500773 0.795820
O O11 0.096967 0.379966 0.590623
O O12 0.500000 0.000000 0.500000
O O13 0.540389 0.878091 0.717633
O O14 0.255351 0.462028 0.938808
O O15 0.000000 0.500000 0.000000
O O16 0.656994 0.597346 0.698269
O O17 0.359746 0.304768 0.113408
O O18 0.597989 0.392557 0.042516
#
# Coordination Sequence:
#
# PCOD9087635 Si02
#       8
#     2   2   2   2   2   2   2   2
#     4  12  25  38  60  92 125 159 200 249 308 358
#     4  11  24  41  62  88 120 162 205 248 301 362
#     4   9  19  38  62  86 117 158 205 241 296 359
#     4  12  23  41  60  90 126 159 201 254 305 362
#     4  11  22  40  62  88 123 157 202 250 295 363
#     4  10  21  37  63  90 119 158 201 248 294 365
#     4  10  19  36  65  86 115 156 199 248 298 359
#     4   9  17  36  60  88 113 154 204 240 295 355
#
# _framework density 18.393242999999998
#
# number of rings (size 3 to 8) (size 9 to 14) (size 15 to 20)
#    0.000    1.500    3.750    3.000    5.250    0.000 
#    0.000    1.875    0.000    8.250    0.000    0.000 
#    0.000    0.000    0.000    0.000    0.000    0.000 
#
# Total GULP energy -89324.791529 kJ/mol
# GULP energy per Si atom -5582.799471 kJ/mol
# Density = 1.835138 g / cm^3
# Si number density = 18.393243 Si / 1000 Ang^3
#
#
#
# Elastic Constant Matrix: (Units=GPa)
#
#
# Indices 1 2 3 4 5 6 
#
# 1 114.6084 52.1982 48.9568 -20.8326 -5.6283 -2.5407
# 2 52.1982 76.5696 43.5999 -10.8215 -2.3562 -5.9557
# 3 48.9568 43.5999 127.0780 -10.3343 -15.7184 -3.1235
# 4 -20.8326 -10.8215 -10.3343 26.2435 -11.2408 2.4351
# 5 -5.6283 -2.3562 -15.7184 -11.2408 33.2632 -3.7105
# 6 -2.5407 -5.9557 -3.1235 2.4351 -3.7105 33.1213
#
#
#
# Elastic Compliance Matrix: (Units=1/GPa)
#
#
# Indices 1 2 3 4 5 6 
#
# 1 0.015035 -0.007727 -0.001790 0.010015 0.004464 -0.000641
# 2 -0.007727 0.020938 -0.004361 -0.000165 -0.001652 0.002588
# 3 -0.001790 -0.004361 0.011096 0.003637 0.005918 0.000521
# 4 0.010015 -0.000165 0.003637 0.057178 0.022659 -0.000584
# 5 0.004464 -0.001652 0.005918 0.022659 0.041556 0.003593
# 6 -0.000641 0.002588 0.000521 -0.000584 0.003593 0.031103
#
#
# Mechanical properties :
#
#
# Convention : Reuss Voigt Hill
#
# Bulk Modulus (GPa) = 51.78196 67.52951 59.65573
# Shear Modulus (GPa) = 23.68544 30.09234 26.88889
#
# Velocity S-wave (km/s) = 3.59238 4.04920 3.82761
# Velocity P-wave (km/s) = 6.73949 7.65868 7.21374
#
# Compressibility (1/GPa) = 0.01931175
#
# Stress axis : x y z
#
# Youngs Moduli (GPa) = 66.51219 47.76002 90.12464
#
# Poissons Ratio (x) = 0.36905 0.16134
# Poissons Ratio (y) = 0.51395 0.39304
# Poissons Ratio (z) = 0.11907 0.20829
#
# Static dielectric constant tensor:
#      x y z
#    x 1.646280 -0.015950 0.029090 
#    y -0.015950 1.605230 0.012640 
#    z 0.029090 0.012640 1.658090 
# 
# From -- ./inp_files/181675.got.cif
#   From: 2010.05.17/outbox.cif.g08.bks.cpg/sg2_91_cif.got.tgz:181675.got - 2010.06.03 11:33:40.
