data_PCOD9087427
_publ_section_title
;
Structure prediction by ZEFSAII (Michael W. Deem and Ramdas Pophale) SiO2 
 PCOD9087427
Probable space group: P -1
;
_chemical_formula_sum "Si O2"
_cell_formula_units_Z 16
_cell_length_a 18.873680
_cell_length_b 12.323190
_cell_length_c 9.155848
_cell_angle_alpha 130.955171
_cell_angle_beta 148.618615
_cell_angle_gamma 59.332927
_cell_volume 830.796647
_symmetry_space_group_name_H-M "P -1"
_symmetry_group_IT_number 2
_symmetry_cell_setting 'triclinic'
loop_
_space_group_symop_operation_xyz
x,y,z
-x,-y,-z
loop_
_atom_site_type_symbol
_atom_site_label
_atom_site_fract_x
_atom_site_fract_y
_atom_site_fract_z
Si Si1 0.297782 0.266905 0.619881
Si Si2 0.287717 0.584880 0.783865
Si Si3 0.003545 0.406270 0.568015
Si Si4 0.106882 0.188066 0.945116
Si Si5 0.893687 0.889011 0.615109
Si Si6 0.816837 0.057725 0.341376
Si Si7 0.856661 0.515658 0.842429
Si Si8 0.549916 0.143407 0.806022
O O1 0.329000 0.441578 0.810275
O O2 0.233136 0.194155 0.589028
O O3 0.427519 0.195544 0.729481
O O4 0.175502 0.224390 0.251824
O O5 0.259036 0.556335 0.534239
O O6 0.143137 0.608691 0.622502
O O7 0.394607 0.728738 0.096882
O O8 0.033903 0.244275 0.440104
O O9 0.000000 0.500000 0.500000
O O10 0.114316 0.502270 0.952459
O O11 0.944193 0.183585 0.670241
O O12 0.149921 0.043191 0.825192
O O13 0.162211 0.315397 0.047327
O O14 0.837569 0.976605 0.458417
O O15 0.000000 0.000000 0.000000
O O16 0.672772 0.110135 0.099724
O O17 0.000000 0.500000 0.000000
O O18 0.500000 0.000000 0.500000
#
# Coordination Sequence:
#
# PCOD9087427 Si02
#       8
#     2   2   2   2   2   2   2   2
#     4  11  23  44  64  97 131 172 215 268 325 385
#     4  10  23  41  68  92 127 169 220 272 317 379
#     4  11  21  38  64 100 130 165 212 271 335 378
#     4  10  19  36  63  92 122 161 219 269 309 370
#     4  12  25  39  65 101 141 167 209 272 330 390
#     4  11  22  38  64  93 129 171 211 263 327 371
#     4   9  18  33  60  90 123 157 212 261 314 372
#     4  12  26  42  68  95 130 175 222 266 320 390
#
# _framework density 19.258624000000001
#
# number of rings (size 3 to 8) (size 9 to 14) (size 15 to 20)
#    0.000    1.250    5.000    1.875    3.500    1.500 
#    0.000    0.000    2.750    1.500    0.000    0.000 
#    0.000    0.000    0.000    0.000    0.000    0.000 
#
# Total GULP energy -89215.305040 kJ/mol
# GULP energy per Si atom -5575.956565 kJ/mol
# Density = 1.921479 g / cm^3
# Si number density = 19.258624 Si / 1000 Ang^3
#
#
#
# Elastic Constant Matrix: (Units=GPa)
#
#
# Indices 1 2 3 4 5 6 
#
# 1 93.0075 48.8009 28.7328 7.6027 5.2867 5.5564
# 2 48.8009 118.3178 46.3600 11.5704 7.6889 -2.6058
# 3 28.7328 46.3600 76.7319 11.8529 8.1685 0.9130
# 4 7.6027 11.5704 11.8529 32.1873 0.1617 4.1576
# 5 5.2867 7.6889 8.1685 0.1617 29.0449 -11.0661
# 6 5.5564 -2.6058 0.9130 4.1576 -11.0661 44.0146
#
#
#
# Elastic Compliance Matrix: (Units=1/GPa)
#
#
# Indices 1 2 3 4 5 6 
#
# 1 0.014279 -0.004982 -0.002058 -0.000504 -0.001618 -0.002414
# 2 -0.004982 0.012950 -0.005700 -0.001583 -0.000305 0.001587
# 3 -0.002058 -0.005700 0.018268 -0.004047 -0.003605 -0.000981
# 4 -0.000504 -0.001583 -0.004047 0.033639 0.000300 -0.003048
# 5 -0.001618 -0.000305 -0.003605 0.000300 0.039709 0.010216
# 6 -0.002414 0.001587 -0.000981 -0.003048 0.010216 0.025995
#
#
# Mechanical properties :
#
#
# Convention : Reuss Voigt Hill
#
# Bulk Modulus (GPa) = 49.96060 59.53827 54.74944
# Shear Modulus (GPa) = 28.24984 31.99359 30.12171
#
# Velocity S-wave (km/s) = 3.83412 4.08028 3.95911
# Velocity P-wave (km/s) = 6.75270 7.29249 7.02778
#
# Compressibility (1/GPa) = 0.02001577
#
# Stress axis : x y z
#
# Youngs Moduli (GPa) = 70.03316 77.22204 54.74120
#
# Poissons Ratio (x) = 0.38470 0.11266
# Poissons Ratio (y) = 0.34889 0.31205
# Poissons Ratio (z) = 0.14414 0.44020
#
# Static dielectric constant tensor:
#      x y z
#    x 1.643820 -0.058790 -0.036760 
#    y -0.058790 1.495660 -0.022410 
#    z -0.036760 -0.022410 1.708240 
# 
# From -- ./inp_files/244224.got.cif
#   From: 2010.05.17/outbox.cif.g08.bks.cpg/sg2_123_cif.got.tgz:244224.got - 2010.06.03 11:33:40.
