data_PCOD9087843
_publ_section_title
;
Structure prediction by ZEFSAII (Michael W. Deem and Ramdas Pophale) SiO2 
 PCOD9087843
Probable space group: P -1
;
_chemical_formula_sum "Si O2"
_cell_formula_units_Z 14
_cell_length_a 7.045902
_cell_length_b 11.910240
_cell_length_c 14.855014
_cell_angle_alpha 123.320090
_cell_angle_beta 125.351508
_cell_angle_gamma 45.800125
_cell_volume 705.855146
_symmetry_space_group_name_H-M "P -1"
_symmetry_group_IT_number 2
_symmetry_cell_setting 'triclinic'
loop_
_space_group_symop_operation_xyz
x,y,z
-x,-y,-z
loop_
_atom_site_type_symbol
_atom_site_label
_atom_site_fract_x
_atom_site_fract_y
_atom_site_fract_z
Si Si1 0.299635 0.451167 0.524986
Si Si2 0.675113 0.381070 0.077173
Si Si3 0.172536 0.034531 0.812689
Si Si4 0.286601 0.622058 0.230832
Si Si5 0.368860 0.730366 0.630360
Si Si6 0.429042 0.870008 0.997091
Si Si7 0.172302 0.386232 0.145447
O O1 0.537229 0.381545 0.637245
O O2 0.248332 0.618234 0.544602
O O3 0.436336 0.317890 0.424812
O O4 0.000000 0.500000 0.500000
O O5 0.518415 0.481546 0.167696
O O6 0.970804 0.355637 0.132034
O O7 0.500000 0.500000 0.000000
O O8 0.682011 0.217665 0.012957
O O9 0.893917 0.209268 0.796038
O O10 0.216943 0.971872 0.901118
O O11 0.453018 0.037330 0.878655
O O12 0.169970 0.916690 0.685689
O O13 0.073233 0.568130 0.173855
O O14 0.566406 0.666753 0.743424
O O15 0.709191 0.726175 0.958985
#
# Coordination Sequence:
#
# PCOD9087843 Si02
#       7
#     2   2   2   2   2   2   2
#     4  10  20  39  60  77 100 139 186 227 269 322
#     4  11  20  33  56  83 108 147 190 218 254 317
#     4  10  19  37  54  80 118 144 173 219 276 323
#     4  10  21  35  56  82 112 142 177 229 271 312
#     4   9  20  36  58  78 102 141 179 221 273 325
#     4   9  20  36  55  77 115 153 176 216 264 316
#     4   9  18  36  56  79 108 145 187 217 256 319
#
# _framework density 19.834095999999999
#
# number of rings (size 3 to 8) (size 9 to 14) (size 15 to 20)
#    0.000    2.286    0.000    3.429    0.000    2.857 
#    0.000   19.286    0.000    0.000    0.000    0.000 
#    0.000    0.000    0.000    0.000    0.000    0.000 
#
# Total GULP energy -78033.945303 kJ/mol
# GULP energy per Si atom -5573.853236 kJ/mol
# Density = 1.978895 g / cm^3
# Si number density = 19.834096 Si / 1000 Ang^3
#
#
#
# Elastic Constant Matrix: (Units=GPa)
#
#
# Indices 1 2 3 4 5 6 
#
# 1 116.3353 19.1155 6.5503 10.9649 13.4344 9.9068
# 2 19.1155 85.0863 10.2802 -0.3001 8.4443 14.2098
# 3 6.5503 10.2802 65.4620 5.3733 -9.6124 0.6627
# 4 10.9649 -0.3001 5.3733 23.6851 5.6779 -2.9894
# 5 13.4344 8.4443 -9.6124 5.6779 25.6187 1.5721
# 6 9.9068 14.2098 0.6627 -2.9894 1.5721 26.5962
#
#
#
# Elastic Compliance Matrix: (Units=1/GPa)
#
#
# Indices 1 2 3 4 5 6 
#
# 1 0.009967 -0.001161 -0.001091 -0.003780 -0.004217 -0.003241
# 2 -0.001161 0.013951 -0.002900 0.001775 -0.005076 -0.006450
# 3 -0.001091 -0.002900 0.017695 -0.005767 0.009427 0.000310
# 4 -0.003780 0.001775 -0.005767 0.049054 -0.012058 0.006830
# 5 -0.004217 -0.005076 0.009427 -0.012058 0.049141 -0.000212
# 6 -0.003241 -0.006450 0.000310 0.006830 -0.000212 0.043025
#
#
# Mechanical properties :
#
#
# Convention : Reuss Voigt Hill
#
# Bulk Modulus (GPa) = 31.94042 37.64169 34.79106
# Shear Modulus (GPa) = 24.56108 30.57583 27.56845
#
# Velocity S-wave (km/s) = 3.52280 3.93055 3.73225
# Velocity P-wave (km/s) = 5.71713 6.29432 6.01266
#
# Compressibility (1/GPa) = 0.03130829
#
# Stress axis : x y z
#
# Youngs Moduli (GPa) = 100.32864 71.67884 56.51272
#
# Poissons Ratio (x) = 0.08322 0.06167
# Poissons Ratio (y) = 0.11648 0.16391
# Poissons Ratio (z) = 0.10948 0.20790
#
# Static dielectric constant tensor:
#      x y z
#    x 0.120100 0.799230 0.377420 
#    y 0.799230 1.427670 -0.108800 
#    z 0.377420 -0.108800 1.662340 
# 
# From -- ./inp_files/483070.got.cif
#   From: 2010.05.17/outbox.cif.g08.bks.cpg/sg2_242_cif.got.tgz:483070.got - 2010.06.03 11:33:40.
