data_PCOD9087460
_publ_section_title
;
Structure prediction by ZEFSAII (Michael W. Deem and Ramdas Pophale) SiO2 
 PCOD9087460
Probable space group: P -1
;
_chemical_formula_sum "Si O2"
_cell_formula_units_Z 12
_cell_length_a 9.196747
_cell_length_b 8.599670
_cell_length_c 13.240089
_cell_angle_alpha 96.882989
_cell_angle_beta 53.295017
_cell_angle_gamma 135.542869
_cell_volume 492.468261
_symmetry_space_group_name_H-M "P -1"
_symmetry_group_IT_number 2
_symmetry_cell_setting 'triclinic'
loop_
_space_group_symop_operation_xyz
x,y,z
-x,-y,-z
loop_
_atom_site_type_symbol
_atom_site_label
_atom_site_fract_x
_atom_site_fract_y
_atom_site_fract_z
Si Si1 0.183304 0.224737 0.063057
Si Si2 0.640869 0.338165 0.448031
Si Si3 0.410599 0.891746 0.914028
Si Si4 0.284483 0.475697 0.855595
Si Si5 0.558426 0.985614 0.311604
Si Si6 0.836279 0.748090 0.297857
O O1 0.894398 0.139086 0.190896
O O2 0.500000 0.500000 0.000000
O O3 0.251917 0.296280 0.922144
O O4 0.090126 0.001431 0.140284
O O5 0.604320 0.183975 0.363847
O O6 0.900659 0.647248 0.336410
O O7 0.332431 0.227732 0.575671
O O8 0.662487 0.266885 0.541727
O O9 0.454491 0.736008 0.861370
O O10 0.523079 0.056382 0.776232
O O11 0.045641 0.677217 0.043777
O O12 0.500000 0.000000 0.000000
O O13 0.404249 0.496481 0.701399
#
# Coordination Sequence:
#
# PCOD9087460 Si02
#       6
#     2   2   2   2   2   2
#     4  10  22  37  60  96 131 170 210 271 325 384
#     4   9  18  35  67  91 125 181 211 264 318 384
#     4  10  21  37  64  97 128 165 214 274 328 386
#     4  10  21  38  59  94 131 169 211 268 333 381
#     4   9  18  39  65  96 130 170 218 260 327 387
#     4  10  19  36  63  95 127 169 217 260 327 378
#
# _framework density 24.367054
#
# number of rings (size 3 to 8) (size 9 to 14) (size 15 to 20)
#    0.000    2.333    1.667    0.500    2.333    0.000 
#    0.000    0.833    0.000   24.000    0.000    0.000 
#    0.000    0.000    0.000    0.000    0.000    0.000 
#
# Total GULP energy -66926.100109 kJ/mol
# GULP energy per Si atom -5577.175009 kJ/mol
# Density = 2.431159 g / cm^3
# Si number density = 24.367054 Si / 1000 Ang^3
#
#
#
# Elastic Constant Matrix: (Units=GPa)
#
#
# Indices 1 2 3 4 5 6 
#
# 1 130.8413 62.8516 54.9962 0.0192 40.5051 -3.4962
# 2 62.8516 113.2136 54.5523 4.8365 30.1425 -7.9592
# 3 54.9962 54.5523 138.5011 9.9512 60.7695 -4.2183
# 4 0.0192 4.8365 9.9512 44.0476 -16.6584 12.2342
# 5 40.5051 30.1425 60.7695 -16.6584 54.4531 2.5731
# 6 -3.4962 -7.9592 -4.2183 12.2342 2.5731 52.8702
#
#
#
# Elastic Compliance Matrix: (Units=1/GPa)
#
#
# Indices 1 2 3 4 5 6 
#
# 1 0.012232 -0.004733 0.001338 -0.003671 -0.009166 0.001499
# 2 -0.004733 0.013379 -0.002031 -0.002588 -0.002517 0.002260
# 3 0.001338 -0.002031 0.023045 -0.019118 -0.031797 0.007593
# 4 -0.003671 -0.002588 -0.019118 0.046785 0.040518 -0.014956
# 5 -0.009166 -0.002517 -0.031797 0.040518 0.075239 -0.016560
# 6 0.001499 0.002260 0.007593 -0.014956 -0.016560 0.024226
#
#
# Mechanical properties :
#
#
# Convention : Reuss Voigt Hill
#
# Bulk Modulus (GPa) = 26.45201 80.81737 53.63469
# Shear Modulus (GPa) = 22.89813 44.28458 33.59136
#
# Velocity S-wave (km/s) = 3.06881 4.26772 3.71692
# Velocity P-wave (km/s) = 4.84107 7.58441 6.36236
#
# Compressibility (1/GPa) = 0.03780431
#
# Stress axis : x y z
#
# Youngs Moduli (GPa) = 81.75203 74.74587 43.39370
#
# Poissons Ratio (x) = 0.35377 -0.05808
# Poissons Ratio (y) = 0.38693 0.08813
# Poissons Ratio (z) = -0.10941 0.15181
#
# Static dielectric constant tensor:
#      x y z
#    x 1.980810 0.002730 0.078320 
#    y 0.002730 2.015800 -0.003370 
#    z 0.078320 -0.003370 2.088880 
# 
# From -- ./inp_files/66687.got.cif
#   From: 2010.05.17/outbox.cif.g08.bks.cpg/sg2_34_cif.got.tgz:66687.got - 2010.06.03 11:33:40.
