data_PCOD9087201
_publ_section_title
;
Structure prediction by ZEFSAII (Michael W. Deem and Ramdas Pophale) SiO2 
 PCOD9087201
Probable space group: P -1
;
_chemical_formula_sum "Si O2"
_cell_formula_units_Z 16
_cell_length_a 13.082861
_cell_length_b 8.623378
_cell_length_c 11.868949
_cell_angle_alpha 50.605362
_cell_angle_beta 51.902658
_cell_angle_gamma 55.110855
_cell_volume 777.693157
_symmetry_space_group_name_H-M "P -1"
_symmetry_group_IT_number 2
_symmetry_cell_setting 'triclinic'
loop_
_space_group_symop_operation_xyz
x,y,z
-x,-y,-z
loop_
_atom_site_type_symbol
_atom_site_label
_atom_site_fract_x
_atom_site_fract_y
_atom_site_fract_z
Si Si1 0.639139 0.196259 0.282337
Si Si2 0.966561 0.354510 0.258226
Si Si3 0.177726 0.229138 0.984309
Si Si4 0.142015 0.875019 0.018590
Si Si5 0.331921 0.251374 0.427754
Si Si6 0.694298 0.417851 0.511972
Si Si7 0.579680 0.616611 0.270726
Si Si8 0.098293 0.472775 0.338456
O O1 0.491695 0.220333 0.317255
O O2 0.619907 0.381790 0.300055
O O3 0.684775 0.963300 0.411156
O O4 0.749896 0.219416 0.108263
O O5 0.899903 0.568353 0.133188
O O6 0.836670 0.286164 0.420789
O O7 0.037209 0.402633 0.300390
O O8 0.079296 0.216556 0.160575
O O9 0.321144 0.263276 0.904980
O O10 0.198093 0.031261 0.982039
O O11 0.118298 0.695807 0.194744
O O12 0.000000 0.000000 0.000000
O O13 0.283324 0.443414 0.462134
O O14 0.241715 0.313496 0.350297
O O15 0.618331 0.587583 0.389858
O O16 0.583108 0.298867 0.671207
O O17 0.000000 0.500000 0.500000
#
# Coordination Sequence:
#
# PCOD9087201 Si02
#       8
#     2   2   2   2   2   2   2   2
#     4  10  21  39  64  94 120 164 216 253 306 377
#     4  10  19  36  62  88 125 158 206 256 307 368
#     4  10  21  38  61  92 120 161 213 258 302 371
#     4  12  24  39  64  91 121 165 211 256 307 375
#     4  10  21  39  63  92 128 162 206 263 311 369
#     4   9  17  33  55  87 122 161 198 246 310 361
#     4   9  18  32  60  88 120 159 206 253 302 363
#     4  12  23  40  62  92 129 164 202 263 322 362
#
# _framework density 20.573668000000001
#
# number of rings (size 3 to 8) (size 9 to 14) (size 15 to 20)
#    0.000    1.750    2.500    3.000    3.500    1.500 
#    0.000    1.875    0.000    3.750    0.000    0.000 
#    0.000    0.000    0.000    0.000    0.000    0.000 
#
# Total GULP energy -89350.932210 kJ/mol
# GULP energy per Si atom -5584.433263 kJ/mol
# Density = 2.052684 g / cm^3
# Si number density = 20.573668 Si / 1000 Ang^3
#
#
#
# Elastic Constant Matrix: (Units=GPa)
#
#
# Indices 1 2 3 4 5 6 
#
# 1 89.9914 20.0954 35.5054 1.3986 -21.9629 0.9488
# 2 20.0954 30.1921 33.3505 17.0550 -7.0587 -1.4530
# 3 35.5054 33.3505 112.5338 19.7827 -19.0107 -13.5130
# 4 1.3986 17.0550 19.7827 33.9925 1.1262 3.4852
# 5 -21.9629 -7.0587 -19.0107 1.1262 23.0275 2.4481
# 6 0.9488 -1.4530 -13.5130 3.4852 2.4481 24.7165
#
#
#
# Elastic Compliance Matrix: (Units=1/GPa)
#
#
# Indices 1 2 3 4 5 6 
#
# 1 0.016812 -0.009456 -0.001938 0.005219 0.011723 -0.004158
# 2 -0.009456 0.068974 -0.011825 -0.027606 0.003553 0.001493
# 3 -0.001938 -0.011825 0.015900 -0.004292 0.007014 0.007983
# 4 0.005219 -0.027606 -0.004292 0.046846 -0.008260 -0.009957
# 5 0.011723 0.003553 0.007014 -0.008260 0.062039 -0.001386
# 6 -0.004158 0.001493 0.007983 -0.009957 -0.001386 0.046612
#
#
# Mechanical properties :
#
#
# Convention : Reuss Voigt Hill
#
# Bulk Modulus (GPa) = 18.10044 45.62442 31.86243
# Shear Modulus (GPa) = 15.52611 25.93171 20.72891
#
# Velocity S-wave (km/s) = 2.75009 3.55411 3.17763
# Velocity P-wave (km/s) = 4.34752 6.25032 5.38365
#
# Compressibility (1/GPa) = 0.05524727
#
# Stress axis : x y z
#
# Youngs Moduli (GPa) = 59.48031 14.49822 62.89216
#
# Poissons Ratio (x) = 0.13710 0.12190
# Poissons Ratio (y) = 0.56246 0.74371
# Poissons Ratio (z) = 0.11529 0.17144
#
# Static dielectric constant tensor:
#      x y z
#    x 1.725600 -0.024140 -0.049500 
#    y -0.024140 1.703890 0.027310 
#    z -0.049500 0.027310 1.735860 
# 
# From -- ./inp_files/308461.got.cif
#   From: 2010.05.17/outbox.cif.g08.bks.cpg/sg2_155_cif.got.tgz:308461.got - 2010.06.03 11:33:40.
