data_PCOD9087188
_publ_section_title
;
Structure prediction by ZEFSAII (Michael W. Deem and Ramdas Pophale) SiO2 
 PCOD9087188
Probable space group: P -1
;
_chemical_formula_sum "Si O2"
_cell_formula_units_Z 16
_cell_length_a 8.627659
_cell_length_b 10.610827
_cell_length_c 14.689342
_cell_angle_alpha 136.914986
_cell_angle_beta 107.480309
_cell_angle_gamma 57.729995
_cell_volume 767.305063
_symmetry_space_group_name_H-M "P -1"
_symmetry_group_IT_number 2
_symmetry_cell_setting 'triclinic'
loop_
_space_group_symop_operation_xyz
x,y,z
-x,-y,-z
loop_
_atom_site_type_symbol
_atom_site_label
_atom_site_fract_x
_atom_site_fract_y
_atom_site_fract_z
Si Si1 0.084573 0.372349 0.181206
Si Si2 0.319453 0.024786 0.930138
Si Si3 0.872774 0.225002 0.553818
Si Si4 0.449476 0.726348 0.357239
Si Si5 0.774784 0.308905 0.186948
Si Si6 0.403382 0.186210 0.286369
Si Si7 0.702277 0.885669 0.589193
Si Si8 0.136778 0.635295 0.560621
O O1 0.056751 0.607217 0.317536
O O2 0.242620 0.235274 0.210800
O O3 0.914169 0.336251 0.158871
O O4 0.167817 0.270543 0.043924
O O5 0.236530 0.902538 0.910654
O O6 0.404902 0.913305 0.789044
O O7 0.500000 0.000000 0.000000
O O8 0.672183 0.300654 0.600525
O O9 0.862204 0.209965 0.435731
O O10 0.000000 0.000000 0.500000
O O11 0.574485 0.493679 0.218893
O O12 0.593406 0.795107 0.461650
O O13 0.321347 0.910206 0.361737
O O14 0.827035 0.341196 0.316329
O O15 0.399671 0.045817 0.295161
O O16 0.310619 0.415898 0.440239
O O17 0.915575 0.704161 0.548253
#
# Coordination Sequence:
#
# PCOD9087188 Si02
#       8
#     2   2   2   2   2   2   2   2
#     4  10  22  40  63  87 123 168 210 251 304 366
#     4  10  23  41  60  92 121 165 214 257 302 364
#     4  11  23  38  62  92 130 166 195 258 320 373
#     4  11  23  34  57  94 129 165 196 248 323 376
#     4  12  22  38  68  92 122 161 212 260 309 369
#     4  10  19  36  62  87 127 159 204 260 302 365
#     4  11  21  36  56  91 136 162 199 252 319 373
#     4  11  21  36  60  96 123 159 203 263 319 360
#
# _framework density 20.852201000000001
#
# number of rings (size 3 to 8) (size 9 to 14) (size 15 to 20)
#    0.000    1.250    3.750    4.500    3.500    1.000 
#    0.000    0.000    0.000   11.250    0.000    0.000 
#    0.000    0.000    0.000    0.000    0.000    0.000 
#
# Total GULP energy -89110.174072 kJ/mol
# GULP energy per Si atom -5569.385879 kJ/mol
# Density = 2.080474 g / cm^3
# Si number density = 20.852201 Si / 1000 Ang^3
#
#
#
# Elastic Constant Matrix: (Units=GPa)
#
#
# Indices 1 2 3 4 5 6 
#
# 1 90.3149 19.7760 32.1396 6.2655 -11.0583 12.2673
# 2 19.7760 84.3510 25.0382 4.3338 -8.3585 9.7024
# 3 32.1396 25.0382 88.5181 10.9798 -12.1233 -1.7100
# 4 6.2655 4.3338 10.9798 14.5982 1.8566 -3.2763
# 5 -11.0583 -8.3585 -12.1233 1.8566 38.0432 -0.6818
# 6 12.2673 9.7024 -1.7100 -3.2763 -0.6818 29.4777
#
#
#
# Elastic Compliance Matrix: (Units=1/GPa)
#
#
# Indices 1 2 3 4 5 6 
#
# 1 0.014233 -0.000890 -0.004101 -0.004524 0.002743 -0.006308
# 2 -0.000890 0.013833 -0.003096 -0.002666 0.001841 -0.004616
# 3 -0.004101 -0.003096 0.015258 -0.008624 0.003460 0.002732
# 4 -0.004524 -0.002666 -0.008624 0.081283 -0.008417 0.011100
# 5 0.002743 0.001841 0.003460 -0.008417 0.028969 -0.001812
# 6 -0.006308 -0.004616 0.002732 0.011100 -0.001812 0.039419
#
#
# Mechanical properties :
#
#
# Convention : Reuss Voigt Hill
#
# Bulk Modulus (GPa) = 36.83152 46.34353 41.58752
# Shear Modulus (GPa) = 22.91278 28.83917 25.87597
#
# Velocity S-wave (km/s) = 3.31844 3.72294 3.52650
# Velocity P-wave (km/s) = 5.69071 6.38384 6.04721
#
# Compressibility (1/GPa) = 0.02715066
#
# Stress axis : x y z
#
# Youngs Moduli (GPa) = 70.25888 72.28930 65.53824
#
# Poissons Ratio (x) = 0.06432 0.26878
# Poissons Ratio (y) = 0.06252 0.20291
# Poissons Ratio (z) = 0.28814 0.22381
#
# Static dielectric constant tensor:
#      x y z
#    x 1.834040 0.026710 -0.008400 
#    y 0.026710 1.774900 0.041690 
#    z -0.008400 0.041690 1.854830 
# 
# From -- ./inp_files/171352.got.cif
#   From: 2010.05.17/outbox.cif.g08.bks.cpg/sg2_86_cif.got.tgz:171352.got - 2010.06.03 11:33:40.
