data_PCOD9087161
_publ_section_title
;
Structure prediction by ZEFSAII (Michael W. Deem and Ramdas Pophale) SiO2 
 PCOD9087161
Probable space group: P -1
;
_chemical_formula_sum "Si O2"
_cell_formula_units_Z 16
_cell_length_a 12.492555
_cell_length_b 14.051849
_cell_length_c 11.442680
_cell_angle_alpha 94.052174
_cell_angle_beta 36.084069
_cell_angle_gamma 117.074499
_cell_volume 867.974357
_symmetry_space_group_name_H-M "P -1"
_symmetry_group_IT_number 2
_symmetry_cell_setting 'triclinic'
loop_
_space_group_symop_operation_xyz
x,y,z
-x,-y,-z
loop_
_atom_site_type_symbol
_atom_site_label
_atom_site_fract_x
_atom_site_fract_y
_atom_site_fract_z
Si Si1 0.673665 0.914564 0.665526
Si Si2 0.298050 0.614496 0.937645
Si Si3 0.368884 0.418851 0.226001
Si Si4 0.772869 0.503938 0.437480
Si Si5 0.468931 0.285779 0.509920
Si Si6 0.946391 0.122442 0.630875
Si Si7 0.530575 0.096268 0.392513
Si Si8 0.000188 0.775408 0.163047
O O1 0.431442 0.760641 0.874275
O O2 0.892302 0.913590 0.479145
O O3 0.651564 0.959147 0.564007
O O4 0.731255 0.008740 0.726428
O O5 0.435070 0.574930 0.873368
O O6 0.355028 0.628878 0.750119
O O7 0.012866 0.522455 0.213955
O O8 0.288047 0.482048 0.378084
O O9 0.130762 0.263118 0.415361
O O10 0.500000 0.500000 0.000000
O O11 0.548795 0.374355 0.558301
O O12 0.841190 0.625564 0.320167
O O13 0.500693 0.185326 0.493044
O O14 0.193212 0.214492 0.708369
O O15 0.876649 0.146223 0.817333
O O16 0.500000 0.000000 0.500000
O O17 0.798552 0.179676 0.105311
#
# Coordination Sequence:
#
# PCOD9087161 Si02
#       8
#     2   2   2   2   2   2   2   2
#     4   9  17  38  61  83 113 150 199 243 283 338
#     4  10  19  36  62  85 118 148 197 252 280 342
#     4  10  22  39  55  86 125 150 190 245 300 349
#     4  11  21  36  64  88 111 157 199 238 294 349
#     4  11  21  39  60  90 116 150 204 240 286 356
#     4   9  18  37  63  84 107 156 203 239 285 339
#     4  11  24  40  56  88 128 153 188 246 301 350
#     4  11  20  37  64  87 113 155 196 246 290 344
#
# _framework density 18.433724999999999
#
# number of rings (size 3 to 8) (size 9 to 14) (size 15 to 20)
#    0.000    1.750    7.500    0.750    0.000    1.500 
#    4.500    2.500    0.000    0.000    0.000    0.000 
#    0.000    0.000    0.000    0.000    0.000    0.000 
#
# Total GULP energy -89242.553713 kJ/mol
# GULP energy per Si atom -5577.659607 kJ/mol
# Density = 1.839177 g / cm^3
# Si number density = 18.433725 Si / 1000 Ang^3
#
#
#
# Elastic Constant Matrix: (Units=GPa)
#
#
# Indices 1 2 3 4 5 6 
#
# 1 53.2625 14.0283 10.8874 -3.8160 4.2284 -2.0444
# 2 14.0283 64.6722 4.5851 16.6298 5.5909 14.2567
# 3 10.8874 4.5851 49.7440 4.3389 -6.8956 -5.8911
# 4 -3.8160 16.6298 4.3389 18.6813 -9.2712 -0.1885
# 5 4.2284 5.5909 -6.8956 -9.2712 19.1964 -0.5690
# 6 -2.0444 14.2567 -5.8911 -0.1885 -0.5690 34.5175
#
#
#
# Elastic Compliance Matrix: (Units=1/GPa)
#
#
# Indices 1 2 3 4 5 6 
#
# 1 0.023820 -0.011565 -0.004319 0.019205 0.006013 0.005654
# 2 -0.011565 0.040307 -0.003819 -0.056646 -0.038483 -0.018929
# 3 -0.004319 -0.003819 0.023470 0.003173 0.012191 0.005546
# 4 0.019205 -0.056646 0.003173 0.150560 0.086933 0.027330
# 5 0.006013 -0.038483 0.012191 0.086933 0.108952 0.020602
# 6 0.005654 -0.018929 0.005546 0.027330 0.020602 0.038559
#
#
# Mechanical properties :
#
#
# Convention : Reuss Voigt Hill
#
# Bulk Modulus (GPa) = 20.75143 25.18670 22.96907
# Shear Modulus (GPa) = 11.33429 23.69090 17.51260
#
# Velocity S-wave (km/s) = 2.48234 3.58885 3.08560
# Velocity P-wave (km/s) = 4.41563 5.55573 5.01816
#
# Compressibility (1/GPa) = 0.04818945
#
# Stress axis : x y z
#
# Youngs Moduli (GPa) = 41.98237 24.80931 42.60700
#
# Poissons Ratio (x) = 0.28693 0.18403
# Poissons Ratio (y) = 0.48554 0.16273
# Poissons Ratio (z) = 0.18134 0.09475
#
# Static dielectric constant tensor:
#      x y z
#    x 1.646740 0.007460 -0.024280 
#    y 0.007460 1.640570 0.019680 
#    z -0.024280 0.019680 1.644100 
# 
# From -- ./inp_files/273291.got.cif
#   From: 2010.05.17/outbox.cif.g08.bks.cpg/sg2_137_cif.got.tgz:273291.got - 2010.06.03 11:33:40.
