data_PCOD9087799
_publ_section_title
;
Structure prediction by ZEFSAII (Michael W. Deem and Ramdas Pophale) SiO2 
 PCOD9087799
Probable space group: P -1
;
_chemical_formula_sum "Si O2"
_cell_formula_units_Z 14
_cell_length_a 12.049462
_cell_length_b 7.177266
_cell_length_c 8.913154
_cell_angle_alpha 118.802910
_cell_angle_beta 64.255667
_cell_angle_gamma 85.823858
_cell_volume 568.233589
_symmetry_space_group_name_H-M "P -1"
_symmetry_group_IT_number 2
_symmetry_cell_setting 'triclinic'
loop_
_space_group_symop_operation_xyz
x,y,z
-x,-y,-z
loop_
_atom_site_type_symbol
_atom_site_label
_atom_site_fract_x
_atom_site_fract_y
_atom_site_fract_z
Si Si1 0.515320 0.781177 0.511532
Si Si2 0.808101 0.497663 0.298060
Si Si3 0.908967 0.049880 0.222799
Si Si4 0.416063 0.514797 0.907191
Si Si5 0.148375 0.783266 0.148980
Si Si6 0.057664 0.503544 0.306195
Si Si7 0.277449 0.139604 0.883799
O O1 0.662152 0.684250 0.454587
O O2 0.505883 0.580754 0.330533
O O3 0.500000 0.000000 0.500000
O O4 0.393792 0.896272 0.739966
O O5 0.817477 0.309573 0.348058
O O6 0.933288 0.563038 0.289923
O O7 0.838695 0.377542 0.069603
O O8 0.813869 0.902801 0.212663
O O9 0.015212 0.990636 0.269493
O O10 0.000000 0.000000 0.000000
O O11 0.343744 0.328906 0.897774
O O12 0.500000 0.500000 0.000000
O O13 0.300412 0.763111 0.060941
O O14 0.125248 0.676661 0.277582
O O15 0.000000 0.500000 0.500000
O O16 0.167656 0.252894 0.117146
#
# Coordination Sequence:
#
# PCOD9087799 Si02
#       7
#     2   2   2   2   2   2   2
#     4   9  20  37  67  98 123 173 233 263 327 403
#     4  10  20  39  67  95 133 169 225 276 321 409
#     4  10  19  36  68  98 126 163 231 278 312 391
#     4   9  19  37  62 100 135 167 218 284 333 393
#     4   9  19  36  69  92 122 179 220 271 332 393
#     4  11  22  38  64  98 133 166 223 288 338 379
#     4  10  20  39  66  90 133 173 221 267 333 391
#
# _framework density 24.637753
#
# number of rings (size 3 to 8) (size 9 to 14) (size 15 to 20)
#    0.000    2.286    2.857    1.286    6.000    0.571 
#    5.143    4.286    0.000    0.000    0.000    1.000 
#    0.000    0.000    0.000    0.000    0.000    0.000 
#
# Total GULP energy -78024.883825 kJ/mol
# GULP energy per Si atom -5573.205988 kJ/mol
# Density = 2.458168 g / cm^3
# Si number density = 24.637753 Si / 1000 Ang^3
#
#
#
# Elastic Constant Matrix: (Units=GPa)
#
#
# Indices 1 2 3 4 5 6 
#
# 1 92.5687 35.3789 31.4698 19.6837 -24.1327 -24.9180
# 2 35.3789 117.7737 50.6411 18.2197 -19.5727 -30.6207
# 3 31.4698 50.6411 164.7287 18.7113 -36.1320 -38.4409
# 4 19.6837 18.2197 18.7113 38.3743 -12.9424 -18.2007
# 5 -24.1327 -19.5727 -36.1320 -12.9424 31.3349 11.0905
# 6 -24.9180 -30.6207 -38.4409 -18.2007 11.0905 50.8465
#
#
#
# Elastic Compliance Matrix: (Units=1/GPa)
#
#
# Indices 1 2 3 4 5 6 
#
# 1 0.015245 -0.002035 0.000949 -0.002254 0.009161 0.004158
# 2 -0.002035 0.011261 -0.001698 -0.001128 0.001725 0.003720
# 3 0.000949 -0.001698 0.009494 0.001223 0.009346 0.005019
# 4 -0.002254 -0.001128 0.001223 0.035059 0.010091 0.009489
# 5 0.009161 0.001725 0.009346 0.010091 0.053376 0.004564
# 6 0.004158 0.003720 0.005019 0.009489 0.004564 0.030140
#
#
# Mechanical properties :
#
#
# Convention : Reuss Voigt Hill
#
# Bulk Modulus (GPa) = 32.86213 67.78343 50.32278
# Shear Modulus (GPa) = 29.36220 41.28324 35.32272
#
# Velocity S-wave (km/s) = 3.45593 4.09786 3.79051
# Velocity P-wave (km/s) = 5.41218 7.06836 6.29497
#
# Compressibility (1/GPa) = 0.03043016
#
# Stress axis : x y z
#
# Youngs Moduli (GPa) = 65.59561 88.80207 105.33376
#
# Poissons Ratio (x) = 0.18075 -0.09997
# Poissons Ratio (y) = 0.13351 0.17889
# Poissons Ratio (z) = -0.06225 0.15082
#
# Static dielectric constant tensor:
#      x y z
#    x 1.989040 0.036850 -0.028560 
#    y 0.036850 2.126880 0.050230 
#    z -0.028560 0.050230 2.073530 
# 
# From -- ./inp_files/240228.got.cif
#   From: 2010.05.17/outbox.cif.g08.bks.cpg/sg2_121_cif.got.tgz:240228.got - 2010.06.03 11:33:40.
