data_PCOD9087122
_publ_section_title
;
Structure prediction by ZEFSAII (Michael W. Deem and Ramdas Pophale) SiO2 
 PCOD9087122
Probable space group: P -1
;
_chemical_formula_sum "Si O2"
_cell_formula_units_Z 15
_cell_length_a 10.757520
_cell_length_b 11.120834
_cell_length_c 9.736361
_cell_angle_alpha 78.803387
_cell_angle_beta 128.740912
_cell_angle_gamma 63.092780
_cell_volume 589.211807
_symmetry_space_group_name_H-M "P -1"
_symmetry_group_IT_number 2
_symmetry_cell_setting 'triclinic'
loop_
_space_group_symop_operation_xyz
x,y,z
-x,-y,-z
loop_
_atom_site_type_symbol
_atom_site_label
_atom_site_fract_x
_atom_site_fract_y
_atom_site_fract_z
Si Si1 0.212333 0.778083 0.709460
Si Si2 0.427550 0.545894 0.632085
Si Si3 0.590310 0.752637 0.950873
Si Si4 0.130362 0.556605 0.025076
Si Si5 0.000000 0.500000 0.500000
Si Si6 0.820826 0.888171 0.576232
Si Si7 0.719094 0.632934 0.537673
Si Si8 0.761521 0.113994 0.725671
O O1 0.307451 0.659952 0.664704
O O2 0.435496 0.732891 0.922981
O O3 0.000000 0.000000 0.500000
O O4 0.074826 0.752832 0.702364
O O5 0.712149 0.408609 0.862287
O O6 0.338334 0.462405 0.559973
O O7 0.336924 0.695790 0.424916
O O8 0.714973 0.615459 0.935501
O O9 0.404462 0.960242 0.714856
O O10 0.789262 0.679403 0.212603
O O11 0.141556 0.491021 0.198985
O O12 0.868498 0.746475 0.742868
O O13 0.853944 0.628170 0.512084
O O14 0.804416 0.014198 0.638921
O O15 0.452316 0.830400 0.352868
O O16 0.000000 0.000000 0.000000
#
# Coordination Sequence:
#
# PCOD9087122 Si02
#       8
#     2   2   2   2   1   2   2   2
#     4   9  18  35  65  99 135 163 208 282 347 396
#     4  10  19  36  62 103 136 161 218 286 341 398
#     4  10  23  45  63  99 135 184 232 266 336 398
#     4  10  21  41  72 101 129 170 224 291 346 394
#     4  12  30  44  68  86 140 204 222 276 322 404
#     4  11  20  38  71 105 132 172 214 288 353 394
#     4  11  24  44  63 100 138 179 230 269 339 414
#     4  11  20  35  66 105 136 168 212 287 354 394
#
# _framework density 25.457737000000002
#
# number of rings (size 3 to 8) (size 9 to 14) (size 15 to 20)
#    0.000    1.600    5.333    3.200    5.600    1.600 
#    0.000    1.333    2.933    0.000    0.000    0.000 
#    0.000    0.000    0.000    0.000    0.000    0.000 
#
# Total GULP energy -83641.778039 kJ/mol
# GULP energy per Si atom -5576.118536 kJ/mol
# Density = 2.539979 g / cm^3
# Si number density = 25.457737 Si / 1000 Ang^3
#
#
#
# Elastic Constant Matrix: (Units=GPa)
#
#
# Indices 1 2 3 4 5 6 
#
# 1 84.4094 29.6110 40.1727 1.5546 6.2677 -3.7102
# 2 29.6110 75.5795 24.8092 5.6293 -12.5137 -26.5017
# 3 40.1727 24.8092 227.8674 -3.3052 -25.6076 -13.6344
# 4 1.5546 5.6293 -3.3052 37.4671 -9.6220 -10.1448
# 5 6.2677 -12.5137 -25.6076 -9.6220 36.4192 -9.3008
# 6 -3.7102 -26.5017 -13.6344 -10.1448 -9.3008 48.5853
#
#
#
# Elastic Compliance Matrix: (Units=1/GPa)
#
#
# Indices 1 2 3 4 5 6 
#
# 1 0.018536 -0.011183 -0.004299 -0.005729 -0.014067 -0.009780
# 2 -0.011183 0.026302 0.002575 0.007034 0.019594 0.019435
# 3 -0.004299 0.002575 0.006169 0.003883 0.008319 0.005211
# 4 -0.005729 0.007034 0.003883 0.035448 0.019488 0.015621
# 5 -0.014067 0.019594 0.008319 0.019488 0.054358 0.026423
# 6 -0.009780 0.019435 0.005211 0.015621 0.026423 0.040219
#
#
# Mechanical properties :
#
#
# Convention : Reuss Voigt Hill
#
# Bulk Modulus (GPa) = 39.69324 64.11578 51.90451
# Shear Modulus (GPa) = 23.22934 44.04519 33.63726
#
# Velocity S-wave (km/s) = 3.02398 4.16400 3.63891
# Velocity P-wave (km/s) = 5.27431 6.95402 6.17157
#
# Compressibility (1/GPa) = 0.02519321
#
# Stress axis : x y z
#
# Youngs Moduli (GPa) = 53.94828 38.01934 162.09621
#
# Poissons Ratio (x) = 0.42515 0.69693
# Poissons Ratio (y) = 0.60328 -0.41735
# Poissons Ratio (z) = 0.23195 -0.09789
#
# Static dielectric constant tensor:
#      x y z
#    x 2.193470 0.093050 0.051800 
#    y 0.093050 2.079910 0.075810 
#    z 0.051800 0.075810 2.142460 
# 
# From -- ./inp_files/270212.got.cif
#   From: 2010.05.17/outbox.cif.g08.bks.cpg/sg2_136_cif.got.tgz:270212.got - 2010.06.03 11:33:40.
