data_PCOD9087553
_publ_section_title
;
Structure prediction by ZEFSAII (Michael W. Deem and Ramdas Pophale) SiO2 
 PCOD9087553
Probable space group: P -1
;
_chemical_formula_sum "Si O2"
_cell_formula_units_Z 12
_cell_length_a 15.746543
_cell_length_b 8.955165
_cell_length_c 9.221432
_cell_angle_alpha 129.567162
_cell_angle_beta 141.788375
_cell_angle_gamma 47.717428
_cell_volume 578.166284
_symmetry_space_group_name_H-M "P -1"
_symmetry_group_IT_number 2
_symmetry_cell_setting 'triclinic'
loop_
_space_group_symop_operation_xyz
x,y,z
-x,-y,-z
loop_
_atom_site_type_symbol
_atom_site_label
_atom_site_fract_x
_atom_site_fract_y
_atom_site_fract_z
Si Si1 0.414873 0.194354 0.354968
Si Si2 0.377397 0.562840 0.746914
Si Si3 0.831118 0.355615 0.237681
Si Si4 0.564087 0.160852 0.251776
Si Si5 0.162219 0.199511 0.482110
Si Si6 0.733493 0.999748 0.781220
O O1 0.375772 0.368046 0.532443
O O2 0.446148 0.273532 0.289744
O O3 0.578706 0.037538 0.516356
O O4 0.296849 0.082745 0.153122
O O5 0.223325 0.662428 0.684423
O O6 0.417125 0.700210 0.766347
O O7 0.500000 0.500000 0.000000
O O8 0.785285 0.603905 0.302300
O O9 0.004691 0.260087 0.383761
O O10 0.760586 0.215434 0.963683
O O11 0.724172 0.017327 0.438901
O O12 0.500000 0.000000 0.000000
O O13 0.150134 0.161095 0.269010
#
# Coordination Sequence:
#
# PCOD9087553 Si02
#       6
#     2   2   2   2   2   2
#     4  10  21  37  61  95 124 155 207 256 302 365
#     4  12  22  39  65  90 121 167 205 252 314 359
#     4  11  21  38  66  87 125 168 199 251 302 375
#     4  11  24  39  61  92 125 159 205 261 303 359
#     4  10  23  40  59  94 124 162 208 246 308 363
#     4  10  19  36  64  91 123 160 204 249 303 368
#
# _framework density 20.755272999999999
#
# number of rings (size 3 to 8) (size 9 to 14) (size 15 to 20)
#    0.000    1.333    3.333    3.000    2.333    0.667 
#    0.000    0.000    0.000    2.000    0.000    0.000 
#    0.000    0.000    0.000    0.000    0.000    0.000 
#
# Total GULP energy -66892.663068 kJ/mol
# GULP energy per Si atom -5574.388589 kJ/mol
# Density = 2.070803 g / cm^3
# Si number density = 20.755273 Si / 1000 Ang^3
#
#
#
# Elastic Constant Matrix: (Units=GPa)
#
#
# Indices 1 2 3 4 5 6 
#
# 1 205.0452 53.9208 44.2602 10.1125 -3.1428 0.9651
# 2 53.9208 67.1237 25.2539 20.7058 -2.0835 11.6278
# 3 44.2602 25.2539 53.5766 24.6131 1.5795 5.9535
# 4 10.1125 20.7058 24.6131 32.4340 2.6436 -0.1911
# 5 -3.1428 -2.0835 1.5795 2.6436 29.0709 9.9373
# 6 0.9651 11.6278 5.9535 -0.1911 9.9373 47.4042
#
#
#
# Elastic Compliance Matrix: (Units=1/GPa)
#
#
# Indices 1 2 3 4 5 6 
#
# 1 0.007557 -0.006022 -0.006690 0.006632 -0.000650 0.002327
# 2 -0.006022 0.025709 0.000639 -0.015478 0.005092 -0.007394
# 3 -0.006690 0.000639 0.036384 -0.026078 0.001424 -0.004994
# 4 0.006632 -0.015478 -0.026078 0.059084 -0.007326 0.008711
# 5 -0.000650 0.005092 0.001424 -0.007326 0.038537 -0.009523
# 6 0.002327 -0.007394 -0.004994 0.008711 -0.009523 0.025520
#
#
# Mechanical properties :
#
#
# Convention : Reuss Voigt Hill
#
# Bulk Modulus (GPa) = 21.97677 63.62394 42.80036
# Shear Modulus (GPa) = 21.54203 35.26918 28.40560
#
# Velocity S-wave (km/s) = 3.22515 4.12671 3.70347
# Velocity P-wave (km/s) = 4.94776 7.30939 6.24130
#
# Compressibility (1/GPa) = 0.04550258
#
# Stress axis : x y z
#
# Youngs Moduli (GPa) = 132.33051 38.89741 27.48484
#
# Poissons Ratio (x) = 0.23426 0.18388
# Poissons Ratio (y) = 0.79695 -0.01758
# Poissons Ratio (z) = 0.88533 -0.02487
#
# Static dielectric constant tensor:
#      x y z
#    x 1.854390 -0.011890 -0.030240 
#    y -0.011890 1.647310 0.002170 
#    z -0.030240 0.002170 1.768250 
# 
# From -- ./inp_files/146979.got.cif
#   From: 2010.05.17/outbox.cif.g08.bks.cpg/sg2_74_cif.got.tgz:146979.got - 2010.06.03 11:33:40.
