data_PCOD9087565
_publ_section_title
;
Structure prediction by ZEFSAII (Michael W. Deem and Ramdas Pophale) SiO2 
 PCOD9087565
Probable space group: P -1
;
_chemical_formula_sum "Si O2"
_cell_formula_units_Z 16
_cell_length_a 20.943371
_cell_length_b 9.934056
_cell_length_c 9.630967
_cell_angle_alpha 58.982209
_cell_angle_beta 43.030500
_cell_angle_gamma 32.228964
_cell_volume 699.353436
_symmetry_space_group_name_H-M "P -1"
_symmetry_group_IT_number 2
_symmetry_cell_setting 'triclinic'
loop_
_space_group_symop_operation_xyz
x,y,z
-x,-y,-z
loop_
_atom_site_type_symbol
_atom_site_label
_atom_site_fract_x
_atom_site_fract_y
_atom_site_fract_z
Si Si1 0.120199 0.977502 0.010579
Si Si2 0.465344 0.324282 0.265093
Si Si3 0.538583 0.948539 0.186620
Si Si4 0.569127 0.339814 0.336055
Si Si5 0.229365 0.875839 0.195917
Si Si6 0.558097 0.176724 0.791458
Si Si7 0.088901 0.214959 0.502340
Si Si8 0.133834 0.648239 0.998572
O O1 0.247514 0.942410 0.794136
O O2 0.136739 0.943750 0.168721
O O3 0.181416 0.749816 0.938516
O O4 0.948962 0.232635 0.082828
O O5 0.466219 0.352027 0.413680
O O6 0.325616 0.607844 0.263007
O O7 0.464280 0.143171 0.327063
O O8 0.634033 0.176326 0.028131
O O9 0.463352 0.889859 0.281482
O O10 0.523435 0.098444 0.008260
O O11 0.720698 0.664256 0.067516
O O12 0.500000 0.500000 0.500000
O O13 0.549969 0.525503 0.174088
O O14 0.108058 0.115192 0.371777
O O15 0.733695 0.999355 0.617974
O O16 0.000000 0.500000 0.500000
O O17 0.997176 0.230392 0.747599
#
# Coordination Sequence:
#
# PCOD9087565 Si02
#       8
#     2   2   2   2   2   2   2   2
#     4  10  23  40  62  88 124 174 203 253 313 380
#     4  10  19  36  64  92 123 160 208 262 302 364
#     4  11  21  38  66  93 122 161 209 255 308 372
#     4  11  21  39  65  91 121 164 212 254 306 373
#     4  10  20  37  62  93 124 161 216 253 306 372
#     4  11  21  37  64  92 121 159 209 251 306 368
#     4  12  22  38  63  95 127 159 204 264 310 367
#     4  11  23  41  63  89 131 168 206 250 320 374
#
# _framework density 22.878274999999999
#
# number of rings (size 3 to 8) (size 9 to 14) (size 15 to 20)
#    0.000    1.250    5.000    2.250    1.750    0.500 
#    0.000    7.500    0.000    0.000    0.000    0.000 
#    0.000    0.000    0.000    0.000    0.000    0.000 
#
# Total GULP energy -89392.366920 kJ/mol
# GULP energy per Si atom -5587.022932 kJ/mol
# Density = 2.282620 g / cm^3
# Si number density = 22.878275 Si / 1000 Ang^3
#
#
#
# Elastic Constant Matrix: (Units=GPa)
#
#
# Indices 1 2 3 4 5 6 
#
# 1 175.1620 32.8930 30.9257 12.3962 46.8433 -6.7273
# 2 32.8930 60.8398 5.2746 14.6803 26.0712 9.8632
# 3 30.9257 5.2746 49.1505 5.4937 21.3064 -6.1583
# 4 12.3962 14.6803 5.4937 25.1626 3.7572 6.1392
# 5 46.8433 26.0712 21.3064 3.7572 47.1015 0.6677
# 6 -6.7273 9.8632 -6.1583 6.1392 0.6677 36.0461
#
#
#
# Elastic Compliance Matrix: (Units=1/GPa)
#
#
# Indices 1 2 3 4 5 6 
#
# 1 0.008262 -0.001223 -0.001643 -0.002534 -0.006626 0.002150
# 2 -0.001223 0.026851 0.005292 -0.012965 -0.014946 -0.004186
# 3 -0.001643 0.005292 0.028054 -0.007508 -0.013451 0.004566
# 4 -0.002534 -0.012965 -0.007508 0.050529 0.009161 -0.006984
# 5 -0.006626 -0.014946 -0.013451 0.009161 0.041472 -0.001773
# 6 0.002150 -0.004186 0.004566 -0.006984 -0.001773 0.031291
#
#
# Mechanical properties :
#
#
# Convention : Reuss Voigt Hill
#
# Bulk Modulus (GPa) = 14.70171 47.03766 30.86968
# Shear Modulus (GPa) = 24.47619 36.06598 30.27109
#
# Velocity S-wave (km/s) = 3.27440 3.97473 3.64144
# Velocity P-wave (km/s) = 4.55363 6.45518 5.58591
#
# Compressibility (1/GPa) = 0.06801930
#
# Stress axis : x y z
#
# Youngs Moduli (GPa) = 121.03016 37.24298 35.64577
#
# Poissons Ratio (x) = 0.04553 0.05856
# Poissons Ratio (y) = 0.14797 -0.18862
# Poissons Ratio (z) = 0.19882 -0.19707
#
# Static dielectric constant tensor:
#      x y z
#    x 1.909040 -0.023270 0.038210 
#    y -0.023270 1.881510 -0.023540 
#    z 0.038210 -0.023540 2.037890 
# 
# From -- ./inp_files/328850.got.cif
#   From: 2010.05.17/outbox.cif.g08.bks.cpg/sg2_165_cif.got.tgz:328850.got - 2010.06.03 11:33:40.
