data_PCOD9087912
_publ_section_title
;
Structure prediction by ZEFSAII (Michael W. Deem and Ramdas Pophale) SiO2 
 PCOD9087912
Probable space group: P -1
;
_chemical_formula_sum "Si O2"
_cell_formula_units_Z 16
_cell_length_a 10.752558
_cell_length_b 9.330218
_cell_length_c 17.725865
_cell_angle_alpha 82.501530
_cell_angle_beta 121.654524
_cell_angle_gamma 143.778056
_cell_volume 727.242399
_symmetry_space_group_name_H-M "P -1"
_symmetry_group_IT_number 2
_symmetry_cell_setting 'triclinic'
loop_
_space_group_symop_operation_xyz
x,y,z
-x,-y,-z
loop_
_atom_site_type_symbol
_atom_site_label
_atom_site_fract_x
_atom_site_fract_y
_atom_site_fract_z
Si Si1 0.728789 0.569139 0.583381
Si Si2 0.011039 0.578503 0.580289
Si Si3 0.668777 0.196580 0.950694
Si Si4 0.695603 0.837336 0.185944
Si Si5 0.875702 0.460434 0.228805
Si Si6 0.962842 0.183049 0.102590
Si Si7 0.622561 0.281132 0.713270
Si Si8 0.523446 0.615621 0.923163
O O1 0.500000 0.500000 0.500000
O O2 0.609793 0.374292 0.630301
O O3 0.767095 0.489176 0.532244
O O4 0.065747 0.918024 0.689365
O O5 0.000160 0.450542 0.652967
O O6 0.000000 0.500000 0.500000
O O7 0.325427 0.935818 0.656656
O O8 0.549100 0.255684 0.912346
O O9 0.411210 0.895428 0.840645
O O10 0.740806 0.132539 0.039238
O O11 0.000000 0.500000 0.000000
O O12 0.527119 0.538280 0.151366
O O13 0.918178 0.040495 0.169708
O O14 0.747823 0.504114 0.161534
O O15 0.116982 0.607261 0.236165
O O16 0.280345 0.535060 0.197237
O O17 0.829393 0.976343 0.004328
O O18 0.500000 0.500000 0.000000
#
# Coordination Sequence:
#
# PCOD9087912 Si02
#       8
#     2   2   2   2   2   2   2   2
#     4  10  23  43  67  91 130 173 218 275 341 389
#     4  11  24  42  67  98 121 163 237 282 321 386
#     4  11  19  32  62  86 120 165 211 255 313 388
#     4  10  19  37  56  89 121 163 210 255 319 388
#     4  10  21  41  59  94 129 172 217 266 325 392
#     4   9  18  33  57  87 117 159 207 241 312 389
#     4  10  21  39  68  89 125 173 218 269 321 400
#     4   9  20  33  60  90 128 166 207 258 318 390
#
# _framework density 22.000917999999999
#
# number of rings (size 3 to 8) (size 9 to 14) (size 15 to 20)
#    0.000    2.000    3.750    1.125    3.500    4.500 
#    0.000    2.500    2.750    0.000    0.000    0.000 
#    0.000    0.000    0.000    0.000    0.000    0.000 
#
# Total GULP energy -89124.868045 kJ/mol
# GULP energy per Si atom -5570.304253 kJ/mol
# Density = 2.195084 g / cm^3
# Si number density = 22.000918 Si / 1000 Ang^3
#
#
#
# Elastic Constant Matrix: (Units=GPa)
#
#
# Indices 1 2 3 4 5 6 
#
# 1 107.1227 43.8557 59.4817 -20.3010 2.2522 -26.6169
# 2 43.8557 78.7799 27.6535 1.7408 9.6257 -17.2153
# 3 59.4817 27.6535 84.3369 -4.1994 0.1594 -15.3509
# 4 -20.3010 1.7408 -4.1994 32.5679 -5.1461 5.4777
# 5 2.2522 9.6257 0.1594 -5.1461 51.2165 -3.0896
# 6 -26.6169 -17.2153 -15.3509 5.4777 -3.0896 37.9081
#
#
#
# Elastic Compliance Matrix: (Units=1/GPa)
#
#
# Indices 1 2 3 4 5 6 
#
# 1 0.023018 -0.007820 -0.011933 0.012530 0.002124 0.006141
# 2 -0.007820 0.018509 -0.000255 -0.007065 -0.003630 0.003537
# 3 -0.011933 -0.000255 0.020184 -0.004880 0.000043 0.000388
# 4 0.012530 -0.007065 -0.004880 0.039280 0.004637 -0.001685
# 5 0.002124 -0.003630 0.000043 0.004637 0.020632 0.000872
# 6 0.006141 0.003537 0.000388 -0.001685 0.000872 0.032769
#
#
# Mechanical properties :
#
#
# Convention : Reuss Voigt Hill
#
# Bulk Modulus (GPa) = 46.09017 59.13569 52.61293
# Shear Modulus (GPa) = 24.79669 33.62172 29.20921
#
# Velocity S-wave (km/s) = 3.36084 3.91346 3.64763
# Velocity P-wave (km/s) = 6.00458 6.88166 6.45803
#
# Compressibility (1/GPa) = 0.02169660
#
# Stress axis : x y z
#
# Youngs Moduli (GPa) = 43.44403 54.02856 49.54350
#
# Poissons Ratio (x) = 0.42248 0.59118
# Poissons Ratio (y) = 0.33972 0.01263
# Poissons Ratio (z) = 0.51840 0.01378
#
# Static dielectric constant tensor:
#      x y z
#    x 1.913120 0.047340 -0.029930 
#    y 0.047340 1.858660 0.011050 
#    z -0.029930 0.011050 1.836940 
# 
# From -- ./inp_files/593577.got.cif
#   From: 2010.05.17/outbox.cif.g08.bks.cpg/sg2_297_cif.got.tgz:593577.got - 2010.06.03 11:33:40.
