data_PCOD9087730
_publ_section_title
;
Structure prediction by ZEFSAII (Michael W. Deem and Ramdas Pophale) SiO2 
 PCOD9087730
Probable space group: P -1
;
_chemical_formula_sum "Si O2"
_cell_formula_units_Z 16
_cell_length_a 15.100379
_cell_length_b 19.305647
_cell_length_c 8.073048
_cell_angle_alpha 92.417911
_cell_angle_beta 100.273543
_cell_angle_gamma 19.110300
_cell_volume 697.415243
_symmetry_space_group_name_H-M "P -1"
_symmetry_group_IT_number 2
_symmetry_cell_setting 'triclinic'
loop_
_space_group_symop_operation_xyz
x,y,z
-x,-y,-z
loop_
_atom_site_type_symbol
_atom_site_label
_atom_site_fract_x
_atom_site_fract_y
_atom_site_fract_z
Si Si1 0.142799 0.055452 0.401752
Si Si2 0.546161 0.986635 0.207665
Si Si3 0.021713 0.003775 0.198658
Si Si4 0.505470 0.872380 0.252236
Si Si5 0.083246 0.504192 0.909872
Si Si6 0.380156 0.815379 0.784630
Si Si7 0.398980 0.497152 0.514899
Si Si8 0.085905 0.168354 0.843200
O O1 0.863309 0.300213 0.416035
O O2 0.023517 0.084596 0.238202
O O3 0.379478 0.931624 0.380942
O O4 0.312425 0.887414 0.582904
O O5 0.232634 0.231986 0.213143
O O6 0.665356 0.829459 0.315518
O O7 0.729577 0.921963 0.239790
O O8 0.500000 0.000000 0.000000
O O9 0.326890 0.747513 0.348588
O O10 0.750744 0.163082 0.214166
O O11 0.000000 0.000000 0.000000
O O12 0.726576 0.661738 0.198856
O O13 0.211193 0.096620 0.057039
O O14 0.287950 0.408081 0.069787
O O15 0.000000 0.500000 0.000000
O O16 0.173563 0.023500 0.836348
O O17 0.500000 0.500000 0.500000
O O18 0.248141 0.576562 0.306488
#
# Coordination Sequence:
#
# PCOD9087730 Si02
#       8
#     2   2   2   2   2   2   2   2
#     4  11  25  43  64  97 136 168 222 274 323 392
#     4  10  19  36  66  95 120 167 217 262 319 388
#     4  12  25  45  69  98 130 170 223 272 324 395
#     4  10  22  39  62  97 130 165 223 268 314 394
#     4  11  19  38  68  89 129 172 214 266 328 377
#     4  10  21  40  64  93 129 171 211 269 322 383
#     4  11  24  44  69  93 131 177 215 265 339 382
#     4   9  18  39  66  89 127 167 214 266 317 386
#
# _framework density 22.941856000000001
#
# number of rings (size 3 to 8) (size 9 to 14) (size 15 to 20)
#    0.000    1.500    6.250    1.875    0.000    4.500 
#    0.000    3.125    2.750    0.000    0.000    0.000 
#    0.000    0.000    0.000    0.000    0.000    0.000 
#
# Total GULP energy -89434.131525 kJ/mol
# GULP energy per Si atom -5589.633220 kJ/mol
# Density = 2.288964 g / cm^3
# Si number density = 22.941856 Si / 1000 Ang^3
#
#
#
# Elastic Constant Matrix: (Units=GPa)
#
#
# Indices 1 2 3 4 5 6 
#
# 1 54.5798 20.4198 -24.8581 5.7648 -5.8324 -7.7296
# 2 20.4198 120.5701 19.6634 5.6496 -1.4442 -13.0778
# 3 -24.8581 19.6634 51.2680 -8.8530 -6.6446 4.7963
# 4 5.7648 5.6496 -8.8530 35.4879 -13.5218 -1.0981
# 5 -5.8324 -1.4442 -6.6446 -13.5218 24.6937 11.2783
# 6 -7.7296 -13.0778 4.7963 -1.0981 11.2783 36.0683
#
#
#
# Elastic Compliance Matrix: (Units=1/GPa)
#
#
# Indices 1 2 3 4 5 6 
#
# 1 0.036008 -0.011913 0.028425 0.012891 0.026262 -0.008202
# 2 -0.011913 0.014231 -0.015981 -0.010195 -0.016197 0.009486
# 3 0.028425 -0.015981 0.051316 0.026441 0.042790 -0.019102
# 4 0.012891 -0.010195 0.026441 0.051037 0.045303 -0.017062
# 5 0.026262 -0.016197 0.042790 0.045303 0.098174 -0.035254
# 6 -0.008202 0.009486 -0.019102 -0.017062 -0.035254 0.042451
#
#
# Mechanical properties :
#
#
# Convention : Reuss Voigt Hill
#
# Bulk Modulus (GPa) = 9.74509 28.54090 19.14299
# Shear Modulus (GPa) = 15.32043 33.32950 24.32496
#
# Velocity S-wave (km/s) = 2.58697 3.81567 3.25974
# Velocity P-wave (km/s) = 3.63045 5.64624 4.74659
#
# Compressibility (1/GPa) = 0.10261582
#
# Stress axis : x y z
#
# Youngs Moduli (GPa) = 27.77149 70.27127 19.48709
#
# Poissons Ratio (x) = 0.83716 -0.55393
# Poissons Ratio (y) = 0.33085 0.31143
# Poissons Ratio (z) = -0.78941 1.12304
#
# Static dielectric constant tensor:
#      x y z
#    x 1.880660 0.036450 0.030350 
#    y 0.036450 1.872880 -0.005460 
#    z 0.030350 -0.005460 1.894540 
# 
# From -- ./inp_files/319366.got.cif
#   From: 2010.05.17/outbox.cif.g08.bks.cpg/sg2_160_cif.got.tgz:319366.got - 2010.06.03 11:33:40.
