data_PCOD9087229
_publ_section_title
;
Structure prediction by ZEFSAII (Michael W. Deem and Ramdas Pophale) SiO2 
 PCOD9087229
Probable space group: P -1
;
_chemical_formula_sum "Si O2"
_cell_formula_units_Z 14
_cell_length_a 8.756271
_cell_length_b 14.590253
_cell_length_c 9.772141
_cell_angle_alpha 69.219046
_cell_angle_beta 30.579653
_cell_angle_gamma 80.072825
_cell_volume 570.104936
_symmetry_space_group_name_H-M "P -1"
_symmetry_group_IT_number 2
_symmetry_cell_setting 'triclinic'
loop_
_space_group_symop_operation_xyz
x,y,z
-x,-y,-z
loop_
_atom_site_type_symbol
_atom_site_label
_atom_site_fract_x
_atom_site_fract_y
_atom_site_fract_z
Si Si1 0.819144 0.129684 0.384705
Si Si2 0.838844 0.995559 0.981191
Si Si3 0.475453 0.601622 0.137302
Si Si4 0.153381 0.927139 0.332739
Si Si5 0.260449 0.392222 0.777451
Si Si6 0.434569 0.699165 0.641074
Si Si7 0.159506 0.372564 0.433005
O O1 0.882607 0.162076 0.479586
O O2 0.689364 0.205157 0.352588
O O3 0.087812 0.096912 0.113521
O O4 0.522761 0.030215 0.685260
O O5 0.953788 0.088457 0.734335
O O6 0.000000 0.000000 0.000000
O O7 0.654842 0.636250 0.121121
O O8 0.278276 0.481554 0.363674
O O9 0.215746 0.658638 0.265352
O O10 0.719352 0.607747 0.824992
O O11 0.000000 0.000000 0.500000
O O12 0.500000 0.000000 0.000000
O O13 0.500000 0.500000 0.500000
O O14 0.350648 0.317188 0.640083
O O15 0.897399 0.388937 0.045499
O O16 0.647327 0.696655 0.608693
#
# Coordination Sequence:
#
# PCOD9087229 Si02
#       7
#     2   2   2   2   2   2   2
#     4  10  21  38  57  86 120 153 189 235 302 355
#     4  10  19  36  62  90 114 151 195 234 276 356
#     4  10  21  37  57  81 109 146 205 249 288 352
#     4   8  16  32  56  80 110 147 184 217 270 350
#     4  12  24  39  60  87 113 155 211 257 288 348
#     4  12  24  39  60  87 122 158 196 256 309 343
#     4  10  21  36  58  81 111 153 190 244 306 352
#
# _framework density 24.556882000000002
#
# number of rings (size 3 to 8) (size 9 to 14) (size 15 to 20)
#    0.000    1.714    1.429    3.429    4.000    0.000 
#    0.000    4.286    0.000    0.000    0.000    0.000 
#    0.000    0.000    0.000    0.000    0.000    0.000 
#
# Total GULP energy -78158.570275 kJ/mol
# GULP energy per Si atom -5582.755020 kJ/mol
# Density = 2.450099 g / cm^3
# Si number density = 24.556882 Si / 1000 Ang^3
#
#
#
# Elastic Constant Matrix: (Units=GPa)
#
#
# Indices 1 2 3 4 5 6 
#
# 1 113.9841 13.0000 29.9166 -6.8063 18.4794 -23.4937
# 2 13.0000 42.6046 13.2804 -6.4924 -3.5321 -25.1818
# 3 29.9166 13.2804 114.9576 18.5524 1.5371 0.7202
# 4 -6.8063 -6.4924 18.5524 36.1287 -11.6352 -0.7470
# 5 18.4794 -3.5321 1.5371 -11.6352 45.2146 3.7807
# 6 -23.4937 -25.1818 0.7202 -0.7470 3.7807 34.9809
#
#
#
# Elastic Compliance Matrix: (Units=1/GPa)
#
#
# Indices 1 2 3 4 5 6 
#
# 1 0.013371 0.006260 -0.005038 0.005010 -0.004703 0.014206
# 2 0.006260 0.053489 -0.011086 0.018382 0.003132 0.042992
# 3 -0.005038 -0.011086 0.013014 -0.010150 -0.000879 -0.011754
# 4 0.005010 0.018382 -0.010150 0.040286 0.008702 0.016726
# 5 -0.004703 0.003132 -0.000879 0.008702 0.026854 -0.003602
# 6 0.014206 0.042992 -0.011754 0.016726 -0.003602 0.070065
#
#
# Mechanical properties :
#
#
# Convention : Reuss Voigt Hill
#
# Bulk Modulus (GPa) = 16.62593 42.66005 29.64299
# Shear Modulus (GPa) = 19.46622 37.62147 28.54384
#
# Velocity S-wave (km/s) = 2.81855 3.91834 3.41303
# Velocity P-wave (km/s) = 4.16861 6.15474 5.25634
#
# Compressibility (1/GPa) = 0.06014703
#
# Stress axis : x y z
#
# Youngs Moduli (GPa) = 74.78895 18.69548 76.84029
#
# Poissons Ratio (x) = -0.11704 0.38708
# Poissons Ratio (y) = -0.46821 0.85187
# Poissons Ratio (z) = 0.37675 0.20726
#
# Static dielectric constant tensor:
#      x y z
#    x 2.140060 -0.049650 0.012580 
#    y -0.049650 2.086960 -0.109900 
#    z 0.012580 -0.109900 1.900620 
# 
# From -- ./inp_files/216922.got.cif
#   From: 2010.05.17/outbox.cif.g08.bks.cpg/sg2_109_cif.got.tgz:216922.got - 2010.06.03 11:33:40.
