data_PCOD9087706
_publ_section_title
;
Structure prediction by ZEFSAII (Michael W. Deem and Ramdas Pophale) SiO2 
 PCOD9087706
Probable space group: P -1
;
_chemical_formula_sum "Si O2"
_cell_formula_units_Z 16
_cell_length_a 21.776656
_cell_length_b 9.155397
_cell_length_c 18.881539
_cell_angle_alpha 141.939055
_cell_angle_beta 29.334664
_cell_angle_gamma 153.409784
_cell_volume 824.981410
_symmetry_space_group_name_H-M "P -1"
_symmetry_group_IT_number 2
_symmetry_cell_setting 'triclinic'
loop_
_space_group_symop_operation_xyz
x,y,z
-x,-y,-z
loop_
_atom_site_type_symbol
_atom_site_label
_atom_site_fract_x
_atom_site_fract_y
_atom_site_fract_z
Si Si1 0.799195 0.282006 0.125644
Si Si2 0.809116 0.041183 0.544750
Si Si3 0.485125 0.204951 0.887349
Si Si4 0.319553 0.768507 0.511608
Si Si5 0.391260 0.534514 0.574498
Si Si6 0.516796 0.892032 0.866109
Si Si7 0.612594 0.806269 0.265202
Si Si8 0.840212 0.486238 0.568490
O O1 0.767086 0.523389 0.257707
O O2 0.683233 0.056928 0.090173
O O3 0.723157 0.031205 0.171969
O O4 0.000000 0.500000 0.000000
O O5 0.848854 0.249535 0.513385
O O6 0.984304 0.162284 0.446755
O O7 0.674024 0.680659 0.511391
O O8 0.710936 0.066171 0.713022
O O9 0.661539 0.365785 0.729764
O O10 0.468890 0.017802 0.901204
O O11 0.500000 0.500000 0.000000
O O12 0.416698 0.656207 0.395353
O O13 0.169929 0.544249 0.518222
O O14 0.471192 0.087237 0.436233
O O15 0.301093 0.930164 0.656489
O O16 0.500000 0.500000 0.500000
O O17 0.405997 0.502118 0.826831
O O18 0.500000 0.000000 0.000000
#
# Coordination Sequence:
#
# PCOD9087706 Si02
#       8
#     2   2   2   2   2   2   2   2
#     4  11  25  43  64  96 126 167 221 270 321 393
#     4  10  21  36  62  96 125 159 222 260 312 386
#     4  11  23  42  66  89 130 177 210 253 328 392
#     4  10  19  36  66  88 124 162 211 269 324 375
#     4  11  18  37  68  93 118 167 217 265 315 386
#     4  11  23  41  65  92 132 174 208 264 329 390
#     4  10  21  40  65  91 125 169 214 263 329 379
#     4  10  20  38  61  94 124 163 210 269 313 379
#
# _framework density 19.394376000000001
#
# number of rings (size 3 to 8) (size 9 to 14) (size 15 to 20)
#    0.000    1.500    5.000    1.500    1.750    0.000 
#    4.500    1.250    0.000    0.000    0.000    0.000 
#    0.000    0.000    0.000    0.000    0.000    0.000 
#
# Total GULP energy -89146.668733 kJ/mol
# GULP energy per Si atom -5571.666796 kJ/mol
# Density = 1.935023 g / cm^3
# Si number density = 19.394376 Si / 1000 Ang^3
#
#
#
# Elastic Constant Matrix: (Units=GPa)
#
#
# Indices 1 2 3 4 5 6 
#
# 1 165.1509 70.5627 81.8262 4.8861 5.7445 15.5120
# 2 70.5627 65.6013 52.0733 8.8014 -6.5940 2.2231
# 3 81.8262 52.0733 106.4421 12.1536 3.5740 8.4464
# 4 4.8861 8.8014 12.1536 34.7232 2.9495 -5.2106
# 5 5.7445 -6.5940 3.5740 2.9495 32.3966 2.5588
# 6 15.5120 2.2231 8.4464 -5.2106 2.5588 46.2968
#
#
#
# Elastic Compliance Matrix: (Units=1/GPa)
#
#
# Indices 1 2 3 4 5 6 
#
# 1 0.013739 -0.011667 -0.004806 0.002679 -0.004317 -0.002626
# 2 -0.011667 0.036512 -0.008888 -0.005020 0.010731 0.002619
# 3 -0.004806 -0.008888 0.018028 -0.003391 -0.002519 -0.001494
# 4 0.002679 -0.005020 -0.003391 0.031816 -0.004318 0.003782
# 5 -0.004317 0.010731 -0.002519 -0.004318 0.034568 -0.001006
# 6 -0.002626 0.002619 -0.001494 0.003782 -0.001006 0.023108
#
#
# Mechanical properties :
#
#
# Convention : Reuss Voigt Hill
#
# Bulk Modulus (GPa) = 56.96187 82.90205 69.93196
# Shear Modulus (GPa) = 23.32678 31.53212 27.42945
#
# Velocity S-wave (km/s) = 3.47185 4.03654 3.76480
# Velocity P-wave (km/s) = 6.74579 8.03512 7.41852
#
# Compressibility (1/GPa) = 0.01755560
#
# Stress axis : x y z
#
# Youngs Moduli (GPa) = 72.78563 27.38837 55.46824
#
# Poissons Ratio (x) = 0.31954 0.26661
# Poissons Ratio (y) = 0.84920 0.49301
# Poissons Ratio (z) = 0.34984 0.24343
#
# Static dielectric constant tensor:
#      x y z
#    x 1.754700 -0.046870 -0.019420 
#    y -0.046870 1.627870 -0.028400 
#    z -0.019420 -0.028400 1.715830 
# 
# From -- ./inp_files/577627.got.cif
#   From: 2010.05.17/outbox.cif.g08.bks.cpg/sg2_289_cif.got.tgz:577627.got - 2010.06.03 11:33:40.
