data_PCOD9087040
_publ_section_title
;
Structure prediction by ZEFSAII (Michael W. Deem and Ramdas Pophale) SiO2 
 PCOD9087040
Probable space group: P -1
;
_chemical_formula_sum "Si O2"
_cell_formula_units_Z 16
_cell_length_a 14.157827
_cell_length_b 14.508871
_cell_length_c 12.715454
_cell_angle_alpha 100.541657
_cell_angle_beta 51.061677
_cell_angle_gamma 143.707747
_cell_volume 855.343463
_symmetry_space_group_name_H-M "P -1"
_symmetry_group_IT_number 2
_symmetry_cell_setting 'triclinic'
loop_
_space_group_symop_operation_xyz
x,y,z
-x,-y,-z
loop_
_atom_site_type_symbol
_atom_site_label
_atom_site_fract_x
_atom_site_fract_y
_atom_site_fract_z
Si Si1 0.298133 0.934342 0.073883
Si Si2 0.173340 0.169719 0.766310
Si Si3 0.387501 0.506259 0.008084
Si Si4 0.548891 0.136296 0.721609
Si Si5 0.113426 0.932486 0.860076
Si Si6 0.834314 0.964719 0.747515
Si Si7 0.863704 0.551116 0.639260
Si Si8 0.207708 0.370502 0.498448
O O1 0.342322 0.960002 0.923837
O O2 0.372471 0.092476 0.089736
O O3 0.500000 0.000000 0.000000
O O4 0.983417 0.707931 0.296558
O O5 0.481625 0.426306 0.629235
O O6 0.192584 0.072368 0.756158
O O7 0.043209 0.096101 0.728159
O O8 0.959272 0.066964 0.978650
O O9 0.235178 0.469617 0.188970
O O10 0.165078 0.311226 0.040095
O O11 0.500000 0.500000 0.000000
O O12 0.644041 0.741034 0.822806
O O13 0.700665 0.339525 0.691450
O O14 0.801782 0.238926 0.550945
O O15 0.362274 0.032799 0.729690
O O16 0.034731 0.152464 0.559141
O O17 0.787371 0.566088 0.598128
#
# Coordination Sequence:
#
# PCOD9087040 Si02
#       8
#     2   2   2   2   2   2   2   2
#     4  10  19  36  61  90 112 150 193 248 290 342
#     4  11  19  37  57  92 113 152 202 243 290 346
#     4  12  23  39  58  86 122 164 190 239 299 350
#     4  11  20  38  62  88 112 154 201 246 288 340
#     4  11  22  34  62  83 124 152 196 248 290 343
#     4  10  21  37  60  84 121 150 192 241 297 348
#     4  11  21  36  62  88 113 151 206 240 285 355
#     4  10  20  32  62  85 117 144 193 252 285 343
#
# _framework density 18.705933999999999
#
# number of rings (size 3 to 8) (size 9 to 14) (size 15 to 20)
#    0.750    0.500    6.250    1.125    0.000    0.500 
#    0.000    2.500    2.750    1.500    0.000    0.000 
#    0.000    0.000    0.000    0.000    0.000    0.000 
#
# Total GULP energy -89215.281119 kJ/mol
# GULP energy per Si atom -5575.955070 kJ/mol
# Density = 1.866336 g / cm^3
# Si number density = 18.705934 Si / 1000 Ang^3
#
#
#
# Elastic Constant Matrix: (Units=GPa)
#
#
# Indices 1 2 3 4 5 6 
#
# 1 92.6069 14.1435 6.7152 -1.1839 -2.8135 3.2291
# 2 14.1435 58.1562 2.5549 -12.9090 -1.6994 -2.0013
# 3 6.7152 2.5549 66.2515 0.5587 1.3737 -3.0985
# 4 -1.1839 -12.9090 0.5587 26.2852 0.2868 2.2650
# 5 -2.8135 -1.6994 1.3737 0.2868 29.4392 -8.0113
# 6 3.2291 -2.0013 -3.0985 2.2650 -8.0113 24.3528
#
#
#
# Elastic Compliance Matrix: (Units=1/GPa)
#
#
# Indices 1 2 3 4 5 6 
#
# 1 0.011391 -0.002933 -0.001123 -0.000767 0.000531 -0.001648
# 2 -0.002933 0.020157 -0.000517 0.009637 0.001217 0.001484
# 3 -0.001123 -0.000517 0.015336 -0.000803 -0.000291 0.002037
# 4 -0.000767 0.009637 -0.000803 0.043070 -0.000850 -0.003494
# 5 0.000531 0.001217 -0.000291 -0.000850 0.037487 0.012404
# 6 -0.001648 0.001484 0.002037 -0.003494 0.012404 0.046068
#
#
# Mechanical properties :
#
#
# Convention : Reuss Voigt Hill
#
# Bulk Modulus (GPa) = 26.49830 29.31575 27.90703
# Shear Modulus (GPa) = 25.61031 28.92216 27.26623
#
# Velocity S-wave (km/s) = 3.70415 3.93638 3.82203
# Velocity P-wave (km/s) = 5.70007 6.03042 5.86757
#
# Compressibility (1/GPa) = 0.03773827
#
# Stress axis : x y z
#
# Youngs Moduli (GPa) = 87.78518 49.61121 65.20669
#
# Poissons Ratio (x) = 0.14549 0.07324
# Poissons Ratio (y) = 0.25743 0.03373
# Poissons Ratio (z) = 0.09860 0.02566
#
# Static dielectric constant tensor:
#      x y z
#    x 1.654050 -0.025500 0.004080 
#    y -0.025500 1.628760 -0.003810 
#    z 0.004080 -0.003810 1.681320 
# 
# From -- ./inp_files/401776.got.cif
#   From: 2010.05.17/outbox.cif.g08.bks.cpg/sg2_201_cif.got.tgz:401776.got - 2010.06.03 11:33:40.
