data_PCOD9087032
_publ_section_title
;
Structure prediction by ZEFSAII (Michael W. Deem and Ramdas Pophale) SiO2 
 PCOD9087032
Probable space group: P -1
;
_chemical_formula_sum "Si O2"
_cell_formula_units_Z 16
_cell_length_a 20.299422
_cell_length_b 11.592897
_cell_length_c 7.941007
_cell_angle_alpha 61.586615
_cell_angle_beta 52.082345
_cell_angle_gamma 29.207884
_cell_volume 710.444040
_symmetry_space_group_name_H-M "P -1"
_symmetry_group_IT_number 2
_symmetry_cell_setting 'triclinic'
loop_
_space_group_symop_operation_xyz
x,y,z
-x,-y,-z
loop_
_atom_site_type_symbol
_atom_site_label
_atom_site_fract_x
_atom_site_fract_y
_atom_site_fract_z
Si Si1 0.125245 0.251104 0.078375
Si Si2 0.261666 0.840952 0.279360
Si Si3 0.657303 0.375619 0.344457
Si Si4 0.439962 0.392005 0.146930
Si Si5 0.530680 0.174232 0.530492
Si Si6 0.898600 0.531348 0.744187
Si Si7 0.613061 0.810128 0.804980
Si Si8 0.809827 0.968894 0.212693
O O1 0.204375 0.076088 0.917548
O O2 0.182816 0.280564 0.105419
O O3 0.000000 0.500000 0.000000
O O4 0.116740 0.127619 0.286167
O O5 0.258955 0.782387 0.508656
O O6 0.297972 0.675358 0.208429
O O7 0.418183 0.721108 0.089457
O O8 0.500000 0.500000 0.500000
O O9 0.606449 0.592353 0.297586
O O10 0.754890 0.189692 0.168087
O O11 0.488121 0.282644 0.336499
O O12 0.402186 0.315011 0.152181
O O13 0.567207 0.973877 0.617257
O O14 0.684206 0.042756 0.451946
O O15 0.779730 0.620439 0.746854
O O16 0.000000 0.500000 0.500000
O O17 0.021384 0.273992 0.815821
O O18 0.500000 0.000000 0.000000
#
# Coordination Sequence:
#
# PCOD9087032 Si02
#       8
#     2   2   2   2   2   2   2   2
#     4  10  21  34  60  96 119 159 212 263 309 371
#     4  10  19  37  62  88 123 158 220 261 310 388
#     4   9  20  32  61  96 120 162 215 267 313 371
#     4  10  22  37  60  91 122 169 207 267 324 370
#     4  10  20  39  60  94 127 171 208 269 320 385
#     4  11  22  40  62  90 124 171 212 254 319 377
#     4  12  26  38  62  95 136 166 212 271 321 384
#     4  10  19  36  61  89 123 162 217 260 305 378
#
# _framework density 22.521125999999999
#
# number of rings (size 3 to 8) (size 9 to 14) (size 15 to 20)
#    0.000    1.750    2.500    1.875    7.000    0.000 
#    0.000    0.000    0.000   15.000    0.000    0.000 
#    0.000    0.000    0.000    0.000    0.000    0.000 
#
# Total GULP energy -89142.228239 kJ/mol
# GULP energy per Si atom -5571.389265 kJ/mol
# Density = 2.246987 g / cm^3
# Si number density = 22.521126 Si / 1000 Ang^3
#
#
#
# Elastic Constant Matrix: (Units=GPa)
#
#
# Indices 1 2 3 4 5 6 
#
# 1 119.8664 75.1190 19.4829 7.0652 7.5555 40.1275
# 2 75.1190 121.9776 16.4562 -9.6710 14.1821 13.9760
# 3 19.4829 16.4562 30.6685 -1.1316 13.0364 1.8914
# 4 7.0652 -9.6710 -1.1316 31.2916 2.2745 6.5366
# 5 7.5555 14.1821 13.0364 2.2745 29.2130 0.9943
# 6 40.1275 13.9760 1.8914 6.5366 0.9943 39.9521
#
#
#
# Elastic Compliance Matrix: (Units=1/GPa)
#
#
# Indices 1 2 3 4 5 6 
#
# 1 0.023841 -0.012362 -0.009883 -0.006130 0.005345 -0.018284
# 2 -0.012362 0.016220 0.001691 0.007134 -0.006180 0.005648
# 3 -0.009883 0.001691 0.045932 0.004374 -0.019339 0.006926
# 4 -0.006130 0.007134 0.004374 0.036683 -0.006605 -0.002383
# 5 0.005345 -0.006180 -0.019339 -0.006605 0.045072 -0.002332
# 6 -0.018284 0.005648 0.006926 -0.002383 -0.002332 0.041538
#
#
# Mechanical properties :
#
#
# Convention : Reuss Voigt Hill
#
# Bulk Modulus (GPa) = 22.27847 54.95876 38.61861
# Shear Modulus (GPa) = 18.84268 30.85497 24.84882
#
# Velocity S-wave (km/s) = 2.89566 3.70543 3.32528
# Velocity P-wave (km/s) = 4.59277 6.53935 5.65051
#
# Compressibility (1/GPa) = 0.04488640
#
# Stress axis : x y z
#
# Youngs Moduli (GPa) = 41.94452 61.65317 21.77118
#
# Poissons Ratio (x) = 0.76213 0.21517
# Poissons Ratio (y) = 0.51850 -0.03682
# Poissons Ratio (z) = 0.41455 -0.10428
#
# Static dielectric constant tensor:
#      x y z
#    x 1.825160 0.003800 0.091410 
#    y 0.003800 1.920230 -0.034890 
#    z 0.091410 -0.034890 2.048350 
# 
# From -- ./inp_files/346038.got.cif
#   From: 2010.05.17/outbox.cif.g08.bks.cpg/sg2_174_cif.got.tgz:346038.got - 2010.06.03 11:33:40.
