data_PCOD9087313
_publ_section_title
;
Structure prediction by ZEFSAII (Michael W. Deem and Ramdas Pophale) SiO2 
 PCOD9087313
Probable space group: P -1
;
_chemical_formula_sum "Si O2"
_cell_formula_units_Z 16
_cell_length_a 8.730856
_cell_length_b 8.531337
_cell_length_c 16.195022
_cell_angle_alpha 57.524716
_cell_angle_beta 62.506169
_cell_angle_gamma 99.922455
_cell_volume 746.988895
_symmetry_space_group_name_H-M "P -1"
_symmetry_group_IT_number 2
_symmetry_cell_setting 'triclinic'
loop_
_space_group_symop_operation_xyz
x,y,z
-x,-y,-z
loop_
_atom_site_type_symbol
_atom_site_label
_atom_site_fract_x
_atom_site_fract_y
_atom_site_fract_z
Si Si1 0.484235 0.129918 0.653128
Si Si2 0.782514 0.624199 0.675865
Si Si3 0.749500 0.012825 0.527185
Si Si4 0.275777 0.430483 0.041028
Si Si5 0.610939 0.810017 0.029277
Si Si6 0.111288 0.008711 0.677654
Si Si7 0.159183 0.434552 0.502401
Si Si8 0.588619 0.086899 0.091867
O O1 0.555987 0.012755 0.606104
O O2 0.258183 0.065401 0.703373
O O3 0.661952 0.393153 0.528884
O O4 0.494911 0.057250 0.763636
O O5 0.623240 0.405903 0.829615
O O6 0.729027 0.551221 0.614962
O O7 0.031100 0.744510 0.586291
O O8 0.758855 0.832557 0.632419
O O9 0.753344 0.958051 0.446422
O O10 0.500000 0.500000 0.000000
O O11 0.262911 0.300310 0.996357
O O12 0.277875 0.655090 0.981218
O O13 0.089354 0.241883 0.196640
O O14 0.685479 0.984727 0.037230
O O15 0.583792 0.925188 0.923044
O O16 0.046945 0.183458 0.634431
O O17 0.000000 0.500000 0.500000
#
# Coordination Sequence:
#
# PCOD9087313 Si02
#       8
#     2   2   2   2   2   2   2   2
#     4  12  23  42  64  97 138 170 208 270 341 403
#     4  10  19  36  62  98 125 159 225 279 306 379
#     4  10  21  37  65  94 128 171 214 267 335 389
#     4  10  22  41  65  91 127 172 227 273 315 378
#     4  10  20  37  63  95 126 168 226 278 317 367
#     4  11  26  43  62  96 138 171 210 270 343 395
#     4  11  23  39  69  95 125 168 219 268 325 389
#     4  10  22  36  65  92 128 171 220 266 324 387
#
# _framework density 21.419328
#
# number of rings (size 3 to 8) (size 9 to 14) (size 15 to 20)
#    0.000    1.500    2.500    3.000    3.500    0.500 
#    2.250    0.625    0.000    0.000    0.000    0.000 
#    0.000    0.000    0.000    0.000    0.000    0.000 
#
# Total GULP energy -89252.120237 kJ/mol
# GULP energy per Si atom -5578.257515 kJ/mol
# Density = 2.137058 g / cm^3
# Si number density = 21.419328 Si / 1000 Ang^3
#
#
#
# Elastic Constant Matrix: (Units=GPa)
#
#
# Indices 1 2 3 4 5 6 
#
# 1 56.9495 12.5449 24.2073 -6.5438 -4.8535 -1.5548
# 2 12.5449 142.7375 35.1055 -5.8436 3.2214 -13.6114
# 3 24.2073 35.1055 87.5771 -10.4065 10.5636 -4.3820
# 4 -6.5438 -5.8436 -10.4065 36.0101 1.4877 -2.1699
# 5 -4.8535 3.2214 10.5636 1.4877 12.8365 -0.7064
# 6 -1.5548 -13.6114 -4.3820 -2.1699 -0.7064 19.1300
#
#
#
# Elastic Compliance Matrix: (Units=1/GPa)
#
#
# Indices 1 2 3 4 5 6 
#
# 1 0.022276 -0.000313 -0.007631 0.001217 0.014668 0.000520
# 2 -0.000313 0.008280 -0.002930 0.000742 0.000421 0.005294
# 3 -0.007631 -0.002930 0.017233 0.003873 -0.016721 0.001064
# 4 0.001217 0.000742 0.003873 0.029764 -0.006106 0.004664
# 5 0.014668 0.000421 -0.016721 -0.006106 0.097843 0.000582
# 6 0.000520 0.005294 0.001064 0.004664 0.000582 0.056877
#
#
# Mechanical properties :
#
#
# Convention : Reuss Voigt Hill
#
# Bulk Modulus (GPa) = 38.40047 47.88659 43.14353
# Shear Modulus (GPa) = 19.03308 27.95576 23.49442
#
# Velocity S-wave (km/s) = 2.98416 3.61663 3.31551
# Velocity P-wave (km/s) = 5.46265 6.31231 5.90279
#
# Compressibility (1/GPa) = 0.02604135
#
# Stress axis : x y z
#
# Youngs Moduli (GPa) = 44.89144 120.77656 58.02932
#
# Poissons Ratio (x) = 0.03777 0.44280
# Poissons Ratio (y) = 0.01404 0.17004
# Poissons Ratio (z) = 0.34255 0.35391
#
# Static dielectric constant tensor:
#      x y z
#    x 1.749340 0.006880 0.022000 
#    y 0.006880 1.887060 0.004460 
#    z 0.022000 0.004460 1.768310 
# 
# From -- ./inp_files/184131.got.cif
#   From: 2010.05.17/outbox.cif.g08.bks.cpg/sg2_93_cif.got.tgz:184131.got - 2010.06.03 11:33:40.
