data_PCOD9087523
_publ_section_title
;
Structure prediction by ZEFSAII (Michael W. Deem and Ramdas Pophale) SiO2 
 PCOD9087523
Probable space group: P -1
;
_chemical_formula_sum "Si O2"
_cell_formula_units_Z 16
_cell_length_a 12.371221
_cell_length_b 8.299202
_cell_length_c 18.559508
_cell_angle_alpha 129.976810
_cell_angle_beta 120.229224
_cell_angle_gamma 99.383733
_cell_volume 855.766036
_symmetry_space_group_name_H-M "P -1"
_symmetry_group_IT_number 2
_symmetry_cell_setting 'triclinic'
loop_
_space_group_symop_operation_xyz
x,y,z
-x,-y,-z
loop_
_atom_site_type_symbol
_atom_site_label
_atom_site_fract_x
_atom_site_fract_y
_atom_site_fract_z
Si Si1 0.267973 0.276465 0.006966
Si Si2 0.796331 0.159313 0.334769
Si Si3 0.466037 0.119625 0.959633
Si Si4 0.528631 0.226761 0.516581
Si Si5 0.168689 0.285883 0.823144
Si Si6 0.594931 0.953257 0.361091
Si Si7 0.822213 0.138107 0.633829
Si Si8 0.932926 0.756124 0.846450
O O1 0.407276 0.585820 0.190857
O O2 0.391355 0.242880 0.005022
O O3 0.193159 0.318833 0.926904
O O4 0.092168 0.966676 0.900330
O O5 0.000000 0.500000 0.500000
O O6 0.681460 0.121527 0.220319
O O7 0.814804 0.934999 0.259566
O O8 0.692461 0.061441 0.347603
O O9 0.656915 0.387614 0.059912
O O10 0.500000 0.000000 0.000000
O O11 0.727873 0.570904 0.698245
O O12 0.500000 0.000000 0.500000
O O13 0.542017 0.124731 0.415880
O O14 0.343945 0.125437 0.442514
O O15 0.983025 0.168115 0.702030
O O16 0.733717 0.045043 0.497055
O O17 0.903801 0.472931 0.775256
O O18 0.000000 0.000000 0.000000
#
# Coordination Sequence:
#
# PCOD9087523 Si02
#       8
#     2   2   2   2   2   2   2   2
#     4  11  20  38  62  84 120 160 195 252 307 353
#     4  11  24  39  62  89 121 164 202 246 312 359
#     4  11  23  40  60  88 122 160 206 248 295 369
#     4   8  18  35  58  86 116 152 197 246 293 350
#     4  11  23  41  58  91 127 158 199 251 306 362
#     4  10  19  38  62  83 120 157 198 244 303 351
#     4  10  22  38  62  89 123 157 204 250 300 361
#     4  10  19  36  64  89 113 161 213 243 301 364
#
# _framework density 18.6967
#
# number of rings (size 3 to 8) (size 9 to 14) (size 15 to 20)
#    0.000    2.000    2.500    3.750    8.750    1.500 
#    0.000    4.375    0.000    0.000    0.000    0.000 
#    0.000    0.000    0.000    0.000    0.000    0.000 
#
# Total GULP energy -89226.471991 kJ/mol
# GULP energy per Si atom -5576.654499 kJ/mol
# Density = 1.865415 g / cm^3
# Si number density = 18.696700 Si / 1000 Ang^3
#
#
#
# Elastic Constant Matrix: (Units=GPa)
#
#
# Indices 1 2 3 4 5 6 
#
# 1 87.7368 29.6782 53.0942 -9.6831 16.5087 23.5008
# 2 29.6782 52.6014 42.0591 -11.4276 12.7275 -8.4975
# 3 53.0942 42.0591 146.9619 0.3242 9.7267 7.5262
# 4 -9.6831 -11.4276 0.3242 33.4605 5.3919 8.2845
# 5 16.5087 12.7275 9.7267 5.3919 41.7065 7.2538
# 6 23.5008 -8.4975 7.5262 8.2845 7.2538 3.7523
#
#
#
# Elastic Compliance Matrix: (Units=1/GPa)
#
#
# Indices 1 2 3 4 5 6 
#
# 1 0.003145 0.009317 -0.005025 -0.003172 -0.008619 0.035144
# 2 0.009317 0.019005 -0.006873 0.018062 -0.004546 -0.032620
# 3 -0.005025 -0.006873 0.010426 -0.004390 0.002121 0.000587
# 4 -0.003172 0.018062 -0.004390 0.032034 -0.010807 0.019739
# 5 -0.008619 -0.004546 0.002121 -0.010807 0.028128 0.008915
# 6 0.035144 -0.032620 0.000587 0.019739 0.008915 -0.089467
#
#
# Mechanical properties :
#
#
# Convention : Reuss Voigt Hill
#
# Bulk Modulus (GPa) = 36.47871 59.66257 48.07064
# Shear Modulus (GPa) = 284.54619 26.61509 155.58064
#
# Velocity S-wave (km/s) = 12.34994 3.77705 9.13201
# Velocity P-wave (km/s) = 14.93032 7.14153 11.70290
#
# Compressibility (1/GPa) = 0.02741325
#
# Stress axis : x y z
#
# Youngs Moduli (GPa) = 317.95027 52.61896 95.91067
#
# Poissons Ratio (x) = -0.49026 0.48196
# Poissons Ratio (y) = -2.96240 0.65924
# Poissons Ratio (z) = 1.59774 0.36168
#
# Static dielectric constant tensor:
#      x y z
#    x 1.675350 0.006600 0.001920 
#    y 0.006600 1.638470 -0.019290 
#    z 0.001920 -0.019290 1.629750 
# 
# From -- ./inp_files/528823.got.cif
#   From: 2010.05.17/outbox.cif.g08.bks.cpg/sg2_265_cif.got.tgz:528823.got - 2010.06.03 11:33:40.
