data_PCOD9087762
_publ_section_title
;
Structure prediction by ZEFSAII (Michael W. Deem and Ramdas Pophale) SiO2 
 PCOD9087762
Probable space group: P -1
;
_chemical_formula_sum "Si O2"
_cell_formula_units_Z 16
_cell_length_a 28.980839
_cell_length_b 17.322663
_cell_length_c 23.786695
_cell_angle_alpha 17.942498
_cell_angle_beta 168.606118
_cell_angle_gamma 162.234353
_cell_volume 687.633193
_symmetry_space_group_name_H-M "P -1"
_symmetry_group_IT_number 2
_symmetry_cell_setting 'triclinic'
loop_
_space_group_symop_operation_xyz
x,y,z
-x,-y,-z
loop_
_atom_site_type_symbol
_atom_site_label
_atom_site_fract_x
_atom_site_fract_y
_atom_site_fract_z
Si Si1 0.318264 0.169067 0.666211
Si Si2 0.399501 0.628134 0.360162
Si Si3 0.340530 0.591936 0.494713
Si Si4 0.532781 0.291912 0.313524
Si Si5 0.850815 0.985053 0.165900
Si Si6 0.791325 0.116938 0.648404
Si Si7 0.643093 0.430661 0.166432
Si Si8 0.893128 0.764260 0.809288
O O1 0.420167 0.387777 0.588154
O O2 0.310030 0.337493 0.595475
O O3 0.047869 0.991557 0.444658
O O4 0.500000 0.000000 0.000000
O O5 0.674180 0.821500 0.541942
O O6 0.256072 0.499363 0.221832
O O7 0.223885 0.752022 0.098323
O O8 0.414073 0.544994 0.678360
O O9 0.549056 0.853959 0.536952
O O10 0.096344 0.679340 0.144372
O O11 0.746572 0.309076 0.510856
O O12 0.500000 0.000000 0.500000
O O13 0.299179 0.321626 0.978774
O O14 0.976825 0.010601 0.237320
O O15 0.586502 0.766099 0.005653
O O16 0.814989 0.283204 0.503378
O O17 0.000000 0.000000 0.000000
O O18 0.500000 0.500000 0.000000
#
# Coordination Sequence:
#
# PCOD9087762 Si02
#       8
#     2   2   2   2   2   2   2   2
#     4  11  23  39  63  94 137 183 223 277 340 403
#     4  10  20  38  65  94 123 178 228 263 340 401
#     4  11  20  41  64  92 139 179 216 289 340 391
#     4   9  22  41  63  95 130 172 224 275 341 402
#     4  11  20  42  67  94 132 172 229 281 331 404
#     4  10  21  40  71  96 126 178 229 279 345 407
#     4  10  21  40  68  92 125 178 220 273 344 399
#     4  10  19  36  67  93 123 171 225 276 329 401
#
# _framework density 23.268218999999998
#
# number of rings (size 3 to 8) (size 9 to 14) (size 15 to 20)
#    0.000    1.750    3.750    0.750    0.000    5.000 
#    6.750    3.750    0.000    0.000    0.000    0.000 
#    0.000    0.000    0.000    0.000    0.000    0.000 
#
# Total GULP energy -89249.378314 kJ/mol
# GULP energy per Si atom -5578.086145 kJ/mol
# Density = 2.321526 g / cm^3
# Si number density = 23.268219 Si / 1000 Ang^3
#
#
#
# Elastic Constant Matrix: (Units=GPa)
#
#
# Indices 1 2 3 4 5 6 
#
# 1 95.2078 5.8814 45.9693 -3.7201 -26.9483 -9.0169
# 2 5.8814 35.7829 23.1593 -6.5733 -4.6974 -8.0034
# 3 45.9693 23.1593 171.4142 -19.6812 -24.6476 5.2248
# 4 -3.7201 -6.5733 -19.6812 31.1474 10.5094 -2.2941
# 5 -26.9483 -4.6974 -24.6476 10.5094 47.5232 0.9582
# 6 -9.0169 -8.0034 5.2248 -2.2941 0.9582 32.0824
#
#
#
# Elastic Compliance Matrix: (Units=1/GPa)
#
#
# Indices 1 2 3 4 5 6 
#
# 1 0.014380 0.001401 -0.003441 -0.002148 0.006890 0.004592
# 2 0.001401 0.033908 -0.004624 0.004984 0.000445 0.009949
# 3 -0.003441 -0.004624 0.007992 0.003044 0.001129 -0.003238
# 4 -0.002148 0.004984 0.003044 0.037586 -0.007520 0.003056
# 5 0.006890 0.000445 0.001129 -0.007520 0.027231 0.000513
# 6 0.004592 0.009949 -0.003238 0.003056 0.000513 0.035673
#
#
# Mechanical properties :
#
#
# Convention : Reuss Voigt Hill
#
# Bulk Modulus (GPa) = 23.28259 50.26943 36.77601
# Shear Modulus (GPa) = 27.11264 37.31028 32.21146
#
# Velocity S-wave (km/s) = 3.41724 4.00870 3.72473
# Velocity P-wave (km/s) = 5.05944 6.56334 5.85984
#
# Compressibility (1/GPa) = 0.04295055
#
# Stress axis : x y z
#
# Youngs Moduli (GPa) = 69.54293 29.49165 125.12649
#
# Poissons Ratio (x) = -0.04131 0.43061
# Poissons Ratio (y) = -0.09742 0.57857
# Poissons Ratio (z) = 0.23933 0.13637
#
# Static dielectric constant tensor:
#      x y z
#    x 1.940770 0.041310 -0.024350 
#    y 0.041310 2.085030 -0.021580 
#    z -0.024350 -0.021580 1.899910 
# 
# From -- ./inp_files/614549.got.cif
#   From: 2010.05.17/outbox.cif.g08.bks.cpg/sg2_308_cif.got.tgz:614549.got - 2010.06.03 11:33:40.
