data_PCOD9087192
_publ_section_title
;
Structure prediction by ZEFSAII (Michael W. Deem and Ramdas Pophale) SiO2 
 PCOD9087192
Probable space group: P -1
;
_chemical_formula_sum "Si O2"
_cell_formula_units_Z 16
_cell_length_a 16.515755
_cell_length_b 5.283910
_cell_length_c 16.822586
_cell_angle_alpha 123.508377
_cell_angle_beta 147.333933
_cell_angle_gamma 64.886984
_cell_volume 658.030352
_symmetry_space_group_name_H-M "P -1"
_symmetry_group_IT_number 2
_symmetry_cell_setting 'triclinic'
loop_
_space_group_symop_operation_xyz
x,y,z
-x,-y,-z
loop_
_atom_site_type_symbol
_atom_site_label
_atom_site_fract_x
_atom_site_fract_y
_atom_site_fract_z
Si Si1 0.059775 0.300982 0.904408
Si Si2 0.579459 0.986517 0.382644
Si Si3 0.322256 0.319163 0.440626
Si Si4 0.324057 0.995938 0.870520
Si Si5 0.140303 0.221672 0.125602
Si Si6 0.282694 0.585693 0.022873
Si Si7 0.881620 0.734722 0.591782
Si Si8 0.158272 0.467555 0.731933
O O1 0.154454 0.190866 0.037857
O O2 0.164655 0.559301 0.991583
O O3 0.913192 0.439224 0.844473
O O4 0.991231 0.045106 0.743171
O O5 0.593482 0.910554 0.475077
O O6 0.429569 0.806979 0.195971
O O7 0.725830 0.829363 0.442223
O O8 0.593851 0.344145 0.438679
O O9 0.275925 0.199053 0.294510
O O10 0.171297 0.353061 0.376443
O O11 0.320934 0.234396 0.982459
O O12 0.227944 0.147325 0.748030
O O13 0.245989 0.669477 0.772990
O O14 0.500000 0.000000 0.000000
O O15 0.000000 0.000000 0.000000
O O16 0.205542 0.633285 0.883412
O O17 0.979126 0.492583 0.587884
#
# Coordination Sequence:
#
# PCOD9087192 Si02
#       8
#     2   2   2   2   2   2   2   2
#     4  11  21  36  59  88 116 155 212 256 293 348
#     4  10  23  36  60  81 129 153 203 240 309 353
#     4  10  21  36  56  82 117 162 196 245 296 354
#     4  10  22  38  63  95 123 151 192 249 300 350
#     4  11  20  34  57  85 118 156 206 261 298 339
#     4  10  24  38  63  91 119 160 199 247 297 365
#     4  10  19  36  62  88 114 154 208 248 295 345
#     4  10  21  34  67  89 117 150 203 243 289 350
#
# _framework density 24.314986999999999
#
# number of rings (size 3 to 8) (size 9 to 14) (size 15 to 20)
#    1.500    0.250    3.750    1.125    5.250    0.000 
#    0.000    1.250    0.000    1.500    0.000    0.000 
#    0.000    0.000    0.000    0.000    0.000    0.000 
#
# Total GULP energy -89371.241226 kJ/mol
# GULP energy per Si atom -5585.702577 kJ/mol
# Density = 2.425965 g / cm^3
# Si number density = 24.314987 Si / 1000 Ang^3
#
#
#
# Elastic Constant Matrix: (Units=GPa)
#
#
# Indices 1 2 3 4 5 6 
#
# 1 56.6657 25.1087 28.0020 -0.9138 15.1360 6.0412
# 2 25.1087 93.3622 19.9756 9.9979 26.4268 16.4409
# 3 28.0020 19.9756 128.8191 14.2447 16.9473 7.5112
# 4 -0.9138 9.9979 14.2447 35.1103 -5.3945 17.9630
# 5 15.1360 26.4268 16.9473 -5.3945 25.1350 2.9756
# 6 6.0412 16.4409 7.5112 17.9630 2.9756 35.1425
#
#
#
# Elastic Compliance Matrix: (Units=1/GPa)
#
#
# Indices 1 2 3 4 5 6 
#
# 1 0.023213 -0.003405 -0.003866 0.003558 -0.006694 -0.002823
# 2 -0.003405 0.017989 0.001427 -0.007287 -0.019058 -0.002797
# 3 -0.003866 0.001427 0.010012 -0.006729 -0.007596 0.001940
# 4 0.003558 -0.007287 -0.006729 0.048429 0.023110 -0.022475
# 5 -0.006694 -0.019058 -0.007596 0.023110 0.074699 -0.006447
# 6 -0.002823 -0.002797 0.001940 -0.022475 -0.006447 0.041869
#
#
# Mechanical properties :
#
#
# Convention : Reuss Voigt Hill
#
# Bulk Modulus (GPa) = 25.29987 47.22442 36.26215
# Shear Modulus (GPa) = 20.74055 32.79494 26.76774
#
# Velocity S-wave (km/s) = 2.92378 3.67652 3.32154
# Velocity P-wave (km/s) = 4.67179 6.12262 5.44574
#
# Compressibility (1/GPa) = 0.03952589
#
# Stress axis : x y z
#
# Youngs Moduli (GPa) = 43.07942 55.59046 99.87727
#
# Poissons Ratio (x) = 0.18927 0.38613
# Poissons Ratio (y) = 0.14667 -0.14250
# Poissons Ratio (z) = 0.16655 -0.07931
#
# Static dielectric constant tensor:
#      x y z
#    x 2.019420 -0.094850 0.019160 
#    y -0.094850 2.039460 -0.056900 
#    z 0.019160 -0.056900 1.893530 
# 
# From -- ./inp_files/612542.got.cif
#   From: 2010.05.17/outbox.cif.g08.bks.cpg/sg2_307_cif.got.tgz:612542.got - 2010.06.03 11:33:40.
