data_PCOD9087792
_publ_section_title
;
Structure prediction by ZEFSAII (Michael W. Deem and Ramdas Pophale) SiO2 
 PCOD9087792
Probable space group: P -1
;
_chemical_formula_sum "Si O2"
_cell_formula_units_Z 16
_cell_length_a 17.996647
_cell_length_b 11.436529
_cell_length_c 11.799442
_cell_angle_alpha 72.213870
_cell_angle_beta 49.774508
_cell_angle_gamma 32.293514
_cell_volume 800.235644
_symmetry_space_group_name_H-M "P -1"
_symmetry_group_IT_number 2
_symmetry_cell_setting 'triclinic'
loop_
_space_group_symop_operation_xyz
x,y,z
-x,-y,-z
loop_
_atom_site_type_symbol
_atom_site_label
_atom_site_fract_x
_atom_site_fract_y
_atom_site_fract_z
Si Si1 0.855044 0.412166 0.724733
Si Si2 0.571878 0.279666 0.476172
Si Si3 0.377591 0.572534 0.996459
Si Si4 0.069120 0.574458 0.098958
Si Si5 0.307829 0.935691 0.324435
Si Si6 0.903119 0.985393 0.046658
Si Si7 0.454181 0.030570 0.210576
Si Si8 0.610958 0.979213 0.469310
O O1 0.920907 0.381059 0.796046
O O2 0.659798 0.718477 0.791038
O O3 0.051006 0.210155 0.503465
O O4 0.780431 0.355935 0.823633
O O5 0.500000 0.500000 0.500000
O O6 0.748687 0.106204 0.258745
O O7 0.627066 0.176708 0.579165
O O8 0.477246 0.258658 0.524382
O O9 0.232079 0.826868 0.986728
O O10 0.556481 0.303217 0.821990
O O11 0.500000 0.500000 0.000000
O O12 0.850946 0.741030 0.258752
O O13 0.072513 0.682864 0.971627
O O14 0.288840 0.253166 0.961298
O O15 0.377331 0.999096 0.221684
O O16 0.000000 0.000000 0.000000
O O17 0.374210 0.088175 0.398053
O O18 0.500000 0.000000 0.500000
#
# Coordination Sequence:
#
# PCOD9087792 Si02
#       8
#     2   2   2   2   2   2   2   2
#     4  12  23  41  67 100 127 175 236 272 333 416
#     4  10  19  36  68  95 118 173 233 270 325 408
#     4  12  27  42  63 102 144 174 221 286 351 395
#     4  11  22  39  69  98 123 178 230 277 331 410
#     4  11  21  41  68  97 129 175 230 277 337 404
#     4  11  19  39  68  93 130 167 233 279 324 408
#     4  11  23  40  71  96 129 174 227 282 330 408
#     4  10  24  42  61  98 138 166 224 288 348 397
#
# _framework density 19.994112000000001
#
# number of rings (size 3 to 8) (size 9 to 14) (size 15 to 20)
#    0.000    1.000    7.500    0.750    1.750    3.000 
#    0.000    1.250    0.000    0.000    0.000    0.000 
#    0.000    0.000    0.000    0.000    0.000    0.000 
#
# Total GULP energy -89176.068110 kJ/mol
# GULP energy per Si atom -5573.504257 kJ/mol
# Density = 1.994860 g / cm^3
# Si number density = 19.994112 Si / 1000 Ang^3
#
#
#
# Elastic Constant Matrix: (Units=GPa)
#
#
# Indices 1 2 3 4 5 6 
#
# 1 115.8999 32.2090 27.5537 4.2702 -16.0888 -0.7283
# 2 32.2090 100.4357 16.9083 10.5993 -2.0451 1.7324
# 3 27.5537 16.9083 99.9963 10.9419 -15.4278 1.4714
# 4 4.2702 10.5993 10.9419 30.1369 -1.4316 0.2687
# 5 -16.0888 -2.0451 -15.4278 -1.4316 28.0290 -0.1813
# 6 -0.7283 1.7324 1.4714 0.2687 -0.1813 23.8388
#
#
#
# Elastic Compliance Matrix: (Units=1/GPa)
#
#
# Indices 1 2 3 4 5 6 
#
# 1 0.010551 -0.003056 -0.001686 0.000420 0.004932 0.000681
# 2 -0.003056 0.011430 -0.000968 -0.003305 -0.001627 -0.000839
# 3 -0.001686 -0.000968 0.011833 -0.003460 0.005294 -0.000632
# 4 0.000420 -0.003305 -0.003460 0.035536 -0.000089 0.000065
# 5 0.004932 -0.001627 0.005294 -0.000089 0.041300 0.000257
# 6 0.000681 -0.000839 -0.000632 0.000065 0.000257 0.042070
#
#
# Mechanical properties :
#
#
# Convention : Reuss Voigt Hill
#
# Bulk Modulus (GPa) = 44.65058 52.18598 48.41828
# Shear Modulus (GPa) = 29.13667 32.37835 30.75751
#
# Velocity S-wave (km/s) = 3.82155 4.02854 3.92641
# Velocity P-wave (km/s) = 6.46937 6.91348 6.69510
#
# Compressibility (1/GPa) = 0.02239612
#
# Stress axis : x y z
#
# Youngs Moduli (GPa) = 94.77345 87.49207 84.50774
#
# Poissons Ratio (x) = 0.26734 0.14247
# Poissons Ratio (y) = 0.28959 0.08177
# Poissons Ratio (z) = 0.15978 0.08466
#
# Static dielectric constant tensor:
#      x y z
#    x 1.720480 0.078780 -0.009240 
#    y 0.078780 1.869570 0.049590 
#    z -0.009240 0.049590 1.757050 
# 
# From -- ./inp_files/464524.got.cif
#   From: 2010.05.17/outbox.cif.g08.bks.cpg/sg2_233_cif.got.tgz:464524.got - 2010.06.03 11:33:40.
