data_PCOD9087403
_publ_section_title
;
Structure prediction by ZEFSAII (Michael W. Deem and Ramdas Pophale) SiO2 
 PCOD9087403
Probable space group: P -1
;
_chemical_formula_sum "Si O2"
_cell_formula_units_Z 14
_cell_length_a 11.235393
_cell_length_b 14.658415
_cell_length_c 9.037330
_cell_angle_alpha 135.239856
_cell_angle_beta 106.678204
_cell_angle_gamma 43.125868
_cell_volume 628.350017
_symmetry_space_group_name_H-M "P -1"
_symmetry_group_IT_number 2
_symmetry_cell_setting 'triclinic'
loop_
_space_group_symop_operation_xyz
x,y,z
-x,-y,-z
loop_
_atom_site_type_symbol
_atom_site_label
_atom_site_fract_x
_atom_site_fract_y
_atom_site_fract_z
Si Si1 0.026736 0.668710 0.604048
Si Si2 0.342697 0.171769 0.769963
Si Si3 0.867384 0.300292 0.905181
Si Si4 0.152157 0.277045 0.115290
Si Si5 0.115291 0.141464 0.540992
Si Si6 0.494768 0.690285 0.070160
Si Si7 0.828947 0.203406 0.072498
O O1 0.108226 0.462234 0.349968
O O2 0.850187 0.790921 0.802849
O O3 0.946228 0.804520 0.587299
O O4 0.190223 0.633472 0.688097
O O5 0.146468 0.266427 0.740885
O O6 0.371963 0.301551 0.940451
O O7 0.500000 0.000000 0.500000
O O8 0.329002 0.128141 0.884648
O O9 0.906350 0.162793 0.885863
O O10 0.969649 0.193948 0.663038
O O11 0.637862 0.499825 0.013689
O O12 0.964126 0.355613 0.064411
O O13 0.323670 0.898880 0.344141
O O14 0.377394 0.704468 0.919452
O O15 0.000000 0.000000 0.000000
#
# Coordination Sequence:
#
# PCOD9087403 Si02
#       7
#     2   2   2   2   2   2   2
#     4  10  19  36  63  90 128 170 202 256 327 377
#     4   9  19  36  62  95 124 160 213 266 312 374
#     4  10  22  40  69  92 119 165 220 260 316 377
#     4   9  19  37  64  94 127 164 206 266 328 371
#     4  10  20  38  66  93 124 163 209 269 320 367
#     4  11  21  38  64  92 125 163 215 263 303 384
#     4  11  23  42  62  86 132 175 205 258 319 382
#
# _framework density 22.280577000000001
#
# number of rings (size 3 to 8) (size 9 to 14) (size 15 to 20)
#    0.000    2.000    1.429    2.143    0.000    2.857 
#    0.000    5.714   18.857    0.000    0.000    0.000 
#    0.000    0.000    0.000    0.000    0.000    0.000 
#
# Total GULP energy -77964.903938 kJ/mol
# GULP energy per Si atom -5568.921710 kJ/mol
# Density = 2.222987 g / cm^3
# Si number density = 22.280577 Si / 1000 Ang^3
#
#
#
# Elastic Constant Matrix: (Units=GPa)
#
#
# Indices 1 2 3 4 5 6 
#
# 1 133.1652 57.0429 50.6018 -22.3721 7.5747 2.8979
# 2 57.0429 124.1012 41.7890 -18.0329 -15.5099 18.8961
# 3 50.6018 41.7890 92.4460 -22.4206 -5.4957 3.8932
# 4 -22.3721 -18.0329 -22.4206 30.9778 5.2377 -9.6510
# 5 7.5747 -15.5099 -5.4957 5.2377 47.3026 -19.9670
# 6 2.8979 18.8961 3.8932 -9.6510 -19.9670 29.8231
#
#
#
# Elastic Compliance Matrix: (Units=1/GPa)
#
#
# Indices 1 2 3 4 5 6 
#
# 1 0.011555 -0.004028 -0.003751 0.004154 -0.003749 0.000753
# 2 -0.004028 0.011947 -0.002870 -0.000085 0.001888 -0.005567
# 3 -0.003751 -0.002870 0.016130 0.008248 0.002481 0.004407
# 4 0.004154 -0.000085 0.008248 0.045378 0.001167 0.014039
# 5 -0.003749 0.001888 0.002481 0.001167 0.030932 0.019931
# 6 0.000753 -0.005567 0.004407 0.014039 0.019931 0.054297
#
#
# Mechanical properties :
#
#
# Convention : Reuss Voigt Hill
#
# Bulk Modulus (GPa) = 54.54208 72.06442 63.30325
# Shear Modulus (GPa) = 25.29755 34.97262 30.13508
#
# Velocity S-wave (km/s) = 3.37324 3.96617 3.68166
# Velocity P-wave (km/s) = 6.30115 7.30673 6.82249
#
# Compressibility (1/GPa) = 0.01833447
#
# Stress axis : x y z
#
# Youngs Moduli (GPa) = 86.54330 83.70398 61.99650
#
# Poissons Ratio (x) = 0.33713 0.23257
# Poissons Ratio (y) = 0.34856 0.17791
# Poissons Ratio (z) = 0.32465 0.24020
#
# Static dielectric constant tensor:
#      x y z
#    x 1.902640 0.029240 0.026110 
#    y 0.029240 1.828800 -0.031690 
#    z 0.026110 -0.031690 1.888520 
# 
# From -- ./inp_files/274409.got.cif
#   From: 2010.05.17/outbox.cif.g08.bks.cpg/sg2_138_cif.got.tgz:274409.got - 2010.06.03 11:33:40.
