data_PCOD9087886
_publ_section_title
;
Structure prediction by ZEFSAII (Michael W. Deem and Ramdas Pophale) SiO2 
 PCOD9087886
Probable space group: P -1
;
_chemical_formula_sum "Si O2"
_cell_formula_units_Z 16
_cell_length_a 16.271286
_cell_length_b 13.950998
_cell_length_c 14.257923
_cell_angle_alpha 21.202479
_cell_angle_beta 136.801042
_cell_angle_gamma 133.634124
_cell_volume 800.571318
_symmetry_space_group_name_H-M "P -1"
_symmetry_group_IT_number 2
_symmetry_cell_setting 'triclinic'
loop_
_space_group_symop_operation_xyz
x,y,z
-x,-y,-z
loop_
_atom_site_type_symbol
_atom_site_label
_atom_site_fract_x
_atom_site_fract_y
_atom_site_fract_z
Si Si1 0.584110 0.255362 0.812098
Si Si2 0.944531 0.075723 0.482564
Si Si3 0.004054 0.965638 0.239448
Si Si4 0.212548 0.033543 0.090237
Si Si5 0.130646 0.579591 0.579006
Si Si6 0.166387 0.373553 0.083718
Si Si7 0.574826 0.110034 0.736731
Si Si8 0.409645 0.599154 0.114902
O O1 0.500000 0.500000 0.500000
O O2 0.640233 0.179483 0.828117
O O3 0.647811 0.337252 0.887809
O O4 0.500000 0.000000 0.000000
O O5 0.035468 0.069853 0.652863
O O6 0.842500 0.858264 0.632248
O O7 0.897944 0.368234 0.170633
O O8 0.000000 0.000000 0.500000
O O9 0.095614 0.736336 0.500168
O O10 0.086198 0.234794 0.062242
O O11 0.897624 0.973997 0.069443
O O12 0.190430 0.798935 0.359652
O O13 0.331596 0.984240 0.175567
O O14 0.206161 0.317121 0.877694
O O15 0.000000 0.500000 0.500000
O O16 0.300792 0.469310 0.083277
O O17 0.508601 0.376797 0.410614
O O18 0.475063 0.871102 0.886782
#
# Coordination Sequence:
#
# PCOD9087886 Si02
#       8
#     2   2   2   2   2   2   2   2
#     4   8  16  30  50  73 103 142 185 222 264 326
#     4  10  22  38  55  88 119 148 191 227 286 334
#     4   9  23  36  62  83 118 146 194 230 290 350
#     4  11  22  36  60  90 115 146 184 248 300 328
#     4  10  21  37  59  85 114 149 192 233 291 352
#     4  10  22  36  61  81 114 159 188 229 277 338
#     4  10  20  35  55  83 113 144 186 243 283 326
#     4  10  19  37  56  79 112 152 197 219 275 346
#
# _framework density 19.985727000000001
#
# number of rings (size 3 to 8) (size 9 to 14) (size 15 to 20)
#    0.750    1.500    0.000    3.375    5.250    1.000 
#    0.000    2.500    0.000    4.500    0.000    0.000 
#    0.000    0.000    0.000    0.000    0.000    0.000 
#
# Total GULP energy -89118.570633 kJ/mol
# GULP energy per Si atom -5569.910665 kJ/mol
# Density = 1.994024 g / cm^3
# Si number density = 19.985727 Si / 1000 Ang^3
#
#
#
# Elastic Constant Matrix: (Units=GPa)
#
#
# Indices 1 2 3 4 5 6 
#
# 1 84.1133 7.8586 19.7189 -14.3828 6.4898 -17.7391
# 2 7.8586 53.8546 16.3193 -10.9504 6.1502 -4.1300
# 3 19.7189 16.3193 102.4051 -37.6925 5.0261 -9.4019
# 4 -14.3828 -10.9504 -37.6925 28.5808 -4.6204 1.9036
# 5 6.4898 6.1502 5.0261 -4.6204 32.4396 -3.3974
# 6 -17.7391 -4.1300 -9.4019 1.9036 -3.3974 19.8169
#
#
#
# Elastic Compliance Matrix: (Units=1/GPa)
#
#
# Indices 1 2 3 4 5 6 
#
# 1 0.016132 0.000214 0.001610 0.009261 -0.000707 0.014238
# 2 0.000214 0.020588 -0.000370 0.006878 -0.002573 0.003205
# 3 0.001610 -0.000370 0.020114 0.026843 0.001351 0.008560
# 4 0.009261 0.006878 0.026843 0.077495 0.005391 0.015939
# 5 -0.000707 -0.002573 0.001351 0.005391 0.032488 0.004524
# 6 0.014238 0.003205 0.008560 0.015939 0.004524 0.067181
#
#
# Mechanical properties :
#
#
# Convention : Reuss Voigt Hill
#
# Bulk Modulus (GPa) = 16.73854 36.46293 26.60073
# Shear Modulus (GPa) = 19.92005 29.26590 24.59298
#
# Velocity S-wave (km/s) = 3.16050 3.83082 3.51169
# Velocity P-wave (km/s) = 4.65959 6.15232 5.45723
#
# Compressibility (1/GPa) = 0.05974238
#
# Stress axis : x y z
#
# Youngs Moduli (GPa) = 61.98773 48.57296 49.71700
#
# Poissons Ratio (x) = -0.01038 -0.08006
# Poissons Ratio (y) = -0.01325 0.01838
# Poissons Ratio (z) = -0.09982 0.01796
#
# Static dielectric constant tensor:
#      x y z
#    x 1.709070 -0.043360 -0.032330 
#    y -0.043360 1.750740 0.023170 
#    z -0.032330 0.023170 1.713210 
# 
# From -- ./inp_files/534014.got.cif
#   From: 2010.05.17/outbox.cif.g08.bks.cpg/sg2_268_cif.got.tgz:534014.got - 2010.06.03 11:33:40.
