data_PCOD9087269
_publ_section_title
;
Structure prediction by ZEFSAII (Michael W. Deem and Ramdas Pophale) SiO2 
 PCOD9087269
Probable space group: P -1
;
_chemical_formula_sum "Si O2"
_cell_formula_units_Z 16
_cell_length_a 16.140502
_cell_length_b 5.026348
_cell_length_c 16.805485
_cell_angle_alpha 72.551682
_cell_angle_beta 35.355635
_cell_angle_gamma 86.737056
_cell_volume 707.818361
_symmetry_space_group_name_H-M "P -1"
_symmetry_group_IT_number 2
_symmetry_cell_setting 'triclinic'
loop_
_space_group_symop_operation_xyz
x,y,z
-x,-y,-z
loop_
_atom_site_type_symbol
_atom_site_label
_atom_site_fract_x
_atom_site_fract_y
_atom_site_fract_z
Si Si1 0.281698 0.914805 0.905395
Si Si2 0.320760 0.936190 0.156620
Si Si3 0.380776 0.174745 0.643282
Si Si4 0.654866 0.948910 0.485422
Si Si5 0.531195 0.512547 0.212575
Si Si6 0.085542 0.844365 0.210952
Si Si7 0.109078 0.805533 0.596329
Si Si8 0.289168 0.321005 0.288946
O O1 0.334804 0.630813 0.875485
O O2 0.282160 0.099825 0.807584
O O3 0.410422 0.148505 0.837968
O O4 0.132713 0.842390 0.082273
O O5 0.232962 0.910877 0.145137
O O6 0.248264 0.617370 0.285262
O O7 0.299907 0.190022 0.205927
O O8 0.500000 0.000000 0.000000
O O9 0.500000 0.500000 0.500000
O O10 0.282970 0.070648 0.649228
O O11 0.498039 0.002943 0.585179
O O12 0.599745 0.648256 0.606174
O O13 0.762643 0.184643 0.439703
O O14 0.451479 0.432755 0.197195
O O15 0.967895 0.517811 0.349919
O O16 0.010693 0.086719 0.270711
O O17 0.179981 0.054816 0.451479
#
# Coordination Sequence:
#
# PCOD9087269 Si02
#       8
#     2   2   2   2   2   2   2   2
#     4  11  22  38  61  90 128 162 204 254 319 367
#     4  12  25  42  66  96 126 156 212 270 317 355
#     4  10  19  37  68  98 121 152 208 268 313 357
#     4   9  21  37  62  97 124 156 202 263 307 366
#     4  10  19  36  62  92 122 155 202 260 320 364
#     4  12  26  43  61  88 129 175 206 253 308 376
#     4  11  26  44  64  89 131 173 213 241 302 382
#     4  11  23  40  66  93 121 167 208 258 307 364
#
# _framework density 22.604668
#
# number of rings (size 3 to 8) (size 9 to 14) (size 15 to 20)
#    0.000    1.250    1.250    4.875    1.750    5.000 
#    0.000    1.250    0.000    0.000    0.000    0.000 
#    0.000    0.000    0.000    0.000    0.000    0.000 
#
# Total GULP energy -89418.308060 kJ/mol
# GULP energy per Si atom -5588.644254 kJ/mol
# Density = 2.255322 g / cm^3
# Si number density = 22.604668 Si / 1000 Ang^3
#
#
#
# Elastic Constant Matrix: (Units=GPa)
#
#
# Indices 1 2 3 4 5 6 
#
# 1 74.1856 9.1871 22.9504 1.6810 13.2495 19.8469
# 2 9.1871 74.0033 -4.7963 0.8802 -0.2235 9.1807
# 3 22.9504 -4.7963 68.7986 1.4494 20.8384 10.4878
# 4 1.6810 0.8802 1.4494 26.9090 2.7605 -1.1367
# 5 13.2495 -0.2235 20.8384 2.7605 33.2061 -1.6338
# 6 19.8469 9.1807 10.4878 -1.1367 -1.6338 25.4570
#
#
#
# Elastic Compliance Matrix: (Units=1/GPa)
#
#
# Indices 1 2 3 4 5 6 
#
# 1 0.019381 -0.000767 -0.002178 -0.000960 -0.007001 -0.014428
# 2 -0.000767 0.014505 0.002616 -0.000663 -0.001470 -0.005834
# 3 -0.002178 0.002616 0.020490 -0.000142 -0.012377 -0.008487
# 4 -0.000960 -0.000663 -0.000142 0.037620 -0.002534 0.002563
# 5 -0.007001 -0.001470 -0.012377 -0.002534 0.041548 0.013641
# 6 -0.014428 -0.005834 -0.008487 0.002563 0.013641 0.057121
#
#
# Mechanical properties :
#
#
# Convention : Reuss Voigt Hill
#
# Bulk Modulus (GPa) = 18.61641 30.18552 24.40097
# Shear Modulus (GPa) = 23.89726 29.75751 26.82738
#
# Velocity S-wave (km/s) = 3.25496 3.63220 3.44874
# Velocity P-wave (km/s) = 4.73074 5.56536 5.16493
#
# Compressibility (1/GPa) = 0.05371604
#
# Stress axis : x y z
#
# Youngs Moduli (GPa) = 51.59778 68.94210 48.80427
#
# Poissons Ratio (x) = 0.05288 0.10631
# Poissons Ratio (y) = 0.03958 -0.12765
# Poissons Ratio (z) = 0.11240 -0.18033
#
# Static dielectric constant tensor:
#      x y z
#    x 1.854650 -0.008400 0.047690 
#    y -0.008400 1.842240 -0.010830 
#    z 0.047690 -0.010830 1.925440 
# 
# From -- ./inp_files/128403.got.cif
#   From: 2010.05.17/outbox.cif.g08.bks.cpg/sg2_65_cif.got.tgz:128403.got - 2010.06.03 11:33:40.
