data_PCOD9087907
_publ_section_title
;
Structure prediction by ZEFSAII (Michael W. Deem and Ramdas Pophale) SiO2 
 PCOD9087907
Probable space group: P -1
;
_chemical_formula_sum "Si O2"
_cell_formula_units_Z 16
_cell_length_a 12.492282
_cell_length_b 20.663851
_cell_length_c 9.094743
_cell_angle_alpha 53.189769
_cell_angle_beta 40.492417
_cell_angle_gamma 30.392504
_cell_volume 759.641306
_symmetry_space_group_name_H-M "P -1"
_symmetry_group_IT_number 2
_symmetry_cell_setting 'triclinic'
loop_
_space_group_symop_operation_xyz
x,y,z
-x,-y,-z
loop_
_atom_site_type_symbol
_atom_site_label
_atom_site_fract_x
_atom_site_fract_y
_atom_site_fract_z
Si Si1 0.066264 0.845967 0.650548
Si Si2 0.094450 0.431495 0.236257
Si Si3 0.633386 0.700547 0.179900
Si Si4 0.516747 0.083121 0.802801
Si Si5 0.187591 0.627948 0.678182
Si Si6 0.710285 0.486263 0.985722
Si Si7 0.093317 0.669713 0.388335
Si Si8 0.094905 0.198649 0.863831
O O1 0.340833 0.783641 0.417167
O O2 0.109611 0.740338 0.683182
O O3 0.828849 0.980528 0.628033
O O4 0.981796 0.853772 0.895653
O O5 0.829704 0.568217 0.248643
O O6 0.996354 0.387335 0.478409
O O7 0.293061 0.337552 0.017710
O O8 0.228036 0.442896 0.197223
O O9 0.631924 0.794021 0.109063
O O10 0.363381 0.132351 0.742396
O O11 0.500000 0.000000 0.000000
O O12 0.500000 0.500000 0.500000
O O13 0.171062 0.564882 0.902295
O O14 0.051447 0.681896 0.590455
O O15 0.402093 0.578857 0.172992
O O16 0.869701 0.353964 0.917973
O O17 0.917535 0.799476 0.301390
#
# Coordination Sequence:
#
# PCOD9087907 Si02
#       8
#     2   2   2   2   2   2   2   2
#     4  10  21  38  67  84 113 163 207 253 293 352
#     4  11  22  34  63  95 124 151 196 254 307 360
#     4  11  20  38  61  96 115 150 210 254 296 352
#     4  10  22  39  61  84 119 160 208 250 290 357
#     4   9  17  33  58  86 114 149 195 241 290 350
#     4  10  19  37  56  87 125 158 200 244 293 364
#     4  11  22  35  58  91 129 162 189 245 319 359
#     4  10  21  39  55  88 124 161 201 240 308 363
#
# _framework density 21.062571999999999
#
# number of rings (size 3 to 8) (size 9 to 14) (size 15 to 20)
#    0.000    1.750    1.250    6.000    3.500    0.500 
#    2.250    0.625    0.000    0.750    0.000    0.000 
#    0.000    0.000    0.000    0.000    0.000    0.000 
#
# Total GULP energy -89105.430996 kJ/mol
# GULP energy per Si atom -5569.089437 kJ/mol
# Density = 2.101463 g / cm^3
# Si number density = 21.062572 Si / 1000 Ang^3
#
#
#
# Elastic Constant Matrix: (Units=GPa)
#
#
# Indices 1 2 3 4 5 6 
#
# 1 66.0778 21.0459 35.7873 -11.1775 -7.2056 -19.3486
# 2 21.0459 80.0457 28.4029 3.2380 -0.6094 -17.2104
# 3 35.7873 28.4029 88.1144 3.0084 -24.6897 -24.2516
# 4 -11.1775 3.2380 3.0084 22.6865 -5.5575 -2.5739
# 5 -7.2056 -0.6094 -24.6897 -5.5575 40.3879 -5.8783
# 6 -19.3486 -17.2104 -24.2516 -2.5739 -5.8783 35.5163
#
#
#
# Elastic Compliance Matrix: (Units=1/GPa)
#
#
# Indices 1 2 3 4 5 6 
#
# 1 0.025509 -0.003043 -0.005715 0.016113 0.004753 0.010475
# 2 -0.003043 0.015243 -0.003570 -0.003544 -0.002604 0.002604
# 3 -0.005715 -0.003570 0.022413 -0.000281 0.014458 0.012834
# 4 0.016113 -0.003544 -0.000281 0.057081 0.012405 0.013059
# 5 0.004753 -0.002604 0.014458 0.012405 0.038810 0.018522
# 6 0.010475 0.002604 0.012834 0.013059 0.018522 0.047899
#
#
# Mechanical properties :
#
#
# Convention : Reuss Voigt Hill
#
# Bulk Modulus (GPa) = 25.96666 44.96778 35.46722
# Shear Modulus (GPa) = 20.45433 29.65158 25.05295
#
# Velocity S-wave (km/s) = 3.11966 3.75612 3.45259
# Velocity P-wave (km/s) = 5.03304 6.34091 5.72445
#
# Compressibility (1/GPa) = 0.03851092
#
# Stress axis : x y z
#
# Youngs Moduli (GPa) = 39.20178 65.60487 44.61601
#
# Poissons Ratio (x) = 0.19960 0.25498
# Poissons Ratio (y) = 0.11927 0.15926
# Poissons Ratio (z) = 0.22404 0.23419
#
# Static dielectric constant tensor:
#      x y z
#    x 1.844720 0.046560 0.044530 
#    y 0.046560 1.728570 -0.032590 
#    z 0.044530 -0.032590 1.762630 
# 
# From -- ./inp_files/282849.got.cif
#   From: 2010.05.17/outbox.cif.g08.bks.cpg/sg2_142_cif.got.tgz:282849.got - 2010.06.03 11:33:40.
