data_PCOD9087733
_publ_section_title
;
Structure prediction by ZEFSAII (Michael W. Deem and Ramdas Pophale) SiO2 
 PCOD9087733
Probable space group: P -1
;
_chemical_formula_sum "Si O2"
_cell_formula_units_Z 12
_cell_length_a 14.363763
_cell_length_b 8.188026
_cell_length_c 5.197998
_cell_angle_alpha 120.352597
_cell_angle_beta 119.872337
_cell_angle_gamma 56.317255
_cell_volume 418.297400
_symmetry_space_group_name_H-M "P -1"
_symmetry_group_IT_number 2
_symmetry_cell_setting 'triclinic'
loop_
_space_group_symop_operation_xyz
x,y,z
-x,-y,-z
loop_
_atom_site_type_symbol
_atom_site_label
_atom_site_fract_x
_atom_site_fract_y
_atom_site_fract_z
Si Si1 0.732044 0.756638 0.248025
Si Si2 0.627545 0.857961 0.678761
Si Si3 0.000000 0.500000 0.000000
Si Si4 0.618572 0.424092 0.933816
Si Si5 0.305179 0.633276 0.511384
Si Si6 0.000000 0.500000 0.500000
Si Si7 0.959175 0.135857 0.803548
O O1 0.716307 0.863067 0.585805
O O2 0.666645 0.600715 0.077516
O O3 0.869021 0.641302 0.273561
O O4 0.661133 0.910809 0.046797
O O5 0.655314 0.613359 0.571488
O O6 0.500000 0.000000 0.500000
O O7 0.936254 0.431613 0.611131
O O8 0.011688 0.308718 0.056671
O O9 0.702579 0.272621 0.141575
O O10 0.500000 0.500000 0.000000
O O11 0.611748 0.339851 0.575180
O O12 0.179502 0.739823 0.294519
O O13 0.000000 0.000000 0.500000
O O14 0.000000 0.000000 0.000000
#
# Coordination Sequence:
#
# PCOD9087733 Si02
#       7
#     2   2   1   2   2   1   2
#     4  10  21  36  63 103 134 185 241 318 375 461
#     4  10  20  38  67 100 139 185 247 315 382 455
#     4  12  24  44  78 108 156 210 258 322 396 484
#     4  10  19  36  66  95 130 190 246 301 383 453
#     4  10  21  40  68 100 137 193 247 324 387 443
#     4  12  22  42  76 112 150 200 258 318 414 476
#     4  12  26  47  79 112 161 211 264 333 404 496
#
# _framework density 28.687726000000001
#
# number of rings (size 3 to 8) (size 9 to 14) (size 15 to 20)
#    0.000    1.333    0.000    8.000    0.000    0.000 
#    0.000    0.000   95.333    0.000    0.000    0.000 
#    0.000    0.000    0.000    0.000    0.000    0.000 
#
# Total GULP energy -66800.754273 kJ/mol
# GULP energy per Si atom -5566.729523 kJ/mol
# Density = 2.862243 g / cm^3
# Si number density = 28.687726 Si / 1000 Ang^3
#
#
#
# Elastic Constant Matrix: (Units=GPa)
#
#
# Indices 1 2 3 4 5 6 
#
# 1 110.8849 78.9781 53.8875 -21.5784 -5.7627 -3.1593
# 2 78.9781 186.3343 74.4830 -29.2140 -4.8619 5.1833
# 3 53.8875 74.4830 164.4430 -53.3378 -51.4511 6.3098
# 4 -21.5784 -29.2140 -53.3378 75.7577 7.3463 2.5048
# 5 -5.7627 -4.8619 -51.4511 7.3463 69.8467 -21.7108
# 6 -3.1593 5.1833 6.3098 2.5048 -21.7108 58.3670
#
#
#
# Elastic Compliance Matrix: (Units=1/GPa)
#
#
# Indices 1 2 3 4 5 6 
#
# 1 0.013715 -0.004828 -0.002456 0.000344 -0.000687 0.001166
# 2 -0.004828 0.008617 -0.003012 0.000129 -0.002544 -0.001653
# 3 -0.002456 -0.003012 0.013132 0.006436 0.009158 0.001845
# 4 0.000344 0.000129 0.006436 0.017621 0.002799 -0.000403
# 5 -0.000687 -0.002544 0.009158 0.002799 0.022896 0.007595
# 6 0.001166 -0.001653 0.001845 -0.000403 0.007595 0.019986
#
#
# Mechanical properties :
#
#
# Convention : Reuss Voigt Hill
#
# Bulk Modulus (GPa) = 67.23737 97.37326 82.30531
# Shear Modulus (GPa) = 41.14757 57.74851 49.44804
#
# Velocity S-wave (km/s) = 3.79136 4.49152 4.15621
# Velocity P-wave (km/s) = 6.53104 7.80477 7.19614
#
# Compressibility (1/GPa) = 0.01487268
#
# Stress axis : x y z
#
# Youngs Moduli (GPa) = 72.91315 116.05498 76.14995
#
# Poissons Ratio (x) = 0.56030 0.18701
# Poissons Ratio (y) = 0.35202 0.22934
# Poissons Ratio (z) = 0.17907 0.34952
#
# Static dielectric constant tensor:
#      x y z
#    x 1.913590 0.194940 0.132930 
#    y 0.194940 1.960760 -0.378180 
#    z 0.132930 -0.378180 2.080440 
# 
# From -- ./inp_files/88025.got.cif
#   From: 2010.05.17/outbox.cif.g08.bks.cpg/sg2_45_cif.got.tgz:88025.got - 2010.06.03 11:33:40.
