data_PCOD9087960
_publ_section_title
;
Structure prediction by ZEFSAII (Michael W. Deem and Ramdas Pophale) SiO2 
 PCOD9087960
Probable space group: P -1
;
_chemical_formula_sum "Si O2"
_cell_formula_units_Z 16
_cell_length_a 9.827584
_cell_length_b 13.868369
_cell_length_c 11.492647
_cell_angle_alpha 146.846894
_cell_angle_beta 70.528812
_cell_angle_gamma 93.832923
_cell_volume 736.034627
_symmetry_space_group_name_H-M "P -1"
_symmetry_group_IT_number 2
_symmetry_cell_setting 'triclinic'
loop_
_space_group_symop_operation_xyz
x,y,z
-x,-y,-z
loop_
_atom_site_type_symbol
_atom_site_label
_atom_site_fract_x
_atom_site_fract_y
_atom_site_fract_z
Si Si1 0.343928 0.972590 0.846478
Si Si2 0.166381 0.244688 0.685253
Si Si3 0.849467 0.412169 0.823154
Si Si4 0.762130 0.305616 0.504380
Si Si5 0.558105 0.447999 0.095101
Si Si6 0.665424 0.611833 0.422368
Si Si7 0.477392 0.922075 0.305143
Si Si8 0.181777 0.415978 0.407783
O O1 0.212088 0.891582 0.768501
O O2 0.496150 0.795354 0.683436
O O3 0.423334 0.023845 0.763503
O O4 0.260144 0.181542 0.142241
O O5 0.245113 0.325067 0.641876
O O6 0.995988 0.274726 0.720325
O O7 0.289180 0.026707 0.443312
O O8 0.152911 0.375047 0.935803
O O9 0.865987 0.330072 0.605175
O O10 0.689321 0.425317 0.941064
O O11 0.591607 0.347851 0.654451
O O12 0.744417 0.471426 0.583757
O O13 0.628356 0.444138 0.200371
O O14 0.481069 0.301138 0.940246
O O15 0.778946 0.543454 0.431333
O O16 0.500000 0.000000 0.500000
O O17 0.000000 0.500000 0.500000
#
# Coordination Sequence:
#
# PCOD9087960 Si02
#       8
#     2   2   2   2   2   2   2   2
#     4  10  23  42  63  92 120 164 210 248 312 364
#     4   9  20  35  59  85 124 166 195 246 315 361
#     4  10  19  37  57  88 126 161 196 251 311 369
#     4  11  22  40  64  90 122 159 209 252 310 362
#     4  10  20  36  61  89 120 163 207 245 307 361
#     4   9  21  43  61  87 124 163 209 250 303 372
#     4  11  20  37  60  94 123 158 208 249 298 371
#     4  12  25  43  65  92 122 163 208 263 310 357
#
# _framework density 21.738109000000001
#
# number of rings (size 3 to 8) (size 9 to 14) (size 15 to 20)
#    0.000    1.750    1.250    3.750    0.000    3.000 
#    6.750    0.000    0.000    0.000    0.000    0.000 
#    0.000    0.000    0.000    0.000    0.000    0.000 
#
# Total GULP energy -89222.492510 kJ/mol
# GULP energy per Si atom -5576.405782 kJ/mol
# Density = 2.168863 g / cm^3
# Si number density = 21.738109 Si / 1000 Ang^3
#
#
#
# Elastic Constant Matrix: (Units=GPa)
#
#
# Indices 1 2 3 4 5 6 
#
# 1 75.6369 24.5645 15.2905 -7.6457 13.7280 -14.7817
# 2 24.5645 47.6353 20.0548 -8.7023 20.1324 -15.9005
# 3 15.2905 20.0548 75.7509 -1.6694 25.5671 -8.9646
# 4 -7.6457 -8.7023 -1.6694 25.2017 -4.8037 12.4811
# 5 13.7280 20.1324 25.5671 -4.8037 43.5175 -8.1769
# 6 -14.7817 -15.9005 -8.9646 12.4811 -8.1769 30.8793
#
#
#
# Elastic Compliance Matrix: (Units=1/GPa)
#
#
# Indices 1 2 3 4 5 6 
#
# 1 0.016435 -0.006299 -0.000851 0.000661 -0.000974 0.003852
# 2 -0.006299 0.033266 -0.003157 0.002837 -0.009440 0.009551
# 3 -0.000851 -0.003157 0.017173 -0.002710 -0.008313 0.001847
# 4 0.000661 0.002837 -0.002710 0.050404 0.002097 -0.018827
# 5 -0.000974 -0.009440 -0.008313 0.002097 0.032787 0.000094
# 6 0.003852 0.009551 0.001847 -0.018827 0.000094 0.047317
#
#
# Mechanical properties :
#
#
# Convention : Reuss Voigt Hill
#
# Bulk Modulus (GPa) = 21.61587 35.42699 28.52143
# Shear Modulus (GPa) = 21.42099 29.19392 25.30746
#
# Velocity S-wave (km/s) = 3.14253 3.66865 3.41574
# Velocity P-wave (km/s) = 4.80965 5.85473 5.35773
#
# Compressibility (1/GPa) = 0.04626231
#
# Stress axis : x y z
#
# Youngs Moduli (GPa) = 60.84543 30.06034 58.23043
#
# Poissons Ratio (x) = 0.18935 0.04954
# Poissons Ratio (y) = 0.38326 0.18381
# Poissons Ratio (z) = 0.05176 0.09489
#
# Static dielectric constant tensor:
#      x y z
#    x 1.852820 -0.017340 0.003460 
#    y -0.017340 1.796490 -0.006440 
#    z 0.003460 -0.006440 1.836530 
# 
# From -- ./inp_files/379272.got.cif
#   From: 2010.05.17/outbox.cif.g08.bks.cpg/sg2_190_cif.got.tgz:379272.got - 2010.06.03 11:33:40.
