data_PCOD9087519
_publ_section_title
;
Structure prediction by ZEFSAII (Michael W. Deem and Ramdas Pophale) SiO2 
 PCOD9087519
Probable space group: P -1
;
_chemical_formula_sum "Si O2"
_cell_formula_units_Z 16
_cell_length_a 7.636291
_cell_length_b 11.414497
_cell_length_c 11.308268
_cell_angle_alpha 52.744480
_cell_angle_beta 64.623980
_cell_angle_gamma 52.048270
_cell_volume 616.146275
_symmetry_space_group_name_H-M "P -1"
_symmetry_group_IT_number 2
_symmetry_cell_setting 'triclinic'
loop_
_space_group_symop_operation_xyz
x,y,z
-x,-y,-z
loop_
_atom_site_type_symbol
_atom_site_label
_atom_site_fract_x
_atom_site_fract_y
_atom_site_fract_z
Si Si1 0.200642 0.535785 0.953970
Si Si2 0.838487 0.910275 0.847501
Si Si3 0.881256 0.638296 0.347095
Si Si4 0.769685 0.425540 0.331876
Si Si5 0.801284 0.903144 0.520793
Si Si6 0.040642 0.088042 0.792863
Si Si7 0.536509 0.820040 0.832568
Si Si8 0.383413 0.810631 0.449632
O O1 0.324159 0.511468 0.808763
O O2 0.067243 0.733435 0.903226
O O3 0.361739 0.381937 0.084633
O O4 0.000000 0.500000 0.000000
O O5 0.653152 0.858289 0.890548
O O6 0.789791 0.042234 0.674508
O O7 0.856154 0.028905 0.872190
O O8 0.840219 0.546699 0.303820
O O9 0.006129 0.745203 0.222549
O O10 0.631036 0.773256 0.377493
O O11 0.000000 0.500000 0.500000
O O12 0.609755 0.363683 0.471732
O O13 0.995120 0.243070 0.372723
O O14 0.899135 0.864996 0.384030
O O15 0.606041 0.879205 0.654308
O O16 0.711948 0.101100 0.451544
O O17 0.274153 0.927131 0.858828
#
# Coordination Sequence:
#
# PCOD9087519 Si02
#       8
#     2   2   2   2   2   2   2   2
#     4  10  20  39  64  93 122 164 212 262 303 368
#     4  10  19  36  64  88 119 157 208 256 310 356
#     4  12  25  38  57  95 135 164 200 257 326 376
#     4  12  21  37  65  94 124 168 206 254 320 373
#     4  11  19  35  66  93 119 157 208 262 314 362
#     4  12  22  37  61  93 124 163 206 257 312 376
#     4  10  22  37  62  91 125 158 206 257 315 353
#     4  11  21  39  62  95 127 160 207 262 319 370
#
# _framework density 25.967863000000001
#
# number of rings (size 3 to 8) (size 9 to 14) (size 15 to 20)
#    0.000    1.000    8.750    1.875    0.000    0.500 
#    0.000    0.625    2.750    3.000    0.000    0.000 
#    0.000    0.000    0.000    0.000    0.000    0.000 
#
# Total GULP energy -89211.646279 kJ/mol
# GULP energy per Si atom -5575.727892 kJ/mol
# Density = 2.590876 g / cm^3
# Si number density = 25.967863 Si / 1000 Ang^3
#
#
#
# Elastic Constant Matrix: (Units=GPa)
#
#
# Indices 1 2 3 4 5 6 
#
# 1 102.2978 18.6504 6.4325 -10.7171 -2.7625 23.6546
# 2 18.6504 72.5194 41.7950 -17.8001 -5.6148 26.8833
# 3 6.4325 41.7950 101.2755 -21.3167 6.6346 11.5354
# 4 -10.7171 -17.8001 -21.3167 34.6180 4.9629 -8.8439
# 5 -2.7625 -5.6148 6.6346 4.9629 22.9443 -19.4920
# 6 23.6546 26.8833 11.5354 -8.8439 -19.4920 35.9193
#
#
#
# Elastic Compliance Matrix: (Units=1/GPa)
#
#
# Indices 1 2 3 4 5 6 
#
# 1 0.013465 0.001665 0.002278 0.003975 -0.014604 -0.017790
# 2 0.001665 0.026612 -0.005945 0.006111 -0.014549 -0.025495
# 3 0.002278 -0.005945 0.015476 0.007178 -0.013773 -0.007727
# 4 0.003975 0.006111 0.007178 0.037699 -0.015656 -0.008711
# 5 -0.014604 -0.014549 -0.013773 -0.015656 0.117883 0.085045
# 6 -0.017790 -0.025495 -0.007727 -0.008711 0.085045 0.105125
#
#
# Mechanical properties :
#
#
# Convention : Reuss Voigt Hill
#
# Bulk Modulus (GPa) = 19.39959 45.53872 32.46916
# Shear Modulus (GPa) = 14.81709 32.64397 23.73053
#
# Velocity S-wave (km/s) = 2.39130 3.54939 3.02626
# Velocity P-wave (km/s) = 3.88732 5.86278 4.97411
#
# Compressibility (1/GPa) = 0.05154748
#
# Stress axis : x y z
#
# Youngs Moduli (GPa) = 74.26932 37.57671 64.61553
#
# Poissons Ratio (x) = -0.06255 -0.14717
# Poissons Ratio (y) = -0.12363 0.38414
# Poissons Ratio (z) = -0.16916 0.22339
#
# Static dielectric constant tensor:
#      x y z
#    x 2.196690 0.104950 -0.038460 
#    y 0.104950 2.144150 0.142760 
#    z -0.038460 0.142760 2.203230 
# 
# From -- ./inp_files/498828.got.cif
#   From: 2010.05.17/outbox.cif.g08.bks.cpg/sg2_250_cif.got.tgz:498828.got - 2010.06.03 11:33:40.
