data_PCOD9087717
_publ_section_title
;
Structure prediction by ZEFSAII (Michael W. Deem and Ramdas Pophale) SiO2 
 PCOD9087717
Probable space group: P -1
;
_chemical_formula_sum "Si O2"
_cell_formula_units_Z 16
_cell_length_a 22.965867
_cell_length_b 9.905885
_cell_length_c 7.458214
_cell_angle_alpha 103.197155
_cell_angle_beta 76.677356
_cell_angle_gamma 154.918086
_cell_volume 699.116672
_symmetry_space_group_name_H-M "P -1"
_symmetry_group_IT_number 2
_symmetry_cell_setting 'triclinic'
loop_
_space_group_symop_operation_xyz
x,y,z
-x,-y,-z
loop_
_atom_site_type_symbol
_atom_site_label
_atom_site_fract_x
_atom_site_fract_y
_atom_site_fract_z
Si Si1 0.329317 0.731419 0.856443
Si Si2 0.191089 0.504860 0.535523
Si Si3 0.111164 0.631776 0.236120
Si Si4 0.855375 0.274287 0.337113
Si Si5 0.904251 0.722805 0.842665
Si Si6 0.581430 0.553489 0.351394
Si Si7 0.495301 0.109676 0.386220
Si Si8 0.598846 0.827787 0.966488
O O1 0.224217 0.489800 0.688944
O O2 0.442802 0.849597 0.808794
O O3 0.244887 0.563744 0.048414
O O4 0.388936 0.011218 0.869745
O O5 0.140998 0.553384 0.644524
O O6 0.102192 0.256000 0.358589
O O7 0.339710 0.837718 0.434837
O O8 0.145716 0.743621 0.450657
O O9 0.061974 0.369932 0.198306
O O10 0.988116 0.476432 0.222646
O O11 0.250144 0.916630 0.108287
O O12 0.715554 0.901986 0.274547
O O13 0.000000 0.000000 0.000000
O O14 0.500000 0.500000 0.500000
O O15 0.597988 0.454744 0.437364
O O16 0.476804 0.279627 0.192665
O O17 0.500000 0.000000 0.500000
O O18 0.500000 0.500000 0.000000
#
# Coordination Sequence:
#
# PCOD9087717 Si02
#       8
#     2   2   2   2   2   2   2   2
#     4  10  23  41  63  90 129 165 213 269 325 380
#     4  10  20  41  64  87 123 173 206 268 329 374
#     4   9  20  38  59  93 127 168 207 271 327 383
#     4  10  19  36  66  91 126 167 216 264 327 392
#     4  10  22  39  61  87 127 166 214 258 318 397
#     4  12  21  37  66  96 127 170 224 267 328 389
#     4  10  22  38  64  96 128 168 219 272 326 387
#     4  11  23  40  65  98 132 167 218 278 327 393
#
# _framework density 22.886023999999999
#
# number of rings (size 3 to 8) (size 9 to 14) (size 15 to 20)
#    0.000    1.750    2.500    2.250    3.500    2.500 
#    0.000    5.625    0.000    0.000    0.000    0.000 
#    0.000    0.000    0.000    0.000    0.000    0.000 
#
# Total GULP energy -89309.385997 kJ/mol
# GULP energy per Si atom -5581.836625 kJ/mol
# Density = 2.283393 g / cm^3
# Si number density = 22.886024 Si / 1000 Ang^3
#
#
#
# Elastic Constant Matrix: (Units=GPa)
#
#
# Indices 1 2 3 4 5 6 
#
# 1 91.8204 25.0727 37.1719 -12.4624 -33.7397 14.1794
# 2 25.0727 79.5746 29.2230 11.4479 -13.8641 7.4689
# 3 37.1719 29.2230 108.4730 15.7469 -7.3776 1.1062
# 4 -12.4624 11.4479 15.7469 39.4283 5.7048 -3.4493
# 5 -33.7397 -13.8641 -7.3776 5.7048 43.5793 -11.0466
# 6 14.1794 7.4689 1.1062 -3.4493 -11.0466 37.3709
#
#
#
# Elastic Compliance Matrix: (Units=1/GPa)
#
#
# Indices 1 2 3 4 5 6 
#
# 1 0.020079 -0.002763 -0.006428 0.007764 0.011892 -0.002644
# 2 -0.002763 0.015641 -0.002340 -0.005014 0.002671 -0.001682
# 3 -0.006428 -0.002340 0.012739 -0.005974 -0.002466 0.001249
# 4 0.007764 -0.005014 -0.005974 0.031820 -0.000502 0.001022
# 5 0.011892 0.002671 -0.002466 -0.000502 0.033921 0.005008
# 6 -0.002644 -0.001682 0.001249 0.001022 0.005008 0.029636
#
#
# Mechanical properties :
#
#
# Convention : Reuss Voigt Hill
#
# Bulk Modulus (GPa) = 39.37459 51.42258 45.39858
# Shear Modulus (GPa) = 28.51212 36.63574 32.57393
#
# Velocity S-wave (km/s) = 3.53346 4.00533 3.77677
# Velocity P-wave (km/s) = 5.82144 6.62631 6.23687
#
# Compressibility (1/GPa) = 0.02539709
#
# Stress axis : x y z
#
# Youngs Moduli (GPa) = 49.80248 63.93320 78.50007
#
# Poissons Ratio (x) = 0.17665 0.50458
# Poissons Ratio (y) = 0.13761 0.18372
# Poissons Ratio (z) = 0.32012 0.14963
#
# Static dielectric constant tensor:
#      x y z
#    x 1.955340 0.018370 0.146380 
#    y 0.018370 1.906040 0.001860 
#    z 0.146380 0.001860 2.009130 
# 
# From -- ./inp_files/356864.got.cif
#   From: 2010.05.17/outbox.cif.g08.bks.cpg/sg2_179_cif.got.tgz:356864.got - 2010.06.03 11:33:40.
