data_PCOD9087651
_publ_section_title
;
Structure prediction by ZEFSAII (Michael W. Deem and Ramdas Pophale) SiO2 
 PCOD9087651
Probable space group: P -1
;
_chemical_formula_sum "Si O2"
_cell_formula_units_Z 14
_cell_length_a 12.363759
_cell_length_b 6.996566
_cell_length_c 8.617440
_cell_angle_alpha 80.413592
_cell_angle_beta 56.672092
_cell_angle_gamma 100.518101
_cell_volume 579.177193
_symmetry_space_group_name_H-M "P -1"
_symmetry_group_IT_number 2
_symmetry_cell_setting 'triclinic'
loop_
_space_group_symop_operation_xyz
x,y,z
-x,-y,-z
loop_
_atom_site_type_symbol
_atom_site_label
_atom_site_fract_x
_atom_site_fract_y
_atom_site_fract_z
Si Si1 0.270238 0.962025 0.614545
Si Si2 0.426647 0.564290 0.190390
Si Si3 0.872755 0.634152 0.476884
Si Si4 0.692307 0.166884 0.958521
Si Si5 0.878221 0.162257 0.564313
Si Si6 0.516236 0.814399 0.366230
Si Si7 0.066471 0.682040 0.043970
O O1 0.186643 0.950647 0.525033
O O2 0.364562 0.814512 0.531460
O O3 0.385575 0.161647 0.566953
O O4 0.154283 0.875683 0.847799
O O5 0.284333 0.395681 0.371719
O O6 0.388757 0.751737 0.116263
O O7 0.509590 0.638655 0.272614
O O8 0.500000 0.500000 0.000000
O O9 0.874724 0.398349 0.519025
O O10 0.964943 0.782373 0.515519
O O11 0.947850 0.708062 0.243949
O O12 0.780913 0.060618 0.800393
O O13 0.813771 0.341955 0.931767
O O14 0.589242 0.023201 0.181714
O O15 0.000000 0.500000 0.000000
#
# Coordination Sequence:
#
# PCOD9087651 Si02
#       7
#     2   2   2   2   2   2   2
#     4  10  18  27  52  81 103 130 161 223 264 291
#     4  11  21  34  53  76 107 141 171 205 252 315
#     4   9  17  29  47  74 106 126 171 213 256 295
#     4   9  19  31  52  81 101 132 173 215 254 298
#     4   9  15  28  49  79  98 124 171 224 252 289
#     4  10  19  33  50  81 109 129 171 212 260 304
#     4  10  16  27  50  81 106 125 164 224 266 289
#
# _framework density 24.172222000000001
#
# number of rings (size 3 to 8) (size 9 to 14) (size 15 to 20)
#    0.000    2.286    4.286    1.286    0.000    0.000 
#    0.000    0.000    0.000   22.286    0.000    0.000 
#    0.000    0.000    0.000    0.000    0.000    0.000 
#
# Total GULP energy -78170.487034 kJ/mol
# GULP energy per Si atom -5583.606217 kJ/mol
# Density = 2.411720 g / cm^3
# Si number density = 24.172222 Si / 1000 Ang^3
#
#
#
# Elastic Constant Matrix: (Units=GPa)
#
#
# Indices 1 2 3 4 5 6 
#
# 1 106.3369 53.0988 32.2551 11.9215 7.5971 48.1850
# 2 53.0988 108.9135 34.3715 17.0590 3.0944 50.3005
# 3 32.2551 34.3715 166.7122 8.1656 -17.6094 21.7965
# 4 11.9215 17.0590 8.1656 35.7919 9.4598 21.9295
# 5 7.5971 3.0944 -17.6094 9.4598 35.8047 3.3284
# 6 48.1850 50.3005 21.7965 21.9295 3.3284 51.0927
#
#
#
# Elastic Compliance Matrix: (Units=1/GPa)
#
#
# Indices 1 2 3 4 5 6 
#
# 1 0.018266 -0.000797 -0.001833 0.007347 -0.004930 -0.018492
# 2 -0.000797 0.017471 -0.001509 0.003066 -0.001309 -0.017035
# 3 -0.001833 -0.001509 0.007139 -0.001906 0.004469 0.000696
# 4 0.007347 0.003066 -0.001906 0.044427 -0.011950 -0.027425
# 5 -0.004930 -0.001309 0.004469 -0.011950 0.033797 0.006960
# 6 -0.018492 -0.017035 0.000696 -0.027425 0.006960 0.064804
#
#
# Mechanical properties :
#
#
# Convention : Reuss Voigt Hill
#
# Bulk Modulus (GPa) = 28.90372 69.04594 48.97483
# Shear Modulus (GPa) = 24.30566 42.02034 33.16300
#
# Velocity S-wave (km/s) = 3.17443 4.17390 3.70800
# Velocity P-wave (km/s) = 5.04177 7.20103 6.21588
#
# Compressibility (1/GPa) = 0.03459763
#
# Stress axis : x y z
#
# Youngs Moduli (GPa) = 54.74645 57.23789 140.08485
#
# Poissons Ratio (x) = 0.04563 0.25672
# Poissons Ratio (y) = 0.04365 0.21139
# Poissons Ratio (z) = 0.10033 0.08637
#
# Static dielectric constant tensor:
#      x y z
#    x 2.018470 -0.077290 -0.035320 
#    y -0.077290 2.029520 0.055300 
#    z -0.035320 0.055300 1.984740 
# 
# From -- ./inp_files/163981.got.cif
#   From: 2010.05.17/outbox.cif.g08.bks.cpg/sg2_82_cif.got.tgz:163981.got - 2010.06.03 11:33:40.
