data_PCOD9087538
_publ_section_title
;
Structure prediction by ZEFSAII (Michael W. Deem and Ramdas Pophale) SiO2 
 PCOD9087538
Probable space group: P -1
;
_chemical_formula_sum "Si O2"
_cell_formula_units_Z 16
_cell_length_a 8.691875
_cell_length_b 15.763516
_cell_length_c 15.907078
_cell_angle_alpha 24.199311
_cell_angle_beta 55.019863
_cell_angle_gamma 48.061404
_cell_volume 659.839374
_symmetry_space_group_name_H-M "P -1"
_symmetry_group_IT_number 2
_symmetry_cell_setting 'triclinic'
loop_
_space_group_symop_operation_xyz
x,y,z
-x,-y,-z
loop_
_atom_site_type_symbol
_atom_site_label
_atom_site_fract_x
_atom_site_fract_y
_atom_site_fract_z
Si Si1 0.341553 0.350401 0.084501
Si Si2 0.571140 0.477471 0.592204
Si Si3 0.771711 0.299056 0.061005
Si Si4 0.496285 0.810163 0.551325
Si Si5 0.985815 0.077663 0.785846
Si Si6 0.781536 0.716662 0.389658
Si Si7 0.235014 0.597192 0.733836
Si Si8 0.859748 0.817995 0.525697
O O1 0.199587 0.536240 0.029194
O O2 0.251070 0.405504 0.969553
O O3 0.556611 0.382839 0.999915
O O4 0.402855 0.086342 0.322904
O O5 0.500000 0.500000 0.500000
O O6 0.634127 0.690379 0.389983
O O7 0.402988 0.499969 0.694434
O O8 0.768605 0.228068 0.761022
O O9 0.761951 0.095379 0.305999
O O10 0.954607 0.167822 0.054482
O O11 0.664707 0.692687 0.530535
O O12 0.309254 0.750165 0.633263
O O13 0.666663 0.755354 0.623668
O O14 0.165196 0.070598 0.800170
O O15 0.007760 0.223230 0.566275
O O16 0.000000 0.500000 0.500000
O O17 0.018022 0.725151 0.637219
#
# Coordination Sequence:
#
# PCOD9087538 Si02
#       8
#     2   2   2   2   2   2   2   2
#     4  10  19  36  58  85 114 150 192 241 284 334
#     4  10  16  27  49  82 108 142 184 230 282 334
#     4   8  17  35  58  75 116 158 178 234 302 326
#     4   9  19  37  56  80 118 151 186 234 293 337
#     4   8  14  30  52  75 103 155 180 216 291 335
#     4   8  14  25  51  73  95 142 189 207 262 346
#     4  11  21  33  60  92 110 145 204 232 277 355
#     4   8  16  34  55  77 115 149 181 233 283 331
#
# _framework density 24.248324
#
# number of rings (size 3 to 8) (size 9 to 14) (size 15 to 20)
#    0.750    2.250    2.500    0.000    0.000    0.500 
#    0.000    9.375    0.000    3.000    0.000    0.000 
#    0.000    0.000    0.000    0.000    0.000    0.000 
#
# Total GULP energy -89106.257243 kJ/mol
# GULP energy per Si atom -5569.141078 kJ/mol
# Density = 2.419313 g / cm^3
# Si number density = 24.248324 Si / 1000 Ang^3
#
#
#
# Elastic Constant Matrix: (Units=GPa)
#
#
# Indices 1 2 3 4 5 6 
#
# 1 175.9441 49.9048 60.1063 10.9960 34.9442 15.2629
# 2 49.9048 141.0044 12.6502 -1.0302 2.2288 12.4422
# 3 60.1063 12.6502 54.3127 7.7992 21.5922 10.5271
# 4 10.9960 -1.0302 7.7992 9.5216 3.7118 6.3969
# 5 34.9442 2.2288 21.5922 3.7118 38.2097 8.3277
# 6 15.2629 12.4422 10.5271 6.3969 8.3277 42.0605
#
#
#
# Elastic Compliance Matrix: (Units=1/GPa)
#
#
# Indices 1 2 3 4 5 6 
#
# 1 0.010612 -0.002984 -0.008908 -0.004113 -0.004257 0.000730
# 2 -0.002984 0.008360 0.000281 0.005061 0.002171 -0.002660
# 3 -0.008908 0.000281 0.034167 -0.012895 -0.009589 -0.001543
# 4 -0.004113 0.005061 -0.012895 0.131745 0.001692 -0.017149
# 5 -0.004257 0.002171 -0.009589 0.001692 0.036086 -0.004099
# 6 0.000730 -0.002660 -0.001543 -0.017149 -0.004099 0.028103
#
#
# Mechanical properties :
#
#
# Convention : Reuss Voigt Hill
#
# Bulk Modulus (GPa) = 33.42465 68.50929 50.96697
# Shear Modulus (GPa) = 17.71366 34.53169 26.12268
#
# Velocity S-wave (km/s) = 2.70573 3.77780 3.28578
# Velocity P-wave (km/s) = 4.85546 6.88067 5.95479
#
# Compressibility (1/GPa) = 0.02991804
#
# Stress axis : x y z
#
# Youngs Moduli (GPa) = 94.23034 119.61342 29.26786
#
# Poissons Ratio (x) = 0.35692 0.26071
# Poissons Ratio (y) = 0.28118 -0.00822
# Poissons Ratio (z) = 0.83938 -0.03359
#
# Static dielectric constant tensor:
#      x y z
#    x 1.935670 -0.012460 -0.018700 
#    y -0.012460 1.998750 0.011640 
#    z -0.018700 0.011640 2.055710 
# 
# From -- ./inp_files/223064.got.cif
#   From: 2010.05.17/outbox.cif.g08.bks.cpg/sg2_112_cif.got.tgz:223064.got - 2010.06.03 11:33:40.
