data_PCOD9087680
_publ_section_title
;
Structure prediction by ZEFSAII (Michael W. Deem and Ramdas Pophale) SiO2 
 PCOD9087680
Probable space group: P -1
;
_chemical_formula_sum "Si O2"
_cell_formula_units_Z 14
_cell_length_a 11.642451
_cell_length_b 13.409990
_cell_length_c 9.128614
_cell_angle_alpha 142.347535
_cell_angle_beta 102.744170
_cell_angle_gamma 101.597202
_cell_volume 659.093454
_symmetry_space_group_name_H-M "P -1"
_symmetry_group_IT_number 2
_symmetry_cell_setting 'triclinic'
loop_
_space_group_symop_operation_xyz
x,y,z
-x,-y,-z
loop_
_atom_site_type_symbol
_atom_site_label
_atom_site_fract_x
_atom_site_fract_y
_atom_site_fract_z
Si Si1 0.666257 0.574429 0.797389
Si Si2 0.312400 0.312842 0.382146
Si Si3 0.890038 0.851896 0.425452
Si Si4 0.166388 0.522937 0.648302
Si Si5 0.908705 0.064958 0.962920
Si Si6 0.676265 0.209957 0.277491
Si Si7 0.012981 0.613934 0.285078
O O1 0.491699 0.468860 0.620610
O O2 0.738900 0.719923 0.840681
O O3 0.682760 0.397563 0.565682
O O4 0.736251 0.680447 0.095758
O O5 0.258201 0.431494 0.585896
O O6 0.250189 0.093594 0.182858
O O7 0.881501 0.984289 0.697370
O O8 0.959280 0.750590 0.398609
O O9 0.000000 0.000000 0.500000
O O10 0.266781 0.715676 0.788399
O O11 0.107284 0.548375 0.812419
O O12 0.009793 0.314252 0.291127
O O13 0.000000 0.000000 0.000000
O O14 0.814366 0.240291 0.436421
O O15 0.500000 0.000000 0.000000
O O16 0.000000 0.500000 0.000000
#
# Coordination Sequence:
#
# PCOD9087680 Si02
#       7
#     2   2   2   2   2   2   2
#     4  10  22  38  61  99 134 168 223 278 335 394
#     4   9  19  38  65  90 130 167 215 280 334 382
#     4  12  23  39  65  96 131 170 225 274 332 392
#     4  10  22  43  68  96 131 173 233 270 327 404
#     4  10  19  36  65  94 120 167 216 274 328 386
#     4  11  25  42  67  95 132 185 225 264 337 412
#     4  12  25  44  67  95 140 180 218 280 331 398
#
# _framework density 21.241298
#
# number of rings (size 3 to 8) (size 9 to 14) (size 15 to 20)
#    0.000    1.429    4.286    3.000    2.000    2.857 
#    0.000    0.714    0.000    0.000    0.000    0.000 
#    0.000    0.000    0.000    0.000    0.000    0.000 
#
# Total GULP energy -78173.113821 kJ/mol
# GULP energy per Si atom -5583.793844 kJ/mol
# Density = 2.119295 g / cm^3
# Si number density = 21.241298 Si / 1000 Ang^3
#
#
#
# Elastic Constant Matrix: (Units=GPa)
#
#
# Indices 1 2 3 4 5 6 
#
# 1 97.0297 37.3655 35.0823 -14.2135 13.1578 15.4286
# 2 37.3655 134.6144 60.1599 3.1953 5.9738 24.6759
# 3 35.0823 60.1599 110.7955 -16.9127 0.1690 22.0448
# 4 -14.2135 3.1953 -16.9127 39.9501 7.7783 -0.4372
# 5 13.1578 5.9738 0.1690 7.7783 38.4185 -5.1730
# 6 15.4286 24.6759 22.0448 -0.4372 -5.1730 42.6677
#
#
#
# Elastic Compliance Matrix: (Units=1/GPa)
#
#
# Indices 1 2 3 4 5 6 
#
# 1 0.014006 -0.002413 -0.001546 0.005658 -0.006037 -0.003544
# 2 -0.002413 0.011110 -0.005286 -0.003924 -0.000476 -0.002920
# 3 -0.001546 -0.005286 0.013992 0.005830 -0.000375 -0.003599
# 4 0.005658 -0.003924 0.005830 0.031379 -0.008172 -0.003458
# 5 -0.006037 -0.000476 -0.000375 -0.008172 0.030674 0.006287
# 6 -0.003544 -0.002920 -0.003599 -0.003458 0.006287 0.028993
#
#
# Mechanical properties :
#
#
# Convention : Reuss Voigt Hill
#
# Bulk Modulus (GPa) = 48.50452 67.51721 58.01087
# Shear Modulus (GPa) = 32.15082 38.19605 35.17344
#
# Velocity S-wave (km/s) = 3.89472 4.24512 4.07369
# Velocity P-wave (km/s) = 6.56580 7.47548 7.03536
#
# Compressibility (1/GPa) = 0.02061663
#
# Stress axis : x y z
#
# Youngs Moduli (GPa) = 71.40019 90.00666 71.46990
#
# Poissons Ratio (x) = 0.21721 0.11052
# Poissons Ratio (y) = 0.17231 0.37778
# Poissons Ratio (z) = 0.11041 0.47577
#
# Static dielectric constant tensor:
#      x y z
#    x 1.876790 -0.018470 -0.042580 
#    y -0.018470 1.887300 0.052580 
#    z -0.042580 0.052580 1.838310 
# 
# From -- ./inp_files/314245.got.cif
#   From: 2010.05.17/outbox.cif.g08.bks.cpg/sg2_158_cif.got.tgz:314245.got - 2010.06.03 11:33:40.
