data_PCOD9087251
_publ_section_title
;
Structure prediction by ZEFSAII (Michael W. Deem and Ramdas Pophale) SiO2 
 PCOD9087251
Probable space group: P -1
;
_chemical_formula_sum "Si O2"
_cell_formula_units_Z 16
_cell_length_a 7.290422
_cell_length_b 7.108484
_cell_length_c 16.547730
_cell_angle_alpha 104.419628
_cell_angle_beta 48.295118
_cell_angle_gamma 96.932681
_cell_volume 618.874292
_symmetry_space_group_name_H-M "P -1"
_symmetry_group_IT_number 2
_symmetry_cell_setting 'triclinic'
loop_
_space_group_symop_operation_xyz
x,y,z
-x,-y,-z
loop_
_atom_site_type_symbol
_atom_site_label
_atom_site_fract_x
_atom_site_fract_y
_atom_site_fract_z
Si Si1 0.874598 0.234593 0.243688
Si Si2 0.471205 0.771046 0.198598
Si Si3 0.327545 0.337244 0.430453
Si Si4 0.908484 0.885587 0.396275
Si Si5 0.834080 0.777659 0.237359
Si Si6 0.751373 0.132399 0.101344
Si Si7 0.779496 0.437610 0.999370
Si Si8 0.035543 0.317872 0.362247
O O1 0.613256 0.322045 0.362827
O O2 0.840801 0.267892 0.162432
O O3 0.071852 0.315451 0.255004
O O4 0.890782 0.000222 0.222359
O O5 0.617030 0.726545 0.235149
O O6 0.578429 0.617191 0.083676
O O7 0.183223 0.784741 0.301502
O O8 0.550193 0.984009 0.170728
O O9 0.220325 0.150058 0.485152
O O10 0.164809 0.515030 0.534533
O O11 0.728844 0.659531 0.648077
O O12 0.931110 0.111158 0.394264
O O13 0.769494 0.787094 0.351723
O O14 0.079816 0.644259 0.130146
O O15 0.679391 0.253949 0.056409
O O16 0.000000 0.000000 0.000000
O O17 0.000000 0.500000 0.000000
#
# Coordination Sequence:
#
# PCOD9087251 Si02
#       8
#     2   2   2   2   2   2   2   2
#     4  10  21  39  66  91 122 164 203 247 311 362
#     4  10  22  38  62  89 124 164 200 248 307 357
#     4  11  24  42  63  90 126 160 206 257 299 364
#     4  11  24  41  62  90 124 163 201 252 308 356
#     4   9  20  38  60  89 123 152 209 249 291 371
#     4  11  19  38  66  89 123 164 197 250 309 357
#     4  10  19  36  62  91 121 159 204 248 300 363
#     4  10  23  40  61  89 126 154 212 250 298 363
#
# _framework density 25.853393000000001
#
# number of rings (size 3 to 8) (size 9 to 14) (size 15 to 20)
#    0.000    1.750    3.750    2.250    0.000    8.500 
#    0.000    1.875    2.750    0.000    0.000    0.000 
#    0.000    0.000    0.000    0.000    0.000    0.000 
#
# Total GULP energy -89597.340739 kJ/mol
# GULP energy per Si atom -5599.833796 kJ/mol
# Density = 2.579455 g / cm^3
# Si number density = 25.853393 Si / 1000 Ang^3
#
#
#
# Elastic Constant Matrix: (Units=GPa)
#
#
# Indices 1 2 3 4 5 6 
#
# 1 62.2821 18.8783 14.7263 -0.0262 5.1950 0.5256
# 2 18.8783 92.0320 13.1834 12.2765 -2.3353 -11.0407
# 3 14.7263 13.1834 45.1144 13.3291 -0.4739 -4.0982
# 4 -0.0262 12.2765 13.3291 42.5745 -4.6012 -3.5037
# 5 5.1950 -2.3353 -0.4739 -4.6012 42.7891 0.2290
# 6 0.5256 -11.0407 -4.0982 -3.5037 0.2290 16.3604
#
#
#
# Elastic Compliance Matrix: (Units=1/GPa)
#
#
# Indices 1 2 3 4 5 6 
#
# 1 0.018924 -0.003891 -0.006178 0.002473 -0.002290 -0.004220
# 2 -0.003891 0.013174 -0.001026 -0.002717 0.000844 0.008165
# 3 -0.006178 -0.001026 0.027220 -0.007834 0.000128 0.004645
# 4 0.002473 -0.002717 -0.007834 0.027139 0.002373 0.001904
# 5 -0.002290 0.000844 0.000128 0.002373 0.023947 0.000848
# 6 -0.004220 0.008165 0.004645 0.001904 0.000848 0.068328
#
#
# Mechanical properties :
#
#
# Convention : Reuss Voigt Hill
#
# Bulk Modulus (GPa) = 26.93449 32.55604 29.74527
# Shear Modulus (GPa) = 23.44131 30.52084 26.98107
#
# Velocity S-wave (km/s) = 3.01442 3.43962 3.23401
# Velocity P-wave (km/s) = 4.74936 5.32865 5.04732
#
# Compressibility (1/GPa) = 0.03712712
#
# Stress axis : x y z
#
# Youngs Moduli (GPa) = 52.84348 75.90539 36.73728
#
# Poissons Ratio (x) = 0.29535 0.22697
# Poissons Ratio (y) = 0.20561 0.03771
# Poissons Ratio (z) = 0.32647 0.07792
#
# Static dielectric constant tensor:
#      x y z
#    x 1.991290 -0.028210 0.055230 
#    y -0.028210 2.087770 -0.016250 
#    z 0.055230 -0.016250 2.004850 
# 
# From -- ./inp_files/586813.got.cif
#   From: 2010.05.17/outbox.cif.g08.bks.cpg/sg2_294_cif.got.tgz:586813.got - 2010.06.03 11:33:40.
