data_PCOD9087420
_publ_section_title
;
Structure prediction by ZEFSAII (Michael W. Deem and Ramdas Pophale) SiO2 
 PCOD9087420
Probable space group: P -1
;
_chemical_formula_sum "Si O2"
_cell_formula_units_Z 16
_cell_length_a 15.481612
_cell_length_b 14.620399
_cell_length_c 10.733258
_cell_angle_alpha 122.946553
_cell_angle_beta 78.796506
_cell_angle_gamma 152.276728
_cell_volume 642.579368
_symmetry_space_group_name_H-M "P -1"
_symmetry_group_IT_number 2
_symmetry_cell_setting 'triclinic'
loop_
_space_group_symop_operation_xyz
x,y,z
-x,-y,-z
loop_
_atom_site_type_symbol
_atom_site_label
_atom_site_fract_x
_atom_site_fract_y
_atom_site_fract_z
Si Si1 0.429968 0.446111 0.838070
Si Si2 0.876511 0.606856 0.535258
Si Si3 0.520231 0.093576 0.440602
Si Si4 0.263766 0.025295 0.505103
Si Si5 0.657574 0.036789 0.970999
Si Si6 0.126560 0.154976 0.343646
Si Si7 0.707702 0.858771 0.846389
Si Si8 0.762182 0.361896 0.034165
O O1 0.636349 0.764330 0.942159
O O2 0.425193 0.327214 0.675496
O O3 0.500000 0.500000 0.000000
O O4 0.124730 0.136274 0.704820
O O5 0.810701 0.449561 0.551200
O O6 0.596414 0.269279 0.281491
O O7 0.897273 0.761013 0.666902
O O8 0.116248 0.856478 0.556872
O O9 0.500000 0.000000 0.500000
O O10 0.436985 0.120335 0.510661
O O11 0.309901 0.787494 0.179052
O O12 0.029837 0.748976 0.259035
O O13 0.808271 0.098849 0.971762
O O14 0.812748 0.326481 0.098284
O O15 0.503827 0.882425 0.028859
O O16 0.413071 0.499529 0.592837
O O17 0.113100 0.030057 0.173302
#
# Coordination Sequence:
#
# PCOD9087420 Si02
#       8
#     2   2   2   2   2   2   2   2
#     4  11  24  40  60  88 124 160 195 244 305 358
#     4   8  17  36  57  80 117 152 188 236 293 354
#     4  11  22  35  57  90 120 148 190 243 294 349
#     4  10  21  40  62  80 111 162 199 233 289 348
#     4   8  16  33  60  86 111 151 193 243 288 334
#     4   9  19  37  62  88 114 155 200 245 296 351
#     4  10  19  36  63  92 117 146 200 253 294 351
#     4   9  18  37  60  83 116 156 198 233 285 355
#
# _framework density 24.899647999999999
#
# number of rings (size 3 to 8) (size 9 to 14) (size 15 to 20)
#    0.000    2.500    0.000    3.000    0.000    3.000 
#    0.000    5.000    0.000    0.000    0.000    0.000 
#    0.000    0.000    0.000    0.000    0.000    0.000 
#
# Total GULP energy -89531.542231 kJ/mol
# GULP energy per Si atom -5595.721389 kJ/mol
# Density = 2.484297 g / cm^3
# Si number density = 24.899648 Si / 1000 Ang^3
#
#
#
# Elastic Constant Matrix: (Units=GPa)
#
#
# Indices 1 2 3 4 5 6 
#
# 1 78.7971 36.6566 42.2454 -24.2059 -33.4520 2.6264
# 2 36.6566 88.0705 8.4432 -14.1853 -7.0804 -5.9731
# 3 42.2454 8.4432 62.2132 -3.0456 -23.1174 1.5639
# 4 -24.2059 -14.1853 -3.0456 26.7728 6.0422 -4.9863
# 5 -33.4520 -7.0804 -23.1174 6.0422 36.9729 -9.2370
# 6 2.6264 -5.9731 1.5639 -4.9863 -9.2370 38.7988
#
#
#
# Elastic Compliance Matrix: (Units=1/GPa)
#
#
# Indices 1 2 3 4 5 6 
#
# 1 0.050089 -0.011095 -0.021392 0.032228 0.026080 0.006114
# 2 -0.011095 0.015378 0.003836 -0.000139 -0.004185 0.001950
# 3 -0.021392 0.003836 0.030355 -0.014528 0.002627 -0.000427
# 4 0.032228 -0.000139 -0.014528 0.063817 0.011976 0.009435
# 5 0.026080 -0.004185 0.002627 0.011976 0.052400 0.011498
# 6 0.006114 0.001950 -0.000427 0.009435 0.011498 0.029628
#
#
# Mechanical properties :
#
#
# Convention : Reuss Voigt Hill
#
# Bulk Modulus (GPa) = 25.96067 44.86347 35.41207
# Shear Modulus (GPa) = 16.03548 29.95793 22.99671
#
# Velocity S-wave (km/s) = 2.54048 3.47240 3.04234
# Velocity P-wave (km/s) = 4.36510 5.84240 5.15692
#
# Compressibility (1/GPa) = 0.03851981
#
# Stress axis : x y z
#
# Youngs Moduli (GPa) = 19.96433 65.02760 32.94358
#
# Poissons Ratio (x) = 0.72149 0.70474
# Poissons Ratio (y) = 0.22151 -0.12637
# Poissons Ratio (z) = 0.42708 -0.24945
#
# Static dielectric constant tensor:
#      x y z
#    x 1.946400 -0.014560 0.034540 
#    y -0.014560 2.041790 0.018390 
#    z 0.034540 0.018390 1.991860 
# 
# From -- ./inp_files/455875.got.cif
#   From: 2010.05.17/outbox.cif.g08.bks.cpg/sg2_228_cif.got.tgz:455875.got - 2010.06.03 11:33:40.
