data_PCOD9087349
_publ_section_title
;
Structure prediction by ZEFSAII (Michael W. Deem and Ramdas Pophale) SiO2 
 PCOD9087349
Probable space group: P -1
;
_chemical_formula_sum "Si O2"
_cell_formula_units_Z 14
_cell_length_a 9.246032
_cell_length_b 7.322813
_cell_length_c 11.807364
_cell_angle_alpha 116.805927
_cell_angle_beta 75.091500
_cell_angle_gamma 125.436444
_cell_volume 581.347221
_symmetry_space_group_name_H-M "P -1"
_symmetry_group_IT_number 2
_symmetry_cell_setting 'triclinic'
loop_
_space_group_symop_operation_xyz
x,y,z
-x,-y,-z
loop_
_atom_site_type_symbol
_atom_site_label
_atom_site_fract_x
_atom_site_fract_y
_atom_site_fract_z
Si Si1 0.622675 0.858674 0.042985
Si Si2 0.827078 0.926531 0.626208
Si Si3 0.607733 0.599699 0.181177
Si Si4 0.262509 0.849217 0.108541
Si Si5 0.165860 0.549146 0.551742
Si Si6 0.465538 0.271964 0.524578
Si Si7 0.093515 0.437573 0.784149
O O1 0.559379 0.620886 0.912126
O O2 0.748232 0.089396 0.003178
O O3 0.691093 0.819564 0.135908
O O4 0.441412 0.855040 0.096370
O O5 0.838192 0.696266 0.543413
O O6 0.718199 0.945729 0.550144
O O7 0.981507 0.834474 0.327236
O O8 0.723814 0.931855 0.759306
O O9 0.555736 0.668154 0.327221
O O10 0.743605 0.515534 0.158835
O O11 0.082920 0.616847 0.129880
O O12 0.366538 0.751703 0.532087
O O13 0.146601 0.587261 0.699508
O O14 0.000000 0.500000 0.500000
O O15 0.500000 0.500000 0.500000
#
# Coordination Sequence:
#
# PCOD9087349 Si02
#       7
#     2   2   2   2   2   2   2
#     4  10  22  42  61  83 122 154 214 239 285 351
#     4   9  20  41  61  86 123 153 191 245 303 360
#     4  11  22  38  65  90 113 164 199 247 287 350
#     4   9  22  41  61  83 118 162 188 254 296 341
#     4  11  22  36  59  93 123 151 191 245 296 358
#     4  10  19  36  63  86 118 154 190 232 313 353
#     4  10  22  38  61  87 123 157 193 243 304 342
#
# _framework density 24.081994000000002
#
# number of rings (size 3 to 8) (size 9 to 14) (size 15 to 20)
#    0.857    1.143    2.857    2.143    2.000    1.143 
#    2.571    1.429    0.000    0.000    0.000    0.000 
#    0.000    0.000    0.000    0.000    0.000    0.000 
#
# Total GULP energy -78179.185140 kJ/mol
# GULP energy per Si atom -5584.227510 kJ/mol
# Density = 2.402718 g / cm^3
# Si number density = 24.081994 Si / 1000 Ang^3
#
#
#
# Elastic Constant Matrix: (Units=GPa)
#
#
# Indices 1 2 3 4 5 6 
#
# 1 120.1541 10.2162 43.3845 -27.7216 10.5862 -9.8254
# 2 10.2162 52.4452 28.4224 -10.1429 2.7111 -4.7849
# 3 43.3845 28.4224 157.0057 -43.9071 0.3603 -13.8594
# 4 -27.7216 -10.1429 -43.9071 40.1411 0.8400 6.3629
# 5 10.5862 2.7111 0.3603 0.8400 41.4690 -5.7232
# 6 -9.8254 -4.7849 -13.8594 6.3629 -5.7232 32.5109
#
#
#
# Elastic Compliance Matrix: (Units=1/GPa)
#
#
# Indices 1 2 3 4 5 6 
#
# 1 0.010395 -0.000053 -0.001140 0.005806 -0.002613 0.001051
# 2 -0.000053 0.021344 -0.003297 0.001586 -0.001220 0.001194
# 3 -0.001140 -0.003297 0.009941 0.008968 0.000478 0.001737
# 4 0.005806 0.001586 0.008968 0.039575 -0.002800 -0.002427
# 5 -0.002613 -0.001220 0.000478 -0.002800 0.025503 0.004272
# 6 0.001051 0.001194 0.001737 -0.002427 0.004272 0.033220
#
#
# Mechanical properties :
#
#
# Convention : Reuss Voigt Hill
#
# Bulk Modulus (GPa) = 30.58269 54.85014 42.71641
# Shear Modulus (GPa) = 31.27757 39.32968 35.30362
#
# Velocity S-wave (km/s) = 3.60779 4.04562 3.83296
# Velocity P-wave (km/s) = 5.48469 6.68196 6.11271
#
# Compressibility (1/GPa) = 0.03269824
#
# Stress axis : x y z
#
# Youngs Moduli (GPa) = 96.20422 46.85238 100.58964
#
# Poissons Ratio (x) = 0.00249 0.11469
# Poissons Ratio (y) = 0.00510 0.33168
# Poissons Ratio (z) = 0.10969 0.15449
#
# Static dielectric constant tensor:
#      x y z
#    x 1.950730 0.043110 0.026150 
#    y 0.043110 2.094560 -0.011480 
#    z 0.026150 -0.011480 2.009440 
# 
# From -- ./inp_files/376848.got.cif
#   From: 2010.05.17/outbox.cif.g08.bks.cpg/sg2_189_cif.got.tgz:376848.got - 2010.06.03 11:33:40.
