data_PCOD9087838
_publ_section_title
;
Structure prediction by ZEFSAII (Michael W. Deem and Ramdas Pophale) SiO2 
 PCOD9087838
Probable space group: P -1
;
_chemical_formula_sum "Si O2"
_cell_formula_units_Z 16
_cell_length_a 14.430989
_cell_length_b 8.180422
_cell_length_c 7.705826
_cell_angle_alpha 74.239375
_cell_angle_beta 121.852788
_cell_angle_gamma 128.689605
_cell_volume 600.786476
_symmetry_space_group_name_H-M "P -1"
_symmetry_group_IT_number 2
_symmetry_cell_setting 'triclinic'
loop_
_space_group_symop_operation_xyz
x,y,z
-x,-y,-z
loop_
_atom_site_type_symbol
_atom_site_label
_atom_site_fract_x
_atom_site_fract_y
_atom_site_fract_z
Si Si1 0.724969 0.694936 0.786584
Si Si2 0.244733 0.890243 0.312467
Si Si3 0.309711 0.347002 0.606062
Si Si4 0.551013 0.339732 0.961457
Si Si5 0.142293 0.893852 0.685990
Si Si6 0.607361 0.058054 0.888146
Si Si7 0.862155 0.504387 0.533778
Si Si8 0.010256 0.218700 0.102399
O O1 0.656062 0.562726 0.580177
O O2 0.679524 0.560708 0.954196
O O3 0.882565 0.801023 0.879946
O O4 0.694481 0.866039 0.698406
O O5 0.218393 0.744870 0.492367
O O6 0.336841 0.877487 0.268390
O O7 0.092849 0.787945 0.125438
O O8 0.434892 0.373024 0.810343
O O9 0.238027 0.431438 0.614018
O O10 0.201226 0.092142 0.563465
O O11 0.549232 0.179822 0.868881
O O12 0.503575 0.192497 0.126894
O O13 0.082970 0.937327 0.787364
O O14 0.009052 0.674810 0.548561
O O15 0.261411 0.883502 0.883878
O O16 0.901322 0.565653 0.760215
#
# Coordination Sequence:
#
# PCOD9087838 Si02
#       8
#     2   2   2   2   2   2   2   2
#     4  11  22  31  53  77 114 137 164 212 265 313
#     4  11  20  34  50  84 106 134 168 215 272 301
#     4  10  19  37  54  75 105 138 181 207 246 311
#     4  10  21  37  55  78  98 142 181 211 248 298
#     4   8  17  32  61  79  94 132 180 219 251 287
#     4   9  19  36  59  76 101 129 183 221 245 305
#     4   9  18  30  58  80  98 135 173 213 253 304
#     4   8  18  33  55  76 101 136 172 219 248 310
#
# _framework density 26.631757
#
# number of rings (size 3 to 8) (size 9 to 14) (size 15 to 20)
#    0.750    1.750    0.000    3.000    1.750    0.500 
#    0.000    3.125    0.000    3.000    0.000    0.000 
#    0.000    0.000    0.000    0.000    0.000    0.000 
#
# Total GULP energy -89362.859827 kJ/mol
# GULP energy per Si atom -5585.178739 kJ/mol
# Density = 2.657114 g / cm^3
# Si number density = 26.631757 Si / 1000 Ang^3
#
#
#
# Elastic Constant Matrix: (Units=GPa)
#
#
# Indices 1 2 3 4 5 6 
#
# 1 101.1413 43.7926 33.5694 -11.3121 1.9361 22.5184
# 2 43.7926 121.3418 32.8244 -25.1787 1.0516 16.2086
# 3 33.5694 32.8244 79.2541 -3.9776 3.8880 8.4323
# 4 -11.3121 -25.1787 -3.9776 39.7343 6.9845 4.7601
# 5 1.9361 1.0516 3.8880 6.9845 35.7099 -7.9999
# 6 22.5184 16.2086 8.4323 4.7601 -7.9999 31.7057
#
#
#
# Elastic Compliance Matrix: (Units=1/GPa)
#
#
# Indices 1 2 3 4 5 6 
#
# 1 0.014862 -0.002016 -0.004016 0.004341 -0.003390 -0.009964
# 2 -0.002016 0.012310 -0.003059 0.008140 -0.002854 -0.005990
# 3 -0.004016 -0.003059 0.015546 -0.001363 -0.001070 0.000216
# 4 0.004341 0.008140 -0.001363 0.035041 -0.010494 -0.014790
# 5 -0.003390 -0.002854 -0.001070 -0.010494 0.033624 0.014211
# 6 -0.009964 -0.005990 0.000216 -0.014790 0.014211 0.047428
#
#
# Mechanical properties :
#
#
# Convention : Reuss Voigt Hill
#
# Bulk Modulus (GPa) = 40.75416 58.01224 49.38320
# Shear Modulus (GPa) = 27.00210 34.20004 30.60107
#
# Velocity S-wave (km/s) = 3.18764 3.58744 3.39343
# Velocity P-wave (km/s) = 5.37440 6.24420 5.82555
#
# Compressibility (1/GPa) = 0.02453737
#
# Stress axis : x y z
#
# Youngs Moduli (GPa) = 67.28686 81.23401 64.32351
#
# Poissons Ratio (x) = 0.16379 0.25830
# Poissons Ratio (y) = 0.13567 0.19674
# Poissons Ratio (z) = 0.27019 0.24846
#
# Static dielectric constant tensor:
#      x y z
#    x 2.053790 -0.062380 -0.011440 
#    y -0.062380 2.163240 0.072620 
#    z -0.011440 0.072620 2.059530 
# 
# From -- ./inp_files/304687.got.cif
#   From: 2010.05.17/outbox.cif.g08.bks.cpg/sg2_153_cif.got.tgz:304687.got - 2010.06.03 11:33:40.
