data_PCOD9087419
_publ_section_title
;
Structure prediction by ZEFSAII (Michael W. Deem and Ramdas Pophale) SiO2 
 PCOD9087419
Probable space group: P -1
;
_chemical_formula_sum "Si O2"
_cell_formula_units_Z 16
_cell_length_a 5.429722
_cell_length_b 17.259642
_cell_length_c 20.477262
_cell_angle_alpha 156.699989
_cell_angle_beta 105.376474
_cell_angle_gamma 71.663889
_cell_volume 719.077620
_symmetry_space_group_name_H-M "P -1"
_symmetry_group_IT_number 2
_symmetry_cell_setting 'triclinic'
loop_
_space_group_symop_operation_xyz
x,y,z
-x,-y,-z
loop_
_atom_site_type_symbol
_atom_site_label
_atom_site_fract_x
_atom_site_fract_y
_atom_site_fract_z
Si Si1 0.996594 0.200182 0.696785
Si Si2 0.740797 0.362490 0.103291
Si Si3 0.309323 0.142732 0.952059
Si Si4 0.564535 0.556440 0.120966
Si Si5 0.810947 0.007444 0.318392
Si Si6 0.735317 0.732104 0.467421
Si Si7 0.100438 0.367979 0.468415
Si Si8 0.578497 0.265016 0.343512
O O1 0.200185 0.322181 0.773941
O O2 0.703308 0.322162 0.773927
O O3 0.089235 0.148862 0.738099
O O4 0.000000 0.000000 0.500000
O O5 0.659500 0.361777 0.021281
O O6 0.703114 0.595310 0.298424
O O7 0.542081 0.263082 0.054606
O O8 0.040956 0.263078 0.054602
O O9 0.242245 0.085655 0.827901
O O10 0.406781 0.947417 0.854199
O O11 0.500000 0.500000 0.000000
O O12 0.539860 0.138066 0.428732
O O13 0.041468 0.138068 0.428733
O O14 0.837495 0.568022 0.405520
O O15 0.370507 0.246707 0.369511
O O16 0.000000 0.500000 0.500000
O O17 0.875104 0.246707 0.369512
O O18 0.500000 0.500000 0.500000
#
# Coordination Sequence:
#
# PCOD9087419 Si02
#       8
#     2   2   2   2   2   2   2   2
#     4  12  24  41  63  91 126 161 217 272 309 360
#     4  12  26  39  63  92 137 163 203 261 328 365
#     4  12  22  41  62  97 122 164 211 258 296 381
#     4  12  24  44  61  87 128 179 206 251 322 385
#     4  12  23  39  67  93 118 166 226 260 299 369
#     4  12  22  41  61  97 126 164 207 263 320 372
#     4  10  19  36  63  92 116 156 205 249 303 367
#     4  10  20  37  65  94 118 155 207 255 297 360
#
# _framework density 22.250727999999999
#
# number of rings (size 3 to 8) (size 9 to 14) (size 15 to 20)
#    0.000    0.500    2.500    7.500    0.000    0.000 
#    0.000    0.000    0.000   18.000    0.000    0.000 
#    0.000    0.000    0.000    0.000    0.000    0.000 
#
# Total GULP energy -89142.139300 kJ/mol
# GULP energy per Si atom -5571.383706 kJ/mol
# Density = 2.220008 g / cm^3
# Si number density = 22.250728 Si / 1000 Ang^3
#
#
#
# Elastic Constant Matrix: (Units=GPa)
#
#
# Indices 1 2 3 4 5 6 
#
# 1 243.2863 7.7437 55.3908 17.1491 -4.8345 -0.0375
# 2 7.7437 84.1099 -18.8361 21.5127 6.3945 6.8017
# 3 55.3908 -18.8361 57.6780 5.9151 5.4009 9.9227
# 4 17.1491 21.5127 5.9151 36.8742 4.5382 5.5538
# 5 -4.8345 6.3945 5.4009 4.5382 59.2954 41.1206
# 6 -0.0375 6.8017 9.9227 5.5538 41.1206 85.8646
#
#
#
# Elastic Compliance Matrix: (Units=1/GPa)
#
#
# Indices 1 2 3 4 5 6 
#
# 1 0.005623 -0.001784 -0.006067 -0.000785 0.000962 0.000435
# 2 -0.001784 0.016675 0.008478 -0.009948 -0.001205 -0.001081
# 3 -0.006067 0.008478 0.027144 -0.005882 -0.001575 -0.002676
# 4 -0.000785 -0.009948 -0.005882 0.034388 -0.000842 -0.000354
# 5 0.000962 -0.001205 -0.001575 -0.000842 0.025529 -0.011893
# 6 0.000435 -0.001081 -0.002676 -0.000354 -0.011893 0.017760
#
#
# Mechanical properties :
#
#
# Convention : Reuss Voigt Hill
#
# Bulk Modulus (GPa) = 19.72534 52.63011 36.17772
# Shear Modulus (GPa) = 35.02275 59.12523 47.07399
#
# Velocity S-wave (km/s) = 3.97168 5.16042 4.60457
# Velocity P-wave (km/s) = 5.46960 7.69488 6.67562
#
# Compressibility (1/GPa) = 0.05069621
#
# Stress axis : x y z
#
# Youngs Moduli (GPa) = 177.84104 59.96859 36.84079
#
# Poissons Ratio (x) = 0.10698 0.22351
# Poissons Ratio (y) = 0.31725 -0.31233
# Poissons Ratio (z) = 1.07896 -0.50841
#
# Static dielectric constant tensor:
#      x y z
#    x 1.792750 0.089230 0.084650 
#    y 0.089230 1.120380 -0.695180 
#    z 0.084650 -0.695180 1.220460 
# 
# From -- ./inp_files/584090.got.cif
#   From: 2010.05.17/outbox.cif.g08.bks.cpg/sg2_293_cif.got.tgz:584090.got - 2010.06.03 11:33:40.
