data_PCOD9087638
_publ_section_title
;
Structure prediction by ZEFSAII (Michael W. Deem and Ramdas Pophale) SiO2 
 PCOD9087638
Probable space group: P -1
;
_chemical_formula_sum "Si O2"
_cell_formula_units_Z 15
_cell_length_a 12.097689
_cell_length_b 6.916863
_cell_length_c 8.011416
_cell_angle_alpha 99.547554
_cell_angle_beta 68.740453
_cell_angle_gamma 91.330733
_cell_volume 615.607404
_symmetry_space_group_name_H-M "P -1"
_symmetry_group_IT_number 2
_symmetry_cell_setting 'triclinic'
loop_
_space_group_symop_operation_xyz
x,y,z
-x,-y,-z
loop_
_atom_site_type_symbol
_atom_site_label
_atom_site_fract_x
_atom_site_fract_y
_atom_site_fract_z
Si Si1 0.892453 0.859993 0.395445
Si Si2 0.688659 0.071205 0.355656
Si Si3 0.527786 0.096142 0.750769
Si Si4 0.551944 0.689608 0.849733
Si Si5 0.207182 0.376006 0.140821
Si Si6 0.000000 0.500000 0.500000
Si Si7 0.703755 0.364002 0.119996
Si Si8 0.147604 0.944350 0.209432
O O1 0.912347 0.661875 0.462813
O O2 0.867514 0.025983 0.578424
O O3 0.782184 0.906735 0.343990
O O4 0.012534 0.896675 0.232207
O O5 0.613242 0.155491 0.565366
O O6 0.741251 0.253603 0.253412
O O7 0.594869 0.970902 0.271915
O O8 0.499887 0.251293 0.931748
O O9 0.581159 0.895722 0.775983
O O10 0.676626 0.581621 0.804588
O O11 0.439612 0.609477 0.800860
O O12 0.182411 0.147523 0.136590
O O13 0.093160 0.489746 0.293447
O O14 0.236672 0.441803 0.946600
O O15 0.753150 0.212552 0.928141
#
# Coordination Sequence:
#
# PCOD9087638 Si02
#       8
#     2   2   2   2   2   1   2   2
#     4  10  20  38  63  88 115 163 202 252 295 352
#     4  10  20  34  60  90 128 157 195 245 315 358
#     4   9  18  36  61  95 116 159 199 247 306 362
#     4  10  19  36  65  87 119 156 206 250 294 355
#     4  11  21  37  60  92 118 157 206 252 289 353
#     4  10  20  38  62  86 118 150 210 248 284 354
#     4  11  22  38  61  94 123 158 198 250 302 366
#     4  10  21  38  63  83 121 155 210 243 294 356
#
# _framework density 24.366178999999999
#
# number of rings (size 3 to 8) (size 9 to 14) (size 15 to 20)
#    0.000    1.867    1.333    5.200    0.000    0.533 
#    0.000    1.333   14.667    1.600    0.000    0.000 
#    0.000    0.000    0.000    0.000    0.000    0.000 
#
# Total GULP energy -83631.271729 kJ/mol
# GULP energy per Si atom -5575.418115 kJ/mol
# Density = 2.431072 g / cm^3
# Si number density = 24.366179 Si / 1000 Ang^3
#
#
#
# Elastic Constant Matrix: (Units=GPa)
#
#
# Indices 1 2 3 4 5 6 
#
# 1 58.0902 27.8226 17.9842 -2.5535 -4.4334 -23.8772
# 2 27.8226 90.1282 28.3776 -24.4650 -1.4528 -23.0998
# 3 17.9842 28.3776 96.0925 -14.5243 -16.9111 -1.7019
# 4 -2.5535 -24.4650 -14.5243 46.0717 -0.3674 -4.4919
# 5 -4.4334 -1.4528 -16.9111 -0.3674 29.9379 -8.2706
# 6 -23.8772 -23.0998 -1.7019 -4.4919 -8.2706 39.3412
#
#
#
# Elastic Compliance Matrix: (Units=1/GPa)
#
#
# Indices 1 2 3 4 5 6 
#
# 1 0.026404 -0.003111 -0.002485 0.000598 0.006662 0.015560
# 2 -0.003111 0.018175 -0.002855 0.009579 0.001720 0.010116
# 3 -0.002485 -0.002855 0.013267 0.002494 0.006769 -0.000903
# 4 0.000598 0.009579 0.002494 0.028673 0.005205 0.010464
# 5 0.006662 0.001720 0.006769 0.005205 0.042467 0.014868
# 6 0.015560 0.010116 -0.000903 0.010464 0.014868 0.045083
#
#
# Mechanical properties :
#
#
# Convention : Reuss Voigt Hill
#
# Bulk Modulus (GPa) = 24.42304 43.63106 34.02705
# Shear Modulus (GPa) = 24.43549 34.41195 29.42372
#
# Velocity S-wave (km/s) = 3.17021 3.76211 3.47877
# Velocity P-wave (km/s) = 4.84204 6.06767 5.48917
#
# Compressibility (1/GPa) = 0.04094495
#
# Stress axis : x y z
#
# Youngs Moduli (GPa) = 37.87265 55.02021 75.37382
#
# Poissons Ratio (x) = 0.17116 0.18727
# Poissons Ratio (y) = 0.11781 0.21523
# Poissons Ratio (z) = 0.09410 0.15711
#
# Static dielectric constant tensor:
#      x y z
#    x 1.988040 0.024050 0.011850 
#    y 0.024050 1.944080 -0.028500 
#    z 0.011850 -0.028500 1.897070 
# 
# From -- ./inp_files/234060.got.cif
#   From: 2010.05.17/outbox.cif.g08.bks.cpg/sg2_118_cif.got.tgz:234060.got - 2010.06.03 11:33:40.
