data_PCOD9087336
_publ_section_title
;
Structure prediction by ZEFSAII (Michael W. Deem and Ramdas Pophale) SiO2 
 PCOD9087336
Probable space group: P -1
;
_chemical_formula_sum "Si O2"
_cell_formula_units_Z 16
_cell_length_a 12.403887
_cell_length_b 12.181092
_cell_length_c 9.249230
_cell_angle_alpha 118.734253
_cell_angle_beta 122.805134
_cell_angle_gamma 103.626439
_cell_volume 761.761566
_symmetry_space_group_name_H-M "P -1"
_symmetry_group_IT_number 2
_symmetry_cell_setting 'triclinic'
loop_
_space_group_symop_operation_xyz
x,y,z
-x,-y,-z
loop_
_atom_site_type_symbol
_atom_site_label
_atom_site_fract_x
_atom_site_fract_y
_atom_site_fract_z
Si Si1 0.524076 0.387008 0.532102
Si Si2 0.722588 0.368558 0.315443
Si Si3 0.707942 0.072658 0.570921
Si Si4 0.830681 0.398528 0.714335
Si Si5 0.817575 0.944736 0.351072
Si Si6 0.627259 0.927939 0.956435
Si Si7 0.496033 0.541630 0.861323
Si Si8 0.312779 0.822873 0.080207
O O1 0.500000 0.500000 0.500000
O O2 0.708435 0.436901 0.688134
O O3 0.393236 0.205512 0.246998
O O4 0.494510 0.413465 0.688029
O O5 0.856982 0.431483 0.582226
O O6 0.547612 0.188670 0.145154
O O7 0.661737 0.471644 0.311625
O O8 0.768183 0.343311 0.176014
O O9 0.729021 0.204912 0.561907
O O10 0.767436 0.162548 0.828164
O O11 0.800389 0.014362 0.529241
O O12 0.503901 0.905193 0.324613
O O13 0.000000 0.500000 0.000000
O O14 0.666645 0.741282 0.094896
O O15 0.781340 0.015538 0.237434
O O16 0.000000 0.000000 0.500000
O O17 0.658368 0.058527 0.950856
O O18 0.500000 0.500000 0.000000
#
# Coordination Sequence:
#
# PCOD9087336 Si02
#       8
#     2   2   2   2   2   2   2   2
#     4  11  20  39  61  88 117 165 216 255 299 375
#     4  10  19  39  60  90 118 162 210 256 306 372
#     4  11  23  37  63  94 119 156 205 263 311 361
#     4  11  24  39  62  89 125 163 208 256 312 378
#     4  11  24  42  61  90 128 166 203 254 318 383
#     4  10  19  36  63  85 115 162 206 252 302 373
#     4  11  24  38  65  92 122 162 218 260 308 371
#     4  11  20  37  64  92 118 144 214 268 301 351
#
# _framework density 21.003948000000001
#
# number of rings (size 3 to 8) (size 9 to 14) (size 15 to 20)
#    0.000    1.250    8.750    1.125    5.250    0.000 
#    0.000    2.500    0.000    0.000    0.000    0.000 
#    0.000    0.000    0.000    0.000    0.000    0.000 
#
# Total GULP energy -89243.784055 kJ/mol
# GULP energy per Si atom -5577.736503 kJ/mol
# Density = 2.095614 g / cm^3
# Si number density = 21.003948 Si / 1000 Ang^3
#
#
#
# Elastic Constant Matrix: (Units=GPa)
#
#
# Indices 1 2 3 4 5 6 
#
# 1 137.2464 21.7279 63.9768 -7.3414 -43.9311 -21.9264
# 2 21.7279 51.4485 7.1811 -13.0927 -2.0896 -9.4799
# 3 63.9768 7.1811 118.0062 -25.1071 -24.2213 -6.4186
# 4 -7.3414 -13.0927 -25.1071 34.7853 -2.0472 -10.7696
# 5 -43.9311 -2.0896 -24.2213 -2.0472 52.0977 -1.7633
# 6 -21.9264 -9.4799 -6.4186 -10.7696 -1.7633 26.7030
#
#
#
# Elastic Compliance Matrix: (Units=1/GPa)
#
#
# Indices 1 2 3 4 5 6 
#
# 1 0.015918 -0.001891 -0.004321 0.004568 0.011991 0.013995
# 2 -0.001891 0.027823 0.005071 0.019362 0.003234 0.017566
# 3 -0.004321 0.005071 0.014910 0.014478 0.004331 0.007962
# 4 0.004568 0.019362 0.014478 0.060576 0.015078 0.039531
# 5 0.011991 0.003234 0.004331 0.015078 0.032728 0.020278
# 6 0.013995 0.017566 0.007962 0.039531 0.020278 0.074372
#
#
# Mechanical properties :
#
#
# Convention : Reuss Voigt Hill
#
# Bulk Modulus (GPa) = 17.74016 54.71919 36.22967
# Shear Modulus (GPa) = 20.21025 36.97156 28.59090
#
# Velocity S-wave (km/s) = 3.10532 4.20005 3.69347
# Velocity P-wave (km/s) = 4.61755 7.04478 5.95612
#
# Compressibility (1/GPa) = 0.05636929
#
# Stress axis : x y z
#
# Youngs Moduli (GPa) = 62.82202 35.94135 67.06773
#
# Poissons Ratio (x) = 0.06798 0.28977
# Poissons Ratio (y) = 0.11882 -0.34010
# Poissons Ratio (z) = 0.27142 -0.18226
#
# Static dielectric constant tensor:
#      x y z
#    x 1.855340 -0.007710 -0.060630 
#    y -0.007710 1.792420 0.023900 
#    z -0.060630 0.023900 1.849090 
# 
# From -- ./inp_files/263209.got.cif
#   From: 2010.05.17/outbox.cif.g08.bks.cpg/sg2_132_cif.got.tgz:263209.got - 2010.06.03 11:33:40.
