data_PCOD9087497
_publ_section_title
;
Structure prediction by ZEFSAII (Michael W. Deem and Ramdas Pophale) SiO2 
 PCOD9087497
Probable space group: P -1
;
_chemical_formula_sum "Si O2"
_cell_formula_units_Z 16
_cell_length_a 13.275659
_cell_length_b 14.312967
_cell_length_c 5.102154
_cell_angle_alpha 117.734869
_cell_angle_beta 86.145180
_cell_angle_gamma 129.076933
_cell_volume 629.033580
_symmetry_space_group_name_H-M "P -1"
_symmetry_group_IT_number 2
_symmetry_cell_setting 'triclinic'
loop_
_space_group_symop_operation_xyz
x,y,z
-x,-y,-z
loop_
_atom_site_type_symbol
_atom_site_label
_atom_site_fract_x
_atom_site_fract_y
_atom_site_fract_z
Si Si1 0.634694 0.114686 0.803814
Si Si2 0.953580 0.242318 0.317960
Si Si3 0.872522 0.770638 0.110880
Si Si4 0.877213 0.993704 0.314128
Si Si5 0.144252 0.630290 0.282701
Si Si6 0.769793 0.526763 0.097283
Si Si7 0.359703 0.116590 0.428616
Si Si8 0.460589 0.732668 0.878011
O O1 0.760691 0.233313 0.748070
O O2 0.500000 0.000000 0.500000
O O3 0.658558 0.020224 0.813599
O O4 0.602469 0.196115 0.083563
O O5 0.081748 0.353059 0.637017
O O6 0.887089 0.311700 0.397473
O O7 0.027425 0.244316 0.058749
O O8 0.858180 0.082311 0.249076
O O9 0.845323 0.852508 0.039733
O O10 0.747304 0.615402 0.045757
O O11 0.963331 0.884427 0.476918
O O12 0.784036 0.941780 0.520116
O O13 0.220526 0.571708 0.212834
O O14 0.000000 0.500000 0.000000
O O15 0.661671 0.429485 0.219070
O O16 0.440067 0.228260 0.323972
O O17 0.451812 0.191361 0.772293
#
# Coordination Sequence:
#
# PCOD9087497 Si02
#       8
#     2   2   2   2   2   2   2   2
#     4   9  18  35  58  88 125 164 207 252 315 375
#     4  10  19  36  64  85 117 159 201 258 312 373
#     4  10  22  38  62  85 119 163 204 261 314 366
#     4  10  22  39  58  91 119 153 214 262 310 360
#     4   9  17  33  56  88 125 154 200 255 311 378
#     4   9  21  39  56  87 123 158 203 248 317 375
#     4  11  22  39  63  90 122 163 210 260 304 372
#     4  10  23  39  62  89 126 163 205 255 314 375
#
# _framework density 25.435843999999999
#
# number of rings (size 3 to 8) (size 9 to 14) (size 15 to 20)
#    0.000    2.250    1.250    0.750    3.500    0.500 
#    0.000    2.500    0.000    0.000    0.000    0.000 
#    0.000    0.000    0.000    0.000    0.000    0.000 
#
# Total GULP energy -89473.846952 kJ/mol
# GULP energy per Si atom -5592.115434 kJ/mol
# Density = 2.537795 g / cm^3
# Si number density = 25.435844 Si / 1000 Ang^3
#
#
#
# Elastic Constant Matrix: (Units=GPa)
#
#
# Indices 1 2 3 4 5 6 
#
# 1 66.9991 57.3605 23.9215 3.9867 0.8996 -0.6453
# 2 57.3605 213.0326 54.1317 3.1146 -28.8077 -0.8973
# 3 23.9215 54.1317 83.3226 -11.3200 -0.0583 -5.4171
# 4 3.9867 3.1146 -11.3200 30.5728 5.7615 -8.4886
# 5 0.8996 -28.8077 -0.0583 5.7615 21.8915 -2.1232
# 6 -0.6453 -0.8973 -5.4171 -8.4886 -2.1232 36.2836
#
#
#
# Elastic Compliance Matrix: (Units=1/GPa)
#
#
# Indices 1 2 3 4 5 6 
#
# 1 0.021405 -0.006373 -0.002293 -0.001585 -0.008953 -0.001014
# 2 -0.006373 0.009751 -0.005252 -0.005086 0.014320 -0.001008
# 3 -0.002293 -0.005252 0.017752 0.010327 -0.009064 0.004365
# 4 -0.001585 -0.005086 0.010327 0.043388 -0.016996 0.010544
# 5 -0.008953 0.014320 -0.009064 -0.016996 0.069236 -0.001083
# 6 -0.001014 -0.001008 0.004365 0.010544 -0.001083 0.030573
#
#
# Mechanical properties :
#
#
# Convention : Reuss Voigt Hill
#
# Bulk Modulus (GPa) = 47.45229 70.46463 58.95846
# Shear Modulus (GPa) = 22.02996 32.94561 27.48779
#
# Velocity S-wave (km/s) = 2.94615 3.60285 3.29092
# Velocity P-wave (km/s) = 5.50175 6.71345 6.13758
#
# Compressibility (1/GPa) = 0.02107380
#
# Stress axis : x y z
#
# Youngs Moduli (GPa) = 46.71873 102.55316 56.33101
#
# Poissons Ratio (x) = 0.65352 0.12915
# Poissons Ratio (y) = 0.29772 0.29584
# Poissons Ratio (z) = 0.10711 0.53859
#
# Static dielectric constant tensor:
#      x y z
#    x 2.055780 -0.042550 -0.018210 
#    y -0.042550 1.973840 -0.001580 
#    z -0.018210 -0.001580 2.013310 
# 
# From -- ./inp_files/76640.got.cif
#   From: 2010.05.17/outbox.cif.g08.bks.cpg/sg2_39_cif.got.tgz:76640.got - 2010.06.03 11:33:40.
