data_PCOD9087581
_publ_section_title
;
Structure prediction by ZEFSAII (Michael W. Deem and Ramdas Pophale) SiO2 
 PCOD9087581
Probable space group: P -1
;
_chemical_formula_sum "Si O2"
_cell_formula_units_Z 14
_cell_length_a 15.630586
_cell_length_b 16.310912
_cell_length_c 9.219165
_cell_angle_alpha 49.385595
_cell_angle_beta 110.896710
_cell_angle_gamma 153.433500
_cell_volume 596.414210
_symmetry_space_group_name_H-M "P -1"
_symmetry_group_IT_number 2
_symmetry_cell_setting 'triclinic'
loop_
_space_group_symop_operation_xyz
x,y,z
-x,-y,-z
loop_
_atom_site_type_symbol
_atom_site_label
_atom_site_fract_x
_atom_site_fract_y
_atom_site_fract_z
Si Si1 0.315976 0.095765 0.856117
Si Si2 0.883141 0.263684 0.273231
Si Si3 0.367077 0.628402 0.531215
Si Si4 0.920037 0.305239 0.590528
Si Si5 0.033148 0.230233 0.232895
Si Si6 0.969109 0.028261 0.094024
Si Si7 0.727675 0.716772 0.780762
O O1 0.544110 0.325659 0.619942
O O2 0.064268 0.814427 0.919675
O O3 0.289404 0.983426 0.101144
O O4 0.283129 0.178219 0.808910
O O5 0.853210 0.244452 0.450574
O O6 0.049092 0.339862 0.238931
O O7 0.609875 0.940661 0.404830
O O8 0.000000 0.500000 0.000000
O O9 0.216120 0.378506 0.827876
O O10 0.166160 0.499171 0.520412
O O11 0.000000 0.500000 0.500000
O O12 0.257441 0.388080 0.158428
O O13 0.788815 0.882965 0.520410
O O14 0.018338 0.006088 0.283767
O O15 0.000000 0.000000 0.000000
O O16 0.500000 0.500000 0.000000
#
# Coordination Sequence:
#
# PCOD9087581 Si02
#       7
#     2   2   2   2   2   2   2
#     4   9  20  41  62  91 132 170 217 276 323 398
#     4  11  24  44  72  99 135 179 228 278 338 409
#     4  10  23  46  67  93 137 178 218 277 343 391
#     4  11  24  42  69  99 133 171 229 283 330 402
#     4   9  20  38  62  92 134 167 215 276 324 391
#     4  10  22  39  64  96 136 170 223 277 328 399
#     4  10  19  36  64  93 127 174 215 270 332 395
#
# _framework density 23.473617999999998
#
# number of rings (size 3 to 8) (size 9 to 14) (size 15 to 20)
#    0.000    2.000    0.000    3.429    4.000    3.429 
#    2.571    7.143    0.000    0.000    0.000    0.000 
#    0.000    0.000    0.000    0.000    0.000    0.000 
#
# Total GULP energy -78156.437526 kJ/mol
# GULP energy per Si atom -5582.602680 kJ/mol
# Density = 2.342019 g / cm^3
# Si number density = 23.473618 Si / 1000 Ang^3
#
#
#
# Elastic Constant Matrix: (Units=GPa)
#
#
# Indices 1 2 3 4 5 6 
#
# 1 122.6740 -10.8191 33.0080 -1.5375 -28.7078 -17.1050
# 2 -10.8191 60.7185 36.2526 11.3374 0.9688 -14.1462
# 3 33.0080 36.2526 112.7448 21.4131 -14.0129 -9.5854
# 4 -1.5375 11.3374 21.4131 42.1945 -5.0421 -8.1390
# 5 -28.7078 0.9688 -14.0129 -5.0421 45.0024 4.7782
# 6 -17.1050 -14.1462 -9.5854 -8.1390 4.7782 41.6122
#
#
#
# Elastic Compliance Matrix: (Units=1/GPa)
#
#
# Indices 1 2 3 4 5 6 
#
# 1 0.012153 0.005666 -0.004756 0.003150 0.005890 0.005766
# 2 0.005666 0.024939 -0.008953 -0.000343 -0.000678 0.008756
# 3 -0.004756 -0.008953 0.014056 -0.005320 0.001252 -0.002945
# 4 0.003150 -0.000343 -0.005320 0.027939 0.002952 0.005078
# 5 0.005890 -0.000678 0.001252 0.002952 0.026715 -0.000011
# 6 0.005766 0.008756 -0.002945 0.005078 -0.000011 0.029694
#
#
# Mechanical properties :
#
#
# Convention : Reuss Voigt Hill
#
# Bulk Modulus (GPa) = 28.51940 45.89115 37.20528
# Shear Modulus (GPa) = 30.62427 41.60819 36.11623
#
# Velocity S-wave (km/s) = 3.61588 4.21474 3.92674
# Velocity P-wave (km/s) = 5.44139 6.57859 6.03683
#
# Compressibility (1/GPa) = 0.03506385
#
# Stress axis : x y z
#
# Youngs Moduli (GPa) = 82.28408 40.09752 71.14269
#
# Poissons Ratio (x) = -0.22720 0.33835
# Poissons Ratio (y) = -0.46624 0.63692
# Poissons Ratio (z) = 0.39133 0.35898
#
# Static dielectric constant tensor:
#      x y z
#    x 1.953110 -0.001870 0.013890 
#    y -0.001870 1.947730 0.024270 
#    z 0.013890 0.024270 1.935470 
# 
# From -- ./inp_files/314714.got.cif
#   From: 2010.05.17/outbox.cif.g08.bks.cpg/sg2_158_cif.got.tgz:314714.got - 2010.06.03 11:33:40.
