data_PCOD9087752
_publ_section_title
;
Structure prediction by ZEFSAII (Michael W. Deem and Ramdas Pophale) SiO2 
 PCOD9087752
Probable space group: P -1
;
_chemical_formula_sum "Si O2"
_cell_formula_units_Z 14
_cell_length_a 18.269650
_cell_length_b 7.322466
_cell_length_c 11.697439
_cell_angle_alpha 120.721807
_cell_angle_beta 30.700147
_cell_angle_gamma 123.537550
_cell_volume 663.570193
_symmetry_space_group_name_H-M "P -1"
_symmetry_group_IT_number 2
_symmetry_cell_setting 'triclinic'
loop_
_space_group_symop_operation_xyz
x,y,z
-x,-y,-z
loop_
_atom_site_type_symbol
_atom_site_label
_atom_site_fract_x
_atom_site_fract_y
_atom_site_fract_z
Si Si1 0.564524 0.869780 0.587756
Si Si2 0.892245 0.010504 0.254924
Si Si3 0.528211 0.392947 0.593442
Si Si4 0.850081 0.529774 0.261899
Si Si5 0.153023 0.313589 0.444032
Si Si6 0.354939 0.183178 0.972202
Si Si7 0.028172 0.136094 0.341833
O O1 0.728936 0.021392 0.439727
O O2 0.530908 0.638071 0.626742
O O3 0.554243 0.787882 0.444315
O O4 0.441210 0.999100 0.821080
O O5 0.854068 0.773228 0.291685
O O6 0.973409 0.168813 0.298976
O O7 0.000000 0.000000 0.000000
O O8 0.697792 0.378392 0.370274
O O9 0.451784 0.346275 0.803032
O O10 0.850094 0.523270 0.397093
O O11 0.000000 0.500000 0.000000
O O12 0.058761 0.324528 0.458992
O O13 0.313592 0.306913 0.178400
O O14 0.083798 0.072907 0.515515
O O15 0.191031 0.086337 0.105068
#
# Coordination Sequence:
#
# PCOD9087752 Si02
#       7
#     2   2   2   2   2   2   2
#     4  10  22  36  55  93 123 151 195 247 297 339
#     4  10  20  35  57  84 119 148 197 243 287 352
#     4  10  22  36  55  90 125 148 198 247 290 349
#     4  10  22  36  59  83 114 154 195 247 295 350
#     4   8  18  36  61  85 110 154 206 235 292 355
#     4  10  19  36  67  79 116 163 196 234 303 349
#     4   8  17  35  61  81 113 152 196 240 285 351
#
# _framework density 21.097995000000001
#
# number of rings (size 3 to 8) (size 9 to 14) (size 15 to 20)
#    0.857    1.714    0.000    1.286    6.000    0.571 
#    0.000    6.429    6.286    2.571    0.000    0.000 
#    0.000    0.000    0.000    0.000    0.000    0.000 
#
# Total GULP energy -77996.120652 kJ/mol
# GULP energy per Si atom -5571.151475 kJ/mol
# Density = 2.104998 g / cm^3
# Si number density = 21.097995 Si / 1000 Ang^3
#
#
#
# Elastic Constant Matrix: (Units=GPa)
#
#
# Indices 1 2 3 4 5 6 
#
# 1 150.2620 34.8008 70.8403 4.3375 4.7947 22.6957
# 2 34.8008 41.9955 30.1349 3.9941 -1.4845 -0.0135
# 3 70.8403 30.1349 155.1779 -10.8408 3.2892 9.0936
# 4 4.3375 3.9941 -10.8408 23.1563 2.9224 6.9945
# 5 4.7947 -1.4845 3.2892 2.9224 35.1718 -4.4040
# 6 22.6957 -0.0135 9.0936 6.9945 -4.4040 16.0603
#
#
#
# Elastic Compliance Matrix: (Units=1/GPa)
#
#
# Indices 1 2 3 4 5 6 
#
# 1 0.013296 -0.009924 -0.002452 0.005052 -0.005051 -0.020994
# 2 -0.009924 0.038033 -0.005751 -0.016513 0.008219 0.026758
# 3 -0.002452 -0.005751 0.009657 0.008118 -0.002258 -0.006162
# 4 0.005052 -0.016513 0.008118 0.063458 -0.012788 -0.042894
# 5 -0.005051 0.008219 -0.002258 -0.012788 0.033648 0.023219
# 6 -0.020994 0.026758 -0.006162 -0.042894 0.023219 0.120493
#
#
# Mechanical properties :
#
#
# Convention : Reuss Voigt Hill
#
# Bulk Modulus (GPa) = 40.43666 68.77638 54.60652
# Shear Modulus (GPa) = 15.47593 28.98830 22.23212
#
# Velocity S-wave (km/s) = 2.71131 3.71075 3.24968
# Velocity P-wave (km/s) = 5.38603 7.14345 6.32606
#
# Compressibility (1/GPa) = 0.02473003
#
# Stress axis : x y z
#
# Youngs Moduli (GPa) = 75.21134 26.29318 103.55571
#
# Poissons Ratio (x) = 0.26094 0.25394
# Poissons Ratio (y) = 0.74641 0.59557
# Poissons Ratio (z) = 0.18443 0.15122
#
# Static dielectric constant tensor:
#      x y z
#    x 1.840940 0.022880 -0.019610 
#    y 0.022880 1.768960 0.014720 
#    z -0.019610 0.014720 1.731640 
# 
# From -- ./inp_files/406804.got.cif
#   From: 2010.05.17/outbox.cif.g08.bks.cpg/sg2_204_cif.got.tgz:406804.got - 2010.06.03 11:33:40.
