data_PCOD9087785
_publ_section_title
;
Structure prediction by ZEFSAII (Michael W. Deem and Ramdas Pophale) SiO2 
 PCOD9087785
Probable space group: P -1
;
_chemical_formula_sum "Si O2"
_cell_formula_units_Z 12
_cell_length_a 6.765658
_cell_length_b 9.051447
_cell_length_c 8.946768
_cell_angle_alpha 91.716145
_cell_angle_beta 72.649062
_cell_angle_gamma 102.612937
_cell_volume 509.975548
_symmetry_space_group_name_H-M "P -1"
_symmetry_group_IT_number 2
_symmetry_cell_setting 'triclinic'
loop_
_space_group_symop_operation_xyz
x,y,z
-x,-y,-z
loop_
_atom_site_type_symbol
_atom_site_label
_atom_site_fract_x
_atom_site_fract_y
_atom_site_fract_z
Si Si1 0.022429 0.823026 0.881131
Si Si2 0.935162 0.589912 0.656036
Si Si3 0.387903 0.631039 0.082907
Si Si4 0.750290 0.837366 0.197403
Si Si5 0.788420 0.863751 0.539244
Si Si6 0.566484 0.884584 0.866495
O O1 0.077898 0.704393 0.746397
O O2 0.798007 0.859449 0.869799
O O3 0.188607 0.982094 0.843033
O O4 0.941775 0.778657 0.067132
O O5 0.814510 0.458396 0.788584
O O6 0.813044 0.706642 0.605700
O O7 0.000000 0.500000 0.500000
O O8 0.535035 0.741538 0.171642
O O9 0.500000 0.500000 0.000000
O O10 0.390292 0.732920 0.938034
O O11 0.741212 0.826116 0.376486
O O12 0.613763 0.919328 0.683062
O O13 0.000000 0.000000 0.500000
O O14 0.500000 0.000000 0.000000
#
# Coordination Sequence:
#
# PCOD9087785 Si02
#       6
#     2   2   2   2   2   2
#     4   9  19  39  60  89 119 167 192 240 309 355
#     4  11  23  40  63  89 124 161 197 250 305 352
#     4  11  21  42  61  87 122 165 193 245 310 351
#     4  10  19  36  68  83 121 159 204 241 296 365
#     4  11  21  39  63  90 118 160 203 245 295 354
#     4  10  21  37  64  89 120 159 199 242 298 362
#
# _framework density 23.530542000000001
#
# number of rings (size 3 to 8) (size 9 to 14) (size 15 to 20)
#    0.000    1.667    8.333    0.000    2.333    0.667 
#    0.000   10.000    0.000    0.000    0.000    0.000 
#    0.000    0.000    0.000    0.000    0.000    0.000 
#
# Total GULP energy -66896.847556 kJ/mol
# GULP energy per Si atom -5574.737296 kJ/mol
# Density = 2.347699 g / cm^3
# Si number density = 23.530542 Si / 1000 Ang^3
#
#
#
# Elastic Constant Matrix: (Units=GPa)
#
#
# Indices 1 2 3 4 5 6 
#
# 1 48.3661 13.6210 25.8766 10.0298 7.4506 17.0342
# 2 13.6210 137.5844 56.4674 17.7373 1.4045 16.9584
# 3 25.8766 56.4674 235.0999 30.8408 11.3255 -0.1099
# 4 10.0298 17.7373 30.8408 63.1279 -1.0890 0.8704
# 5 7.4506 1.4045 11.3255 -1.0890 44.8592 13.0220
# 6 17.0342 16.9584 -0.1099 0.8704 13.0220 34.5628
#
#
#
# Elastic Compliance Matrix: (Units=1/GPa)
#
#
# Indices 1 2 3 4 5 6 
#
# 1 0.027454 0.000486 -0.002758 -0.002961 0.000031 -0.013715
# 2 0.000486 0.008883 -0.002077 -0.001459 0.001635 -0.005184
# 3 -0.002758 -0.002077 0.005362 -0.001671 -0.001773 0.003105
# 4 -0.002961 -0.001459 -0.001671 0.017536 0.000992 0.001355
# 5 0.000031 0.001635 -0.001773 0.000992 0.025772 -0.010558
# 6 -0.013715 -0.005184 0.003105 0.001355 -0.010558 0.042189
#
#
# Mechanical properties :
#
#
# Convention : Reuss Voigt Hill
#
# Bulk Modulus (GPa) = 30.30199 68.10893 49.20546
# Shear Modulus (GPa) = 34.03809 50.18234 42.11021
#
# Velocity S-wave (km/s) = 3.80748 4.62307 4.23495
# Velocity P-wave (km/s) = 5.67758 7.58319 6.69849
#
# Compressibility (1/GPa) = 0.03300114
#
# Stress axis : x y z
#
# Youngs Moduli (GPa) = 36.42459 112.57660 186.49893
#
# Poissons Ratio (x) = -0.05470 0.51434
# Poissons Ratio (y) = -0.01770 0.38732
# Poissons Ratio (z) = 0.10045 0.23380
#
# Static dielectric constant tensor:
#      x y z
#    x 2.122490 -0.109650 0.027390 
#    y -0.109650 1.921060 -0.000040 
#    z 0.027390 -0.000040 1.913140 
# 
# From -- ./inp_files/147216.got.cif
#   From: 2010.05.17/outbox.cif.g08.bks.cpg/sg2_74_cif.got.tgz:147216.got - 2010.06.03 11:33:40.
