data_PCOD9087584
_publ_section_title
;
Structure prediction by ZEFSAII (Michael W. Deem and Ramdas Pophale) SiO2 
 PCOD9087584
Probable space group: P -1
;
_chemical_formula_sum "Si O2"
_cell_formula_units_Z 14
_cell_length_a 18.329378
_cell_length_b 26.636272
_cell_length_c 5.268583
_cell_angle_alpha 118.558741
_cell_angle_beta 67.995415
_cell_angle_gamma 164.359462
_cell_volume 567.839536
_symmetry_space_group_name_H-M "P -1"
_symmetry_group_IT_number 2
_symmetry_cell_setting 'triclinic'
loop_
_space_group_symop_operation_xyz
x,y,z
-x,-y,-z
loop_
_atom_site_type_symbol
_atom_site_label
_atom_site_fract_x
_atom_site_fract_y
_atom_site_fract_z
Si Si1 0.778914 0.399027 0.572434
Si Si2 0.070907 0.172636 0.930458
Si Si3 0.689342 0.080077 0.340099
Si Si4 0.374976 0.491455 0.178186
Si Si5 0.014960 0.330807 0.008437
Si Si6 0.070212 0.111899 0.282602
Si Si7 0.343280 0.725657 0.066833
O O1 0.569363 0.235091 0.676951
O O2 0.000000 0.500000 0.500000
O O3 0.939734 0.569974 0.838256
O O4 0.630940 0.301818 0.257695
O O5 0.094417 0.255951 0.032929
O O6 0.976253 0.090152 0.134119
O O7 0.414270 0.394783 0.014708
O O8 0.946549 0.046275 0.559159
O O9 0.776900 0.152850 0.110856
O O10 0.500000 0.000000 0.500000
O O11 0.506804 0.895530 0.170812
O O12 0.947051 0.258577 0.644117
O O13 0.584746 0.645698 0.518178
O O14 0.288094 0.489690 0.158509
O O15 0.000000 0.000000 0.000000
O O16 0.000000 0.500000 0.000000
#
# Coordination Sequence:
#
# PCOD9087584 Si02
#       7
#     2   2   2   2   2   2   2
#     4  10  19  37  59  82 113 159 192 244 315 363
#     4   9  20  38  65  85 125 168 199 237 316 373
#     4  12  24  41  63  91 119 164 213 264 315 369
#     4   9  23  38  64  90 125 163 209 245 312 358
#     4  12  25  39  65  94 125 157 219 271 294 373
#     4  10  19  36  64  94 121 165 206 239 300 379
#     4  10  20  38  60  79 112 153 199 241 310 376
#
# _framework density 24.654854
#
# number of rings (size 3 to 8) (size 9 to 14) (size 15 to 20)
#    0.857    0.857    0.000    6.429    2.000    0.000 
#    0.000    4.286    0.000    0.000    0.000    0.000 
#    0.000    0.000    0.000    0.000    0.000    0.000 
#
# Total GULP energy -78227.170043 kJ/mol
# GULP energy per Si atom -5587.655003 kJ/mol
# Density = 2.459874 g / cm^3
# Si number density = 24.654854 Si / 1000 Ang^3
#
#
#
# Elastic Constant Matrix: (Units=GPa)
#
#
# Indices 1 2 3 4 5 6 
#
# 1 89.5248 27.4114 15.4279 5.7789 -0.8167 -4.3910
# 2 27.4114 64.4616 9.9672 -15.2281 -11.1670 -9.0420
# 3 15.4279 9.9672 137.2603 -4.1257 -1.0858 -10.4129
# 4 5.7789 -15.2281 -4.1257 41.1555 -21.9760 0.2308
# 5 -0.8167 -11.1670 -1.0858 -21.9760 43.3620 6.1522
# 6 -4.3910 -9.0420 -10.4129 0.2308 6.1522 35.2195
#
#
#
# Elastic Compliance Matrix: (Units=1/GPa)
#
#
# Indices 1 2 3 4 5 6 
#
# 1 0.014896 -0.009581 -0.001298 -0.009567 -0.007113 0.000319
# 2 -0.009581 0.027858 0.000030 0.020785 0.017125 0.002838
# 3 -0.001298 0.000030 0.007622 0.001216 0.000506 0.002003
# 4 -0.009567 0.020785 0.001216 0.049806 0.030611 -0.001171
# 5 -0.007113 0.017125 0.000506 0.030611 0.043450 -0.004131
# 6 0.000319 0.002838 0.002003 -0.001171 -0.004131 0.030483
#
#
# Mechanical properties :
#
#
# Convention : Reuss Voigt Hill
#
# Bulk Modulus (GPa) = 34.87263 44.09552 39.48407
# Shear Modulus (GPa) = 24.34605 39.84341 32.09473
#
# Velocity S-wave (km/s) = 3.14582 4.02437 3.61191
# Velocity P-wave (km/s) = 5.23163 6.28634 5.78308
#
# Compressibility (1/GPa) = 0.02867578
#
# Stress axis : x y z
#
# Youngs Moduli (GPa) = 67.13365 35.89686 131.20441
#
# Poissons Ratio (x) = 0.34393 0.17033
# Poissons Ratio (y) = 0.64320 -0.00388
# Poissons Ratio (z) = 0.08715 -0.00106
#
# Static dielectric constant tensor:
#      x y z
#    x 1.845490 -0.039180 -0.055230 
#    y -0.039180 2.004770 -0.030350 
#    z -0.055230 -0.030350 1.932560 
# 
# From -- ./inp_files/112938.got.cif
#   From: 2010.05.17/outbox.cif.g08.bks.cpg/sg2_57_cif.got.tgz:112938.got - 2010.06.03 11:33:40.
