data_PCOD9087073
_publ_section_title
;
Structure prediction by ZEFSAII (Michael W. Deem and Ramdas Pophale) SiO2 
 PCOD9087073
Probable space group: P -1
;
_chemical_formula_sum "Si O2"
_cell_formula_units_Z 14
_cell_length_a 9.939139
_cell_length_b 17.051953
_cell_length_c 12.455080
_cell_angle_alpha 39.559873
_cell_angle_beta 48.103935
_cell_angle_gamma 27.833689
_cell_volume 627.016966
_symmetry_space_group_name_H-M "P -1"
_symmetry_group_IT_number 2
_symmetry_cell_setting 'triclinic'
loop_
_space_group_symop_operation_xyz
x,y,z
-x,-y,-z
loop_
_atom_site_type_symbol
_atom_site_label
_atom_site_fract_x
_atom_site_fract_y
_atom_site_fract_z
Si Si1 0.228001 0.976138 0.863017
Si Si2 0.829353 0.716286 0.878987
Si Si3 0.158741 0.169679 0.022325
Si Si4 0.274037 0.579302 0.371112
Si Si5 0.843989 0.352504 0.409659
Si Si6 0.134740 0.938564 0.729480
Si Si7 0.374739 0.462928 0.193554
O O1 0.496634 0.858497 0.917499
O O2 0.309065 0.876185 0.811211
O O3 0.039932 0.196504 0.715299
O O4 0.000000 0.000000 0.000000
O O5 0.912134 0.754846 0.896190
O O6 0.891679 0.748022 0.699076
O O7 0.000000 0.500000 0.000000
O O8 0.055807 0.084578 0.142141
O O9 0.956463 0.366005 0.850393
O O10 0.500000 0.000000 0.000000
O O11 0.547825 0.518144 0.325152
O O12 0.215484 0.545339 0.554388
O O13 0.362228 0.493843 0.294858
O O14 0.923360 0.166427 0.584421
O O15 0.399041 0.769143 0.688740
O O16 0.500000 0.500000 0.000000
#
# Coordination Sequence:
#
# PCOD9087073 Si02
#       7
#     2   2   2   2   2   2   2
#     4  11  21  39  64  91 123 166 213 258 316 380
#     4  12  25  42  67  94 126 166 217 271 316 383
#     4  11  23  40  64  96 129 164 212 265 316 374
#     4  10  21  37  61  89 126 167 206 257 311 378
#     4  10  23  42  63  92 127 170 218 260 321 383
#     4  10  22  39  63  91 128 168 206 258 319 380
#     4  10  19  36  61  91 125 165 210 253 311 374
#
# _framework density 22.327943000000001
#
# number of rings (size 3 to 8) (size 9 to 14) (size 15 to 20)
#    0.000    1.429    0.000    6.857    0.000    6.857 
#    0.000    1.429    0.000    6.857    0.000    0.000 
#    0.000    0.000    0.000    0.000    0.000    0.000 
#
# Total GULP energy -77959.741955 kJ/mol
# GULP energy per Si atom -5568.552997 kJ/mol
# Density = 2.227712 g / cm^3
# Si number density = 22.327943 Si / 1000 Ang^3
#
#
#
# Elastic Constant Matrix: (Units=GPa)
#
#
# Indices 1 2 3 4 5 6 
#
# 1 88.9559 40.2036 24.6703 4.2846 24.2337 20.3952
# 2 40.2036 128.4048 25.4339 3.0506 21.9238 15.4432
# 3 24.6703 25.4339 38.7085 5.4077 10.3163 11.8163
# 4 4.2846 3.0506 5.4077 42.4542 10.5401 22.9980
# 5 24.2337 21.9238 10.3163 10.5401 35.2181 7.2982
# 6 20.3952 15.4432 11.8163 22.9980 7.2982 55.2854
#
#
#
# Elastic Compliance Matrix: (Units=1/GPa)
#
#
# Indices 1 2 3 4 5 6 
#
# 1 0.017347 -0.002151 -0.006312 0.004132 -0.008952 -0.004986
# 2 -0.002151 0.010032 -0.004030 0.001684 -0.003810 -0.001345
# 3 -0.006312 -0.004030 0.034185 -0.001238 -0.002159 -0.003052
# 4 0.004132 0.001684 -0.001238 0.033546 -0.010608 -0.014284
# 5 -0.008952 -0.003810 -0.002159 -0.010608 0.039910 0.003972
# 6 -0.004986 -0.001345 -0.003052 -0.014284 0.003972 0.026373
#
#
# Mechanical properties :
#
#
# Convention : Reuss Voigt Hill
#
# Bulk Modulus (GPa) = 27.33874 48.52053 37.92964
# Shear Modulus (GPa) = 25.17989 37.64230 31.41110
#
# Velocity S-wave (km/s) = 3.36181 4.11041 3.75481
# Velocity P-wave (km/s) = 5.22875 6.65622 5.98519
#
# Compressibility (1/GPa) = 0.03657813
#
# Stress axis : x y z
#
# Youngs Moduli (GPa) = 57.64636 99.68279 29.25283
#
# Poissons Ratio (x) = 0.21444 0.18463
# Poissons Ratio (y) = 0.12401 0.11789
# Poissons Ratio (z) = 0.36385 0.40171
#
# Static dielectric constant tensor:
#      x y z
#    x 1.712040 -0.098320 -0.051310 
#    y -0.098320 1.752650 -0.002600 
#    z -0.051310 -0.002600 1.923380 
# 
# From -- ./inp_files/205443.got.cif
#   From: 2010.05.17/outbox.cif.g08.bks.cpg/sg2_103_cif.got.tgz:205443.got - 2010.06.03 11:33:40.
