data_PCOD9087723
_publ_section_title
;
Structure prediction by ZEFSAII (Michael W. Deem and Ramdas Pophale) SiO2 
 PCOD9087723
Probable space group: P -1
;
_chemical_formula_sum "Si O2"
_cell_formula_units_Z 16
_cell_length_a 14.934030
_cell_length_b 9.309673
_cell_length_c 7.764638
_cell_angle_alpha 89.571946
_cell_angle_beta 98.612117
_cell_angle_gamma 44.479019
_cell_volume 737.586532
_symmetry_space_group_name_H-M "P -1"
_symmetry_group_IT_number 2
_symmetry_cell_setting 'triclinic'
loop_
_space_group_symop_operation_xyz
x,y,z
-x,-y,-z
loop_
_atom_site_type_symbol
_atom_site_label
_atom_site_fract_x
_atom_site_fract_y
_atom_site_fract_z
Si Si1 0.134541 0.779757 0.106684
Si Si2 0.988649 0.420193 0.323295
Si Si3 0.417789 0.478755 0.230873
Si Si4 0.277124 0.355408 0.641152
Si Si5 0.818218 0.588969 0.772873
Si Si6 0.364720 0.567721 0.628588
Si Si7 0.470611 0.090401 0.180997
Si Si8 0.890369 0.026774 0.551831
O O1 0.280784 0.649988 0.085825
O O2 0.127670 0.615405 0.116149
O O3 0.144293 0.841923 0.293518
O O4 0.000000 0.000000 0.000000
O O5 0.074791 0.407665 0.209214
O O6 0.000000 0.500000 0.500000
O O7 0.832492 0.576069 0.257101
O O8 0.053760 0.191586 0.381465
O O9 0.402339 0.492212 0.438195
O O10 0.513939 0.502183 0.236906
O O11 0.472100 0.260861 0.196486
O O12 0.212088 0.425473 0.432659
O O13 0.314532 0.475764 0.690691
O O14 0.409523 0.112089 0.673925
O O15 0.675322 0.790950 0.805115
O O16 0.244463 0.818857 0.594248
O O17 0.500000 0.000000 0.000000
O O18 0.000000 0.000000 0.500000
#
# Coordination Sequence:
#
# PCOD9087723 Si02
#       8
#     2   2   2   2   2   2   2   2
#     4  10  21  41  64  88 125 169 209 267 327 388
#     4  10  22  35  62  97 129 159 219 272 322 377
#     4   9  21  39  61  97 123 164 220 263 323 389
#     4  11  20  40  64  96 126 174 216 273 325 379
#     4  10  21  43  63  95 126 167 229 267 323 394
#     4  10  19  36  66  93 125 158 225 274 310 379
#     4  11  24  40  63  92 136 174 209 264 343 396
#     4  11  19  37  63  95 121 165 213 267 320 376
#
# _framework density 21.692371999999999
#
# number of rings (size 3 to 8) (size 9 to 14) (size 15 to 20)
#    0.000    1.750    5.000    1.125    3.500    4.000 
#    0.000    4.375    0.000    0.000    0.000    0.000 
#    0.000    0.000    0.000    0.000    0.000    0.000 
#
# Total GULP energy -89283.029881 kJ/mol
# GULP energy per Si atom -5580.189368 kJ/mol
# Density = 2.164300 g / cm^3
# Si number density = 21.692372 Si / 1000 Ang^3
#
#
#
# Elastic Constant Matrix: (Units=GPa)
#
#
# Indices 1 2 3 4 5 6 
#
# 1 202.0936 72.7392 29.1910 -10.7129 5.8390 -17.1737
# 2 72.7392 148.2962 23.1018 -19.8893 0.6015 -15.6604
# 3 29.1910 23.1018 42.4749 -7.1302 12.3512 -5.2751
# 4 -10.7129 -19.8893 -7.1302 45.5704 -5.5216 7.6617
# 5 5.8390 0.6015 12.3512 -5.5216 11.4726 -2.1765
# 6 -17.1737 -15.6604 -5.2751 7.6617 -2.1765 20.0397
#
#
#
# Elastic Compliance Matrix: (Units=1/GPa)
#
#
# Indices 1 2 3 4 5 6 
#
# 1 0.006483 -0.002470 -0.002899 -0.000489 0.000300 0.003083
# 2 -0.002470 0.009497 -0.004869 0.003178 0.008232 0.003703
# 3 -0.002899 -0.004869 0.040262 -0.001700 -0.042365 0.000358
# 4 -0.000489 0.003178 -0.001700 0.025663 0.012977 -0.006786
# 5 0.000300 0.008232 -0.042365 0.012977 0.139522 0.005730
# 6 0.003083 0.003703 0.000358 -0.006786 0.005730 0.058747
#
#
# Mechanical properties :
#
#
# Convention : Reuss Voigt Hill
#
# Bulk Modulus (GPa) = 27.95822 71.43653 49.69737
# Shear Modulus (GPa) = 15.99635 33.27205 24.63420
#
# Velocity S-wave (km/s) = 2.71849 3.92064 3.37355
# Velocity P-wave (km/s) = 4.77180 7.31426 6.17529
#
# Compressibility (1/GPa) = 0.03576766
#
# Stress axis : x y z
#
# Youngs Moduli (GPa) = 154.24488 105.29794 24.83742
#
# Poissons Ratio (x) = 0.26006 0.07200
# Poissons Ratio (y) = 0.38094 0.12092
# Poissons Ratio (z) = 0.44714 0.51264
#
# Static dielectric constant tensor:
#      x y z
#    x 1.896330 -0.156660 0.007450 
#    y -0.156660 1.890550 -0.044720 
#    z 0.007450 -0.044720 1.877660 
# 
# From -- ./inp_files/298566.got.cif
#   From: 2010.05.17/outbox.cif.g08.bks.cpg/sg2_150_cif.got.tgz:298566.got - 2010.06.03 11:33:40.
