data_PCOD9087804
_publ_section_title
;
Structure prediction by ZEFSAII (Michael W. Deem and Ramdas Pophale) SiO2 
 PCOD9087804
Probable space group: P -1
;
_chemical_formula_sum "Si O2"
_cell_formula_units_Z 14
_cell_length_a 11.341663
_cell_length_b 9.383481
_cell_length_c 13.374910
_cell_angle_alpha 147.411772
_cell_angle_beta 76.714714
_cell_angle_gamma 116.987833
_cell_volume 647.731593
_symmetry_space_group_name_H-M "P -1"
_symmetry_group_IT_number 2
_symmetry_cell_setting 'triclinic'
loop_
_space_group_symop_operation_xyz
x,y,z
-x,-y,-z
loop_
_atom_site_type_symbol
_atom_site_label
_atom_site_fract_x
_atom_site_fract_y
_atom_site_fract_z
Si Si1 0.327918 0.338501 0.191877
Si Si2 0.648953 0.729850 0.398109
Si Si3 0.075715 0.813943 0.847932
Si Si4 0.314871 0.129961 0.757698
Si Si5 0.135443 0.422321 0.425999
Si Si6 0.096321 0.292601 0.588906
Si Si7 0.636311 0.307401 0.797988
O O1 0.487815 0.463455 0.262808
O O2 0.234236 0.307552 0.286808
O O3 0.332112 0.590976 0.263998
O O4 0.241506 0.032551 0.962015
O O5 0.701563 0.844707 0.342832
O O6 0.746864 0.611302 0.354176
O O7 0.657687 0.015079 0.628177
O O8 0.043816 0.533890 0.760240
O O9 0.999079 0.686261 0.682398
O O10 0.000000 0.000000 0.000000
O O11 0.474771 0.208484 0.788023
O O12 0.228143 0.787801 0.612379
O O13 0.287220 0.385312 0.967686
O O14 0.096236 0.284117 0.462981
O O15 0.000000 0.000000 0.500000
#
# Coordination Sequence:
#
# PCOD9087804 Si02
#       7
#     2   2   2   2   2   2   2
#     4  10  20  41  72 104 131 179 233 279 346 405
#     4  11  22  43  68 105 153 166 218 302 345 407
#     4  10  24  45  72  95 130 186 239 277 328 424
#     4  10  19  38  72 103 135 187 227 266 346 420
#     4  11  21  44  71  94 135 186 236 281 329 420
#     4  12  28  44  65  99 141 185 227 290 359 394
#     4  10  19  36  69 107 138 177 227 278 336 419
#
# _framework density 21.613890000000001
#
# number of rings (size 3 to 8) (size 9 to 14) (size 15 to 20)
#    0.000    1.429    2.857    3.000    2.000    2.286 
#    5.143    2.857    0.000    0.000    0.000    0.000 
#    0.000    0.000    0.000    0.000    0.000    0.000 
#
# Total GULP energy -78061.269331 kJ/mol
# GULP energy per Si atom -5575.804952 kJ/mol
# Density = 2.156470 g / cm^3
# Si number density = 21.613890 Si / 1000 Ang^3
#
#
#
# Elastic Constant Matrix: (Units=GPa)
#
#
# Indices 1 2 3 4 5 6 
#
# 1 106.3876 51.4310 44.5120 -1.1182 1.6468 -24.8404
# 2 51.4310 128.6828 50.1992 4.4597 8.2620 1.3884
# 3 44.5120 50.1992 144.2471 -2.2697 1.6428 -9.1420
# 4 -1.1182 4.4597 -2.2697 26.3275 7.9605 -4.4031
# 5 1.6468 8.2620 1.6428 7.9605 36.5421 0.9317
# 6 -24.8404 1.3884 -9.1420 -4.4031 0.9317 33.7675
#
#
#
# Elastic Compliance Matrix: (Units=1/GPa)
#
#
# Indices 1 2 3 4 5 6 
#
# 1 0.015850 -0.005748 -0.002082 0.003563 -0.000398 0.011808
# 2 -0.005748 0.011319 -0.002558 -0.002916 -0.001404 -0.005728
# 3 -0.002082 -0.002558 0.008552 0.001263 -0.000014 0.001054
# 4 0.003563 -0.002916 0.001263 0.043001 -0.009154 0.008942
# 5 -0.000398 -0.001404 -0.000014 -0.009154 0.029753 -0.002254
# 6 0.011808 -0.005728 0.001054 0.008942 -0.002254 0.040050
#
#
# Mechanical properties :
#
#
# Convention : Reuss Voigt Hill
#
# Bulk Modulus (GPa) = 66.91099 74.62244 70.76672
# Shear Modulus (GPa) = 28.68892 34.87242 31.78067
#
# Velocity S-wave (km/s) = 3.64722 4.02111 3.83872
# Velocity P-wave (km/s) = 6.98290 7.49395 7.24293
#
# Compressibility (1/GPa) = 0.01494523
#
# Stress axis : x y z
#
# Youngs Moduli (GPa) = 63.09132 88.34369 116.93007
#
# Poissons Ratio (x) = 0.50781 0.24341
# Poissons Ratio (y) = 0.36265 0.29916
# Poissons Ratio (z) = 0.13134 0.22602
#
# Static dielectric constant tensor:
#      x y z
#    x 1.836980 0.064830 -0.036500 
#    y 0.064830 1.793610 -0.018970 
#    z -0.036500 -0.018970 1.945170 
# 
# From -- ./inp_files/418626.got.cif
#   From: 2010.05.17/outbox.cif.g08.bks.cpg/sg2_210_cif.got.tgz:418626.got - 2010.06.03 11:33:40.
