data_PCOD9087930
_publ_section_title
;
Structure prediction by ZEFSAII (Michael W. Deem and Ramdas Pophale) SiO2 
 PCOD9087930
Probable space group: P -1
;
_chemical_formula_sum "Si O2"
_cell_formula_units_Z 16
_cell_length_a 12.560494
_cell_length_b 25.007243
_cell_length_c 5.298265
_cell_angle_alpha 68.795716
_cell_angle_beta 109.039719
_cell_angle_gamma 151.387736
_cell_volume 742.855640
_symmetry_space_group_name_H-M "P -1"
_symmetry_group_IT_number 2
_symmetry_cell_setting 'triclinic'
loop_
_space_group_symop_operation_xyz
x,y,z
-x,-y,-z
loop_
_atom_site_type_symbol
_atom_site_label
_atom_site_fract_x
_atom_site_fract_y
_atom_site_fract_z
Si Si1 0.420082 0.265222 0.687182
Si Si2 0.346960 0.114379 0.654673
Si Si3 0.908481 0.914211 0.872243
Si Si4 0.060923 0.491884 0.311587
Si Si5 0.205411 0.743955 0.427647
Si Si6 0.005107 0.706134 0.822233
Si Si7 0.532764 0.454044 0.741694
Si Si8 0.280405 0.308125 0.305293
O O1 0.444032 0.206404 0.757528
O O2 0.674508 0.396081 0.673787
O O3 0.275511 0.236490 0.410990
O O4 0.267554 0.202236 0.923317
O O5 0.224230 0.101931 0.385423
O O6 0.542653 0.163332 0.601840
O O7 0.139319 0.988191 0.825499
O O8 0.000000 0.000000 0.000000
O O9 0.000000 0.500000 0.500000
O O10 0.931531 0.374999 0.426874
O O11 0.000000 0.500000 0.000000
O O12 0.169655 0.766595 0.611880
O O13 0.103404 0.730079 0.125642
O O14 0.790188 0.570925 0.825013
O O15 0.918567 0.734197 0.725994
O O16 0.500000 0.500000 0.500000
O O17 0.427285 0.373262 0.565079
O O18 0.400619 0.384865 0.016730
#
# Coordination Sequence:
#
# PCOD9087930 Si02
#       8
#     2   2   2   2   2   2   2   2
#     4  11  23  38  63  92 126 161 206 263 314 362
#     4  10  22  41  64  94 117 162 208 260 319 372
#     4   9  21  41  66  90 117 154 212 264 315 369
#     4  12  24  38  56  91 135 164 196 245 315 375
#     4  12  24  39  63  87 133 166 203 244 304 385
#     4  11  22  38  57  87 120 171 210 246 295 360
#     4  10  19  37  57  81 121 168 219 249 282 348
#     4  11  23  37  61  87 124 165 216 261 294 353
#
# _framework density 21.538505000000001
#
# number of rings (size 3 to 8) (size 9 to 14) (size 15 to 20)
#    0.000    1.250    1.250    6.750    5.250    0.000 
#    0.000    0.000    0.000    1.500    0.000    0.000 
#    0.000    0.000    0.000    0.000    0.000    0.000 
#
# Total GULP energy -89153.148918 kJ/mol
# GULP energy per Si atom -5572.071807 kJ/mol
# Density = 2.148948 g / cm^3
# Si number density = 21.538505 Si / 1000 Ang^3
#
#
#
# Elastic Constant Matrix: (Units=GPa)
#
#
# Indices 1 2 3 4 5 6 
#
# 1 139.1574 35.6192 68.4888 -7.6556 0.2971 44.7048
# 2 35.6192 76.8737 24.4972 -10.6476 -3.8909 46.6582
# 3 68.4888 24.4972 131.0339 -13.3121 -15.3951 27.3202
# 4 -7.6556 -10.6476 -13.3121 26.5804 5.6181 -11.6219
# 5 0.2971 -3.8909 -15.3951 5.6181 34.9966 0.1220
# 6 44.7048 46.6582 27.3202 -11.6219 0.1220 42.1099
#
#
#
# Elastic Compliance Matrix: (Units=1/GPa)
#
#
# Indices 1 2 3 4 5 6 
#
# 1 0.014360 0.007091 -0.004974 -0.004611 -0.000708 -0.021145
# 2 0.007091 0.045407 0.000365 -0.007239 0.006520 -0.060092
# 3 -0.004974 0.000365 0.011348 0.002638 0.004657 -0.001771
# 4 -0.004611 -0.007239 0.002638 0.046792 -0.007201 0.024139
# 5 -0.000708 0.006520 0.004657 -0.007201 0.032550 -0.011576
# 6 -0.021145 -0.060092 -0.001771 0.024139 -0.011576 0.120622
#
#
# Mechanical properties :
#
#
# Convention : Reuss Voigt Hill
#
# Bulk Modulus (GPa) = 13.14464 67.14170 40.14317
# Shear Modulus (GPa) = 17.15409 35.30137 26.22773
#
# Velocity S-wave (km/s) = 2.82519 4.05283 3.49336
# Velocity P-wave (km/s) = 4.09370 7.28980 5.91183
#
# Compressibility (1/GPa) = 0.07607662
#
# Stress axis : x y z
#
# Youngs Moduli (GPa) = 69.63798 22.02312 88.12271
#
# Poissons Ratio (x) = -0.15616 0.43835
# Poissons Ratio (y) = -0.49379 -0.03212
# Poissons Ratio (z) = 0.34640 -0.00803
#
# Static dielectric constant tensor:
#      x y z
#    x -2.384770 2.812870 1.415900 
#    y 2.812870 -0.117070 -0.991560 
#    z 1.415900 -0.991560 1.341780 
# 
# From -- ./inp_files/84800.got.cif
#   From: 2010.05.17/outbox.cif.g08.bks.cpg/sg2_43_cif.got.tgz:84800.got - 2010.06.03 11:33:40.
