data_PCOD9087413
_publ_section_title
;
Structure prediction by ZEFSAII (Michael W. Deem and Ramdas Pophale) SiO2 
 PCOD9087413
Probable space group: P -1
;
_chemical_formula_sum "Si O2"
_cell_formula_units_Z 16
_cell_length_a 15.772266
_cell_length_b 17.173779
_cell_length_c 7.801681
_cell_angle_alpha 146.055749
_cell_angle_beta 44.454494
_cell_angle_gamma 144.504321
_cell_volume 680.336712
_symmetry_space_group_name_H-M "P -1"
_symmetry_group_IT_number 2
_symmetry_cell_setting 'triclinic'
loop_
_space_group_symop_operation_xyz
x,y,z
-x,-y,-z
loop_
_atom_site_type_symbol
_atom_site_label
_atom_site_fract_x
_atom_site_fract_y
_atom_site_fract_z
Si Si1 0.556311 0.408264 0.141234
Si Si2 0.105569 0.937903 0.703162
Si Si3 0.142586 0.975754 0.102707
Si Si4 0.998206 0.383682 0.950585
Si Si5 0.729904 0.280691 0.784033
Si Si6 0.411051 0.087122 0.524655
Si Si7 0.270100 0.795427 0.755526
Si Si8 0.837037 0.715990 0.218436
O O1 0.500000 0.500000 0.500000
O O2 0.679387 0.552605 0.097535
O O3 0.633313 0.356562 0.072801
O O4 0.451531 0.236653 0.873588
O O5 0.019168 0.756469 0.409579
O O6 0.262287 0.048033 0.577571
O O7 0.160120 0.937439 0.814397
O O8 0.000000 0.000000 0.000000
O O9 0.965528 0.850875 0.154301
O O10 0.187846 0.164846 0.409200
O O11 0.231731 0.933805 0.026699
O O12 0.084215 0.359226 0.935847
O O13 0.847546 0.331209 0.165276
O O14 0.113561 0.581994 0.102589
O O15 0.637406 0.094391 0.657865
O O16 0.751162 0.274215 0.536078
O O17 0.566697 0.147582 0.323362
#
# Coordination Sequence:
#
# PCOD9087413 Si02
#       8
#     2   2   2   2   2   2   2   2
#     4  10  20  33  62  94 125 153 202 260 310 355
#     4  12  24  40  61  88 129 169 202 248 309 378
#     4  10  19  36  63  91 124 156 204 254 302 361
#     4  10  22  38  62  91 123 165 205 246 309 371
#     4  10  21  38  62  95 121 157 210 256 302 360
#     4  11  24  40  62  93 126 160 203 259 313 358
#     4  10  20  39  65  91 121 153 207 265 303 351
#     4   9  19  35  60  97 116 160 206 251 301 357
#
# _framework density 23.517765000000001
#
# number of rings (size 3 to 8) (size 9 to 14) (size 15 to 20)
#    0.000    1.750    2.500    2.625    3.500    2.000 
#    0.000    0.000    2.750    0.750    0.000    0.000 
#    0.000    0.000    0.000    0.000    0.000    0.000 
#
# Total GULP energy -89216.234904 kJ/mol
# GULP energy per Si atom -5576.014682 kJ/mol
# Density = 2.346424 g / cm^3
# Si number density = 23.517765 Si / 1000 Ang^3
#
#
#
# Elastic Constant Matrix: (Units=GPa)
#
#
# Indices 1 2 3 4 5 6 
#
# 1 39.4466 23.6326 29.1058 -8.2510 -19.0889 19.1480
# 2 23.6326 137.5345 74.6620 23.7837 -1.8436 10.9457
# 3 29.1058 74.6620 122.1518 3.7217 -10.4542 10.9621
# 4 -8.2510 23.7837 3.7217 45.3038 11.1414 0.4070
# 5 -19.0889 -1.8436 -10.4542 11.1414 43.9446 -0.2623
# 6 19.1480 10.9457 10.9621 0.4070 -0.2623 21.6924
#
#
#
# Elastic Compliance Matrix: (Units=1/GPa)
#
#
# Indices 1 2 3 4 5 6 
#
# 1 0.087272 -0.006960 -0.007971 0.012951 0.032024 -0.069352
# 2 -0.006960 0.012935 -0.006495 -0.007002 -0.002232 0.003003
# 3 -0.007971 -0.006495 0.013661 0.000981 -0.000713 0.003383
# 4 0.012951 -0.007002 0.000981 0.028531 -0.001722 -0.008950
# 5 0.032024 -0.002232 -0.000713 -0.001722 0.036683 -0.026305
# 6 -0.069352 0.003003 0.003383 -0.008950 -0.026305 0.103942
#
#
# Mechanical properties :
#
#
# Convention : Reuss Voigt Hill
#
# Bulk Modulus (GPa) = 14.08115 61.54819 37.81467
# Shear Modulus (GPa) = 14.30421 33.63698 23.97059
#
# Velocity S-wave (km/s) = 2.46891 3.78601 3.19604
# Velocity P-wave (km/s) = 3.75869 6.73346 5.45286
#
# Compressibility (1/GPa) = 0.07101691
#
# Stress axis : x y z
#
# Youngs Moduli (GPa) = 11.45836 77.31236 73.20077
#
# Poissons Ratio (x) = 0.53808 0.58348
# Poissons Ratio (y) = 0.07975 0.47542
# Poissons Ratio (z) = 0.09133 0.50213
#
# Static dielectric constant tensor:
#      x y z
#    x 2.045710 0.003350 -0.033380 
#    y 0.003350 1.980170 -0.015360 
#    z -0.033380 -0.015360 1.918040 
# 
# From -- ./inp_files/338232.got.cif
#   From: 2010.05.17/outbox.cif.g08.bks.cpg/sg2_170_cif.got.tgz:338232.got - 2010.06.03 11:33:40.
