data_PCOD9087911
_publ_section_title
;
Structure prediction by ZEFSAII (Michael W. Deem and Ramdas Pophale) SiO2 
 PCOD9087911
Probable space group: P -1
;
_chemical_formula_sum "Si O2"
_cell_formula_units_Z 14
_cell_length_a 9.362249
_cell_length_b 11.912005
_cell_length_c 9.062569
_cell_angle_alpha 52.689815
_cell_angle_beta 137.832632
_cell_angle_gamma 126.469861
_cell_volume 519.311943
_symmetry_space_group_name_H-M "P -1"
_symmetry_group_IT_number 2
_symmetry_cell_setting 'triclinic'
loop_
_space_group_symop_operation_xyz
x,y,z
-x,-y,-z
loop_
_atom_site_type_symbol
_atom_site_label
_atom_site_fract_x
_atom_site_fract_y
_atom_site_fract_z
Si Si1 0.431548 0.578205 0.631237
Si Si2 0.169463 0.733052 0.500251
Si Si3 0.252092 0.131468 0.501120
Si Si4 0.780379 0.959565 0.770527
Si Si5 0.207233 0.827241 0.786328
Si Si6 0.850276 0.397880 0.845069
Si Si7 0.785085 0.651026 0.058991
O O1 0.264707 0.610589 0.598545
O O2 0.570603 0.725676 0.536019
O O3 0.282083 0.511820 0.427753
O O4 0.604983 0.533155 0.910441
O O5 0.211183 0.753213 0.689204
O O6 0.297038 0.892066 0.397545
O O7 0.912433 0.683210 0.289668
O O8 0.152676 0.046405 0.342790
O O9 0.050155 0.176084 0.384919
O O10 0.327902 0.001139 0.741044
O O11 0.676871 0.789543 0.865494
O O12 0.000000 0.000000 0.000000
O O13 0.281536 0.736682 0.046118
O O14 0.000000 0.500000 0.000000
O O15 0.000932 0.335379 0.895452
#
# Coordination Sequence:
#
# PCOD9087911 Si02
#       7
#     2   2   2   2   2   2   2
#     4  10  20  38  59  87 114 157 192 228 291 355
#     4   9  19  32  58  86 117 150 186 235 290 346
#     4   9  18  33  59  83 121 151 182 236 295 346
#     4   8  13  26  51  78 107 145 175 214 275 340
#     4  10  19  37  56  89 121 148 187 241 294 331
#     4  11  23  39  61  82 113 158 201 239 282 339
#     4   9  18  37  54  79 114 151 192 229 279 346
#
# _framework density 26.958749000000001
#
# number of rings (size 3 to 8) (size 9 to 14) (size 15 to 20)
#    0.000    2.571    2.857    0.000    0.000    6.286 
#    2.571    2.857    0.000    1.714    0.000    0.000 
#    0.000    0.000    0.000    0.000    0.000    0.000 
#
# Total GULP energy -77978.139878 kJ/mol
# GULP energy per Si atom -5569.867134 kJ/mol
# Density = 2.689739 g / cm^3
# Si number density = 26.958749 Si / 1000 Ang^3
#
#
#
# Elastic Constant Matrix: (Units=GPa)
#
#
# Indices 1 2 3 4 5 6 
#
# 1 79.6340 -1.2566 23.7823 -2.0368 -16.5664 -19.6696
# 2 -1.2566 102.6892 18.8553 6.2946 -0.3887 -3.4352
# 3 23.7823 18.8553 152.3181 21.2671 -25.8388 16.4431
# 4 -2.0368 6.2946 21.2671 43.3626 -3.4425 -6.9597
# 5 -16.5664 -0.3887 -25.8388 -3.4425 33.7710 -4.6796
# 6 -19.6696 -3.4352 16.4431 -6.9597 -4.6796 23.2439
#
#
#
# Elastic Compliance Matrix: (Units=1/GPa)
#
#
# Indices 1 2 3 4 5 6 
#
# 1 0.025889 0.002136 -0.007200 0.010782 0.012907 0.033144
# 2 0.002136 0.010305 -0.002187 0.000512 0.000249 0.005081
# 3 -0.007200 -0.002187 0.011155 -0.007957 0.001907 -0.016306
# 4 0.010782 0.000512 -0.007957 0.031985 0.006017 0.025617
# 5 0.012907 0.000249 0.001907 0.006017 0.040736 0.019613
# 6 0.033144 0.005081 -0.016306 0.025617 0.019613 0.094975
#
#
# Mechanical properties :
#
#
# Convention : Reuss Voigt Hill
#
# Bulk Modulus (GPa) = 30.44510 46.37813 38.41161
# Shear Modulus (GPa) = 20.79028 39.62618 30.20823
#
# Velocity S-wave (km/s) = 2.78004 3.83806 3.35107
# Velocity P-wave (km/s) = 4.65001 6.07303 5.40852
#
# Compressibility (1/GPa) = 0.03284601
#
# Stress axis : x y z
#
# Youngs Moduli (GPa) = 38.62650 97.03735 89.64604
#
# Poissons Ratio (x) = -0.20723 0.64549
# Poissons Ratio (y) = -0.08249 0.19604
# Poissons Ratio (z) = 0.27813 0.21220
#
# Static dielectric constant tensor:
#      x y z
#    x 2.108210 0.156920 -0.034300 
#    y 0.156920 2.358800 -0.081520 
#    z -0.034300 -0.081520 2.168650 
# 
# From -- ./inp_files/186221.got.cif
#   From: 2010.05.17/outbox.cif.g08.bks.cpg/sg2_94_cif.got.tgz:186221.got - 2010.06.03 11:33:40.
