data_PCOD9087600
_publ_section_title
;
Structure prediction by ZEFSAII (Michael W. Deem and Ramdas Pophale) SiO2 
 PCOD9087600
Probable space group: P -1
;
_chemical_formula_sum "Si O2"
_cell_formula_units_Z 16
_cell_length_a 8.903954
_cell_length_b 15.220867
_cell_length_c 15.216080
_cell_angle_alpha 25.101642
_cell_angle_beta 71.177287
_cell_angle_gamma 88.768676
_cell_volume 611.617984
_symmetry_space_group_name_H-M "P -1"
_symmetry_group_IT_number 2
_symmetry_cell_setting 'triclinic'
loop_
_space_group_symop_operation_xyz
x,y,z
-x,-y,-z
loop_
_atom_site_type_symbol
_atom_site_label
_atom_site_fract_x
_atom_site_fract_y
_atom_site_fract_z
Si Si1 0.394240 0.480114 0.948047
Si Si2 0.325139 0.284063 0.489792
Si Si3 0.855188 0.312313 0.616484
Si Si4 0.962090 0.657315 0.932927
Si Si5 0.987042 0.251557 0.488385
Si Si6 0.398175 0.867710 0.411104
Si Si7 0.310644 0.740019 0.851783
Si Si8 0.493244 0.674538 0.274111
O O1 0.527522 0.551266 0.772840
O O2 0.142280 0.233521 0.191562
O O3 0.380135 0.708467 0.774098
O O4 0.500000 0.500000 0.000000
O O5 0.410377 0.131012 0.648538
O O6 0.387620 0.497276 0.363917
O O7 0.090805 0.145631 0.617429
O O8 0.007656 0.449947 0.378324
O O9 0.659699 0.297700 0.672345
O O10 0.000000 0.500000 0.500000
O O11 0.730039 0.982795 0.940964
O O12 0.791448 0.443092 0.233305
O O13 0.000000 0.500000 0.000000
O O14 0.192198 0.856266 0.755640
O O15 0.735202 0.080254 0.667811
O O16 0.130779 0.434609 0.210367
O O17 0.499323 0.087469 0.271618
O O18 0.500000 0.500000 0.500000
#
# Coordination Sequence:
#
# PCOD9087600 Si02
#       8
#     2   2   2   2   2   2   2   2
#     4  10  19  36  64  95 138 188 234 293 351 420
#     4  11  23  44  68 102 145 179 241 301 356 435
#     4  11  25  47  76 105 145 188 239 311 383 444
#     4   8  18  35  57  82 125 173 233 283 337 407
#     4  11  23  43  68 103 139 183 236 299 359 433
#     4  10  23  41  64  98 138 189 237 296 358 422
#     4  10  21  41  67  91 141 196 237 288 357 427
#     4  11  26  49  76 108 145 193 244 308 381 452
#
# _framework density 26.160122000000001
#
# number of rings (size 3 to 8) (size 9 to 14) (size 15 to 20)
#    0.000    1.750    2.500    0.750    1.750    6.000 
#   11.250    0.625    0.000    0.000    0.000    0.000 
#    0.000    0.000    0.000    0.000    0.000    0.000 
#
# Total GULP energy -89120.017393 kJ/mol
# GULP energy per Si atom -5570.001087 kJ/mol
# Density = 2.610058 g / cm^3
# Si number density = 26.160122 Si / 1000 Ang^3
#
#
#
# Elastic Constant Matrix: (Units=GPa)
#
#
# Indices 1 2 3 4 5 6 
#
# 1 237.9373 27.4339 37.7622 0.5770 -21.5494 21.1307
# 2 27.4339 109.1559 11.3649 14.8566 11.4972 -2.2103
# 3 37.7622 11.3649 76.9508 1.5790 5.4796 -0.5126
# 4 0.5770 14.8566 1.5790 31.7417 -2.0149 -10.8986
# 5 -21.5494 11.4972 5.4796 -2.0149 28.4374 1.2668
# 6 21.1307 -2.2103 -0.5126 -10.8986 1.2668 58.9417
#
#
#
# Elastic Compliance Matrix: (Units=1/GPa)
#
#
# Indices 1 2 3 4 5 6 
#
# 1 0.005567 -0.001805 -0.002891 0.000520 0.005636 -0.002114
# 2 -0.001805 0.011032 -0.000190 -0.005451 -0.006186 0.000184
# 3 -0.002891 -0.000190 0.014821 -0.000515 -0.005059 0.001172
# 4 0.000520 -0.005451 -0.000515 0.036536 0.005007 0.006253
# 5 0.005636 -0.006186 -0.005059 0.005007 0.043369 -0.002303
# 6 -0.002114 0.000184 0.001172 0.006253 -0.002303 0.018946
#
#
# Mechanical properties :
#
#
# Convention : Reuss Voigt Hill
#
# Bulk Modulus (GPa) = 46.19654 64.12956 55.16305
# Shear Modulus (GPa) = 33.95371 46.98970 40.47170
#
# Velocity S-wave (km/s) = 3.60657 4.24280 3.93756
# Velocity P-wave (km/s) = 5.91951 6.96916 6.46567
#
# Compressibility (1/GPa) = 0.02164664
#
# Stress axis : x y z
#
# Youngs Moduli (GPa) = 179.63999 90.64703 67.47288
#
# Poissons Ratio (x) = 0.16364 0.19508
# Poissons Ratio (y) = 0.32429 0.01281
# Poissons Ratio (z) = 0.51938 0.01721
#
# Static dielectric constant tensor:
#      x y z
#    x 2.196240 0.070820 -0.028320 
#    y 0.070820 2.061890 -0.061250 
#    z -0.028320 -0.061250 2.182210 
# 
# From -- ./inp_files/504972.got.cif
#   From: 2010.05.17/outbox.cif.g08.bks.cpg/sg2_253_cif.got.tgz:504972.got - 2010.06.03 11:33:40.
