data_PCOD9087296
_publ_section_title
;
Structure prediction by ZEFSAII (Michael W. Deem and Ramdas Pophale) SiO2 
 PCOD9087296
Probable space group: P -1
;
_chemical_formula_sum "Si O2"
_cell_formula_units_Z 14
_cell_length_a 8.902599
_cell_length_b 13.204090
_cell_length_c 7.822245
_cell_angle_alpha 59.649082
_cell_angle_beta 131.466005
_cell_angle_gamma 106.530885
_cell_volume 592.815236
_symmetry_space_group_name_H-M "P -1"
_symmetry_group_IT_number 2
_symmetry_cell_setting 'triclinic'
loop_
_space_group_symop_operation_xyz
x,y,z
-x,-y,-z
loop_
_atom_site_type_symbol
_atom_site_label
_atom_site_fract_x
_atom_site_fract_y
_atom_site_fract_z
Si Si1 0.072666 0.190989 0.213408
Si Si2 0.807121 0.376504 0.373828
Si Si3 0.027022 0.547572 0.204179
Si Si4 0.189548 0.968873 0.048674
Si Si5 0.191524 0.210342 0.681653
Si Si6 0.622842 0.611414 0.507988
Si Si7 0.491324 0.224317 0.396701
O O1 0.132599 0.180907 0.466028
O O2 0.271231 0.175885 0.253056
O O3 0.905093 0.104690 0.112353
O O4 0.990693 0.323488 0.996261
O O5 0.828126 0.484707 0.166399
O O6 0.608115 0.305189 0.285360
O O7 0.848374 0.432698 0.542471
O O8 0.997658 0.280999 0.562060
O O9 0.152988 0.451470 0.267719
O O10 0.261256 0.090170 0.929001
O O11 0.355744 0.884599 0.341149
O O12 0.000000 0.000000 0.000000
O O13 0.366473 0.299271 0.718348
O O14 0.500000 0.500000 0.500000
O O15 0.551467 0.688992 0.548104
#
# Coordination Sequence:
#
# PCOD9087296 Si02
#       7
#     2   2   2   2   2   2   2
#     4  11  24  41  65  95 126 165 215 259 314 378
#     4  10  19  39  64  93 125 171 212 250 319 377
#     4  10  20  38  66  88 132 174 201 259 320 366
#     4  12  23  46  69  87 129 170 207 270 318 365
#     4  10  23  38  65  93 126 172 209 256 322 369
#     4  10  19  36  62  95 126 161 209 254 305 375
#     4  11  23  39  67  96 125 165 219 260 307 378
#
# _framework density 23.616125
#
# number of rings (size 3 to 8) (size 9 to 14) (size 15 to 20)
#    0.000    1.429    4.286    0.429    0.000    8.571 
#    0.000    1.429    9.429    0.000    0.000    0.000 
#    0.000    0.000    0.000    0.000    0.000    0.000 
#
# Total GULP energy -78243.704607 kJ/mol
# GULP energy per Si atom -5588.836043 kJ/mol
# Density = 2.356237 g / cm^3
# Si number density = 23.616125 Si / 1000 Ang^3
#
#
#
# Elastic Constant Matrix: (Units=GPa)
#
#
# Indices 1 2 3 4 5 6 
#
# 1 89.7800 25.9969 7.2380 -19.9272 -1.0908 8.6545
# 2 25.9969 103.5053 30.5583 -31.4874 -8.5369 16.0392
# 3 7.2380 30.5583 53.6131 -35.5933 -10.2757 -4.3974
# 4 -19.9272 -31.4874 -35.5933 40.0406 4.7587 -6.9479
# 5 -1.0908 -8.5369 -10.2757 4.7587 28.6054 -7.1099
# 6 8.6545 16.0392 -4.3974 -6.9479 -7.1099 49.7244
#
#
#
# Elastic Compliance Matrix: (Units=1/GPa)
#
#
# Indices 1 2 3 4 5 6 
#
# 1 0.013692 -0.002079 0.007300 0.011697 0.000746 0.000674
# 2 -0.002079 0.013626 -0.004080 0.005351 0.000752 -0.003539
# 3 0.007300 -0.004080 0.061215 0.055667 0.015636 0.015473
# 4 0.011697 0.005351 0.055667 0.085690 0.011456 0.014773
# 5 0.000746 0.000752 0.015636 0.011456 0.041029 0.008478
# 6 0.000674 -0.003539 0.015473 0.014773 0.008478 0.025780
#
#
# Mechanical properties :
#
#
# Convention : Reuss Voigt Hill
#
# Bulk Modulus (GPa) = 11.01123 41.60944 26.31034
# Shear Modulus (GPa) = 18.58592 35.88109 27.23350
#
# Velocity S-wave (km/s) = 2.80840 3.90211 3.39953
# Velocity P-wave (km/s) = 3.89729 6.16111 5.15500
#
# Compressibility (1/GPa) = 0.09081633
#
# Stress axis : x y z
#
# Youngs Moduli (GPa) = 73.03492 73.38833 16.33589
#
# Poissons Ratio (x) = 0.15256 -0.11926
# Poissons Ratio (y) = 0.15183 0.06665
# Poissons Ratio (z) = -0.53318 0.29942
#
# Static dielectric constant tensor:
#      x y z
#    x 1.935880 0.047700 -0.010100 
#    y 0.047700 1.966140 0.088910 
#    z -0.010100 0.088910 1.968210 
# 
# From -- ./inp_files/180911.got.cif
#   From: 2010.05.17/outbox.cif.g08.bks.cpg/sg2_91_cif.got.tgz:180911.got - 2010.06.03 11:33:40.
