data_PCOD9087742
_publ_section_title
;
Structure prediction by ZEFSAII (Michael W. Deem and Ramdas Pophale) SiO2 
 PCOD9087742
Probable space group: P -1
;
_chemical_formula_sum "Si O2"
_cell_formula_units_Z 15
_cell_length_a 11.997794
_cell_length_b 8.451833
_cell_length_c 10.884226
_cell_angle_alpha 63.909529
_cell_angle_beta 73.549358
_cell_angle_gamma 38.798191
_cell_volume 617.595681
_symmetry_space_group_name_H-M "P -1"
_symmetry_group_IT_number 2
_symmetry_cell_setting 'triclinic'
loop_
_space_group_symop_operation_xyz
x,y,z
-x,-y,-z
loop_
_atom_site_type_symbol
_atom_site_label
_atom_site_fract_x
_atom_site_fract_y
_atom_site_fract_z
Si Si1 0.679777 0.332651 0.930666
Si Si2 0.924319 0.768286 0.039932
Si Si3 0.714930 0.707100 0.784893
Si Si4 0.631568 0.387148 0.657420
Si Si5 0.190145 0.466439 0.841554
Si Si6 0.702669 0.044358 0.522476
Si Si7 0.500000 0.000000 0.000000
Si Si8 0.915986 0.279713 0.476287
O O1 0.705620 0.508812 0.843742
O O2 0.674817 0.262416 0.818595
O O3 0.500000 0.500000 0.000000
O O4 0.842592 0.032996 0.038617
O O5 0.773617 0.788353 0.065513
O O6 0.079976 0.496859 0.164821
O O7 0.023684 0.694746 0.905158
O O8 0.669484 0.880236 0.623632
O O9 0.582730 0.912276 0.864761
O O10 0.665782 0.199325 0.607104
O O11 0.434053 0.699996 0.611702
O O12 0.763324 0.397254 0.576991
O O13 0.162840 0.544440 0.683231
O O14 0.367732 0.328976 0.896891
O O15 0.909930 0.819832 0.495409
O O16 0.000000 0.000000 0.500000
#
# Coordination Sequence:
#
# PCOD9087742 Si02
#       8
#     2   2   2   2   2   2   1   2
#     4  12  27  45  62  96 139 176 216 281 347 398
#     4  10  21  39  63  93 135 173 218 269 327 401
#     4  11  23  41  67  96 133 173 225 270 339 402
#     4  10  24  42  68  98 136 170 225 281 327 403
#     4  10  19  36  66  99 128 170 218 279 324 389
#     4  10  21  43  71 100 127 175 228 274 329 398
#     4  10  22  34  64 100 126 170 220 268 326 396
#     4  10  19  38  64  98 128 167 219 274 329 382
#
# _framework density 24.287734
#
# number of rings (size 3 to 8) (size 9 to 14) (size 15 to 20)
#    0.000    1.600    1.333    3.600    5.600    0.533 
#    9.600    0.667    0.000    0.000    0.000    0.000 
#    0.000    0.000    0.000    0.000    0.000    0.000 
#
# Total GULP energy -83637.435423 kJ/mol
# GULP energy per Si atom -5575.829028 kJ/mol
# Density = 2.423245 g / cm^3
# Si number density = 24.287734 Si / 1000 Ang^3
#
#
#
# Elastic Constant Matrix: (Units=GPa)
#
#
# Indices 1 2 3 4 5 6 
#
# 1 44.7708 8.5984 0.7917 -3.2019 -23.5934 8.0185
# 2 8.5984 95.2436 31.1296 -18.4284 -11.7712 -6.7261
# 3 0.7917 31.1296 64.9051 -4.6757 -10.7988 -14.7322
# 4 -3.2019 -18.4284 -4.6757 27.9785 0.6327 -5.3568
# 5 -23.5934 -11.7712 -10.7988 0.6327 30.0754 -11.8211
# 6 8.0185 -6.7261 -14.7322 -5.3568 -11.8211 30.8686
#
#
#
# Elastic Compliance Matrix: (Units=1/GPa)
#
#
# Indices 1 2 3 4 5 6 
#
# 1 0.041899 0.000477 0.008725 0.007579 0.039960 0.010002
# 2 0.000477 0.014975 -0.004084 0.010142 0.006728 0.005526
# 3 0.008725 -0.004084 0.025290 0.005504 0.021295 0.018024
# 4 0.007579 0.010142 0.005504 0.047238 0.017948 0.017939
# 5 0.039960 0.006728 0.021295 0.017948 0.089718 0.038721
# 6 0.010002 0.005526 0.018024 0.017939 0.038721 0.057545
#
#
# Mechanical properties :
#
#
# Convention : Reuss Voigt Hill
#
# Bulk Modulus (GPa) = 10.82247 31.77320 21.29783
# Shear Modulus (GPa) = 16.82210 28.74449 22.78329
#
# Velocity S-wave (km/s) = 2.63462 3.44393 3.06610
# Velocity P-wave (km/s) = 3.70413 5.37816 4.61764
#
# Compressibility (1/GPa) = 0.09240033
#
# Stress axis : x y z
#
# Youngs Moduli (GPa) = 23.86700 66.77752 39.54140
#
# Poissons Ratio (x) = -0.03186 -0.34499
# Poissons Ratio (y) = -0.01139 0.16148
# Poissons Ratio (z) = -0.20823 0.27270
#
# Static dielectric constant tensor:
#      x y z
#    x 1.489100 0.239410 -0.144580 
#    y 0.239410 1.773980 0.054990 
#    z -0.144580 0.054990 1.864400 
# 
# From -- ./inp_files/345020.got.cif
#   From: 2010.05.17/outbox.cif.g08.bks.cpg/sg2_173_cif.got.tgz:345020.got - 2010.06.03 11:33:40.
