data_PCOD9087278
_publ_section_title
;
Structure prediction by ZEFSAII (Michael W. Deem and Ramdas Pophale) SiO2 
 PCOD9087278
Probable space group: P -1
;
_chemical_formula_sum "Si O2"
_cell_formula_units_Z 16
_cell_length_a 17.581787
_cell_length_b 20.944836
_cell_length_c 10.559088
_cell_angle_alpha 38.280203
_cell_angle_beta 147.879507
_cell_angle_gamma 160.779261
_cell_volume 678.206359
_symmetry_space_group_name_H-M "P -1"
_symmetry_group_IT_number 2
_symmetry_cell_setting 'triclinic'
loop_
_space_group_symop_operation_xyz
x,y,z
-x,-y,-z
loop_
_atom_site_type_symbol
_atom_site_label
_atom_site_fract_x
_atom_site_fract_y
_atom_site_fract_z
Si Si1 0.175942 0.355541 0.789365
Si Si2 0.126774 0.826529 0.939307
Si Si3 0.023933 0.973875 0.842691
Si Si4 0.098315 0.480215 0.059223
Si Si5 0.530214 0.187109 0.105444
Si Si6 0.850136 0.301280 0.578646
Si Si7 0.684027 0.663529 0.201132
Si Si8 0.637188 0.671322 0.557649
O O1 0.190063 0.359398 0.652681
O O2 0.980096 0.320034 0.618065
O O3 0.462585 0.557626 0.946159
O O4 0.060729 0.175882 0.958165
O O5 0.111110 0.737660 0.939105
O O6 0.888505 0.768734 0.685579
O O7 0.102694 0.742345 0.165253
O O8 0.406132 0.052322 0.018994
O O9 0.091714 0.115726 0.797556
O O10 0.297451 0.125569 0.910819
O O11 0.788943 0.829934 0.632599
O O12 0.382359 0.588850 0.297804
O O13 0.182491 0.596867 0.872203
O O14 0.000000 0.500000 0.000000
O O15 0.560932 0.150644 0.343142
O O16 0.000000 0.500000 0.500000
O O17 0.508898 0.520581 0.294634
#
# Coordination Sequence:
#
# PCOD9087278 Si02
#       8
#     2   2   2   2   2   2   2   2
#     4  10  21  35  57  98 136 164 212 262 323 405
#     4  11  23  46  70  98 127 174 225 276 323 396
#     4  10  20  40  64  98 127 169 222 265 329 391
#     4  12  28  47  65  96 132 176 224 277 337 389
#     4  11  24  41  69  94 132 170 223 267 329 396
#     4  12  21  40  68  98 133 171 211 270 333 392
#     4  10  19  36  62  92 135 170 203 269 331 378
#     4  10  23  43  67  95 128 169 237 264 314 399
#
# _framework density 23.591640000000002
#
# number of rings (size 3 to 8) (size 9 to 14) (size 15 to 20)
#    0.000    1.250    5.000    2.625    1.750    3.500 
#    2.250    0.000    0.000    0.000    0.000    0.000 
#    0.000    0.000    0.000    0.000    0.000    0.000 
#
# Total GULP energy -89101.274665 kJ/mol
# GULP energy per Si atom -5568.829667 kJ/mol
# Density = 2.353794 g / cm^3
# Si number density = 23.591640 Si / 1000 Ang^3
#
#
#
# Elastic Constant Matrix: (Units=GPa)
#
#
# Indices 1 2 3 4 5 6 
#
# 1 66.6189 25.6778 25.5218 14.9837 5.3204 -23.1166
# 2 25.6778 96.2610 13.4406 2.5055 1.4194 -28.5401
# 3 25.5218 13.4406 85.5813 7.5706 -1.2472 -22.4483
# 4 14.9837 2.5055 7.5706 24.2410 -3.5684 -7.4564
# 5 5.3204 1.4194 -1.2472 -3.5684 20.1525 1.5591
# 6 -23.1166 -28.5401 -22.4483 -7.4564 1.5591 49.9910
#
#
#
# Elastic Compliance Matrix: (Units=1/GPa)
#
#
# Indices 1 2 3 4 5 6 
#
# 1 0.023278 -0.003621 -0.004007 -0.012415 -0.008748 0.005319
# 2 -0.003621 0.013125 0.000466 0.002721 0.000045 0.006432
# 3 -0.004007 0.000466 0.014073 -0.000322 0.001480 0.004638
# 4 -0.012415 0.002721 -0.000322 0.051415 0.011941 0.002965
# 5 -0.008748 0.000045 0.001480 0.011941 0.054387 -0.003270
# 6 0.005319 0.006432 0.004638 0.002965 -0.003270 0.028762
#
#
# Mechanical properties :
#
#
# Convention : Reuss Voigt Hill
#
# Bulk Modulus (GPa) = 27.66174 41.97129 34.81652
# Shear Modulus (GPa) = 23.65000 31.13162 27.39081
#
# Velocity S-wave (km/s) = 3.16962 3.63658 3.41110
# Velocity P-wave (km/s) = 5.01458 5.95502 5.50492
#
# Compressibility (1/GPa) = 0.03615101
#
# Stress axis : x y z
#
# Youngs Moduli (GPa) = 42.95878 76.19111 71.05598
#
# Poissons Ratio (x) = 0.27588 0.28475
# Poissons Ratio (y) = 0.15555 -0.03309
# Poissons Ratio (z) = 0.17216 -0.03548
#
# Static dielectric constant tensor:
#      x y z
#    x 1.790200 -0.002210 -0.184690 
#    y -0.002210 1.936740 -0.055540 
#    z -0.184690 -0.055540 1.828620 
# 
# From -- ./inp_files/467099.got.cif
#   From: 2010.05.17/outbox.cif.g08.bks.cpg/sg2_234_cif.got.tgz:467099.got - 2010.06.03 11:33:40.
