data_PCOD9087124
_publ_section_title
;
Structure prediction by ZEFSAII (Michael W. Deem and Ramdas Pophale) SiO2 
 PCOD9087124
Probable space group: P -1
;
_chemical_formula_sum "Si O2"
_cell_formula_units_Z 14
_cell_length_a 13.820207
_cell_length_b 7.750924
_cell_length_c 13.546896
_cell_angle_alpha 84.024166
_cell_angle_beta 145.758389
_cell_angle_gamma 70.043358
_cell_volume 524.287402
_symmetry_space_group_name_H-M "P -1"
_symmetry_group_IT_number 2
_symmetry_cell_setting 'triclinic'
loop_
_space_group_symop_operation_xyz
x,y,z
-x,-y,-z
loop_
_atom_site_type_symbol
_atom_site_label
_atom_site_fract_x
_atom_site_fract_y
_atom_site_fract_z
Si Si1 0.869801 0.618872 0.994758
Si Si2 0.337896 0.045128 0.456784
Si Si3 0.568155 0.389649 0.411464
Si Si4 0.517370 0.018859 0.131798
Si Si5 0.140105 0.628396 0.731763
Si Si6 0.864772 0.277493 0.836992
Si Si7 0.481538 0.646893 0.122925
O O1 0.274906 0.552452 0.188833
O O2 0.904212 0.797968 0.016676
O O3 0.092886 0.349874 0.259975
O O4 0.000000 0.500000 0.000000
O O5 0.249539 0.913096 0.384448
O O6 0.559128 0.847596 0.738193
O O7 0.500000 0.000000 0.500000
O O8 0.638258 0.473717 0.550418
O O9 0.574749 0.462827 0.306490
O O10 0.823182 0.837606 0.432520
O O11 0.446492 0.874668 0.113218
O O12 0.301154 0.343730 0.936850
O O13 0.500000 0.000000 0.000000
O O14 0.225234 0.739838 0.855963
O O15 0.288575 0.533246 0.756280
O O16 0.000000 0.000000 0.000000
#
# Coordination Sequence:
#
# PCOD9087124 Si02
#       7
#     2   2   2   2   2   2   2
#     4  10  19  36  62  80 113 166 212 259 324 392
#     4  10  19  38  60  84 116 167 209 267 327 382
#     4  11  24  42  62  95 132 172 232 286 338 403
#     4  10  21  44  74 105 146 189 227 283 360 432
#     4  10  23  46  75 103 145 194 223 279 376 425
#     4  11  23  41  62  88 130 179 221 277 349 396
#     4  10  23  45  69 107 142 180 238 298 341 429
#
# _framework density 26.702915000000001
#
# number of rings (size 3 to 8) (size 9 to 14) (size 15 to 20)
#    0.000    1.714    2.857    3.429    2.000    6.286 
#   15.429    0.000    0.000    0.000    0.000    0.000 
#    0.000    0.000    0.000    0.000    0.000    0.000 
#
# Total GULP energy -77992.682386 kJ/mol
# GULP energy per Si atom -5570.905885 kJ/mol
# Density = 2.664214 g / cm^3
# Si number density = 26.702915 Si / 1000 Ang^3
#
#
#
# Elastic Constant Matrix: (Units=GPa)
#
#
# Indices 1 2 3 4 5 6 
#
# 1 152.6183 59.4239 82.3651 -10.6223 -11.3321 -5.7496
# 2 59.4239 103.5859 71.5331 -20.3084 12.0616 27.3075
# 3 82.3651 71.5331 227.5244 -13.0456 14.7106 14.9107
# 4 -10.6223 -20.3084 -13.0456 52.2623 5.5235 -0.3284
# 5 -11.3321 12.0616 14.7106 5.5235 54.2346 -5.7771
# 6 -5.7496 27.3075 14.9107 -0.3284 -5.7771 23.9117
#
#
#
# Elastic Compliance Matrix: (Units=1/GPa)
#
#
# Indices 1 2 3 4 5 6 
#
# 1 0.016703 -0.016947 -0.003640 -0.005168 0.011800 0.028420
# 2 -0.016947 0.037963 -0.000488 0.012832 -0.018639 -0.051452
# 3 -0.003640 -0.000488 0.006450 0.000970 -0.003040 -0.005061
# 4 -0.005168 0.012832 0.000970 0.024106 -0.008596 -0.018248
# 5 0.011800 -0.018639 -0.003040 -0.008596 0.030288 0.033218
# 6 0.028420 -0.051452 -0.005061 -0.018248 0.033218 0.118344
#
#
# Mechanical properties :
#
#
# Convention : Reuss Voigt Hill
#
# Bulk Modulus (GPa) = 52.72742 101.15253 76.93998
# Shear Modulus (GPa) = 17.71010 44.10881 30.90945
#
# Velocity S-wave (km/s) = 2.57811 4.06869 3.40594
# Velocity P-wave (km/s) = 5.35267 7.74824 6.65906
#
# Compressibility (1/GPa) = 0.01896546
#
# Stress axis : x y z
#
# Youngs Moduli (GPa) = 59.87121 26.34161 155.04014
#
# Poissons Ratio (x) = 0.44642 0.56433
# Poissons Ratio (y) = 1.01466 0.07559
# Poissons Ratio (z) = 0.21793 0.01284
#
# Static dielectric constant tensor:
#      x y z
#    x 2.138190 -0.005500 -0.078640 
#    y -0.005500 3.165050 0.447220 
#    z -0.078640 0.447220 2.270490 
# 
# From -- ./inp_files/527358.got.cif
#   From: 2010.05.17/outbox.cif.g08.bks.cpg/sg2_264_cif.got.tgz:527358.got - 2010.06.03 11:33:40.
