data_PCOD9087363
_publ_section_title
;
Structure prediction by ZEFSAII (Michael W. Deem and Ramdas Pophale) SiO2 
 PCOD9087363
Probable space group: P -1
;
_chemical_formula_sum "Si O2"
_cell_formula_units_Z 16
_cell_length_a 17.913955
_cell_length_b 9.201646
_cell_length_c 10.674704
_cell_angle_alpha 112.128447
_cell_angle_beta 130.319077
_cell_angle_gamma 108.539976
_cell_volume 753.436487
_symmetry_space_group_name_H-M "P -1"
_symmetry_group_IT_number 2
_symmetry_cell_setting 'triclinic'
loop_
_space_group_symop_operation_xyz
x,y,z
-x,-y,-z
loop_
_atom_site_type_symbol
_atom_site_label
_atom_site_fract_x
_atom_site_fract_y
_atom_site_fract_z
Si Si1 0.452863 0.292170 0.467419
Si Si2 0.004370 0.285829 0.767598
Si Si3 0.688057 0.694065 0.258479
Si Si4 0.761688 0.673494 0.061239
Si Si5 0.228805 0.215213 0.350409
Si Si6 0.803092 0.078060 0.127438
Si Si7 0.905193 0.439985 0.554208
Si Si8 0.122049 0.381749 0.194856
O O1 0.500000 0.500000 0.500000
O O2 0.609665 0.411390 0.733150
O O3 0.358876 0.251406 0.468055
O O4 0.326562 0.046047 0.160703
O O5 0.015902 0.452854 0.749711
O O6 0.085421 0.239276 0.773860
O O7 0.092652 0.418755 0.039841
O O8 0.814948 0.001608 0.488423
O O9 0.740429 0.683528 0.443521
O O10 0.500000 0.500000 0.000000
O O11 0.720428 0.634503 0.150124
O O12 0.782782 0.878357 0.098417
O O13 0.230976 0.364531 0.306712
O O14 0.055215 0.910994 0.055100
O O15 0.792684 0.192833 0.262814
O O16 0.978731 0.311295 0.328801
O O17 0.826314 0.438135 0.579416
#
# Coordination Sequence:
#
# PCOD9087363 Si02
#       8
#     2   2   2   2   2   2   2   2
#     4  10  19  36  63  87 124 158 216 265 299 361
#     4  11  24  40  64  96 126 165 215 262 311 377
#     4  11  22  37  63  96 131 158 206 267 316 360
#     4  11  22  41  66  94 124 165 220 261 303 372
#     4  10  20  36  61  93 118 162 217 256 300 375
#     4  10  22  37  60  93 124 169 211 253 324 370
#     4  11  22  37  62  92 137 164 206 261 325 380
#     4  10  21  37  61  88 124 165 211 255 313 370
#
# _framework density 21.236032000000002
#
# number of rings (size 3 to 8) (size 9 to 14) (size 15 to 20)
#    0.000    1.500    3.750    2.250    3.500    1.000 
#    0.000    0.625    0.000   16.500    0.000    0.000 
#    0.000    0.000    0.000    0.000    0.000    0.000 
#
# Total GULP energy -89329.924943 kJ/mol
# GULP energy per Si atom -5583.120309 kJ/mol
# Density = 2.118770 g / cm^3
# Si number density = 21.236032 Si / 1000 Ang^3
#
#
#
# Elastic Constant Matrix: (Units=GPa)
#
#
# Indices 1 2 3 4 5 6 
#
# 1 100.9504 15.3823 34.4249 -2.5021 -16.1138 8.5076
# 2 15.3823 48.2460 20.8848 -12.9313 -7.4680 9.8138
# 3 34.4249 20.8848 45.4822 -7.4606 -9.0419 -8.5775
# 4 -2.5021 -12.9313 -7.4606 17.2871 8.2110 -3.8317
# 5 -16.1138 -7.4680 -9.0419 8.2110 43.8860 -7.6474
# 6 8.5076 9.8138 -8.5775 -3.8317 -7.6474 22.7485
#
#
#
# Elastic Compliance Matrix: (Units=1/GPa)
#
#
# Indices 1 2 3 4 5 6 
#
# 1 0.017025 0.004329 -0.018618 -0.006615 0.001633 -0.015820
# 2 0.004329 0.038676 -0.024363 0.015238 -0.004294 -0.026367
# 3 -0.018618 -0.024363 0.058605 0.010883 0.006662 0.043643
# 4 -0.006615 0.015238 0.010883 0.080354 -0.010907 0.009871
# 5 0.001633 -0.004294 0.006662 -0.010907 0.028045 0.011345
# 6 -0.015820 -0.026367 0.043643 0.009871 0.011345 0.083183
#
#
# Mechanical properties :
#
#
# Convention : Reuss Voigt Hill
#
# Bulk Modulus (GPa) = 27.02438 37.34030 32.18234
# Shear Modulus (GPa) = 12.64141 25.05008 18.84574
#
# Velocity S-wave (km/s) = 2.44249 3.43826 2.98223
# Velocity P-wave (km/s) = 4.55057 5.77787 5.20055
#
# Compressibility (1/GPa) = 0.03700362
#
# Stress axis : x y z
#
# Youngs Moduli (GPa) = 58.73754 25.85574 17.06327
#
# Poissons Ratio (x) = -0.11193 0.31768
# Poissons Ratio (y) = -0.25427 0.41571
# Poissons Ratio (z) = 1.09355 0.62992
#
# Static dielectric constant tensor:
#      x y z
#    x 1.783640 0.010920 -0.021280 
#    y 0.010920 1.759370 -0.003090 
#    z -0.021280 -0.003090 1.804440 
# 
# From -- ./inp_files/348292.got.cif
#   From: 2010.05.17/outbox.cif.g08.bks.cpg/sg2_175_cif.got.tgz:348292.got - 2010.06.03 11:33:40.
