data_PCOD9087607
_publ_section_title
;
Structure prediction by ZEFSAII (Michael W. Deem and Ramdas Pophale) SiO2 
 PCOD9087607
Probable space group: P -1
;
_chemical_formula_sum "Si O2"
_cell_formula_units_Z 16
_cell_length_a 9.740613
_cell_length_b 10.462474
_cell_length_c 11.570173
_cell_angle_alpha 83.446573
_cell_angle_beta 57.846452
_cell_angle_gamma 51.053364
_cell_volume 731.605274
_symmetry_space_group_name_H-M "P -1"
_symmetry_group_IT_number 2
_symmetry_cell_setting 'triclinic'
loop_
_space_group_symop_operation_xyz
x,y,z
-x,-y,-z
loop_
_atom_site_type_symbol
_atom_site_label
_atom_site_fract_x
_atom_site_fract_y
_atom_site_fract_z
Si Si1 0.197930 0.792928 0.419881
Si Si2 0.092479 0.590443 0.410923
Si Si3 0.934806 0.753401 0.807617
Si Si4 0.399817 0.250939 0.185107
Si Si5 0.624214 0.838097 0.544358
Si Si6 0.663289 0.142154 0.856286
Si Si7 0.635275 0.638343 0.372025
Si Si8 0.784012 0.705291 0.090360
O O1 0.267915 0.769949 0.255500
O O2 0.401627 0.723173 0.416142
O O3 0.000000 0.000000 0.500000
O O4 0.857749 0.933153 0.779733
O O5 0.290363 0.442350 0.256617
O O6 0.000000 0.500000 0.500000
O O7 0.145915 0.670857 0.471040
O O8 0.870933 0.760997 0.436168
O O9 0.782964 0.732888 0.806459
O O10 0.183706 0.569930 0.706257
O O11 0.859407 0.786947 0.973172
O O12 0.448425 0.141939 0.291147
O O13 0.591968 0.182810 0.017206
O O14 0.615361 0.701644 0.503608
O O15 0.500000 0.000000 0.500000
O O16 0.441799 0.214940 0.881024
O O17 0.724068 0.713771 0.249522
O O18 0.000000 0.500000 0.000000
#
# Coordination Sequence:
#
# PCOD9087607 Si02
#       8
#     2   2   2   2   2   2   2   2
#     4  11  25  44  69  96 133 172 225 273 329 393
#     4  10  23  44  68  90 131 179 213 267 330 396
#     4  10  19  36  64  96 131 169 217 274 321 395
#     4  10  21  39  63  94 134 171 222 255 336 396
#     4  11  23  36  65  95 131 170 218 277 327 385
#     4  10  22  36  64  96 129 178 212 275 330 385
#     4  10  21  38  62  99 128 170 224 272 323 387
#     4   8  16  31  56  92 130 160 216 265 318 375
#
# _framework density 21.869716
#
# number of rings (size 3 to 8) (size 9 to 14) (size 15 to 20)
#    0.000    2.000    1.250    2.250    8.750    0.500 
#    0.000    8.125    0.000    3.750    0.000    0.000 
#    0.000    0.000    0.000    0.000    0.000    0.000 
#
# Total GULP energy -89158.763320 kJ/mol
# GULP energy per Si atom -5572.422707 kJ/mol
# Density = 2.181994 g / cm^3
# Si number density = 21.869716 Si / 1000 Ang^3
#
#
#
# Elastic Constant Matrix: (Units=GPa)
#
#
# Indices 1 2 3 4 5 6 
#
# 1 72.3340 13.3939 27.9064 8.6668 2.5530 -5.0221
# 2 13.3939 106.3691 44.0093 -3.1114 -8.8971 -13.2932
# 3 27.9064 44.0093 116.4790 -1.4674 15.7076 -5.8346
# 4 8.6668 -3.1114 -1.4674 31.4545 -3.5498 0.6354
# 5 2.5530 -8.8971 15.7076 -3.5498 23.5183 0.7794
# 6 -5.0221 -13.2932 -5.8346 0.6354 0.7794 31.4817
#
#
#
# Elastic Compliance Matrix: (Units=1/GPa)
#
#
# Indices 1 2 3 4 5 6 
#
# 1 0.015991 -0.000467 -0.003586 -0.004688 -0.000285 0.001791
# 2 -0.000467 0.013250 -0.005898 0.002117 0.009184 0.004157
# 3 -0.003586 -0.005898 0.013080 -0.000173 -0.010592 -0.000372
# 4 -0.004688 0.002117 -0.000173 0.034043 0.006588 -0.000736
# 5 -0.000285 0.009184 -0.010592 0.006588 0.054081 0.000398
# 6 0.001791 0.004157 -0.000372 -0.000736 0.000398 0.033741
#
#
# Mechanical properties :
#
#
# Convention : Reuss Voigt Hill
#
# Bulk Modulus (GPa) = 44.60408 51.75571 48.17990
# Shear Modulus (GPa) = 26.10145 31.28241 28.69193
#
# Velocity S-wave (km/s) = 3.45845 3.78616 3.62601
# Velocity P-wave (km/s) = 6.03220 6.54448 6.29356
#
# Compressibility (1/GPa) = 0.02241948
#
# Stress axis : x y z
#
# Youngs Moduli (GPa) = 62.53675 75.47256 76.45171
#
# Poissons Ratio (x) = 0.03526 0.27412
# Poissons Ratio (y) = 0.02922 0.45090
# Poissons Ratio (z) = 0.22423 0.44513
#
# Static dielectric constant tensor:
#      x y z
#    x 1.786970 0.026320 -0.016900 
#    y 0.026320 1.904720 -0.015420 
#    z -0.016900 -0.015420 1.908190 
# 
# From -- ./inp_files/456159.got.cif
#   From: 2010.05.17/outbox.cif.g08.bks.cpg/sg2_229_cif.got.tgz:456159.got - 2010.06.03 11:33:40.
