data_PCOD9087498
_publ_section_title
;
Structure prediction by ZEFSAII (Michael W. Deem and Ramdas Pophale) SiO2 
 PCOD9087498
Probable space group: P -1
;
_chemical_formula_sum "Si O2"
_cell_formula_units_Z 14
_cell_length_a 16.407932
_cell_length_b 9.218484
_cell_length_c 11.268512
_cell_angle_alpha 83.230268
_cell_angle_beta 126.412359
_cell_angle_gamma 51.479182
_cell_volume 679.033113
_symmetry_space_group_name_H-M "P -1"
_symmetry_group_IT_number 2
_symmetry_cell_setting 'triclinic'
loop_
_space_group_symop_operation_xyz
x,y,z
-x,-y,-z
loop_
_atom_site_type_symbol
_atom_site_label
_atom_site_fract_x
_atom_site_fract_y
_atom_site_fract_z
Si Si1 0.625357 0.007744 0.483202
Si Si2 0.639703 0.803040 0.944776
Si Si3 0.312522 0.457271 0.609433
Si Si4 0.049574 0.607569 0.539157
Si Si5 0.738922 0.535136 0.696071
Si Si6 0.868670 0.069633 0.471117
Si Si7 0.994686 0.258508 0.156586
O O1 0.714296 0.736880 0.619052
O O2 0.798762 0.910300 0.644231
O O3 0.517513 0.118475 0.251783
O O4 0.453479 0.259851 0.406810
O O5 0.516292 0.106554 0.824556
O O6 0.757450 0.616297 0.183762
O O7 0.812673 0.592768 0.012437
O O8 0.129028 0.585599 0.490757
O O9 0.267343 0.543865 0.424191
O O10 0.316170 0.599310 0.677430
O O11 0.000000 0.500000 0.500000
O O12 0.861520 0.925964 0.408738
O O13 0.933795 0.277743 0.973351
O O14 0.989655 0.884269 0.715166
O O15 0.000000 0.000000 0.500000
#
# Coordination Sequence:
#
# PCOD9087498 Si02
#       7
#     2   2   2   2   2   2   2
#     4   9  18  35  57  91 121 151 196 250 283 343
#     4   9  20  34  61  87 114 153 199 243 293 337
#     4  10  20  38  56  85 130 150 187 252 297 345
#     4  10  21  38  64  88 109 154 209 241 288 357
#     4   9  19  32  56  90 119 155 195 243 290 339
#     4   9  21  39  60  84 123 157 188 245 307 345
#     4  10  19  36  64  85 119 159 201 238 285 353
#
# _framework density 20.617550999999999
#
# number of rings (size 3 to 8) (size 9 to 14) (size 15 to 20)
#    0.000    2.571    0.000    1.714    8.000    0.571 
#    0.000    1.429   18.857    0.000    0.000    0.000 
#    0.000    0.000    0.000    0.000    0.000    0.000 
#
# Total GULP energy -78051.803266 kJ/mol
# GULP energy per Si atom -5575.128805 kJ/mol
# Density = 2.057062 g / cm^3
# Si number density = 20.617551 Si / 1000 Ang^3
#
#
#
# Elastic Constant Matrix: (Units=GPa)
#
#
# Indices 1 2 3 4 5 6 
#
# 1 63.5528 27.7692 38.2252 8.8544 0.4139 -4.6472
# 2 27.7692 135.2725 13.7469 -8.2686 0.1087 -6.5249
# 3 38.2252 13.7469 76.0121 3.8970 7.6109 -10.0883
# 4 8.8544 -8.2686 3.8970 18.2413 0.0709 -4.5171
# 5 0.4139 0.1087 7.6109 0.0709 16.0080 6.6577
# 6 -4.6472 -6.5249 -10.0883 -4.5171 6.6577 22.2395
#
#
#
# Elastic Compliance Matrix: (Units=1/GPa)
#
#
# Indices 1 2 3 4 5 6 
#
# 1 0.028485 -0.005721 -0.014599 -0.015424 0.009813 -0.008419
# 2 -0.005721 0.009086 0.001721 0.007681 -0.002686 0.004615
# 3 -0.014599 0.001721 0.023456 0.006500 -0.016825 0.014451
# 4 -0.015424 0.007681 0.006500 0.069239 -0.011105 0.019367
# 5 0.009813 -0.002686 -0.016825 -0.011105 0.084374 -0.033884
# 6 -0.008419 0.004615 0.014451 0.019367 -0.033884 0.065192
#
#
# Mechanical properties :
#
#
# Convention : Reuss Voigt Hill
#
# Bulk Modulus (GPa) = 41.96482 48.25780 45.11131
# Shear Modulus (GPa) = 15.38592 24.30417 19.84504
#
# Velocity S-wave (km/s) = 2.73473 3.43710 3.10584
# Velocity P-wave (km/s) = 5.51088 6.26167 5.89823
#
# Compressibility (1/GPa) = 0.02382948
#
# Stress axis : x y z
#
# Youngs Moduli (GPa) = 35.10644 110.05692 42.63390
#
# Poissons Ratio (x) = 0.62959 0.62242
# Poissons Ratio (y) = 0.20083 -0.07338
# Poissons Ratio (z) = 0.51252 -0.18943
#
# Static dielectric constant tensor:
#      x y z
#    x 1.736730 -0.001420 -0.030990 
#    y -0.001420 1.806630 -0.015250 
#    z -0.030990 -0.015250 1.748500 
# 
# From -- ./inp_files/294033.got.cif
#   From: 2010.05.17/outbox.cif.g08.bks.cpg/sg2_148_cif.got.tgz:294033.got - 2010.06.03 11:33:40.
