data_PCOD9087839
_publ_section_title
;
Structure prediction by ZEFSAII (Michael W. Deem and Ramdas Pophale) SiO2 
 PCOD9087839
Probable space group: P -1
;
_chemical_formula_sum "Si O2"
_cell_formula_units_Z 12
_cell_length_a 14.734496
_cell_length_b 7.328286
_cell_length_c 6.770081
_cell_angle_alpha 40.916516
_cell_angle_beta 99.973816
_cell_angle_gamma 95.284194
_cell_volume 470.701376
_symmetry_space_group_name_H-M "P -1"
_symmetry_group_IT_number 2
_symmetry_cell_setting 'triclinic'
loop_
_space_group_symop_operation_xyz
x,y,z
-x,-y,-z
loop_
_atom_site_type_symbol
_atom_site_label
_atom_site_fract_x
_atom_site_fract_y
_atom_site_fract_z
Si Si1 0.631179 0.714374 0.081017
Si Si2 0.181684 0.746971 0.818897
Si Si3 0.693132 0.749173 0.617382
Si Si4 0.180707 0.582447 0.503954
Si Si5 0.510661 0.200556 0.531117
Si Si6 0.912390 0.952956 0.139430
O O1 0.720239 0.585760 0.335532
O O2 0.556511 0.480565 0.256199
O O3 0.669148 0.735169 0.853585
O O4 0.579454 0.016770 0.849628
O O5 0.160381 0.645223 0.675705
O O6 0.261543 0.964994 0.649381
O O7 0.227251 0.494353 0.171234
O O8 0.094923 0.895172 0.777083
O O9 0.593651 0.728658 0.494002
O O10 0.171059 0.880256 0.149191
O O11 0.106429 0.368587 0.582337
O O12 0.500000 0.000000 0.500000
O O13 0.000000 0.000000 0.000000
#
# Coordination Sequence:
#
# PCOD9087839 Si02
#       6
#     2   2   2   2   2   2
#     4  10  18  31  56  89 124 166 207 248 301 357
#     4  11  23  41  66  94 127 167 208 255 314 373
#     4  10  18  33  58  92 129 167 209 252 301 359
#     4  11  23  43  67  93 128 164 206 258 314 376
#     4  10  16  27  52  90 127 161 211 252 285 356
#     4  12  27  45  68  95 122 160 208 263 326 383
#
# _framework density 25.493870999999999
#
# number of rings (size 3 to 8) (size 9 to 14) (size 15 to 20)
#    0.000    1.333    0.000   11.500    0.000    1.333 
#    0.000    0.000    0.000   20.000    0.000    0.000 
#    0.000    0.000    0.000    0.000    0.000    0.000 
#
# Total GULP energy -67230.170192 kJ/mol
# GULP energy per Si atom -5602.514183 kJ/mol
# Density = 2.543585 g / cm^3
# Si number density = 25.493871 Si / 1000 Ang^3
#
#
#
# Elastic Constant Matrix: (Units=GPa)
#
#
# Indices 1 2 3 4 5 6 
#
# 1 91.8484 16.3018 -4.4999 -14.3892 -10.7171 -30.3900
# 2 16.3018 74.1835 6.3183 -5.5269 -0.1285 -29.5439
# 3 -4.4999 6.3183 122.0268 -7.7833 -4.5757 6.6940
# 4 -14.3892 -5.5269 -7.7833 42.1000 9.5984 -2.0619
# 5 -10.7171 -0.1285 -4.5757 9.5984 45.5610 2.6688
# 6 -30.3900 -29.5439 6.6940 -2.0619 2.6688 32.6626
#
#
#
# Elastic Compliance Matrix: (Units=1/GPa)
#
#
# Indices 1 2 3 4 5 6 
#
# 1 0.018982 0.005735 -0.000312 0.008006 0.001398 0.023304
# 2 0.005735 0.024106 -0.002235 0.006508 -0.001828 0.028159
# 3 -0.000312 -0.002235 0.008607 0.000795 0.000857 -0.004096
# 4 0.008006 0.006508 0.000795 0.029414 -0.005120 0.015447
# 5 0.001398 -0.001828 0.000857 -0.005120 0.023600 -0.002780
# 6 0.023304 0.028159 -0.004096 0.015447 -0.002780 0.079811
#
#
# Mechanical properties :
#
#
# Convention : Reuss Voigt Hill
#
# Bulk Modulus (GPa) = 17.22026 36.03324 26.62675
# Shear Modulus (GPa) = 25.31631 42.06060 33.68845
#
# Velocity S-wave (km/s) = 3.15466 4.06622 3.63910
# Velocity P-wave (km/s) = 4.47644 6.01750 5.30325
#
# Compressibility (1/GPa) = 0.05807113
#
# Stress axis : x y z
#
# Youngs Moduli (GPa) = 52.68045 41.48328 116.18928
#
# Poissons Ratio (x) = -0.23791 0.03628
# Poissons Ratio (y) = -0.30213 0.25966
# Poissons Ratio (z) = 0.01645 0.09271
#
# Static dielectric constant tensor:
#      x y z
#    x 2.025590 -0.052380 0.066190 
#    y -0.052380 2.098340 0.093210 
#    z 0.066190 0.093210 1.952150 
# 
# From -- ./inp_files/201706.got.cif
#   From: 2010.05.17/outbox.cif.g08.bks.cpg/sg2_101_cif.got.tgz:201706.got - 2010.06.03 11:33:40.
