data_PCOD9087711
_publ_section_title
;
Structure prediction by ZEFSAII (Michael W. Deem and Ramdas Pophale) SiO2 
 PCOD9087711
Probable space group: P -1
;
_chemical_formula_sum "Si O2"
_cell_formula_units_Z 16
_cell_length_a 9.370705
_cell_length_b 9.729443
_cell_length_c 10.727141
_cell_angle_alpha 92.138404
_cell_angle_beta 81.701727
_cell_angle_gamma 135.036948
_cell_volume 680.933616
_symmetry_space_group_name_H-M "P -1"
_symmetry_group_IT_number 2
_symmetry_cell_setting 'triclinic'
loop_
_space_group_symop_operation_xyz
x,y,z
-x,-y,-z
loop_
_atom_site_type_symbol
_atom_site_label
_atom_site_fract_x
_atom_site_fract_y
_atom_site_fract_z
Si Si1 0.362930 0.359213 0.314919
Si Si2 0.215420 0.483217 0.688361
Si Si3 0.235504 0.981721 0.745871
Si Si4 0.039977 0.947582 0.302688
Si Si5 0.066220 0.482158 0.238380
Si Si6 0.358050 0.665390 0.423031
Si Si7 0.906674 0.082941 0.977035
Si Si8 0.704653 0.560457 0.933793
O O1 0.587499 0.450092 0.269942
O O2 0.384302 0.517451 0.389930
O O3 0.262916 0.331691 0.194533
O O4 0.207419 0.136219 0.374866
O O5 0.066661 0.479146 0.786070
O O6 0.309551 0.641485 0.572883
O O7 0.081836 0.267423 0.640829
O O8 0.445086 0.123302 0.647992
O O9 0.125050 0.048671 0.718069
O O10 0.089283 0.751702 0.735771
O O11 0.256099 0.998955 0.895691
O O12 0.148667 0.963423 0.162045
O O13 0.166184 0.581584 0.361991
O O14 0.258974 0.567741 0.130182
O O15 0.112033 0.308399 0.986249
O O16 0.000000 0.000000 0.000000
O O17 0.500000 0.500000 0.000000
#
# Coordination Sequence:
#
# PCOD9087711 Si02
#       8
#     2   2   2   2   2   2   2   2
#     4  11  22  37  60  94 121 164 210 251 310 363
#     4  12  26  40  60  93 133 160 207 264 317 356
#     4  10  20  40  66  90 122 157 218 257 294 375
#     4  11  21  38  63  94 128 160 205 266 305 363
#     4  10  24  43  61  93 125 163 209 257 313 370
#     4  11  23  41  66  89 118 175 217 251 300 376
#     4   9  17  34  60  93 116 153 200 258 301 349
#     4  10  19  36  66  90 115 162 212 249 297 379
#
# _framework density 23.497150999999999
#
# number of rings (size 3 to 8) (size 9 to 14) (size 15 to 20)
#    0.000    1.500    6.250    1.500    5.250    3.000 
#    0.000    5.625    0.000    4.500    0.000    0.000 
#    0.000    0.000    0.000    0.000    0.000    0.000 
#
# Total GULP energy -89187.730946 kJ/mol
# GULP energy per Si atom -5574.233184 kJ/mol
# Density = 2.344367 g / cm^3
# Si number density = 23.497151 Si / 1000 Ang^3
#
#
#
# Elastic Constant Matrix: (Units=GPa)
#
#
# Indices 1 2 3 4 5 6 
#
# 1 124.2714 27.4408 17.8229 -2.7542 -17.4279 -0.7274
# 2 27.4408 85.3021 -1.2450 -17.2678 -13.3533 9.5734
# 3 17.8229 -1.2450 56.0273 -14.5567 -11.6663 4.6324
# 4 -2.7542 -17.2678 -14.5567 25.7315 5.6431 -2.5415
# 5 -17.4279 -13.3533 -11.6663 5.6431 24.3188 -5.1504
# 6 -0.7274 9.5734 4.6324 -2.5415 -5.1504 22.2923
#
#
#
# Elastic Compliance Matrix: (Units=1/GPa)
#
#
# Indices 1 2 3 4 5 6 
#
# 1 0.010024 -0.003710 -0.003583 -0.004235 0.005123 0.003366
# 2 -0.003710 0.017233 0.006646 0.013083 0.005664 -0.006103
# 3 -0.003583 0.006646 0.025500 0.016174 0.008622 -0.004434
# 4 -0.004235 0.013083 0.016174 0.056437 -0.001847 -0.003110
# 5 0.005123 0.005664 0.008622 -0.001847 0.054216 0.008259
# 6 0.003366 -0.006103 -0.004434 -0.003110 0.008259 0.050064
#
#
# Mechanical properties :
#
#
# Convention : Reuss Voigt Hill
#
# Bulk Modulus (GPa) = 19.43099 39.29315 29.36207
# Shear Modulus (GPa) = 21.55883 29.24066 25.39975
#
# Velocity S-wave (km/s) = 3.03233 3.53148 3.29138
# Velocity P-wave (km/s) = 4.53293 5.77817 5.19301
#
# Compressibility (1/GPa) = 0.05146418
#
# Stress axis : x y z
#
# Youngs Moduli (GPa) = 99.75681 58.02658 39.21555
#
# Poissons Ratio (x) = 0.21528 0.14051
# Poissons Ratio (y) = 0.37010 -0.26064
# Poissons Ratio (z) = 0.35744 -0.38566
#
# Static dielectric constant tensor:
#      x y z
#    x 1.882380 0.012130 -0.038910 
#    y 0.012130 2.094570 0.044410 
#    z -0.038910 0.044410 2.005990 
# 
# From -- ./inp_files/307046.got.cif
#   From: 2010.05.17/outbox.cif.g08.bks.cpg/sg2_154_cif.got.tgz:307046.got - 2010.06.03 11:33:40.
