data_PCOD9087696
_publ_section_title
;
Structure prediction by ZEFSAII (Michael W. Deem and Ramdas Pophale) SiO2 
 PCOD9087696
Probable space group: P -1
;
_chemical_formula_sum "Si O2"
_cell_formula_units_Z 11
_cell_length_a 11.954431
_cell_length_b 10.154435
_cell_length_c 9.226785
_cell_angle_alpha 74.286254
_cell_angle_beta 53.330300
_cell_angle_gamma 37.766988
_cell_volume 501.916087
_symmetry_space_group_name_H-M "P -1"
_symmetry_group_IT_number 2
_symmetry_cell_setting 'triclinic'
loop_
_space_group_symop_operation_xyz
x,y,z
-x,-y,-z
loop_
_atom_site_type_symbol
_atom_site_label
_atom_site_fract_x
_atom_site_fract_y
_atom_site_fract_z
Si Si1 0.180925 0.144127 0.439600
Si Si2 0.960665 0.022387 0.265891
Si Si3 0.500000 0.000000 0.500000
Si Si4 0.669191 0.381882 0.138638
Si Si5 0.629008 0.645687 0.679546
Si Si6 0.388868 0.858892 0.105300
O O1 0.318518 0.108884 0.472394
O O2 0.913894 0.414833 0.544340
O O3 0.322048 0.034181 0.211612
O O4 0.154973 0.003851 0.541612
O O5 0.772912 0.265917 0.250960
O O6 0.143621 0.972123 0.226098
O O7 0.119070 0.817893 0.081308
O O8 0.469872 0.187417 0.426658
O O9 0.462257 0.437581 0.245109
O O10 0.572334 0.609852 0.117822
O O11 0.503514 0.798193 0.878838
#
# Coordination Sequence:
#
# PCOD9087696 Si02
#       6
#     2   2   1   2   2   2
#     4  12  24  43  65  94 128 168 212 257 309 380
#     4  10  19  36  65  99 131 157 199 259 325 372
#     4  12  28  46  64  86 128 184 214 246 310 372
#     4  10  19  37  68 100 127 160 198 263 330 370
#     4  11  23  45  65  90 132 167 209 260 308 376
#     4  11  23  39  70 101 123 157 207 269 326 364
#
# _framework density 21.916015000000002
#
# number of rings (size 3 to 8) (size 9 to 14) (size 15 to 20)
#    0.000    1.091    5.455    2.182    0.000    2.909 
#    0.000    1.818    0.000    0.000    0.000    0.000 
#    0.000    0.000    0.000    0.000    0.000    0.000 
#
# Total GULP energy -61309.346781 kJ/mol
# GULP energy per Si atom -5573.576980 kJ/mol
# Density = 2.186613 g / cm^3
# Si number density = 21.916015 Si / 1000 Ang^3
#
#
#
# Elastic Constant Matrix: (Units=GPa)
#
#
# Indices 1 2 3 4 5 6 
#
# 1 58.3149 37.8905 29.7867 18.7919 7.0471 -19.9591
# 2 37.8905 31.8784 25.6741 -23.5578 -4.0894 -32.0501
# 3 29.7867 25.6741 55.7464 4.0584 -0.0432 -17.6459
# 4 18.7919 -23.5578 4.0584 27.0360 1.1122 -1.7003
# 5 7.0471 -4.0894 -0.0432 1.1122 13.7942 -8.2558
# 6 -19.9591 -32.0501 -17.6459 -1.7003 -8.2558 31.5340
#
#
#
# Elastic Compliance Matrix: (Units=1/GPa)
#
#
# Indices 1 2 3 4 5 6 
#
# 1 0.017558 0.015701 -0.009002 0.003974 0.010259 0.024934
# 2 0.015701 -0.012770 -0.004470 -0.021378 -0.016726 -0.011075
# 3 -0.009002 -0.004470 0.027083 -0.001587 0.007561 0.006809
# 4 0.003974 -0.021378 -0.001587 0.015242 -0.025068 -0.025842
# 5 0.010259 -0.016726 0.007561 -0.025068 0.070882 0.010931
# 6 0.024934 -0.011075 0.006809 -0.025842 0.010931 0.041516
#
#
# Mechanical properties :
#
#
# Convention : Reuss Voigt Hill
#
# Bulk Modulus (GPa) = 27.52590 36.96025 32.24308
# Shear Modulus (GPa) = 29.91084 17.97875 23.94479
#
# Velocity S-wave (km/s) = 3.69832 2.86728 3.30899
# Velocity P-wave (km/s) = 5.55191 5.27852 5.41694
#
# Compressibility (1/GPa) = 0.03632942
#
# Stress axis : x y z
#
# Youngs Moduli (GPa) = 56.95305 -78.30594 36.92289
#
# Poissons Ratio (x) = 1.22945 0.33237
# Poissons Ratio (y) = -0.89420 0.16505
# Poissons Ratio (z) = 0.51267 -0.35003
#
# Static dielectric constant tensor:
#      x y z
#    x 1.723020 -0.032440 0.000660 
#    y -0.032440 1.708500 0.008620 
#    z 0.000660 0.008620 1.827150 
# 
# From -- ./inp_files/148733.got.cif
#   From: 2010.05.17/outbox.cif.g08.bks.cpg/sg2_75_cif.got.tgz:148733.got - 2010.06.03 11:33:40.
