data_PCOD9087052
_publ_section_title
;
Structure prediction by ZEFSAII (Michael W. Deem and Ramdas Pophale) SiO2 
 PCOD9087052
Probable space group: P -1
;
_chemical_formula_sum "Si O2"
_cell_formula_units_Z 12
_cell_length_a 12.392564
_cell_length_b 5.485129
_cell_length_c 14.104505
_cell_angle_alpha 101.212343
_cell_angle_beta 146.954018
_cell_angle_gamma 77.214402
_cell_volume 509.783039
_symmetry_space_group_name_H-M "P -1"
_symmetry_group_IT_number 2
_symmetry_cell_setting 'triclinic'
loop_
_space_group_symop_operation_xyz
x,y,z
-x,-y,-z
loop_
_atom_site_type_symbol
_atom_site_label
_atom_site_fract_x
_atom_site_fract_y
_atom_site_fract_z
Si Si1 0.404033 0.065628 0.035294
Si Si2 0.995984 0.558217 0.612439
Si Si3 0.928576 0.115599 0.659793
Si Si4 0.901351 0.282422 0.966196
Si Si5 0.613653 0.243400 0.600452
Si Si6 0.318750 0.593886 0.006530
O O1 0.446465 0.341565 0.114794
O O2 0.163565 0.095685 0.854948
O O3 0.500000 0.000000 0.000000
O O4 0.446468 0.826756 0.114794
O O5 0.217426 0.554051 0.825545
O O6 0.000000 0.500000 0.500000
O O7 0.896054 0.340572 0.577402
O O8 0.896051 0.840750 0.577406
O O9 0.801727 0.181654 0.665033
O O10 0.684621 0.288628 0.761877
O O11 0.869490 0.343936 0.057364
O O12 0.000000 0.500000 0.000000
O O13 0.000000 0.000000 0.000000
O O14 0.500000 0.500000 0.500000
O O15 0.500000 0.000000 0.500000
#
# Coordination Sequence:
#
# PCOD9087052 Si02
#       6
#     2   2   2   2   2   2
#     4  10  20  38  62  89 124 165 214 277 331 386
#     4  10  19  36  61  90 123 169 215 267 329 392
#     4  10  21  40  62  89 126 169 216 270 330 399
#     4  12  23  43  74 102 133 182 232 287 346 406
#     4  12  26  46  69 103 142 182 228 283 346 416
#     4  10  21  37  58  93 126 161 213 272 328 395
#
# _framework density 23.539422999999999
#
# number of rings (size 3 to 8) (size 9 to 14) (size 15 to 20)
#    0.000    1.333    0.000    8.000    0.000    0.000 
#    0.000   20.000    0.000    0.000    0.000    0.000 
#    0.000    0.000    0.000    0.000    0.000    0.000 
#
# Total GULP energy -67104.093633 kJ/mol
# GULP energy per Si atom -5592.007803 kJ/mol
# Density = 2.348585 g / cm^3
# Si number density = 23.539423 Si / 1000 Ang^3
#
#
#
# Elastic Constant Matrix: (Units=GPa)
#
#
# Indices 1 2 3 4 5 6 
#
# 1 124.5959 48.3839 8.8838 4.7189 5.7949 8.7994
# 2 48.3839 246.6703 12.7797 8.5774 4.0581 31.8947
# 3 8.8838 12.7797 72.3773 1.6978 -10.2663 2.9706
# 4 4.7189 8.5774 1.6978 19.8404 -4.8440 7.4918
# 5 5.7949 4.0581 -10.2663 -4.8440 37.8018 2.3048
# 6 8.7994 31.8947 2.9706 7.4918 2.3048 59.1673
#
#
#
# Elastic Compliance Matrix: (Units=1/GPa)
#
#
# Indices 1 2 3 4 5 6 
#
# 1 0.008863 -0.001583 -0.001000 -0.001695 -0.001669 -0.000135
# 2 -0.001583 0.004710 -0.000586 -0.000899 -0.000407 -0.002144
# 3 -0.001000 -0.000586 0.014660 0.000472 0.004289 -0.000498
# 4 -0.001695 -0.000899 0.000472 0.055619 0.008016 -0.006642
# 5 -0.001669 -0.000407 0.004289 0.008016 0.029061 -0.001895
# 6 -0.000135 -0.002144 -0.000498 -0.006642 -0.001895 0.019017
#
#
# Mechanical properties :
#
#
# Convention : Reuss Voigt Hill
#
# Bulk Modulus (GPa) = 45.66977 64.85979 55.26478
# Shear Modulus (GPa) = 34.34855 48.26831 41.30843
#
# Velocity S-wave (km/s) = 3.82408 4.53319 4.19365
# Velocity P-wave (km/s) = 6.24032 7.41709 6.85401
#
# Compressibility (1/GPa) = 0.02189632
#
# Stress axis : x y z
#
# Youngs Moduli (GPa) = 112.82518 212.31126 68.21119
#
# Poissons Ratio (x) = 0.33606 0.06820
# Poissons Ratio (y) = 0.17859 0.03997
# Poissons Ratio (z) = 0.11281 0.12440
#
# Static dielectric constant tensor:
#      x y z
#    x 2.175310 0.271260 -0.298400 
#    y 0.271260 2.893480 0.131760 
#    z -0.298400 0.131760 2.388990 
# 
# From -- ./inp_files/23421.got.cif
#   From: 2010.05.17/outbox.cif.g08.bks.cpg/sg2_12_cif.got.tgz:23421.got - 2010.06.03 11:33:40.
