data_PCOD9087761
_publ_section_title
;
Structure prediction by ZEFSAII (Michael W. Deem and Ramdas Pophale) SiO2 
 PCOD9087761
Probable space group: P -1
;
_chemical_formula_sum "Si O2"
_cell_formula_units_Z 14
_cell_length_a 16.846735
_cell_length_b 11.801349
_cell_length_c 9.659130
_cell_angle_alpha 44.272007
_cell_angle_beta 26.891090
_cell_angle_gamma 40.417682
_cell_volume 558.640370
_symmetry_space_group_name_H-M "P -1"
_symmetry_group_IT_number 2
_symmetry_cell_setting 'triclinic'
loop_
_space_group_symop_operation_xyz
x,y,z
-x,-y,-z
loop_
_atom_site_type_symbol
_atom_site_label
_atom_site_fract_x
_atom_site_fract_y
_atom_site_fract_z
Si Si1 0.690619 0.938622 0.170867
Si Si2 0.366480 0.889951 0.344165
Si Si3 0.260217 0.325997 0.931041
Si Si4 0.970946 0.782816 0.367272
Si Si5 0.045082 0.328624 0.817148
Si Si6 0.808632 0.167775 0.613078
Si Si7 0.724458 0.432146 0.725069
O O1 0.726829 0.790128 0.124668
O O2 0.867097 0.852768 0.076432
O O3 0.500000 0.000000 0.500000
O O4 0.667507 0.116859 0.974580
O O5 0.519734 0.724793 0.327694
O O6 0.277805 0.832205 0.401265
O O7 0.177621 0.017915 0.605358
O O8 0.500000 0.000000 0.000000
O O9 0.150248 0.270847 0.277465
O O10 0.134447 0.532138 0.945191
O O11 0.001058 0.689443 0.254474
O O12 0.175343 0.716847 0.182900
O O13 0.207232 0.409729 0.492647
O O14 0.815402 0.340611 0.518849
O O15 0.000000 0.000000 0.500000
O O16 0.500000 0.500000 0.000000
#
# Coordination Sequence:
#
# PCOD9087761 Si02
#       7
#     2   2   2   2   2   2   2
#     4  12  24  41  68 100 133 176 222 268 331 401
#     4  10  19  36  67  93 122 167 236 260 304 391
#     4  10  20  37  65  93 123 168 228 265 308 386
#     4  10  20  40  63  96 125 176 227 263 313 405
#     4  11  24  41  66  99 133 169 222 276 328 389
#     4  12  23  43  67 100 131 175 220 277 330 387
#     4  11  23  36  62  96 135 164 215 273 330 377
#
# _framework density 25.060846999999999
#
# number of rings (size 3 to 8) (size 9 to 14) (size 15 to 20)
#    0.000    1.143    4.286    4.714    8.000    0.000 
#    0.000    0.714    3.143    1.714    0.000    0.000 
#    0.000    0.000    0.000    0.000    0.000    0.000 
#
# Total GULP energy -78261.533718 kJ/mol
# GULP energy per Si atom -5590.109551 kJ/mol
# Density = 2.500381 g / cm^3
# Si number density = 25.060847 Si / 1000 Ang^3
#
#
#
# Elastic Constant Matrix: (Units=GPa)
#
#
# Indices 1 2 3 4 5 6 
#
# 1 200.9826 47.1476 56.3176 32.0970 -10.2750 16.8734
# 2 47.1476 90.6280 41.2306 42.2968 -6.0865 -2.5803
# 3 56.3176 41.2306 88.3405 32.9397 -8.7079 -3.5115
# 4 32.0970 42.2968 32.9397 42.2066 -8.3194 -9.8104
# 5 -10.2750 -6.0865 -8.7079 -8.3194 53.0519 15.8075
# 6 16.8734 -2.5803 -3.5115 -9.8104 15.8075 48.4937
#
#
#
# Elastic Compliance Matrix: (Units=1/GPa)
#
#
# Indices 1 2 3 4 5 6 
#
# 1 0.006807 -0.001139 -0.002963 -0.002273 0.001406 -0.003562
# 2 -0.001139 0.021846 -0.002150 -0.020020 -0.000463 -0.002496
# 3 -0.002963 -0.002150 0.017740 -0.009290 0.000596 0.000127
# 4 -0.002273 -0.020020 -0.009290 0.055298 0.001505 0.009749
# 5 0.001406 -0.000463 0.000596 0.001505 0.021545 -0.007189
# 6 -0.003562 -0.002496 0.000127 0.009749 -0.007189 0.026053
#
#
# Mechanical properties :
#
#
# Convention : Reuss Voigt Hill
#
# Bulk Modulus (GPa) = 29.50821 74.37141 51.93981
# Shear Modulus (GPa) = 28.88681 44.43413 36.66047
#
# Velocity S-wave (km/s) = 3.39878 4.21533 3.82888
# Velocity P-wave (km/s) = 5.21560 7.30977 6.34961
#
# Compressibility (1/GPa) = 0.03388888
#
# Stress axis : x y z
#
# Youngs Moduli (GPa) = 146.90575 45.77444 56.36938
#
# Poissons Ratio (x) = 0.05215 0.16704
# Poissons Ratio (y) = 0.16737 0.12118
# Poissons Ratio (z) = 0.43532 0.09840
#
# Static dielectric constant tensor:
#      x y z
#    x 2.031590 -0.008740 0.016820 
#    y -0.008740 2.156110 -0.094400 
#    z 0.016820 -0.094400 2.118020 
# 
# From -- ./inp_files/242757.got.cif
#   From: 2010.05.17/outbox.cif.g08.bks.cpg/sg2_122_cif.got.tgz:242757.got - 2010.06.03 11:33:40.
