data_PCOD9087371
_publ_section_title
;
Structure prediction by ZEFSAII (Michael W. Deem and Ramdas Pophale) SiO2 
 PCOD9087371
Probable space group: P -1
;
_chemical_formula_sum "Si O2"
_cell_formula_units_Z 16
_cell_length_a 9.830020
_cell_length_b 22.252720
_cell_length_c 12.731908
_cell_angle_alpha 141.697816
_cell_angle_beta 47.119403
_cell_angle_gamma 154.418858
_cell_volume 741.446512
_symmetry_space_group_name_H-M "P -1"
_symmetry_group_IT_number 2
_symmetry_cell_setting 'triclinic'
loop_
_space_group_symop_operation_xyz
x,y,z
-x,-y,-z
loop_
_atom_site_type_symbol
_atom_site_label
_atom_site_fract_x
_atom_site_fract_y
_atom_site_fract_z
Si Si1 0.731255 0.821552 0.347389
Si Si2 0.756358 0.649078 0.985449
Si Si3 0.230548 0.326896 0.465583
Si Si4 0.522894 0.107389 0.539153
Si Si5 0.690009 0.503910 0.176305
Si Si6 0.927015 0.514187 0.671236
Si Si7 0.634167 0.160615 0.793385
Si Si8 0.567031 0.306255 0.164460
O O1 0.551742 0.817837 0.357553
O O2 0.442730 0.664458 0.356739
O O3 0.898991 0.801232 0.177172
O O4 0.000000 0.000000 0.500000
O O5 0.576789 0.616017 0.934180
O O6 0.963847 0.646364 0.837321
O O7 0.500000 0.500000 0.000000
O O8 0.500000 0.500000 0.500000
O O9 0.316624 0.389982 0.625959
O O10 0.273249 0.236039 0.279449
O O11 0.887951 0.230038 0.496618
O O12 0.463163 0.086760 0.667794
O O13 0.332333 0.941328 0.351303
O O14 0.653666 0.409731 0.158826
O O15 0.029298 0.645223 0.136722
O O16 0.000000 0.500000 0.500000
O O17 0.152420 0.573941 0.731124
O O18 0.494044 0.167622 0.968736
#
# Coordination Sequence:
#
# PCOD9087371 Si02
#       8
#     2   2   2   2   2   2   2   2
#     4  11  24  41  66  89 129 173 212 258 321 381
#     4  10  22  38  63  95 126 167 219 260 311 383
#     4   9  19  35  58  85 113 156 199 257 308 369
#     4  10  22  38  58  92 127 156 205 259 322 360
#     4  10  19  36  63  88 119 161 215 256 307 367
#     4  11  24  43  67  96 131 167 215 265 320 384
#     4  10  20  34  61  91 124 153 202 268 310 366
#     4  11  21  37  67  90 121 163 214 255 315 373
#
# _framework density 21.579439000000001
#
# number of rings (size 3 to 8) (size 9 to 14) (size 15 to 20)
#    0.000    1.750    0.000    5.625    5.250    1.500 
#    2.250    0.625    5.500    0.000    0.000    0.000 
#    0.000    0.000    0.000    0.000    0.000    0.000 
#
# Total GULP energy -89214.083203 kJ/mol
# GULP energy per Si atom -5575.880200 kJ/mol
# Density = 2.153032 g / cm^3
# Si number density = 21.579439 Si / 1000 Ang^3
#
#
#
# Elastic Constant Matrix: (Units=GPa)
#
#
# Indices 1 2 3 4 5 6 
#
# 1 95.9344 22.1880 54.9525 0.9374 10.8221 -0.5469
# 2 22.1880 47.5587 21.3124 -3.7872 0.5411 5.8357
# 3 54.9525 21.3124 180.2610 -19.8531 -15.3768 3.4959
# 4 0.9374 -3.7872 -19.8531 32.2697 3.1383 -1.3086
# 5 10.8221 0.5411 -15.3768 3.1383 35.1024 4.4170
# 6 -0.5469 5.8357 3.4959 -1.3086 4.4170 19.1750
#
#
#
# Elastic Compliance Matrix: (Units=1/GPa)
#
#
# Indices 1 2 3 4 5 6 
#
# 1 0.015570 -0.005702 -0.005153 -0.003403 -0.007238 0.004554
# 2 -0.005702 0.025121 -0.000675 0.002192 0.001882 -0.007969
# 3 -0.005153 -0.000675 0.008172 0.004513 0.005063 -0.002290
# 4 -0.003403 0.002192 0.004513 0.034169 -0.000161 0.000782
# 5 -0.007238 0.001882 0.005063 -0.000161 0.034128 -0.009575
# 6 0.004554 -0.007969 -0.002290 0.000782 -0.009575 0.057383
#
#
# Mechanical properties :
#
#
# Convention : Reuss Voigt Hill
#
# Bulk Modulus (GPa) = 38.75778 57.85112 48.30445
# Shear Modulus (GPa) = 24.24797 32.32948 28.28872
#
# Velocity S-wave (km/s) = 3.35574 3.87481 3.62458
# Velocity P-wave (km/s) = 5.74580 6.84730 6.32059
#
# Compressibility (1/GPa) = 0.02580127
#
# Stress axis : x y z
#
# Youngs Moduli (GPa) = 64.22565 39.80804 122.37630
#
# Poissons Ratio (x) = 0.22700 0.63060
# Poissons Ratio (y) = 0.36624 0.08262
# Poissons Ratio (z) = 0.33095 0.02688
#
# Static dielectric constant tensor:
#      x y z
#    x 1.927930 -0.013650 -0.010020 
#    y -0.013650 1.968710 -0.166690 
#    z -0.010020 -0.166690 2.031310 
# 
# From -- ./inp_files/405565.got.cif
#   From: 2010.05.17/outbox.cif.g08.bks.cpg/sg2_203_cif.got.tgz:405565.got - 2010.06.03 11:33:40.
