data_PCOD9087611
_publ_section_title
;
Structure prediction by ZEFSAII (Michael W. Deem and Ramdas Pophale) SiO2 
 PCOD9087611
Probable space group: P -1
;
_chemical_formula_sum "Si O2"
_cell_formula_units_Z 16
_cell_length_a 9.625281
_cell_length_b 5.417663
_cell_length_c 29.608712
_cell_angle_alpha 85.222603
_cell_angle_beta 30.469127
_cell_angle_gamma 83.671329
_cell_volume 777.936242
_symmetry_space_group_name_H-M "P -1"
_symmetry_group_IT_number 2
_symmetry_cell_setting 'triclinic'
loop_
_space_group_symop_operation_xyz
x,y,z
-x,-y,-z
loop_
_atom_site_type_symbol
_atom_site_label
_atom_site_fract_x
_atom_site_fract_y
_atom_site_fract_z
Si Si1 0.939623 0.157751 0.780377
Si Si2 0.453053 0.165028 0.055626
Si Si3 0.305606 0.620782 0.834116
Si Si4 0.887574 0.504093 0.710163
Si Si5 0.907810 0.494017 0.200378
Si Si6 0.687615 0.230722 0.354774
Si Si7 0.027455 0.130629 0.941810
Si Si8 0.346822 0.268321 0.526682
O O1 0.810022 0.365873 0.780090
O O2 0.046535 0.234416 0.798154
O O3 0.706712 0.976383 0.858438
O O4 0.214332 0.051373 0.679519
O O5 0.222042 0.384178 0.106037
O O6 0.500000 0.000000 0.000000
O O7 0.740261 0.219748 0.996509
O O8 0.619680 0.630249 0.760449
O O9 0.263064 0.546697 0.795274
O O10 0.159733 0.894635 0.879623
O O11 0.189009 0.381282 0.895740
O O12 0.097308 0.691089 0.668675
O O13 0.047623 0.318526 0.632111
O O14 0.761170 0.370921 0.286164
O O15 0.391740 0.279875 0.459675
O O16 0.000000 0.000000 0.000000
O O17 0.500000 0.500000 0.500000
O O18 0.500000 0.000000 0.500000
#
# Coordination Sequence:
#
# PCOD9087611 Si02
#       8
#     2   2   2   2   2   2   2   2
#     4  10  20  36  63  86 119 157 210 259 302 357
#     4  11  22  39  60  84 117 163 214 254 300 356
#     4  12  27  43  61  90 129 165 201 252 321 367
#     4  10  22  38  63  92 124 160 199 256 313 365
#     4  10  23  39  61  89 123 167 206 254 306 371
#     4   9  20  38  64  94 120 158 207 254 302 364
#     4  12  28  43  62  89 124 162 212 261 308 363
#     4  10  19  36  64  97 123 153 204 252 303 365
#
# _framework density 20.567238
#
# number of rings (size 3 to 8) (size 9 to 14) (size 15 to 20)
#    0.000    1.500    2.500    1.875   10.500    1.000 
#    0.000    0.625    0.000    0.750    0.000    0.000 
#    0.000    0.000    0.000    0.000    0.000    0.000 
#
# Total GULP energy -89172.914395 kJ/mol
# GULP energy per Si atom -5573.307150 kJ/mol
# Density = 2.052043 g / cm^3
# Si number density = 20.567238 Si / 1000 Ang^3
#
#
#
# Elastic Constant Matrix: (Units=GPa)
#
#
# Indices 1 2 3 4 5 6 
#
# 1 91.4298 -5.6434 24.6896 6.3782 2.7822 -6.4136
# 2 -5.6434 56.5784 3.1793 4.9356 3.1652 0.2125
# 3 24.6896 3.1793 45.3080 0.3065 25.0553 -0.2417
# 4 6.3782 4.9356 0.3065 23.4127 7.5539 10.3643
# 5 2.7822 3.1652 25.0553 7.5539 28.7087 2.2610
# 6 -6.4136 0.2125 -0.2417 10.3643 2.2610 24.6725
#
#
#
# Elastic Compliance Matrix: (Units=1/GPa)
#
#
# Indices 1 2 3 4 5 6 
#
# 1 0.017693 0.003144 -0.020105 -0.015305 0.018797 0.009082
# 2 0.003144 0.018697 -0.004987 -0.007416 0.003671 0.003386
# 3 -0.020105 -0.004987 0.069304 0.032042 -0.065475 -0.011964
# 4 -0.015305 -0.007416 0.032042 0.075907 -0.043153 -0.031533
# 5 0.018797 0.003671 -0.065475 -0.043153 0.100067 0.013170
# 6 0.009082 0.003386 -0.011964 -0.031533 0.013170 0.054784
#
#
# Mechanical properties :
#
#
# Convention : Reuss Voigt Hill
#
# Bulk Modulus (GPa) = 16.18154 26.41857 21.30006
# Shear Modulus (GPa) = 12.47046 26.76482 19.61764
#
# Velocity S-wave (km/s) = 2.46504 3.61131 3.09176
# Velocity P-wave (km/s) = 3.99833 5.50106 4.80875
#
# Compressibility (1/GPa) = 0.06179881
#
# Stress axis : x y z
#
# Youngs Moduli (GPa) = 56.51883 53.48370 14.42921
#
# Poissons Ratio (x) = -0.16815 0.29010
# Poissons Ratio (y) = -0.17769 0.07196
# Poissons Ratio (z) = 1.13630 0.26672
#
# Static dielectric constant tensor:
#      x y z
#    x 1.714380 -0.004730 0.051980 
#    y -0.004730 1.861970 -0.005260 
#    z 0.051980 -0.005260 1.807970 
# 
# From -- ./inp_files/43333.got.cif
#   From: 2010.05.17/outbox.cif.g08.bks.cpg/sg2_22_cif.got.tgz:43333.got - 2010.06.03 11:33:40.
