data_PCOD9087776
_publ_section_title
;
Structure prediction by ZEFSAII (Michael W. Deem and Ramdas Pophale) SiO2 
 PCOD9087776
Probable space group: P -1
;
_chemical_formula_sum "Si O2"
_cell_formula_units_Z 16
_cell_length_a 8.963881
_cell_length_b 14.181516
_cell_length_c 19.680394
_cell_angle_alpha 158.934335
_cell_angle_beta 90.823970
_cell_angle_gamma 77.596650
_cell_volume 744.753580
_symmetry_space_group_name_H-M "P -1"
_symmetry_group_IT_number 2
_symmetry_cell_setting 'triclinic'
loop_
_space_group_symop_operation_xyz
x,y,z
-x,-y,-z
loop_
_atom_site_type_symbol
_atom_site_label
_atom_site_fract_x
_atom_site_fract_y
_atom_site_fract_z
Si Si1 0.538182 0.251220 0.644121
Si Si2 0.317662 0.616282 0.384892
Si Si3 0.842834 0.245925 0.718022
Si Si4 0.136682 0.775173 0.001577
Si Si5 0.037088 0.020613 0.308957
Si Si6 0.832752 0.690481 0.922910
Si Si7 0.029047 0.643070 0.705126
Si Si8 0.703616 0.184287 0.157553
O O1 0.647453 0.171311 0.521082
O O2 0.660143 0.278802 0.718453
O O3 0.500000 0.000000 0.500000
O O4 0.344776 0.576224 0.849500
O O5 0.176859 0.812020 0.574373
O O6 0.230926 0.475976 0.241499
O O7 0.509261 0.342344 0.230958
O O8 0.817631 0.574940 0.918813
O O9 0.000000 0.000000 0.500000
O O10 0.891672 0.131033 0.718178
O O11 0.122549 0.781172 0.086509
O O12 0.035330 0.132958 0.211919
O O13 0.033174 0.616824 0.867509
O O14 0.060691 0.304176 0.481433
O O15 0.708423 0.057126 0.147594
O O16 0.214352 0.605275 0.701562
O O17 0.860919 0.874703 0.909491
#
# Coordination Sequence:
#
# PCOD9087776 Si02
#       8
#     2   2   2   2   2   2   2   2
#     4  11  24  40  68  91 124 167 214 263 304 386
#     4  11  22  38  67  95 119 168 216 260 310 371
#     4  11  21  40  63  93 122 162 214 258 316 366
#     4  11  25  43  62  95 132 167 209 258 328 366
#     4  12  25  40  64  95 134 169 200 266 322 375
#     4  10  21  39  62  90 127 165 209 270 298 374
#     4  10  21  39  65  93 134 163 209 264 312 368
#     4  10  19  36  67  98 116 165 226 258 297 370
#
# _framework density 21.483616000000001
#
# number of rings (size 3 to 8) (size 9 to 14) (size 15 to 20)
#    0.000    1.250    5.000    1.500    1.750    1.000 
#    0.000    5.000    0.000    0.000    0.000    0.000 
#    0.000    0.000    0.000    0.000    0.000    0.000 
#
# Total GULP energy -89279.640177 kJ/mol
# GULP energy per Si atom -5579.977511 kJ/mol
# Density = 2.143472 g / cm^3
# Si number density = 21.483616 Si / 1000 Ang^3
#
#
#
# Elastic Constant Matrix: (Units=GPa)
#
#
# Indices 1 2 3 4 5 6 
#
# 1 130.8082 49.8763 25.2714 16.6471 0.6055 -5.9564
# 2 49.8763 127.4062 20.8238 19.5255 8.9662 2.1937
# 3 25.2714 20.8238 20.9274 8.2432 6.0143 1.5817
# 4 16.6471 19.5255 8.2432 29.2029 7.7074 0.1402
# 5 0.6055 8.9662 6.0143 7.7074 18.7491 16.1454
# 6 -5.9564 2.1937 1.5817 0.1402 16.1454 42.6095
#
#
#
# Elastic Compliance Matrix: (Units=1/GPa)
#
#
# Indices 1 2 3 4 5 6 
#
# 1 0.011149 -0.002427 -0.011524 -0.003011 0.005801 -0.000077
# 2 -0.002427 0.010359 -0.005510 -0.003566 -0.001599 -0.000050
# 3 -0.011524 -0.005510 0.075441 -0.004945 -0.023184 0.004673
# 4 -0.003011 -0.003566 -0.004945 0.045655 -0.022568 0.008347
# 5 0.005801 -0.001599 -0.023184 -0.022568 0.102498 -0.037010
# 6 -0.000077 -0.000050 0.004673 0.008347 -0.037010 0.037284
#
#
# Mechanical properties :
#
#
# Convention : Reuss Voigt Hill
#
# Bulk Modulus (GPa) = 17.23323 52.34276 34.78800
# Shear Modulus (GPa) = 14.67782 30.32364 22.50073
#
# Velocity S-wave (km/s) = 2.61666 3.76104 3.23978
# Velocity P-wave (km/s) = 4.14346 6.57856 5.49753
#
# Compressibility (1/GPa) = 0.05802742
#
# Stress axis : x y z
#
# Youngs Moduli (GPa) = 89.69201 96.53211 13.25547
#
# Poissons Ratio (x) = 0.23424 0.15276
# Poissons Ratio (y) = 0.21764 0.07304
# Poissons Ratio (z) = 1.03364 0.53189
#
# Static dielectric constant tensor:
#      x y z
#    x 1.770060 -0.003170 0.023950 
#    y -0.003170 1.850640 0.031740 
#    z 0.023950 0.031740 1.784590 
# 
# From -- ./inp_files/590537.got.cif
#   From: 2010.05.17/outbox.cif.g08.bks.cpg/sg2_296_cif.got.tgz:590537.got - 2010.06.03 11:33:40.
