data_PCOD9087189
_publ_section_title
;
Structure prediction by ZEFSAII (Michael W. Deem and Ramdas Pophale) SiO2 
 PCOD9087189
Probable space group: P -1
;
_chemical_formula_sum "Si O2"
_cell_formula_units_Z 14
_cell_length_a 16.556854
_cell_length_b 19.169175
_cell_length_c 9.313668
_cell_angle_alpha 151.722469
_cell_angle_beta 150.217759
_cell_angle_gamma 21.938788
_cell_volume 500.985526
_symmetry_space_group_name_H-M "P -1"
_symmetry_group_IT_number 2
_symmetry_cell_setting 'triclinic'
loop_
_space_group_symop_operation_xyz
x,y,z
-x,-y,-z
loop_
_atom_site_type_symbol
_atom_site_label
_atom_site_fract_x
_atom_site_fract_y
_atom_site_fract_z
Si Si1 0.778103 0.139257 0.218416
Si Si2 0.538894 0.234168 0.311104
Si Si3 0.197952 0.682652 0.680946
Si Si4 0.955715 0.304039 0.125641
Si Si5 0.888680 0.647054 0.273907
Si Si6 0.210624 0.201767 0.042512
Si Si7 0.514007 0.246287 0.738695
O O1 0.822291 0.258634 0.411689
O O2 0.676194 0.222416 0.369819
O O3 0.601416 0.164344 0.887200
O O4 0.989461 0.898291 0.118176
O O5 0.345903 0.262149 0.980841
O O6 0.684395 0.022442 0.237634
O O7 0.401800 0.437831 0.561015
O O8 0.982764 0.738068 0.513507
O O9 0.281603 0.782797 0.061504
O O10 0.041710 0.274775 0.045658
O O11 0.102373 0.318033 0.480919
O O12 0.701950 0.511168 0.137616
O O13 0.072510 0.399780 0.086746
O O14 0.416745 0.169535 0.366221
#
# Coordination Sequence:
#
# PCOD9087189 Si02
#       7
#     2   2   2   2   2   2   2
#     4   9  20  38  58  86 110 147 191 229 280 331
#     4  11  21  41  60  79 117 154 188 230 273 342
#     4  10  24  39  54  88 118 150 185 227 292 331
#     4  10  19  36  62  88 108 147 193 233 281 330
#     4  11  22  38  60  83 118 147 188 236 278 336
#     4  10  21  37  62  88 105 150 198 227 280 334
#     4   9  19  37  55  86 115 140 185 239 277 326
#
# _framework density 27.944921000000001
#
# number of rings (size 3 to 8) (size 9 to 14) (size 15 to 20)
#    0.857    1.143    0.000    5.143    0.000    5.714 
#    5.143    1.429    0.000    0.000    0.000    0.000 
#    0.000    0.000    0.000    0.000    0.000    0.000 
#
# Total GULP energy -78526.145209 kJ/mol
# GULP energy per Si atom -5609.010372 kJ/mol
# Density = 2.788132 g / cm^3
# Si number density = 27.944921 Si / 1000 Ang^3
#
#
#
# Elastic Constant Matrix: (Units=GPa)
#
#
# Indices 1 2 3 4 5 6 
#
# 1 118.4287 17.9349 22.2636 -1.5635 24.7448 -5.6145
# 2 17.9349 120.0066 33.8848 8.9307 10.1585 29.6067
# 3 22.2636 33.8848 117.1387 -7.2026 25.8031 5.3148
# 4 -1.5635 8.9307 -7.2026 55.4199 7.6285 4.2988
# 5 24.7448 10.1585 25.8031 7.6285 49.3281 7.9094
# 6 -5.6145 29.6067 5.3148 4.2988 7.9094 25.4462
#
#
#
# Elastic Compliance Matrix: (Units=1/GPa)
#
#
# Indices 1 2 3 4 5 6 
#
# 1 0.010526 -0.002954 -0.000109 0.001001 -0.005967 0.007468
# 2 -0.002954 0.013729 -0.003540 -0.001944 0.003475 -0.016638
# 3 -0.000109 -0.003540 0.010871 0.002531 -0.005808 0.003202
# 4 0.001001 -0.001944 0.002531 0.019318 -0.004424 0.000065
# 5 -0.005967 0.003475 -0.005808 -0.004424 0.028224 -0.012172
# 6 0.007468 -0.016638 0.003202 0.000065 -0.012172 0.063408
#
#
# Mechanical properties :
#
#
# Convention : Reuss Voigt Hill
#
# Bulk Modulus (GPa) = 45.61981 55.97120 50.79551
# Shear Modulus (GPa) = 30.01392 44.80490 37.40941
#
# Velocity S-wave (km/s) = 3.28081 4.00850 3.66277
# Velocity P-wave (km/s) = 5.54184 6.44179 6.00869
#
# Compressibility (1/GPa) = 0.02192030
#
# Stress axis : x y z
#
# Youngs Moduli (GPa) = 95.00500 72.83788 91.98514
#
# Poissons Ratio (x) = 0.21517 0.01002
# Poissons Ratio (y) = 0.28065 0.32562
# Poissons Ratio (z) = 0.01035 0.25784
#
# Static dielectric constant tensor:
#      x y z
#    x 2.143020 0.018840 -0.010410 
#    y 0.018840 2.134240 -0.011050 
#    z -0.010410 -0.011050 2.170080 
# 
# From -- ./inp_files/180292.got.cif
#   From: 2010.05.17/outbox.cif.g08.bks.cpg/sg2_91_cif.got.tgz:180292.got - 2010.06.03 11:33:40.
