data_PCOD9087976
_publ_section_title
;
Structure prediction by ZEFSAII (Michael W. Deem and Ramdas Pophale) SiO2 
 PCOD9087976
Probable space group: P -1
;
_chemical_formula_sum "Si O2"
_cell_formula_units_Z 16
_cell_length_a 16.097275
_cell_length_b 8.901803
_cell_length_c 10.158423
_cell_angle_alpha 36.177076
_cell_angle_beta 44.961843
_cell_angle_gamma 60.480600
_cell_volume 596.341226
_symmetry_space_group_name_H-M "P -1"
_symmetry_group_IT_number 2
_symmetry_cell_setting 'triclinic'
loop_
_space_group_symop_operation_xyz
x,y,z
-x,-y,-z
loop_
_atom_site_type_symbol
_atom_site_label
_atom_site_fract_x
_atom_site_fract_y
_atom_site_fract_z
Si Si1 0.336343 0.533314 0.671481
Si Si2 0.010091 0.694297 0.231899
Si Si3 0.245019 0.972371 0.136252
Si Si4 0.280910 0.788113 0.808745
Si Si5 0.905528 0.810234 0.044816
Si Si6 0.133935 0.847520 0.604159
Si Si7 0.540982 0.253820 0.863179
Si Si8 0.309769 0.282870 0.269938
O O1 0.356641 0.700809 0.663421
O O2 0.218322 0.632699 0.678781
O O3 0.421950 0.547027 0.439089
O O4 0.309273 0.236901 0.948745
O O5 0.000000 0.500000 0.500000
O O6 0.019099 0.954289 0.122713
O O7 0.137239 0.705346 0.008367
O O8 0.899662 0.612323 0.312769
O O9 0.203011 0.076649 0.972755
O O10 0.135165 0.891048 0.416011
O O11 0.340604 0.787412 0.162835
O O12 0.304968 0.104919 0.536053
O O13 0.297866 0.587487 0.050894
O O14 0.000142 0.763811 0.863731
O O15 0.207065 0.099912 0.423880
O O16 0.438052 0.285139 0.056616
O O17 0.500000 0.000000 0.000000
#
# Coordination Sequence:
#
# PCOD9087976 Si02
#       8
#     2   2   2   2   2   2   2   2
#     4  10  20  33  56  93 130 166 210 253 331 389
#     4  11  25  41  68  86 123 175 227 276 315 387
#     4  11  23  36  61  92 139 168 203 272 330 407
#     4  11  21  39  63  96 124 167 219 275 323 379
#     4  11  24  42  60  94 125 170 223 266 333 389
#     4  10  19  37  57  93 129 167 206 264 330 395
#     4  11  20  36  59  96 130 173 208 262 329 398
#     4  11  21  36  66  97 131 162 221 264 322 395
#
# _framework density 26.830276999999999
#
# number of rings (size 3 to 8) (size 9 to 14) (size 15 to 20)
#    0.000    1.250    7.500    1.125    3.500    3.500 
#    0.000    0.000    0.000    1.500    0.000    0.000 
#    0.000    0.000    0.000    0.000    0.000    0.000 
#
# Total GULP energy -89245.788660 kJ/mol
# GULP energy per Si atom -5577.861791 kJ/mol
# Density = 2.676921 g / cm^3
# Si number density = 26.830277 Si / 1000 Ang^3
#
#
#
# Elastic Constant Matrix: (Units=GPa)
#
#
# Indices 1 2 3 4 5 6 
#
# 1 102.8102 25.4925 37.6664 7.2829 31.8714 -27.0744
# 2 25.4925 85.9704 26.5495 4.5497 1.4667 -20.6502
# 3 37.6664 26.5495 122.1847 6.1157 29.1554 -5.1083
# 4 7.2829 4.5497 6.1157 42.8584 -10.6748 -4.7505
# 5 31.8714 1.4667 29.1554 -10.6748 44.8432 -8.8083
# 6 -27.0744 -20.6502 -5.1083 -4.7505 -8.8083 36.0520
#
#
#
# Elastic Compliance Matrix: (Units=1/GPa)
#
#
# Indices 1 2 3 4 5 6 
#
# 1 0.016218 -0.002007 -0.001727 -0.003835 -0.009697 0.007910
# 2 -0.002007 0.015141 -0.003659 0.001465 0.005255 0.008124
# 3 -0.001727 -0.003659 0.011317 -0.003275 -0.007591 -0.004075
# 4 -0.003835 0.001465 -0.003275 0.027805 0.012241 0.004150
# 5 -0.009697 0.005255 -0.007591 0.012241 0.037957 0.005538
# 6 0.007910 0.008124 -0.004075 0.004150 0.005538 0.039654
#
#
# Mechanical properties :
#
#
# Convention : Reuss Voigt Hill
#
# Bulk Modulus (GPa) = 35.85514 54.48691 45.17102
# Shear Modulus (GPa) = 29.04025 39.50119 34.27072
#
# Velocity S-wave (km/s) = 3.29351 3.84117 3.57783
# Velocity P-wave (km/s) = 5.27784 6.32652 5.82582
#
# Compressibility (1/GPa) = 0.02789001
#
# Stress axis : x y z
#
# Youngs Moduli (GPa) = 61.65951 66.04502 88.36636
#
# Poissons Ratio (x) = 0.13257 0.15259
# Poissons Ratio (y) = 0.12377 0.32331
# Poissons Ratio (z) = 0.10647 0.24164
#
# Static dielectric constant tensor:
#      x y z
#    x 1.907020 0.187470 -0.350210 
#    y 0.187470 1.929750 0.255670 
#    z -0.350210 0.255670 1.895410 
# 
# From -- ./inp_files/464241.got.cif
#   From: 2010.05.17/outbox.cif.g08.bks.cpg/sg2_233_cif.got.tgz:464241.got - 2010.06.03 11:33:40.
