data_PCOD9087990
_publ_section_title
;
Structure prediction by ZEFSAII (Michael W. Deem and Ramdas Pophale) SiO2 
 PCOD9087990
Probable space group: P -1
;
_chemical_formula_sum "Si O2"
_cell_formula_units_Z 16
_cell_length_a 10.242016
_cell_length_b 7.454897
_cell_length_c 9.060837
_cell_angle_alpha 91.007914
_cell_angle_beta 100.206441
_cell_angle_gamma 116.216640
_cell_volume 607.222925
_symmetry_space_group_name_H-M "P -1"
_symmetry_group_IT_number 2
_symmetry_cell_setting 'triclinic'
loop_
_space_group_symop_operation_xyz
x,y,z
-x,-y,-z
loop_
_atom_site_type_symbol
_atom_site_label
_atom_site_fract_x
_atom_site_fract_y
_atom_site_fract_z
Si Si1 0.177032 0.874506 0.266157
Si Si2 0.877906 0.746556 0.345220
Si Si3 0.892116 0.568592 0.642573
Si Si4 0.451573 0.085139 0.854387
Si Si5 0.729408 0.708512 0.035778
Si Si6 0.334152 0.115068 0.555329
Si Si7 0.974955 0.277629 0.042691
Si Si8 0.602221 0.470374 0.740041
O O1 0.148085 0.658751 0.323186
O O2 0.028374 0.884818 0.291580
O O3 0.162726 0.870204 0.087102
O O4 0.315522 0.038384 0.384260
O O5 0.907606 0.618551 0.475315
O O6 0.763778 0.613288 0.191210
O O7 0.814843 0.881722 0.417122
O O8 0.744171 0.581428 0.668871
O O9 0.024259 0.712734 0.780264
O O10 0.329525 0.150397 0.893032
O O11 0.380914 0.987410 0.679815
O O12 0.599504 0.281834 0.831047
O O13 0.500000 0.000000 0.000000
O O14 0.882237 0.754929 0.978603
O O15 0.607166 0.606459 0.881023
O O16 0.458122 0.343689 0.611667
O O17 0.000000 0.500000 0.000000
#
# Coordination Sequence:
#
# PCOD9087990 Si02
#       8
#     2   2   2   2   2   2   2   2
#     4  10  19  37  58  80 114 155 188 236 289 338
#     4  10  20  34  60  85 113 146 195 237 282 343
#     4  10  20  36  57  86 114 147 191 241 284 343
#     4   9  19  35  55  85 117 148 197 236 282 346
#     4   9  17  35  60  85 112 153 193 239 284 338
#     4   9  21  36  54  84 118 150 187 235 289 344
#     4   8  17  34  59  83 110 147 192 237 284 336
#     4   9  20  37  57  82 118 148 194 230 291 339
#
# _framework density 26.349468999999999
#
# number of rings (size 3 to 8) (size 9 to 14) (size 15 to 20)
#    0.750    2.000    0.000    1.125    0.000    2.000 
#    0.000    6.875    0.000    0.000    0.000    0.000 
#    0.000    0.000    0.000    0.000    0.000    0.000 
#
# Total GULP energy -89191.807923 kJ/mol
# GULP energy per Si atom -5574.487995 kJ/mol
# Density = 2.628950 g / cm^3
# Si number density = 26.349469 Si / 1000 Ang^3
#
#
#
# Elastic Constant Matrix: (Units=GPa)
#
#
# Indices 1 2 3 4 5 6 
#
# 1 82.8499 12.5200 26.2213 -3.6963 1.4491 -4.6872
# 2 12.5200 48.2178 57.0097 -3.9675 7.2149 1.9752
# 3 26.2213 57.0097 201.2190 29.4414 28.4677 15.4308
# 4 -3.6963 -3.9675 29.4414 64.7439 6.7716 7.1160
# 5 1.4491 7.2149 28.4677 6.7716 37.1652 -10.3509
# 6 -4.6872 1.9752 15.4308 7.1160 -10.3509 31.2285
#
#
#
# Elastic Compliance Matrix: (Units=1/GPa)
#
#
# Indices 1 2 3 4 5 6 
#
# 1 0.013130 -0.001388 -0.002033 0.000977 0.002124 0.003544
# 2 -0.001388 0.034090 -0.010704 0.006592 0.000915 0.001726
# 3 -0.002033 -0.010704 0.010258 -0.004090 -0.006614 -0.005957
# 4 0.000977 0.006592 -0.004090 0.018377 -0.002437 -0.003244
# 5 0.002124 0.000915 -0.006614 -0.002437 0.036681 0.016242
# 6 0.003544 0.001726 -0.005957 -0.003244 0.016242 0.041511
#
#
# Mechanical properties :
#
#
# Convention : Reuss Voigt Hill
#
# Bulk Modulus (GPa) = 34.21304 58.19874 46.20589
# Shear Modulus (GPa) = 26.03627 42.39658 34.21643
#
# Velocity S-wave (km/s) = 3.14684 4.01560 3.60747
# Velocity P-wave (km/s) = 5.12015 6.60570 5.90979
#
# Compressibility (1/GPa) = 0.02922862
#
# Stress axis : x y z
#
# Youngs Moduli (GPa) = 76.16033 29.33416 97.48189
#
# Poissons Ratio (x) = 0.04072 0.19818
# Poissons Ratio (y) = 0.10573 1.04342
# Poissons Ratio (z) = 0.15483 0.31398
#
# Static dielectric constant tensor:
#      x y z
#    x 2.102760 -0.006820 0.039770 
#    y -0.006820 2.195490 0.041250 
#    z 0.039770 0.041250 2.114990 
# 
# From -- ./inp_files/244171.got.cif
#   From: 2010.05.17/outbox.cif.g08.bks.cpg/sg2_123_cif.got.tgz:244171.got - 2010.06.03 11:33:40.
