data_PCOD9087306
_publ_section_title
;
Structure prediction by ZEFSAII (Michael W. Deem and Ramdas Pophale) SiO2 
 PCOD9087306
Probable space group: P -1
;
_chemical_formula_sum "Si O2"
_cell_formula_units_Z 16
_cell_length_a 8.739299
_cell_length_b 22.393127
_cell_length_c 7.383534
_cell_angle_alpha 42.458302
_cell_angle_beta 116.917948
_cell_angle_gamma 136.170157
_cell_volume 665.657891
_symmetry_space_group_name_H-M "P -1"
_symmetry_group_IT_number 2
_symmetry_cell_setting 'triclinic'
loop_
_space_group_symop_operation_xyz
x,y,z
-x,-y,-z
loop_
_atom_site_type_symbol
_atom_site_label
_atom_site_fract_x
_atom_site_fract_y
_atom_site_fract_z
Si Si1 0.006898 0.010546 0.199857
Si Si2 0.274240 0.369911 0.691186
Si Si3 0.411684 0.000783 0.256424
Si Si4 0.086693 0.208084 0.643936
Si Si5 0.398115 0.671655 0.017861
Si Si6 0.367726 0.089458 0.511134
Si Si7 0.504656 0.241611 0.706278
Si Si8 0.990770 0.435803 0.460058
O O1 0.154075 0.880094 0.380990
O O2 0.780578 0.919585 0.388463
O O3 0.000000 0.000000 0.000000
O O4 0.049997 0.129177 0.970469
O O5 0.500000 0.500000 0.500000
O O6 0.169150 0.320595 0.543988
O O7 0.388703 0.318625 0.947107
O O8 0.097478 0.373491 0.692605
O O9 0.553216 0.982499 0.245140
O O10 0.500000 0.000000 0.500000
O O11 0.205741 0.034773 0.369027
O O12 0.457540 0.119580 0.971034
O O13 0.287960 0.233150 0.576040
O O14 0.437057 0.706836 0.172982
O O15 0.162258 0.541423 0.176782
O O16 0.425480 0.776468 0.709345
O O17 0.727493 0.335943 0.499495
O O18 0.000000 0.500000 0.500000
#
# Coordination Sequence:
#
# PCOD9087306 Si02
#       8
#     2   2   2   2   2   2   2   2
#     4  11  23  42  65  97 143 186 230 282 358 426
#     4   9  18  36  64  95 128 176 235 285 335 412
#     4  12  23  38  65 102 143 184 234 288 355 421
#     4  11  22  40  63  97 138 179 233 280 344 423
#     4   9  17  38  61  98 131 178 230 277 346 412
#     4  11  23  40  67 100 142 186 229 289 357 415
#     4  10  19  36  62  96 138 178 226 286 340 411
#     4   9  19  33  63 101 124 172 235 286 334 410
#
# _framework density 24.036373000000001
#
# number of rings (size 3 to 8) (size 9 to 14) (size 15 to 20)
#    0.000    1.750    3.750    2.625    1.750    0.500 
#    2.250    0.000    0.000    3.750    6.500    0.000 
#    0.000    0.000    0.000    0.250    0.000    0.000 
#
# Total GULP energy -89118.464756 kJ/mol
# GULP energy per Si atom -5569.904047 kJ/mol
# Density = 2.398166 g / cm^3
# Si number density = 24.036373 Si / 1000 Ang^3
#
#
#
# Elastic Constant Matrix: (Units=GPa)
#
#
# Indices 1 2 3 4 5 6 
#
# 1 176.4644 62.1013 39.5197 -14.2552 -4.4401 7.0057
# 2 62.1013 151.4885 35.9014 -6.4186 0.5032 11.4869
# 3 39.5197 35.9014 66.3652 -10.5260 -12.6115 8.4391
# 4 -14.2552 -6.4186 -10.5260 40.0911 6.8139 -3.6088
# 5 -4.4401 0.5032 -12.6115 6.8139 43.0010 -12.0716
# 6 7.0057 11.4869 8.4391 -3.6088 -12.0716 47.0683
#
#
#
# Elastic Compliance Matrix: (Units=1/GPa)
#
#
# Indices 1 2 3 4 5 6 
#
# 1 0.007209 -0.002198 -0.002930 0.001499 -0.000321 0.000021
# 2 -0.002198 0.008428 -0.003408 -0.000173 -0.001741 -0.001578
# 3 -0.002930 -0.003408 0.020150 0.002782 0.004965 -0.000858
# 4 0.001499 -0.000173 0.002782 0.026758 -0.003106 0.000575
# 5 -0.000321 -0.001741 0.004965 -0.003106 0.026947 0.006255
# 6 0.000021 -0.001578 -0.000858 0.000575 0.006255 0.023430
#
#
# Mechanical properties :
#
#
# Convention : Reuss Voigt Hill
#
# Bulk Modulus (GPa) = 53.43068 74.37364 63.90216
# Shear Modulus (GPa) = 36.70217 43.15180 39.92698
#
# Velocity S-wave (km/s) = 3.91185 4.24166 4.08009
# Velocity P-wave (km/s) = 6.53305 7.41608 6.98853
#
# Compressibility (1/GPa) = 0.01871584
#
# Stress axis : x y z
#
# Youngs Moduli (GPa) = 138.72379 118.65296 49.62713
#
# Poissons Ratio (x) = 0.26078 0.14539
# Poissons Ratio (y) = 0.30489 0.16913
# Poissons Ratio (z) = 0.40641 0.40437
#
# Static dielectric constant tensor:
#      x y z
#    x 2.079730 -0.029350 0.011130 
#    y -0.029350 2.041220 -0.031910 
#    z 0.011130 -0.031910 1.938150 
# 
# From -- ./inp_files/221839.got.cif
#   From: 2010.05.17/outbox.cif.g08.bks.cpg/sg2_111_cif.got.tgz:221839.got - 2010.06.03 11:33:40.
