data_PCOD9087196
_publ_section_title
;
Structure prediction by ZEFSAII (Michael W. Deem and Ramdas Pophale) SiO2 
 PCOD9087196
Probable space group: P -1
;
_chemical_formula_sum "Si O2"
_cell_formula_units_Z 12
_cell_length_a 6.490849
_cell_length_b 11.666424
_cell_length_c 8.864133
_cell_angle_alpha 52.077271
_cell_angle_beta 109.782752
_cell_angle_gamma 113.225217
_cell_volume 482.295074
_symmetry_space_group_name_H-M "P -1"
_symmetry_group_IT_number 2
_symmetry_cell_setting 'triclinic'
loop_
_space_group_symop_operation_xyz
x,y,z
-x,-y,-z
loop_
_atom_site_type_symbol
_atom_site_label
_atom_site_fract_x
_atom_site_fract_y
_atom_site_fract_z
Si Si1 0.313987 0.472325 0.348732
Si Si2 0.078335 0.110390 0.792843
Si Si3 0.449972 0.180229 0.601511
Si Si4 0.207997 0.940043 0.530108
Si Si5 0.163745 0.661501 0.954337
Si Si6 0.068936 0.674247 0.240608
O O1 0.500000 0.500000 0.500000
O O2 0.087361 0.505243 0.342792
O O3 0.785619 0.217541 0.261947
O O4 0.365742 0.601133 0.128830
O O5 0.302043 0.097514 0.772488
O O6 0.879072 0.083241 0.642890
O O7 0.112819 0.274233 0.745991
O O8 0.000000 0.000000 0.000000
O O9 0.695754 0.252147 0.673635
O O10 0.322134 0.310688 0.420926
O O11 0.419837 0.069025 0.542026
O O12 0.000000 0.000000 0.500000
O O13 0.067185 0.731374 0.020564
O O14 0.000000 0.500000 0.000000
#
# Coordination Sequence:
#
# PCOD9087196 Si02
#       6
#     2   2   2   2   2   2
#     4   8  18  37  61  88 114 159 201 242 301 363
#     4  11  23  37  57  92 123 156 206 249 304 363
#     4  10  20  41  64  84 126 158 199 254 301 363
#     4  10  21  35  59  90 121 160 202 249 310 356
#     4  10  19  36  62  88 120 161 202 246 305 365
#     4   9  21  38  63  88 118 157 205 243 309 355
#
# _framework density 24.881031
#
# number of rings (size 3 to 8) (size 9 to 14) (size 15 to 20)
#    1.000    1.333    0.000    4.000    0.000    4.000 
#    0.000    0.000    0.000    3.000    0.000    0.000 
#    0.000    0.000    0.000    0.000    0.000    0.000 
#
# Total GULP energy -66888.050989 kJ/mol
# GULP energy per Si atom -5574.004249 kJ/mol
# Density = 2.482440 g / cm^3
# Si number density = 24.881031 Si / 1000 Ang^3
#
#
#
# Elastic Constant Matrix: (Units=GPa)
#
#
# Indices 1 2 3 4 5 6 
#
# 1 42.2167 28.7413 6.2938 17.1615 4.3923 -3.1288
# 2 28.7413 163.8521 66.6291 14.5258 -6.4651 -22.7302
# 3 6.2938 66.6291 200.1918 -7.6057 -4.9144 -0.2831
# 4 17.1615 14.5258 -7.6057 55.8468 0.5158 -3.6273
# 5 4.3923 -6.4651 -4.9144 0.5158 28.7201 13.9820
# 6 -3.1288 -22.7302 -0.2831 -3.6273 13.9820 44.1096
#
#
#
# Elastic Compliance Matrix: (Units=1/GPa)
#
#
# Indices 1 2 3 4 5 6 
#
# 1 0.031004 -0.004914 0.000204 -0.008104 -0.006127 0.000944
# 2 -0.004914 0.008732 -0.002772 -0.000885 0.000333 0.003955
# 3 0.000204 -0.002772 0.005988 0.001358 0.001136 -0.001624
# 4 -0.008104 -0.000885 0.001358 0.020837 0.000664 0.000481
# 5 -0.006127 0.000333 0.001136 0.000664 0.042701 -0.013736
# 6 0.000944 0.003955 -0.001624 0.000481 -0.013736 0.029159
#
#
# Mechanical properties :
#
#
# Convention : Reuss Voigt Hill
#
# Bulk Modulus (GPa) = 32.50833 67.73212 50.12022
# Shear Modulus (GPa) = 30.55525 46.04172 38.29849
#
# Velocity S-wave (km/s) = 3.50816 4.30638 3.92760
# Velocity P-wave (km/s) = 5.43171 7.21166 6.38402
#
# Compressibility (1/GPa) = 0.03076135
#
# Stress axis : x y z
#
# Youngs Moduli (GPa) = 32.25421 114.51694 166.98719
#
# Poissons Ratio (x) = 0.56269 -0.03401
# Poissons Ratio (y) = 0.15848 0.46284
# Poissons Ratio (z) = -0.00657 0.31741
#
# Static dielectric constant tensor:
#      x y z
#    x 2.108030 0.006480 -0.045180 
#    y 0.006480 2.069100 -0.051960 
#    z -0.045180 -0.051960 2.081970 
# 
# From -- ./inp_files/107784.got.cif
#   From: 2010.05.17/outbox.cif.g08.bks.cpg/sg2_54_cif.got.tgz:107784.got - 2010.06.03 11:33:40.
