data_PCOD9087006
_publ_section_title
;
Structure prediction by ZEFSAII (Michael W. Deem and Ramdas Pophale) SiO2 
 PCOD9087006
Probable space group: P -1
;
_chemical_formula_sum "Si O2"
_cell_formula_units_Z 16
_cell_length_a 14.624095
_cell_length_b 8.874002
_cell_length_c 28.608929
_cell_angle_alpha 39.788028
_cell_angle_beta 161.481890
_cell_angle_gamma 131.205322
_cell_volume 708.618217
_symmetry_space_group_name_H-M "P -1"
_symmetry_group_IT_number 2
_symmetry_cell_setting 'triclinic'
loop_
_space_group_symop_operation_xyz
x,y,z
-x,-y,-z
loop_
_atom_site_type_symbol
_atom_site_label
_atom_site_fract_x
_atom_site_fract_y
_atom_site_fract_z
Si Si1 0.076322 0.623180 0.794139
Si Si2 0.992442 0.582311 0.859498
Si Si3 0.476284 0.900072 0.872968
Si Si4 0.231565 0.274466 0.136640
Si Si5 0.218156 0.835434 0.185018
Si Si6 0.090736 0.346644 0.628953
Si Si7 0.582570 0.102584 0.434443
Si Si8 0.818853 0.835515 0.430108
O O1 0.247507 0.751099 0.811137
O O2 0.161592 0.665594 0.879346
O O3 0.199778 0.325269 0.916002
O O4 0.725484 0.803366 0.576355
O O5 0.821554 0.427977 0.782622
O O6 0.727463 0.786627 0.711878
O O7 0.221665 0.395663 0.051926
O O8 0.406955 0.123936 0.823682
O O9 0.373556 0.029995 0.741706
O O10 0.526418 0.188029 0.332835
O O11 0.131577 0.029958 0.140126
O O12 0.000000 0.500000 0.000000
O O13 0.567208 0.806985 0.350515
O O14 0.000000 0.000000 0.000000
O O15 0.000000 0.500000 0.500000
O O16 0.832759 0.221844 0.544729
O O17 0.056665 0.561746 0.598266
O O18 0.000000 0.000000 0.500000
#
# Coordination Sequence:
#
# PCOD9087006 Si02
#       8
#     2   2   2   2   2   2   2   2
#     4  10  20  36  60  85 122 167 203 232 304 383
#     4  10  19  37  58  89 121 160 199 250 307 364
#     4   9  20  38  59  84 119 165 206 239 301 372
#     4   9  20  34  57  87 118 149 199 256 295 347
#     4  10  20  35  58  88 126 151 198 254 313 356
#     4   9  19  35  57  87 116 155 199 255 303 352
#     4  10  19  36  61  88 120 155 204 247 305 365
#     4  11  22  37  64  95 118 153 209 266 302 351
#
# _framework density 22.579156000000001
#
# number of rings (size 3 to 8) (size 9 to 14) (size 15 to 20)
#    0.000    2.250    1.250    1.875    5.250    0.000 
#    0.000    0.625    0.000    8.250    0.000    0.000 
#    0.000    0.000    0.000    0.000    0.000    0.000 
#
# Total GULP energy -89160.173370 kJ/mol
# GULP energy per Si atom -5572.510836 kJ/mol
# Density = 2.252776 g / cm^3
# Si number density = 22.579156 Si / 1000 Ang^3
#
#
#
# Elastic Constant Matrix: (Units=GPa)
#
#
# Indices 1 2 3 4 5 6 
#
# 1 70.4564 14.3308 25.4064 -12.1592 5.2453 -5.9489
# 2 14.3308 99.6380 45.9422 -18.8446 10.9953 -30.7899
# 3 25.4064 45.9422 117.9993 -47.2382 11.7502 -17.3220
# 4 -12.1592 -18.8446 -47.2382 42.7723 -7.2311 5.8366
# 5 5.2453 10.9953 11.7502 -7.2311 34.6629 -13.5474
# 6 -5.9489 -30.7899 -17.3220 5.8366 -13.5474 36.5662
#
#
#
# Elastic Compliance Matrix: (Units=1/GPa)
#
#
# Indices 1 2 3 4 5 6 
#
# 1 0.015519 -0.000694 -0.002467 0.001189 -0.000955 0.000229
# 2 -0.000694 0.015524 -0.003990 0.000882 0.001155 0.011356
# 3 -0.002467 -0.003990 0.017472 0.016568 -0.000112 0.001829
# 4 0.001189 0.000882 0.016568 0.042632 0.004199 0.003535
# 5 -0.000955 0.001155 -0.000112 0.004199 0.034586 0.012908
# 6 0.000229 0.011356 0.001829 0.003535 0.012908 0.042032
#
#
# Mechanical properties :
#
#
# Convention : Reuss Voigt Hill
#
# Bulk Modulus (GPa) = 29.22733 51.05028 40.13880
# Shear Modulus (GPa) = 25.84372 36.29455 31.06914
#
# Velocity S-wave (km/s) = 3.38684 4.01363 3.71348
# Velocity P-wave (km/s) = 5.31665 6.64361 6.01682
#
# Compressibility (1/GPa) = 0.03421455
#
# Stress axis : x y z
#
# Youngs Moduli (GPa) = 64.43552 64.41457 57.23603
#
# Poissons Ratio (x) = 0.04470 0.14117
# Poissons Ratio (y) = 0.04471 0.22837
# Poissons Ratio (z) = 0.15893 0.25701
#
# Static dielectric constant tensor:
#      x y z
#    x 1.960640 0.069090 0.038040 
#    y 0.069090 1.924640 -0.025510 
#    z 0.038040 -0.025510 1.877250 
# 
# From -- ./inp_files/623454.got.cif
#   From: 2010.05.17/outbox.cif.g08.bks.cpg/sg2_312_cif.got.tgz:623454.got - 2010.06.03 11:33:40.
