data_PCOD9087555
_publ_section_title
;
Structure prediction by ZEFSAII (Michael W. Deem and Ramdas Pophale) SiO2 
 PCOD9087555
Probable space group: P -1
;
_chemical_formula_sum "Si O2"
_cell_formula_units_Z 16
_cell_length_a 11.557293
_cell_length_b 10.653216
_cell_length_c 9.283189
_cell_angle_alpha 60.885846
_cell_angle_beta 79.214695
_cell_angle_gamma 54.078148
_cell_volume 800.802161
_symmetry_space_group_name_H-M "P -1"
_symmetry_group_IT_number 2
_symmetry_cell_setting 'triclinic'
loop_
_space_group_symop_operation_xyz
x,y,z
-x,-y,-z
loop_
_atom_site_type_symbol
_atom_site_label
_atom_site_fract_x
_atom_site_fract_y
_atom_site_fract_z
Si Si1 0.912501 0.696552 0.970853
Si Si2 0.682624 0.269789 0.817780
Si Si3 0.867097 0.883043 0.590288
Si Si4 0.644372 0.961549 0.056997
Si Si5 0.101197 0.846741 0.406457
Si Si6 0.571401 0.393664 0.189845
Si Si7 0.868570 0.202472 0.099707
Si Si8 0.396222 0.967777 0.631530
O O1 0.841202 0.810219 0.779005
O O2 0.000000 0.500000 0.000000
O O3 0.029429 0.731697 0.976464
O O4 0.785853 0.774314 0.074866
O O5 0.766591 0.273508 0.660427
O O6 0.527224 0.454974 0.757914
O O7 0.784684 0.226424 0.958402
O O8 0.666516 0.108995 0.911358
O O9 0.029492 0.767774 0.554701
O O10 0.853167 0.057390 0.550181
O O11 0.758305 0.916940 0.473516
O O12 0.621576 0.985336 0.221488
O O13 0.500000 0.000000 0.000000
O O14 0.973692 0.003585 0.246289
O O15 0.556160 0.232347 0.285897
O O16 0.500000 0.500000 0.000000
O O17 0.739372 0.315211 0.181527
O O18 0.500000 0.000000 0.500000
#
# Coordination Sequence:
#
# PCOD9087555 Si02
#       8
#     2   2   2   2   2   2   2   2
#     4  11  26  44  67  98 131 177 223 279 330 405
#     4  11  21  37  67  99 128 166 229 275 318 396
#     4  10  21  40  65  90 128 170 210 270 342 379
#     4  12  25  43  67  95 134 182 224 265 340 407
#     4  10  19  36  64  91 124 161 213 272 326 385
#     4  10  21  39  65 100 128 172 220 278 315 392
#     4  10  19  37  69  92 125 168 220 267 330 381
#     4  12  25  43  68  95 138 180 217 273 345 398
#
# _framework density 19.979966999999998
#
# number of rings (size 3 to 8) (size 9 to 14) (size 15 to 20)
#    0.000    1.250    6.250    1.125    3.500    2.000 
#    2.250    1.250    0.000    0.000    0.000    0.000 
#    0.000    0.000    0.000    0.000    0.000    0.000 
#
# Total GULP energy -89288.079926 kJ/mol
# GULP energy per Si atom -5580.504995 kJ/mol
# Density = 1.993449 g / cm^3
# Si number density = 19.979967 Si / 1000 Ang^3
#
#
#
# Elastic Constant Matrix: (Units=GPa)
#
#
# Indices 1 2 3 4 5 6 
#
# 1 112.7289 30.9087 20.6150 9.6251 6.5741 -8.9460
# 2 30.9087 114.1528 16.6299 27.1142 -11.6415 -22.3633
# 3 20.6150 16.6299 67.0194 20.5865 -2.3818 -2.2412
# 4 9.6251 27.1142 20.5865 34.8935 -4.4104 -11.4189
# 5 6.5741 -11.6415 -2.3818 -4.4104 32.6037 9.5624
# 6 -8.9460 -22.3633 -2.2412 -11.4189 9.5624 30.7388
#
#
#
# Elastic Compliance Matrix: (Units=1/GPa)
#
#
# Indices 1 2 3 4 5 6 
#
# 1 0.010450 -0.002570 -0.003014 0.001263 -0.003841 0.002616
# 2 -0.002570 0.012311 0.000154 -0.007053 0.002562 0.004803
# 3 -0.003014 0.000154 0.019389 -0.011922 0.001733 -0.004320
# 4 0.001263 -0.007053 -0.011922 0.044350 -0.000907 0.011125
# 5 -0.003841 0.002562 0.001733 -0.000907 0.035441 -0.010490
# 6 0.002616 0.004803 -0.004320 0.011125 -0.010490 0.043869
#
#
# Mechanical properties :
#
#
# Convention : Reuss Voigt Hill
#
# Bulk Modulus (GPa) = 31.95831 47.80090 39.87960
# Shear Modulus (GPa) = 26.72358 34.69703 30.71030
#
# Velocity S-wave (km/s) = 3.66118 4.17176 3.92478
# Velocity P-wave (km/s) = 5.82256 6.86885 6.36723
#
# Compressibility (1/GPa) = 0.03129076
#
# Stress axis : x y z
#
# Youngs Moduli (GPa) = 95.69026 81.22829 51.57522
#
# Poissons Ratio (x) = 0.20873 0.15544
# Poissons Ratio (y) = 0.24590 -0.00793
# Poissons Ratio (z) = 0.28839 -0.01248
#
# Static dielectric constant tensor:
#      x y z
#    x 1.698320 -0.018780 -0.007570 
#    y -0.018780 1.730940 0.003030 
#    z -0.007570 0.003030 1.720560 
# 
# From -- ./inp_files/262021.got.cif
#   From: 2010.05.17/outbox.cif.g08.bks.cpg/sg2_132_cif.got.tgz:262021.got - 2010.06.03 11:33:40.
