data_PCOD9087923
_publ_section_title
;
Structure prediction by ZEFSAII (Michael W. Deem and Ramdas Pophale) SiO2 
 PCOD9087923
Probable space group: P -1
;
_chemical_formula_sum "Si O2"
_cell_formula_units_Z 12
_cell_length_a 10.551245
_cell_length_b 7.800466
_cell_length_c 8.672196
_cell_angle_alpha 131.904460
_cell_angle_beta 109.348303
_cell_angle_gamma 63.271738
_cell_volume 473.949059
_symmetry_space_group_name_H-M "P -1"
_symmetry_group_IT_number 2
_symmetry_cell_setting 'triclinic'
loop_
_space_group_symop_operation_xyz
x,y,z
-x,-y,-z
loop_
_atom_site_type_symbol
_atom_site_label
_atom_site_fract_x
_atom_site_fract_y
_atom_site_fract_z
Si Si1 0.054151 0.867024 0.197011
Si Si2 0.912811 0.749627 0.805067
Si Si3 0.216235 0.946387 0.583428
Si Si4 0.703959 0.508415 0.466988
Si Si5 0.413226 0.225413 0.709750
Si Si6 0.598790 0.991636 0.890717
O O1 0.927387 0.924461 0.303286
O O2 0.049351 0.097948 0.226056
O O3 0.188690 0.822028 0.336926
O O4 0.029537 0.683811 0.947817
O O5 0.857997 0.539556 0.586388
O O6 0.768391 0.934396 0.937891
O O7 0.302459 0.732795 0.603021
O O8 0.292177 0.139236 0.688300
O O9 0.661167 0.550823 0.297838
O O10 0.602665 0.743507 0.655006
O O11 0.524556 0.218293 0.884912
O O12 0.500000 0.000000 0.500000
O O13 0.500000 0.000000 0.000000
#
# Coordination Sequence:
#
# PCOD9087923 Si02
#       6
#     2   2   2   2   2   2
#     4  10  20  36  59  77 120 143 184 233 271 330
#     4   9  19  38  53  82 110 155 173 228 286 311
#     4  11  21  36  58  89 102 152 191 220 277 331
#     4   9  21  36  57  85 111 143 191 220 280 330
#     4  10  19  37  57  78 116 144 176 237 274 319
#     4   9  18  35  57  80 111 146 181 226 277 325
#
# _framework density 25.319178000000001
#
# number of rings (size 3 to 8) (size 9 to 14) (size 15 to 20)
#    1.000    1.333    1.667    1.000    0.000    4.000 
#    0.000    3.333    0.000    7.000    0.000    0.000 
#    0.000    0.000    0.000    0.000    0.000    0.000 
#
# Total GULP energy -67009.506555 kJ/mol
# GULP energy per Si atom -5584.125546 kJ/mol
# Density = 2.526155 g / cm^3
# Si number density = 25.319178 Si / 1000 Ang^3
#
#
#
# Elastic Constant Matrix: (Units=GPa)
#
#
# Indices 1 2 3 4 5 6 
#
# 1 87.8928 14.5654 25.3552 9.0620 -6.9842 26.0481
# 2 14.5654 128.8141 50.7762 -27.7907 -2.5409 -0.6366
# 3 25.3552 50.7762 102.1961 -17.4882 19.1401 2.1205
# 4 9.0620 -27.7907 -17.4882 31.6947 1.8351 0.9937
# 5 -6.9842 -2.5409 19.1401 1.8351 38.8528 -9.0050
# 6 26.0481 -0.6366 2.1205 0.9937 -9.0050 30.7355
#
#
#
# Elastic Compliance Matrix: (Units=1/GPa)
#
#
# Indices 1 2 3 4 5 6 
#
# 1 0.018945 -0.002089 -0.005695 -0.010124 0.003206 -0.014439
# 2 -0.002089 0.011552 -0.004446 0.008017 0.002863 0.002896
# 3 -0.005695 -0.004446 0.016461 0.007355 -0.009647 0.000535
# 4 -0.010124 0.008017 0.007355 0.045718 -0.005913 0.005028
# 5 0.003206 0.002863 -0.009647 -0.005913 0.033383 0.007980
# 6 -0.014439 0.002896 0.000535 0.005028 0.007980 0.046971
#
#
# Mechanical properties :
#
#
# Convention : Reuss Voigt Hill
#
# Bulk Modulus (GPa) = 44.45005 55.58851 50.01928
# Shear Modulus (GPa) = 24.39141 35.47034 29.93088
#
# Velocity S-wave (km/s) = 3.10717 3.74696 3.44196
# Velocity P-wave (km/s) = 5.51966 6.38141 5.96611
#
# Compressibility (1/GPa) = 0.02249716
#
# Stress axis : x y z
#
# Youngs Moduli (GPa) = 52.78573 86.56388 60.74839
#
# Poissons Ratio (x) = 0.18087 0.34599
# Poissons Ratio (y) = 0.11029 0.27006
# Poissons Ratio (z) = 0.30064 0.38483
#
# Static dielectric constant tensor:
#      x y z
#    x 1.998620 -0.057950 0.028970 
#    y -0.057950 1.990790 0.039260 
#    z 0.028970 0.039260 2.119520 
# 
# From -- ./inp_files/77436.got.cif
#   From: 2010.05.17/outbox.cif.g08.bks.cpg/sg2_39_cif.got.tgz:77436.got - 2010.06.03 11:33:40.
