data_PCOD9087423
_publ_section_title
;
Structure prediction by ZEFSAII (Michael W. Deem and Ramdas Pophale) SiO2 
 PCOD9087423
Probable space group: P -1
;
_chemical_formula_sum "Si O2"
_cell_formula_units_Z 14
_cell_length_a 7.147967
_cell_length_b 12.171976
_cell_length_c 8.537519
_cell_angle_alpha 88.950701
_cell_angle_beta 89.512563
_cell_angle_gamma 47.622372
_cell_volume 548.625057
_symmetry_space_group_name_H-M "P -1"
_symmetry_group_IT_number 2
_symmetry_cell_setting 'triclinic'
loop_
_space_group_symop_operation_xyz
x,y,z
-x,-y,-z
loop_
_atom_site_type_symbol
_atom_site_label
_atom_site_fract_x
_atom_site_fract_y
_atom_site_fract_z
Si Si1 0.781585 0.405326 0.222187
Si Si2 0.587590 0.086221 0.547293
Si Si3 0.061407 0.885233 0.750066
Si Si4 0.542658 0.711877 0.175024
Si Si5 0.017150 0.120018 0.904739
Si Si6 0.953163 0.384819 0.882621
Si Si7 0.198773 0.380729 0.367602
O O1 0.592561 0.576957 0.269390
O O2 0.750652 0.291426 0.267462
O O3 0.052250 0.337213 0.287907
O O4 0.790961 0.418085 0.034659
O O5 0.480271 0.179631 0.707076
O O6 0.463224 0.225854 0.428316
O O7 0.500000 0.000000 0.500000
O O8 0.882100 0.962863 0.597901
O O9 0.140540 0.976497 0.801194
O O10 0.907961 0.907583 0.911640
O O11 0.280327 0.795765 0.089024
O O12 0.791636 0.647635 0.078133
O O13 0.034900 0.232096 0.826317
O O14 0.805812 0.516211 0.755555
O O15 0.000000 0.500000 0.500000
#
# Coordination Sequence:
#
# PCOD9087423 Si02
#       7
#     2   2   2   2   2   2   2
#     4  10  19  36  63  92 120 153 205 249 296 355
#     4  11  20  34  61  87 117 165 199 232 311 365
#     4   9  19  35  56  84 121 158 188 246 300 349
#     4  10  20  37  63  89 116 160 198 248 299 352
#     4   9  20  39  59  88 125 154 199 252 297 350
#     4  10  21  37  64  93 118 153 207 252 292 353
#     4  11  19  35  62  87 118 161 201 247 297 359
#
# _framework density 25.518338
#
# number of rings (size 3 to 8) (size 9 to 14) (size 15 to 20)
#    0.000    2.000    4.286    1.714    0.000    2.286 
#    0.000   20.714    3.143    4.286    0.000    0.000 
#    0.000    0.000    0.000    0.000    0.000    0.000 
#
# Total GULP energy -78146.006315 kJ/mol
# GULP energy per Si atom -5581.857594 kJ/mol
# Density = 2.546026 g / cm^3
# Si number density = 25.518338 Si / 1000 Ang^3
#
#
#
# Elastic Constant Matrix: (Units=GPa)
#
#
# Indices 1 2 3 4 5 6 
#
# 1 101.3443 71.1685 51.2206 -16.8266 2.4799 19.3853
# 2 71.1685 200.4334 57.6080 -22.5142 4.9198 47.2528
# 3 51.2206 57.6080 117.5954 -26.1559 16.8964 6.9677
# 4 -16.8266 -22.5142 -26.1559 55.6032 5.7787 5.1325
# 5 2.4799 4.9198 16.8964 5.7787 20.7487 5.0822
# 6 19.3853 47.2528 6.9677 5.1325 5.0822 56.2145
#
#
#
# Elastic Compliance Matrix: (Units=1/GPa)
#
#
# Indices 1 2 3 4 5 6 
#
# 1 0.015379 -0.003473 -0.005261 0.000592 0.003622 -0.002114
# 2 -0.003473 0.008341 -0.001952 0.001848 0.000939 -0.005826
# 3 -0.005261 -0.001952 0.014767 0.005713 -0.013084 0.002286
# 4 0.000592 0.001848 0.005713 0.023043 -0.010696 -0.003603
# 5 0.003622 0.000939 -0.013084 -0.010696 0.062420 -0.005083
# 6 -0.002114 -0.005826 0.002286 -0.003603 -0.005083 0.023920
#
#
# Mechanical properties :
#
#
# Convention : Reuss Voigt Hill
#
# Bulk Modulus (GPa) = 58.42810 86.59636 72.51223
# Shear Modulus (GPa) = 28.58006 42.47168 35.52587
#
# Velocity S-wave (km/s) = 3.35024 4.08408 3.73523
# Velocity P-wave (km/s) = 6.15725 7.49988 6.86149
#
# Compressibility (1/GPa) = 0.01711505
#
# Stress axis : x y z
#
# Youngs Moduli (GPa) = 65.02426 119.88411 67.71947
#
# Poissons Ratio (x) = 0.41632 0.35627
# Poissons Ratio (y) = 0.22581 0.13221
# Poissons Ratio (z) = 0.34209 0.23406
#
# Static dielectric constant tensor:
#      x y z
#    x 2.021130 -0.029510 0.004730 
#    y -0.029510 2.117480 0.005930 
#    z 0.004730 0.005930 2.031440 
# 
# From -- ./inp_files/154842.got.cif
#   From: 2010.05.17/outbox.cif.g08.bks.cpg/sg2_78_cif.got.tgz:154842.got - 2010.06.03 11:33:40.
