data_PCOD9087422
_publ_section_title
;
Structure prediction by ZEFSAII (Michael W. Deem and Ramdas Pophale) SiO2 
 PCOD9087422
Probable space group: P -1
;
_chemical_formula_sum "Si O2"
_cell_formula_units_Z 14
_cell_length_a 8.782288
_cell_length_b 9.844333
_cell_length_c 22.215222
_cell_angle_alpha 48.870574
_cell_angle_beta 116.882962
_cell_angle_gamma 149.128266
_cell_volume 710.228499
_symmetry_space_group_name_H-M "P -1"
_symmetry_group_IT_number 2
_symmetry_cell_setting 'triclinic'
loop_
_space_group_symop_operation_xyz
x,y,z
-x,-y,-z
loop_
_atom_site_type_symbol
_atom_site_label
_atom_site_fract_x
_atom_site_fract_y
_atom_site_fract_z
Si Si1 0.726065 0.818417 0.405986
Si Si2 0.765771 0.023118 0.586296
Si Si3 0.216701 0.809212 0.138744
Si Si4 0.928090 0.509335 0.390187
Si Si5 0.920186 0.547914 0.029462
Si Si6 0.856169 0.874444 0.944824
Si Si7 0.177105 0.513464 0.324798
O O1 0.500000 0.500000 0.500000
O O2 0.498034 0.708711 0.348346
O O3 0.003166 0.939158 0.394334
O O4 0.901556 0.124168 0.387362
O O5 0.857115 0.259073 0.485689
O O6 0.835179 0.169596 0.620849
O O7 0.397727 0.671313 0.617918
O O8 0.202375 0.620952 0.231941
O O9 0.075419 0.654845 0.091882
O O10 0.563759 0.183602 0.082059
O O11 0.083362 0.864364 0.136909
O O12 0.076520 0.580346 0.333631
O O13 0.985491 0.817513 0.948191
O O14 0.000000 0.500000 0.000000
O O15 0.500000 0.500000 0.000000
O O16 0.000000 0.000000 0.000000
#
# Coordination Sequence:
#
# PCOD9087422 Si02
#       7
#     2   2   2   2   2   2   2
#     4  12  24  39  60  87 117 164 211 257 304 367
#     4  10  21  37  57  82 111 144 205 258 292 353
#     4  10  21  38  57  86 122 155 193 244 297 360
#     4  10  21  36  59  83 109 150 196 254 305 351
#     4  10  19  36  63  92 117 154 194 235 290 362
#     4   8  16  32  56  81 109 145 187 221 270 349
#     4  12  24  39  60  87 122 161 204 256 314 354
#
# _framework density 19.711966
#
# number of rings (size 3 to 8) (size 9 to 14) (size 15 to 20)
#    0.000    1.714    1.429    3.429    4.000    0.000 
#    0.000    4.286    0.000    3.429    0.000    0.000 
#    0.000    0.000    0.000    0.000    0.000    0.000 
#
# Total GULP energy -78024.835298 kJ/mol
# GULP energy per Si atom -5573.202521 kJ/mol
# Density = 1.966710 g / cm^3
# Si number density = 19.711966 Si / 1000 Ang^3
#
#
#
# Elastic Constant Matrix: (Units=GPa)
#
#
# Indices 1 2 3 4 5 6 
#
# 1 110.4360 23.9252 34.7589 17.1448 9.9538 -16.3133
# 2 23.9252 134.3270 28.2070 22.3527 2.9919 0.9783
# 3 34.7589 28.2070 62.5869 18.8151 8.0573 0.9394
# 4 17.1448 22.3527 18.8151 24.0386 1.1564 3.3061
# 5 9.9538 2.9919 8.0573 1.1564 17.9242 5.8752
# 6 -16.3133 0.9783 0.9394 3.3061 5.8752 40.5283
#
#
#
# Elastic Compliance Matrix: (Units=1/GPa)
#
#
# Indices 1 2 3 4 5 6 
#
# 1 0.013166 -0.000252 -0.004511 -0.006239 -0.007118 0.006951
# 2 -0.000252 0.009010 -0.001866 -0.006771 -0.000188 0.000304
# 3 -0.004511 -0.001866 0.024394 -0.013771 -0.007205 -0.000168
# 4 -0.006239 -0.006771 -0.013771 0.063853 0.009489 -0.008613
# 5 -0.007118 -0.000188 -0.007205 0.009489 0.066708 -0.013138
# 6 0.006951 0.000304 -0.000168 -0.008613 -0.013138 0.030076
#
#
# Mechanical properties :
#
#
# Convention : Reuss Voigt Hill
#
# Bulk Modulus (GPa) = 30.01792 53.45912 41.73852
# Shear Modulus (GPa) = 21.59194 31.19548 26.39371
#
# Velocity S-wave (km/s) = 3.31323 3.98246 3.66316
# Velocity P-wave (km/s) = 5.46791 6.95167 6.25395
#
# Compressibility (1/GPa) = 0.03331344
#
# Stress axis : x y z
#
# Youngs Moduli (GPa) = 75.95140 110.99011 40.99352
#
# Poissons Ratio (x) = 0.02793 0.18493
# Poissons Ratio (y) = 0.01911 0.07648
# Poissons Ratio (z) = 0.34263 0.20707
#
# Static dielectric constant tensor:
#      x y z
#    x 1.782100 0.025120 0.063170 
#    y 0.025120 1.654470 0.007310 
#    z 0.063170 0.007310 1.706730 
# 
# From -- ./inp_files/226057.got.cif
#   From: 2010.05.17/outbox.cif.g08.bks.cpg/sg2_114_cif.got.tgz:226057.got - 2010.06.03 11:33:40.
