data_PCOD9087172
_publ_section_title
;
Structure prediction by ZEFSAII (Michael W. Deem and Ramdas Pophale) SiO2 
 PCOD9087172
Probable space group: P -1
;
_chemical_formula_sum "Si O2"
_cell_formula_units_Z 14
_cell_length_a 6.239734
_cell_length_b 14.164903
_cell_length_c 14.855006
_cell_angle_alpha 35.783211
_cell_angle_beta 118.689685
_cell_angle_gamma 100.440987
_cell_volume 615.478364
_symmetry_space_group_name_H-M "P -1"
_symmetry_group_IT_number 2
_symmetry_cell_setting 'triclinic'
loop_
_space_group_symop_operation_xyz
x,y,z
-x,-y,-z
loop_
_atom_site_type_symbol
_atom_site_label
_atom_site_fract_x
_atom_site_fract_y
_atom_site_fract_z
Si Si1 0.974016 0.886838 0.466062
Si Si2 0.533437 0.384738 0.832834
Si Si3 0.214958 0.149426 0.352198
Si Si4 0.276017 0.167667 0.874285
Si Si5 0.026287 0.335326 0.516864
Si Si6 0.440273 0.419136 0.142531
Si Si7 0.772532 0.381186 0.700825
O O1 0.812497 0.852450 0.543337
O O2 0.887933 0.841366 0.387562
O O3 0.273220 0.737004 0.655195
O O4 0.998219 0.073894 0.334181
O O5 0.414646 0.236566 0.926478
O O6 0.627349 0.435798 0.904759
O O7 0.729254 0.324236 0.835069
O O8 0.291790 0.568899 0.609250
O O9 0.232200 0.324896 0.179102
O O10 0.500000 0.000000 0.500000
O O11 0.179158 0.303289 0.666080
O O12 0.980901 0.207783 0.824285
O O13 0.500000 0.000000 0.000000
O O14 0.095366 0.478831 0.366762
O O15 0.500000 0.500000 0.000000
O O16 0.500000 0.500000 0.500000
#
# Coordination Sequence:
#
# PCOD9087172 Si02
#       7
#     2   2   2   2   2   2   2
#     4   9  19  36  62  86 119 162 210 260 311 378
#     4  10  20  39  62  88 117 166 214 251 308 387
#     4   9  18  37  57  87 119 154 210 262 311 369
#     4  11  23  38  56  92 135 157 196 263 320 369
#     4  10  19  36  62  86 116 164 210 252 304 385
#     4  10  21  37  63  89 123 162 210 265 314 368
#     4  11  18  36  67  89 115 166 216 251 300 384
#
# _framework density 22.746535000000002
#
# number of rings (size 3 to 8) (size 9 to 14) (size 15 to 20)
#    0.000    2.000    2.857    1.714    0.000    1.143 
#    7.714    0.000    0.000    0.000    0.000    0.000 
#    0.000    0.000    0.000    0.000    0.000    0.000 
#
# Total GULP energy -77991.123990 kJ/mol
# GULP energy per Si atom -5570.794571 kJ/mol
# Density = 2.269476 g / cm^3
# Si number density = 22.746535 Si / 1000 Ang^3
#
#
#
# Elastic Constant Matrix: (Units=GPa)
#
#
# Indices 1 2 3 4 5 6 
#
# 1 123.5502 41.9744 28.3635 -7.0741 -5.4551 -20.1179
# 2 41.9744 143.2703 31.1133 -6.0868 -5.3068 -12.4712
# 3 28.3635 31.1133 79.5563 -20.9977 7.3288 -1.9564
# 4 -7.0741 -6.0868 -20.9977 23.3885 -10.7592 5.8392
# 5 -5.4551 -5.3068 7.3288 -10.7592 35.2067 -14.0871
# 6 -20.1179 -12.4712 -1.9564 5.8392 -14.0871 37.9115
#
#
#
# Elastic Compliance Matrix: (Units=1/GPa)
#
#
# Indices 1 2 3 4 5 6 
#
# 1 0.010773 -0.001628 -0.003396 0.000373 0.004963 0.006793
# 2 -0.001628 0.008433 -0.003024 -0.000510 0.002615 0.002804
# 3 -0.003396 -0.003024 0.019170 0.015638 -0.002209 -0.005037
# 4 0.000373 -0.000510 0.015638 0.064578 0.015054 -0.003515
# 5 0.004963 0.002615 -0.002209 0.015054 0.041173 0.016360
# 6 0.006793 0.002804 -0.005037 -0.003515 0.016360 0.037265
#
#
# Mechanical properties :
#
#
# Convention : Reuss Voigt Hill
#
# Bulk Modulus (GPa) = 44.88263 61.03103 52.95683
# Shear Modulus (GPa) = 24.40046 35.62972 30.01509
#
# Velocity S-wave (km/s) = 3.27878 3.96205 3.63650
# Velocity P-wave (km/s) = 5.84023 6.91517 6.40031
#
# Compressibility (1/GPa) = 0.02228033
#
# Stress axis : x y z
#
# Youngs Moduli (GPa) = 92.82457 118.58586 52.16481
#
# Poissons Ratio (x) = 0.19304 0.17714
# Poissons Ratio (y) = 0.15110 0.15775
# Poissons Ratio (z) = 0.31522 0.35861
#
# Static dielectric constant tensor:
#      x y z
#    x 1.977140 0.009680 0.037080 
#    y 0.009680 1.927360 -0.016600 
#    z 0.037080 -0.016600 1.852270 
# 
# From -- ./inp_files/43877.got.cif
#   From: 2010.05.17/outbox.cif.g08.bks.cpg/sg2_22_cif.got.tgz:43877.got - 2010.06.03 11:33:40.
