data_PCOD9087517
_publ_section_title
;
Structure prediction by ZEFSAII (Michael W. Deem and Ramdas Pophale) SiO2 
 PCOD9087517
Probable space group: P -1
;
_chemical_formula_sum "Si O2"
_cell_formula_units_Z 16
_cell_length_a 9.018047
_cell_length_b 5.702477
_cell_length_c 16.113920
_cell_angle_alpha 62.980325
_cell_angle_beta 114.515936
_cell_angle_gamma 98.157116
_cell_volume 670.548750
_symmetry_space_group_name_H-M "P -1"
_symmetry_group_IT_number 2
_symmetry_cell_setting 'triclinic'
loop_
_space_group_symop_operation_xyz
x,y,z
-x,-y,-z
loop_
_atom_site_type_symbol
_atom_site_label
_atom_site_fract_x
_atom_site_fract_y
_atom_site_fract_z
Si Si1 0.355349 0.136888 0.386734
Si Si2 0.192734 0.636320 0.113978
Si Si3 0.438329 0.256009 0.848329
Si Si4 0.770375 0.637014 0.363642
Si Si5 0.609518 0.742629 0.976515
Si Si6 0.458252 0.670915 0.380156
Si Si7 0.897346 0.848882 0.906014
Si Si8 0.928996 0.098423 0.554886
O O1 0.390638 0.446067 0.339484
O O2 0.500000 0.000000 0.500000
O O3 0.357778 0.936074 0.341763
O O4 0.186006 0.108493 0.399110
O O5 0.382545 0.625559 0.131551
O O6 0.132698 0.339320 0.149458
O O7 0.151190 0.838613 0.148352
O O8 0.079742 0.782195 0.992486
O O9 0.307677 0.410075 0.736060
O O10 0.363213 0.196882 0.929854
O O11 0.491339 0.968325 0.870594
O O12 0.624603 0.763664 0.364978
O O13 0.823261 0.367062 0.466067
O O14 0.923150 0.816990 0.367156
O O15 0.500000 0.500000 0.000000
O O16 0.774989 0.732009 0.965547
O O17 0.500000 0.500000 0.500000
O O18 0.000000 0.000000 0.500000
#
# Coordination Sequence:
#
# PCOD9087517 Si02
#       8
#     2   2   2   2   2   2   2   2
#     4  10  19  36  64  88 118 161 210 255 321 388
#     4   9  17  33  55  86 110 151 195 250 296 363
#     4  10  22  38  59  89 125 160 214 257 313 375
#     4  11  24  39  62  94 127 167 220 270 324 385
#     4  10  19  37  61  86 120 167 199 251 315 371
#     4  10  19  38  62  89 117 162 205 261 316 390
#     4   9  17  31  59  83 112 151 201 238 303 366
#     4  11  23  39  64  91 125 173 213 273 329 384
#
# _framework density 23.861056000000001
#
# number of rings (size 3 to 8) (size 9 to 14) (size 15 to 20)
#    0.000    2.000    3.750    1.500    1.750    1.000 
#    0.000    1.250    2.750    0.000    0.000    0.000 
#    0.000    0.000    0.000    0.000    0.000    0.000 
#
# Total GULP energy -89307.220794 kJ/mol
# GULP energy per Si atom -5581.701300 kJ/mol
# Density = 2.380675 g / cm^3
# Si number density = 23.861056 Si / 1000 Ang^3
#
#
#
# Elastic Constant Matrix: (Units=GPa)
#
#
# Indices 1 2 3 4 5 6 
#
# 1 109.7171 18.4259 29.4333 9.1745 11.9201 4.1268
# 2 18.4259 153.6201 21.4960 4.3331 20.1090 -3.2285
# 3 29.4333 21.4960 78.5208 0.5751 13.5029 7.4206
# 4 9.1745 4.3331 0.5751 20.4717 -0.0473 1.9840
# 5 11.9201 20.1090 13.5029 -0.0473 20.0503 8.8230
# 6 4.1268 -3.2285 7.4206 1.9840 8.8230 46.7827
#
#
#
# Elastic Compliance Matrix: (Units=1/GPa)
#
#
# Indices 1 2 3 4 5 6 
#
# 1 0.010881 -0.000118 -0.003312 -0.004826 -0.004391 0.000590
# 2 -0.000118 0.007822 -0.000893 -0.001821 -0.008196 0.002315
# 3 -0.003312 -0.000893 0.015535 0.001311 -0.007184 -0.000934
# 4 -0.004826 -0.001821 0.001311 0.051672 0.005297 -0.003098
# 5 -0.004391 -0.008196 -0.007184 0.005297 0.071134 -0.012679
# 6 0.000590 0.002315 -0.000934 -0.003098 -0.012679 0.024154
#
#
# Mechanical properties :
#
#
# Convention : Reuss Voigt Hill
#
# Bulk Modulus (GPa) = 39.07482 53.39649 46.23565
# Shear Modulus (GPa) = 25.20490 35.62778 30.41634
#
# Velocity S-wave (km/s) = 3.25363 3.86830 3.57421
# Velocity P-wave (km/s) = 5.52507 6.50987 6.03758
#
# Compressibility (1/GPa) = 0.02559193
#
# Stress axis : x y z
#
# Youngs Moduli (GPa) = 91.90325 127.85243 64.36931
#
# Poissons Ratio (x) = 0.01514 0.21317
# Poissons Ratio (y) = 0.01089 0.05747
# Poissons Ratio (z) = 0.30435 0.11416
#
# Static dielectric constant tensor:
#      x y z
#    x 1.942080 0.016000 0.004830 
#    y 0.016000 2.075990 0.064050 
#    z 0.004830 0.064050 1.967350 
# 
# From -- ./inp_files/553286.got.cif
#   From: 2010.05.17/outbox.cif.g08.bks.cpg/sg2_277_cif.got.tgz:553286.got - 2010.06.03 11:33:40.
