data_PCOD9087087
_publ_section_title
;
Structure prediction by ZEFSAII (Michael W. Deem and Ramdas Pophale) SiO2 
 PCOD9087087
Probable space group: P -1
;
_chemical_formula_sum "Si O2"
_cell_formula_units_Z 14
_cell_length_a 8.854210
_cell_length_b 12.481163
_cell_length_c 11.933849
_cell_angle_alpha 115.115480
_cell_angle_beta 127.747186
_cell_angle_gamma 37.803599
_cell_volume 634.407549
_symmetry_space_group_name_H-M "P -1"
_symmetry_group_IT_number 2
_symmetry_cell_setting 'triclinic'
loop_
_space_group_symop_operation_xyz
x,y,z
-x,-y,-z
loop_
_atom_site_type_symbol
_atom_site_label
_atom_site_fract_x
_atom_site_fract_y
_atom_site_fract_z
Si Si1 0.594363 0.387096 0.102872
Si Si2 0.730752 0.047718 0.550318
Si Si3 0.837309 0.466650 0.845776
Si Si4 0.764408 0.926391 0.159650
Si Si5 0.772799 0.048627 0.001891
Si Si6 0.334197 0.796393 0.621336
Si Si7 0.735941 0.926787 0.723648
O O1 0.370866 0.510310 0.154607
O O2 0.929646 0.261484 0.215109
O O3 0.500000 0.500000 0.000000
O O4 0.577001 0.251064 0.027177
O O5 0.708226 0.045184 0.672669
O O6 0.052648 0.863602 0.576011
O O7 0.683343 0.186239 0.513622
O O8 0.479202 0.076066 0.410484
O O9 0.627108 0.612532 0.720121
O O10 0.057007 0.269238 0.811878
O O11 0.000000 0.500000 0.000000
O O12 0.690808 0.058521 0.276139
O O13 0.500000 0.000000 0.000000
O O14 0.903410 0.938262 0.125788
O O15 0.654483 0.002171 0.845879
O O16 0.000000 0.000000 0.000000
#
# Coordination Sequence:
#
# PCOD9087087 Si02
#       7
#     2   2   2   2   2   2   2
#     4  11  22  37  62  99 125 153 203 270 318 363
#     4  10  22  39  64  83 125 179 204 248 294 379
#     4  12  23  38  64  98 127 154 205 264 321 369
#     4  12  22  39  65  96 125 157 198 265 323 368
#     4  10  19  36  61  93 121 153 198 255 317 361
#     4  11  22  42  63  91 126 163 213 249 312 365
#     4  10  20  39  64  87 121 171 210 240 318 364
#
# _framework density 22.067831000000002
#
# number of rings (size 3 to 8) (size 9 to 14) (size 15 to 20)
#    0.000    1.143    4.286    3.429    2.000    0.000 
#    0.000    2.857    6.286    2.571    0.000    0.000 
#    0.000    0.000    0.000    0.000    0.000    0.000 
#
# Total GULP energy -78069.641189 kJ/mol
# GULP energy per Si atom -5576.402942 kJ/mol
# Density = 2.201760 g / cm^3
# Si number density = 22.067831 Si / 1000 Ang^3
#
#
#
# Elastic Constant Matrix: (Units=GPa)
#
#
# Indices 1 2 3 4 5 6 
#
# 1 97.4446 16.7284 18.3226 -14.2599 -2.6885 -1.0398
# 2 16.7284 135.7840 26.1738 -29.2353 -1.4708 4.8328
# 3 18.3226 26.1738 66.4006 -27.1629 5.5415 1.8619
# 4 -14.2599 -29.2353 -27.1629 39.4188 5.9107 -5.9190
# 5 -2.6885 -1.4708 5.5415 5.9107 65.0383 -12.4486
# 6 -1.0398 4.8328 1.8619 -5.9190 -12.4486 34.2959
#
#
#
# Elastic Compliance Matrix: (Units=1/GPa)
#
#
# Indices 1 2 3 4 5 6 
#
# 1 0.011096 -0.000514 -0.001984 0.002344 0.000623 0.001147
# 2 -0.000514 0.008853 -0.000979 0.005702 -0.000321 -0.000342
# 3 -0.001984 -0.000979 0.022114 0.014307 -0.003257 0.000164
# 4 0.002344 0.005702 0.014307 0.041533 -0.003960 0.004221
# 5 0.000623 -0.000321 -0.003257 -0.003960 0.017137 0.005778
# 6 0.001147 -0.000342 0.000164 0.004221 0.005778 0.032058
#
#
# Mechanical properties :
#
#
# Convention : Reuss Voigt Hill
#
# Bulk Modulus (GPa) = 28.48293 46.89762 37.69028
# Shear Modulus (GPa) = 33.01474 43.64423 38.32948
#
# Velocity S-wave (km/s) = 3.87209 4.45199 4.17213
# Velocity P-wave (km/s) = 5.73810 6.90831 6.35021
#
# Compressibility (1/GPa) = 0.03510874
#
# Stress axis : x y z
#
# Youngs Moduli (GPa) = 90.12188 112.95496 45.22121
#
# Poissons Ratio (x) = 0.05804 0.08974
# Poissons Ratio (y) = 0.04631 0.04426
# Poissons Ratio (z) = 0.17884 0.11056
#
# Static dielectric constant tensor:
#      x y z
#    x 1.951700 0.036670 0.042420 
#    y 0.036670 1.902140 0.046240 
#    z 0.042420 0.046240 1.935960 
# 
# From -- ./inp_files/253829.got.cif
#   From: 2010.05.17/outbox.cif.g08.bks.cpg/sg2_127_cif.got.tgz:253829.got - 2010.06.03 11:33:40.
