data_PCOD9087177
_publ_section_title
;
Structure prediction by ZEFSAII (Michael W. Deem and Ramdas Pophale) SiO2 
 PCOD9087177
Probable space group: P -1
;
_chemical_formula_sum "Si O2"
_cell_formula_units_Z 12
_cell_length_a 23.909342
_cell_length_b 8.949161
_cell_length_c 5.442786
_cell_angle_alpha 74.189252
_cell_angle_beta 105.485393
_cell_angle_gamma 156.682921
_cell_volume 443.094512
_symmetry_space_group_name_H-M "P -1"
_symmetry_group_IT_number 2
_symmetry_cell_setting 'triclinic'
loop_
_space_group_symop_operation_xyz
x,y,z
-x,-y,-z
loop_
_atom_site_type_symbol
_atom_site_label
_atom_site_fract_x
_atom_site_fract_y
_atom_site_fract_z
Si Si1 0.578139 0.536732 0.996732
Si Si2 0.341571 0.559091 0.729006
Si Si3 0.224772 0.574107 0.567403
Si Si4 0.158979 0.720910 0.708661
Si Si5 0.749279 0.812587 0.713619
Si Si6 0.977342 0.807469 0.870284
O O1 0.619738 0.615791 0.725770
O O2 0.500000 0.500000 0.000000
O O3 0.528172 0.244369 0.164147
O O4 0.726372 0.918452 0.146458
O O5 0.356597 0.781181 0.649627
O O6 0.279762 0.367269 0.473540
O O7 0.255091 0.301172 0.993445
O O8 0.219332 0.702892 0.692557
O O9 0.175925 0.538568 0.277514
O O10 0.096729 0.135117 0.661601
O O11 0.136668 0.780911 0.426103
O O12 0.029042 0.360619 0.894474
O O13 0.000000 0.000000 0.000000
#
# Coordination Sequence:
#
# PCOD9087177 Si02
#       6
#     2   2   2   2   2   2
#     4   9  20  39  63  87 115 155 196 241 298 354
#     4   9  21  36  60  85 121 154 191 248 295 339
#     4  10  20  36  59  87 120 156 201 238 291 346
#     4  10  19  36  62  86 119 156 202 238 290 351
#     4   9  20  38  56  85 116 154 193 239 295 346
#     4   9  20  34  58  84 119 159 197 236 292 348
#
# _framework density 27.082260000000002
#
# number of rings (size 3 to 8) (size 9 to 14) (size 15 to 20)
#    1.000    1.667    0.000    1.000    4.667    2.667 
#    0.000    5.000    0.000    5.000    0.000    0.000 
#    0.000    0.000    0.000    0.000    0.000    0.000 
#
# Total GULP energy -66824.912556 kJ/mol
# GULP energy per Si atom -5568.742713 kJ/mol
# Density = 2.702062 g / cm^3
# Si number density = 27.082260 Si / 1000 Ang^3
#
#
#
# Elastic Constant Matrix: (Units=GPa)
#
#
# Indices 1 2 3 4 5 6 
#
# 1 133.8765 18.5546 58.2358 0.8424 5.8172 -18.9462
# 2 18.5546 57.0359 37.0743 -1.3245 -5.2607 -17.4065
# 3 58.2358 37.0743 198.1718 -15.2329 -0.1446 -17.6142
# 4 0.8424 -1.3245 -15.2329 46.0435 -14.9249 -13.0922
# 5 5.8172 -5.2607 -0.1446 -14.9249 52.7081 -3.6602
# 6 -18.9462 -17.4065 -17.6142 -13.0922 -3.6602 19.7299
#
#
#
# Elastic Compliance Matrix: (Units=1/GPa)
#
#
# Indices 1 2 3 4 5 6 
#
# 1 0.009551 0.001382 -0.001988 0.002237 0.000419 0.010178
# 2 0.001382 0.031289 -0.001675 0.014559 0.009791 0.038914
# 3 -0.001988 -0.001675 0.006834 0.004551 0.001781 0.006064
# 4 0.002237 0.014559 0.004551 0.043744 0.017165 0.051267
# 5 0.000419 0.009791 0.001781 0.017165 0.026641 0.026962
# 6 0.010178 0.038914 0.006064 0.051267 0.026962 0.139224
#
#
# Mechanical properties :
#
#
# Convention : Reuss Voigt Hill
#
# Bulk Modulus (GPa) = 23.19553 68.53483 45.86518
# Shear Modulus (GPa) = 18.10181 42.04426 30.07304
#
# Velocity S-wave (km/s) = 2.58815 3.94441 3.33593
# Velocity P-wave (km/s) = 4.18507 6.79011 5.64005
#
# Compressibility (1/GPa) = 0.04311176
#
# Stress axis : x y z
#
# Youngs Moduli (GPa) = 104.70035 31.96026 146.33064
#
# Poissons Ratio (x) = -0.04417 0.29097
# Poissons Ratio (y) = -0.14470 0.24505
# Poissons Ratio (z) = 0.20819 0.05352
#
# Static dielectric constant tensor:
#      x y z
#    x 2.348940 0.095500 -0.013520 
#    y 0.095500 2.261750 -0.078340 
#    z -0.013520 -0.078340 2.128590 
# 
# From -- ./inp_files/55997.got.cif
#   From: 2010.05.17/outbox.cif.g08.bks.cpg/sg2_28_cif.got.tgz:55997.got - 2010.06.03 11:33:40.
