data_PCOD9087081
_publ_section_title
;
Structure prediction by ZEFSAII (Michael W. Deem and Ramdas Pophale) SiO2 
 PCOD9087081
Probable space group: P -1
;
_chemical_formula_sum "Si O2"
_cell_formula_units_Z 16
_cell_length_a 13.663776
_cell_length_b 13.797636
_cell_length_c 12.067443
_cell_angle_alpha 148.301543
_cell_angle_beta 113.312949
_cell_angle_gamma 45.935628
_cell_volume 734.220208
_symmetry_space_group_name_H-M "P -1"
_symmetry_group_IT_number 2
_symmetry_cell_setting 'triclinic'
loop_
_space_group_symop_operation_xyz
x,y,z
-x,-y,-z
loop_
_atom_site_type_symbol
_atom_site_label
_atom_site_fract_x
_atom_site_fract_y
_atom_site_fract_z
Si Si1 0.933388 0.250611 0.825028
Si Si2 0.107946 0.204607 0.323669
Si Si3 0.608935 0.350799 0.227234
Si Si4 0.285328 0.947135 0.620169
Si Si5 0.792347 0.459880 0.503658
Si Si6 0.631885 0.989158 0.046838
Si Si7 0.157401 0.277538 0.659209
Si Si8 0.907780 0.311666 0.635117
O O1 0.840967 0.392756 0.806596
O O2 0.863716 0.476008 0.102765
O O3 0.114423 0.077430 0.703877
O O4 0.946744 0.020564 0.634458
O O5 0.180700 0.187470 0.455734
O O6 0.000000 0.500000 0.500000
O O7 0.972934 0.224919 0.312327
O O8 0.255118 0.923083 0.051745
O O9 0.432808 0.614857 0.357040
O O10 0.678663 0.465567 0.396301
O O11 0.595166 0.232832 0.212269
O O12 0.264199 0.072703 0.612504
O O13 0.322738 0.029762 0.823494
O O14 0.751076 0.729163 0.762882
O O15 0.790844 0.400819 0.574030
O O16 0.500000 0.000000 0.000000
O O17 0.986823 0.405852 0.738618
#
# Coordination Sequence:
#
# PCOD9087081 Si02
#       8
#     2   2   2   2   2   2   2   2
#     4  10  19  36  61  92 127 160 205 259 327 377
#     4  11  24  45  69  90 126 176 227 263 310 379
#     4  12  26  42  63  98 130 175 215 263 321 378
#     4  11  22  40  63  94 132 165 208 266 327 386
#     4  11  22  41  66  93 127 170 216 265 312 379
#     4  12  24  40  64  98 135 164 207 259 335 388
#     4  10  22  42  63  90 126 170 212 266 313 374
#     4   9  19  32  59  94 119 158 207 256 316 378
#
# _framework density 21.791827000000001
#
# number of rings (size 3 to 8) (size 9 to 14) (size 15 to 20)
#    0.000    1.250    2.500    5.250    3.500    0.500 
#    2.250    0.000    0.000    3.000    0.000    0.000 
#    0.000    0.000    0.000    0.000    0.000    0.000 
#
# Total GULP energy -89161.303489 kJ/mol
# GULP energy per Si atom -5572.581468 kJ/mol
# Density = 2.174223 g / cm^3
# Si number density = 21.791827 Si / 1000 Ang^3
#
#
#
# Elastic Constant Matrix: (Units=GPa)
#
#
# Indices 1 2 3 4 5 6 
#
# 1 54.9421 28.5137 30.5223 -3.6556 -2.1977 -5.7816
# 2 28.5137 120.4963 60.8909 -3.0442 -5.5590 6.6190
# 3 30.5223 60.8909 136.7814 3.6600 -0.1366 3.9457
# 4 -3.6556 -3.0442 3.6600 34.6795 -3.9695 4.2862
# 5 -2.1977 -5.5590 -0.1366 -3.9695 35.4249 5.5617
# 6 -5.7816 6.6190 3.9457 4.2862 5.5617 21.5102
#
#
#
# Elastic Compliance Matrix: (Units=1/GPa)
#
#
# Indices 1 2 3 4 5 6 
#
# 1 0.023266 -0.004077 -0.003646 0.001461 -0.000297 0.007962
# 2 -0.004077 0.011874 -0.004282 0.001985 0.002607 -0.005034
# 3 -0.003646 -0.004282 0.010105 -0.001819 -0.000919 -0.000916
# 4 0.001461 0.001985 -0.001819 0.030833 0.004999 -0.007321
# 5 -0.000297 0.002607 -0.000919 0.004999 0.030690 -0.009645
# 6 0.007962 -0.005034 -0.000916 -0.007321 -0.009645 0.054299
#
#
# Mechanical properties :
#
#
# Convention : Reuss Voigt Hill
#
# Bulk Modulus (GPa) = 47.09094 61.34151 54.21622
# Shear Modulus (GPa) = 26.02071 31.14243 28.58157
#
# Velocity S-wave (km/s) = 3.45926 3.78443 3.62549
# Velocity P-wave (km/s) = 6.13284 6.87792 6.51604
#
# Compressibility (1/GPa) = 0.02123551
#
# Stress axis : x y z
#
# Youngs Moduli (GPa) = 42.98204 84.21468 98.96454
#
# Poissons Ratio (x) = 0.34337 0.36078
# Poissons Ratio (y) = 0.17525 0.42372
# Poissons Ratio (z) = 0.15669 0.36057
#
# Static dielectric constant tensor:
#      x y z
#    x 1.804460 0.034750 -0.006650 
#    y 0.034750 1.891100 0.056190 
#    z -0.006650 0.056190 1.903290 
# 
# From -- ./inp_files/456046.got.cif
#   From: 2010.05.17/outbox.cif.g08.bks.cpg/sg2_229_cif.got.tgz:456046.got - 2010.06.03 11:33:40.
