data_PCOD9087791
_publ_section_title
;
Structure prediction by ZEFSAII (Michael W. Deem and Ramdas Pophale) SiO2 
 PCOD9087791
Probable space group: P -1
;
_chemical_formula_sum "Si O2"
_cell_formula_units_Z 16
_cell_length_a 10.908835
_cell_length_b 8.514837
_cell_length_c 15.374303
_cell_angle_alpha 93.576134
_cell_angle_beta 38.047068
_cell_angle_gamma 112.356465
_cell_volume 740.168179
_symmetry_space_group_name_H-M "P -1"
_symmetry_group_IT_number 2
_symmetry_cell_setting 'triclinic'
loop_
_space_group_symop_operation_xyz
x,y,z
-x,-y,-z
loop_
_atom_site_type_symbol
_atom_site_label
_atom_site_fract_x
_atom_site_fract_y
_atom_site_fract_z
Si Si1 0.226475 0.515307 0.273620
Si Si2 0.094490 0.476108 0.160192
Si Si3 0.629106 0.504481 0.155909
Si Si4 0.279362 0.454000 0.558923
Si Si5 0.759760 0.038654 0.360047
Si Si6 0.724234 0.840855 0.553792
Si Si7 0.245028 0.821520 0.391151
Si Si8 0.369427 0.194512 0.734386
O O1 0.268359 0.544760 0.148426
O O2 0.412570 0.487366 0.220614
O O3 0.232428 0.694465 0.314180
O O4 0.971960 0.331175 0.432477
O O5 0.921541 0.549667 0.272781
O O6 0.942541 0.254212 0.250992
O O7 0.209347 0.515486 0.003501
O O8 0.523384 0.338337 0.279964
O O9 0.737386 0.707528 0.147010
O O10 0.500000 0.500000 0.500000
O O11 0.170864 0.277340 0.548039
O O12 0.401089 0.630254 0.433156
O O13 0.500000 0.000000 0.500000
O O14 0.753794 0.953779 0.453351
O O15 0.790197 0.931671 0.259457
O O16 0.786489 0.003538 0.595229
O O17 0.507689 0.896503 0.285594
#
# Coordination Sequence:
#
# PCOD9087791 Si02
#       8
#     2   2   2   2   2   2   2   2
#     4  10  20  41  65  89 118 164 211 249 302 363
#     4  12  23  43  62  90 123 170 200 248 316 366
#     4  10  26  39  60  91 136 154 195 262 319 353
#     4  11  20  35  62  87 122 157 204 246 300 359
#     4  12  19  37  71  87 115 163 219 244 287 374
#     4  11  21  38  60  96 121 155 208 257 298 356
#     4  10  19  36  68  93 111 159 216 259 281 358
#     4  10  19  39  61  93 119 161 206 249 297 368
#
# _framework density 21.616709
#
# number of rings (size 3 to 8) (size 9 to 14) (size 15 to 20)
#    0.000    1.250    6.250    0.375    1.750    1.000 
#    0.000    8.750    0.000    0.000    0.000    0.000 
#    0.000    0.000    0.000    0.000    0.000    0.000 
#
# Total GULP energy -89169.394808 kJ/mol
# GULP energy per Si atom -5573.087176 kJ/mol
# Density = 2.156751 g / cm^3
# Si number density = 21.616709 Si / 1000 Ang^3
#
#
#
# Elastic Constant Matrix: (Units=GPa)
#
#
# Indices 1 2 3 4 5 6 
#
# 1 27.4260 10.1576 4.1209 -1.2211 -1.3729 1.3070
# 2 10.1576 158.2535 35.8169 27.1126 2.6713 14.7191
# 3 4.1209 35.8169 96.2304 33.4099 19.6478 2.0601
# 4 -1.2211 27.1126 33.4099 35.7821 -0.5303 9.8961
# 5 -1.3729 2.6713 19.6478 -0.5303 17.1164 9.7273
# 6 1.3070 14.7191 2.0601 9.8961 9.7273 29.6620
#
#
#
# Elastic Compliance Matrix: (Units=1/GPa)
#
#
# Indices 1 2 3 4 5 6 
#
# 1 0.042843 -0.002106 -0.014753 0.022128 0.031313 -0.017469
# 2 -0.002106 0.007784 -0.002922 -0.001976 0.004377 -0.004343
# 3 -0.014753 -0.002922 0.047362 -0.056010 -0.082067 0.044410
# 4 0.022128 -0.001976 -0.056010 0.102078 0.106533 -0.065097
# 5 0.031313 0.004377 -0.082067 0.106533 0.217216 -0.104628
# 6 -0.017469 -0.004343 0.044410 -0.065097 -0.104628 0.089583
#
#
# Mechanical properties :
#
#
# Convention : Reuss Voigt Hill
#
# Bulk Modulus (GPa) = 17.11472 42.45564 29.78518
# Shear Modulus (GPa) = 8.83544 31.96642 20.40093
#
# Velocity S-wave (km/s) = 2.02391 3.84967 3.07540
# Velocity P-wave (km/s) = 3.66007 6.28035 5.13998
#
# Compressibility (1/GPa) = 0.05842922
#
# Stress axis : x y z
#
# Youngs Moduli (GPa) = 23.34078 128.46903 21.11397
#
# Poissons Ratio (x) = 0.27053 0.31149
# Poissons Ratio (y) = 0.04915 0.06169
# Poissons Ratio (z) = 0.34434 0.37535
#
# Static dielectric constant tensor:
#      x y z
#    x 1.882350 0.003990 0.007920 
#    y 0.003990 1.809910 0.058640 
#    z 0.007920 0.058640 1.749850 
# 
# From -- ./inp_files/515639.got.cif
#   From: 2010.05.17/outbox.cif.g08.bks.cpg/sg2_258_cif.got.tgz:515639.got - 2010.06.03 11:33:40.
