data_PCOD9087004
_publ_section_title
;
Structure prediction by ZEFSAII (Michael W. Deem and Ramdas Pophale) SiO2 
 PCOD9087004
Probable space group: P -1
;
_chemical_formula_sum "Si O2"
_cell_formula_units_Z 12
_cell_length_a 7.020582
_cell_length_b 11.929012
_cell_length_c 9.236430
_cell_angle_alpha 130.379547
_cell_angle_beta 129.945882
_cell_angle_gamma 66.524370
_cell_volume 451.550060
_symmetry_space_group_name_H-M "P -1"
_symmetry_group_IT_number 2
_symmetry_cell_setting 'triclinic'
loop_
_space_group_symop_operation_xyz
x,y,z
-x,-y,-z
loop_
_atom_site_type_symbol
_atom_site_label
_atom_site_fract_x
_atom_site_fract_y
_atom_site_fract_z
Si Si1 0.138996 0.281345 0.684483
Si Si2 0.830006 0.198654 0.196074
Si Si3 0.907972 0.701933 0.999442
Si Si4 0.711967 0.046366 0.530080
Si Si5 0.809957 0.464012 0.244467
Si Si6 0.333096 0.133330 0.200468
O O1 0.313028 0.388670 0.755011
O O2 0.907752 0.259711 0.442223
O O3 0.114593 0.345399 0.886318
O O4 0.197096 0.111791 0.605466
O O5 0.682533 0.315594 0.123872
O O6 0.095100 0.173858 0.219143
O O7 0.704577 0.037480 0.004530
O O8 0.081838 0.850865 0.208723
O O9 0.032732 0.586458 0.858801
O O10 0.666849 0.756769 0.842849
O O11 0.580440 0.138641 0.419867
O O12 0.500000 0.000000 0.500000
O O13 0.000000 0.500000 0.500000
#
# Coordination Sequence:
#
# PCOD9087004 Si02
#       6
#     2   2   2   2   2   2
#     4  11  21  38  61  92 122 156 197 246 304 346
#     4   9  17  37  61  85 118 158 197 243 285 354
#     4  11  23  40  63  89 124 153 195 257 298 345
#     4  12  22  37  64  92 120 158 202 241 292 364
#     4   9  20  38  66  84 113 168 201 234 298 363
#     4  10  19  36  61  88 119 154 201 237 294 348
#
# _framework density 26.575127999999999
#
# number of rings (size 3 to 8) (size 9 to 14) (size 15 to 20)
#    0.000    1.667    3.333    3.000    0.000    0.667 
#    0.000    3.333    0.000    5.000    0.000    0.000 
#    0.000    0.000    0.000    0.000    0.000    0.000 
#
# Total GULP energy -67134.659207 kJ/mol
# GULP energy per Si atom -5594.554934 kJ/mol
# Density = 2.651464 g / cm^3
# Si number density = 26.575128 Si / 1000 Ang^3
#
#
#
# Elastic Constant Matrix: (Units=GPa)
#
#
# Indices 1 2 3 4 5 6 
#
# 1 77.8165 34.3149 34.3729 -12.4785 -22.4706 17.2284
# 2 34.3149 174.9832 36.9530 -28.3065 -17.6811 21.0855
# 3 34.3729 36.9530 116.6081 -20.8949 -32.6214 -4.3673
# 4 -12.4785 -28.3065 -20.8949 53.8288 5.5776 -8.6557
# 5 -22.4706 -17.6811 -32.6214 5.5776 44.9760 -10.5078
# 6 17.2284 21.0855 -4.3673 -8.6557 -10.5078 38.9464
#
#
#
# Elastic Compliance Matrix: (Units=1/GPa)
#
#
# Indices 1 2 3 4 5 6 
#
# 1 0.017814 -0.001442 -0.003827 0.000449 0.004020 -0.006344
# 2 -0.001442 0.007029 -0.001484 0.002332 0.000021 -0.002810
# 3 -0.003827 -0.001484 0.013509 0.003847 0.008498 0.007159
# 4 0.000449 0.002332 0.003847 0.021882 0.002255 0.004442
# 5 0.004020 0.000021 0.008498 0.002255 0.032079 0.008320
# 6 -0.006344 -0.002810 0.007159 0.004442 0.008320 0.034039
#
#
# Mechanical properties :
#
#
# Convention : Reuss Voigt Hill
#
# Bulk Modulus (GPa) = 40.24669 64.52104 52.38387
# Shear Modulus (GPa) = 33.75204 45.13469 39.44337
#
# Velocity S-wave (km/s) = 3.56766 4.12561 3.85674
# Velocity P-wave (km/s) = 5.66995 6.85753 6.29182
#
# Compressibility (1/GPa) = 0.02484677
#
# Stress axis : x y z
#
# Youngs Moduli (GPa) = 56.13413 142.26873 74.02522
#
# Poissons Ratio (x) = 0.20515 0.28328
# Poissons Ratio (y) = 0.08094 0.10985
# Poissons Ratio (z) = 0.21481 0.21113
#
# Static dielectric constant tensor:
#      x y z
#    x 2.218840 -0.071950 -0.001670 
#    y -0.071950 2.260560 0.061740 
#    z -0.001670 0.061740 2.072440 
# 
# From -- ./inp_files/182190.got.cif
#   From: 2010.05.17/outbox.cif.g08.bks.cpg/sg2_92_cif.got.tgz:182190.got - 2010.06.03 11:33:40.
