data_PCOD9087895
_publ_section_title
;
Structure prediction by ZEFSAII (Michael W. Deem and Ramdas Pophale) SiO2 
 PCOD9087895
Probable space group: P -1
;
_chemical_formula_sum "Si O2"
_cell_formula_units_Z 16
_cell_length_a 11.404946
_cell_length_b 8.978473
_cell_length_c 20.337500
_cell_angle_alpha 139.267882
_cell_angle_beta 145.295603
_cell_angle_gamma 38.526940
_cell_volume 698.894970
_symmetry_space_group_name_H-M "P -1"
_symmetry_group_IT_number 2
_symmetry_cell_setting 'triclinic'
loop_
_space_group_symop_operation_xyz
x,y,z
-x,-y,-z
loop_
_atom_site_type_symbol
_atom_site_label
_atom_site_fract_x
_atom_site_fract_y
_atom_site_fract_z
Si Si1 0.152258 0.960540 0.152458
Si Si2 0.720521 0.464194 0.166231
Si Si3 0.607589 0.093001 0.166940
Si Si4 0.000545 0.590859 0.604027
Si Si5 0.522392 0.982547 0.786779
Si Si6 0.647022 0.388779 0.393485
Si Si7 0.330606 0.891088 0.355377
Si Si8 0.311281 0.409145 0.014290
O O1 0.923868 0.213199 0.147161
O O2 0.281801 0.014748 0.168869
O O3 0.313652 0.895097 0.270048
O O4 0.133936 0.696601 0.042595
O O5 0.674103 0.732572 0.204174
O O6 0.486460 0.436144 0.051614
O O7 0.777213 0.504480 0.281557
O O8 0.425045 0.091262 0.137243
O O9 0.740245 0.209775 0.312413
O O10 0.465853 0.274344 0.103997
O O11 0.755538 0.809738 0.114860
O O12 0.825414 0.500894 0.531540
O O13 0.000000 0.500000 0.500000
O O14 0.910642 0.891822 0.663720
O O15 0.422164 0.786317 0.649580
O O16 0.419775 0.619846 0.338663
O O17 0.500000 0.000000 0.500000
#
# Coordination Sequence:
#
# PCOD9087895 Si02
#       8
#     2   2   2   2   2   2   2   2
#     4  10  19  37  56  82 115 151 187 228 277 337
#     4  10  22  36  56  88 111 150 191 223 283 340
#     4   9  19  37  60  87 105 153 188 229 292 319
#     4  10  20  33  58  84 106 145 187 236 277 327
#     4   9  21  37  57  79 124 146 182 229 288 334
#     4   9  18  38  55  79 113 141 187 232 273 328
#     4   9  18  33  57  78 104 142 198 221 266 335
#     4  10  19  38  66  77 114 147 191 240 270 330
#
# _framework density 22.893281999999999
#
# number of rings (size 3 to 8) (size 9 to 14) (size 15 to 20)
#    0.750    1.750    1.250    0.750    5.250    2.500 
#    2.250   11.875    2.750    0.000    0.000    0.000 
#    0.000    0.000    0.000    0.000    0.000    0.000 
#
# Total GULP energy -89129.234882 kJ/mol
# GULP energy per Si atom -5570.577180 kJ/mol
# Density = 2.284118 g / cm^3
# Si number density = 22.893282 Si / 1000 Ang^3
#
#
#
# Elastic Constant Matrix: (Units=GPa)
#
#
# Indices 1 2 3 4 5 6 
#
# 1 74.4857 44.0012 4.5448 13.6463 -7.2540 -0.8193
# 2 44.0012 132.4955 34.6153 42.8833 13.5374 -0.2482
# 3 4.5448 34.6153 79.5546 28.1898 -0.3377 0.5469
# 4 13.6463 42.8833 28.1898 39.1171 2.6134 -4.4169
# 5 -7.2540 13.5374 -0.3377 2.6134 24.8415 4.7068
# 6 -0.8193 -0.2482 0.5469 -4.4169 4.7068 27.9082
#
#
#
# Elastic Compliance Matrix: (Units=1/GPa)
#
#
# Indices 1 2 3 4 5 6 
#
# 1 0.018978 -0.007755 0.002651 -0.000868 0.010164 -0.001415
# 2 -0.007755 0.015618 -0.001997 -0.012395 -0.009419 -0.000423
# 3 0.002651 -0.001997 0.017567 -0.011976 0.003899 -0.002837
# 4 -0.000868 -0.012395 -0.011976 0.049000 -0.000314 0.007907
# 5 0.010164 -0.009419 0.003899 -0.000314 0.050024 -0.008348
# 6 -0.001415 -0.000423 -0.002837 0.007907 -0.008348 0.038501
#
#
# Mechanical properties :
#
#
# Convention : Reuss Voigt Hill
#
# Bulk Modulus (GPa) = 26.34406 50.31761 38.33083
# Shear Modulus (GPa) = 23.08978 31.93165 27.51071
#
# Velocity S-wave (km/s) = 3.17926 3.73876 3.47031
# Velocity P-wave (km/s) = 5.00093 6.37689 5.73036
#
# Compressibility (1/GPa) = 0.03795922
#
# Stress axis : x y z
#
# Youngs Moduli (GPa) = 52.69208 64.02776 56.92422
#
# Poissons Ratio (x) = 0.49656 -0.15088
# Poissons Ratio (y) = 0.40864 0.11370
# Poissons Ratio (z) = -0.13966 0.12789
#
# Static dielectric constant tensor:
#      x y z
#    x 1.923900 0.008220 0.010770 
#    y 0.008220 1.940770 0.008870 
#    z 0.010770 0.008870 1.889180 
# 
# From -- ./inp_files/609926.got.cif
#   From: 2010.05.17/outbox.cif.g08.bks.cpg/sg2_305_cif.got.tgz:609926.got - 2010.06.03 11:33:40.
