data_PCOD9087421
_publ_section_title
;
Structure prediction by ZEFSAII (Michael W. Deem and Ramdas Pophale) SiO2 
 PCOD9087421
Probable space group: P -1
;
_chemical_formula_sum "Si O2"
_cell_formula_units_Z 14
_cell_length_a 17.860790
_cell_length_b 9.653832
_cell_length_c 8.788080
_cell_angle_alpha 30.640297
_cell_angle_beta 62.800796
_cell_angle_gamma 58.469681
_cell_volume 658.157229
_symmetry_space_group_name_H-M "P -1"
_symmetry_group_IT_number 2
_symmetry_cell_setting 'triclinic'
loop_
_space_group_symop_operation_xyz
x,y,z
-x,-y,-z
loop_
_atom_site_type_symbol
_atom_site_label
_atom_site_fract_x
_atom_site_fract_y
_atom_site_fract_z
Si Si1 0.865104 0.326704 0.546143
Si Si2 0.022929 0.297967 0.024162
Si Si3 0.399067 0.189238 0.918387
Si Si4 0.409235 0.329294 0.116921
Si Si5 0.939629 0.312758 0.792770
Si Si6 0.680430 0.265018 0.709540
Si Si7 0.392588 0.895677 0.764637
O O1 0.897489 0.597936 0.219363
O O2 0.860502 0.338278 0.724864
O O3 0.775290 0.314109 0.568014
O O4 0.938594 0.043327 0.684592
O O5 0.938671 0.359377 0.930366
O O6 0.000000 0.500000 0.000000
O O7 0.384666 0.439359 0.570430
O O8 0.378783 0.313262 0.989274
O O9 0.500000 0.000000 0.000000
O O10 0.337853 0.986915 0.133160
O O11 0.511747 0.146451 0.208210
O O12 0.363434 0.189204 0.422708
O O13 0.404006 0.647645 0.865209
O O14 0.000000 0.500000 0.500000
O O15 0.000000 0.000000 0.000000
O O16 0.665421 0.169998 0.984145
#
# Coordination Sequence:
#
# PCOD9087421 Si02
#       7
#     2   2   2   2   2   2   2
#     4  10  21  38  57  86 122 155 193 243 296 359
#     4  10  19  36  63  92 117 153 194 235 289 360
#     4  12  24  39  60  87 118 163 211 256 303 365
#     4  10  21  37  57  82 111 144 205 258 291 352
#     4   8  16  32  56  81 110 146 188 223 271 350
#     4  12  24  39  60  87 122 162 203 255 313 353
#     4  10  21  36  59  83 109 150 196 254 305 350
#
# _framework density 21.271514
#
# number of rings (size 3 to 8) (size 9 to 14) (size 15 to 20)
#    0.000    1.714    1.429    3.429    4.000    0.000 
#    0.000    4.286    0.000    3.429    0.000    0.000 
#    0.000    0.000    0.000    0.000    0.000    0.000 
#
# Total GULP energy -78079.637300 kJ/mol
# GULP energy per Si atom -5577.116950 kJ/mol
# Density = 2.122310 g / cm^3
# Si number density = 21.271514 Si / 1000 Ang^3
#
#
#
# Elastic Constant Matrix: (Units=GPa)
#
#
# Indices 1 2 3 4 5 6 
#
# 1 79.4126 30.5315 4.9767 0.6237 -12.4936 28.7374
# 2 30.5315 62.6042 -5.2900 -4.6824 3.9736 34.3823
# 3 4.9767 -5.2900 101.1193 -14.1279 -10.5196 -0.0595
# 4 0.6237 -4.6824 -14.1279 27.4225 6.2816 -7.8549
# 5 -12.4936 3.9736 -10.5196 6.2816 23.4652 -6.5714
# 6 28.7374 34.3823 -0.0595 -7.8549 -6.5714 33.7744
#
#
#
# Elastic Compliance Matrix: (Units=1/GPa)
#
#
# Indices 1 2 3 4 5 6 
#
# 1 0.020624 -0.003865 -0.001355 -0.007866 0.009316 -0.013633
# 2 -0.003865 0.045300 0.000091 -0.000471 -0.022830 -0.047378
# 3 -0.001355 0.000091 0.011155 0.005875 0.003571 0.003141
# 4 -0.007866 -0.000471 0.005875 0.046361 -0.009364 0.016143
# 5 0.009316 -0.022830 0.003571 -0.009364 0.062644 0.025331
# 6 -0.013633 -0.047378 0.003141 0.016143 0.025331 0.098127
#
#
# Mechanical properties :
#
#
# Convention : Reuss Voigt Hill
#
# Bulk Modulus (GPa) = 14.96531 33.73026 24.34779
# Shear Modulus (GPa) = 15.78569 31.12695 23.45632
#
# Velocity S-wave (km/s) = 2.72712 3.82948 3.32431
# Velocity P-wave (km/s) = 4.11908 5.95354 5.11916
#
# Compressibility (1/GPa) = 0.06682118
#
# Stress axis : x y z
#
# Youngs Moduli (GPa) = 48.48672 22.07507 89.64642
#
# Poissons Ratio (x) = 0.08532 0.12148
# Poissons Ratio (y) = 0.18741 -0.00819
# Poissons Ratio (z) = 0.06571 -0.00202
#
# Static dielectric constant tensor:
#      x y z
#    x 1.800210 0.010340 0.050070 
#    y 0.010340 1.794210 0.045030 
#    z 0.050070 0.045030 1.791530 
# 
# From -- ./inp_files/218447.got.cif
#   From: 2010.05.17/outbox.cif.g08.bks.cpg/sg2_110_cif.got.tgz:218447.got - 2010.06.03 11:33:40.
