data_PCOD9087840
_publ_section_title
;
Structure prediction by ZEFSAII (Michael W. Deem and Ramdas Pophale) SiO2 
 PCOD9087840
Probable space group: P -1
;
_chemical_formula_sum "Si O2"
_cell_formula_units_Z 16
_cell_length_a 7.478785
_cell_length_b 16.887250
_cell_length_c 13.521231
_cell_angle_alpha 140.992771
_cell_angle_beta 131.529681
_cell_angle_gamma 77.964171
_cell_volume 610.883872
_symmetry_space_group_name_H-M "P -1"
_symmetry_group_IT_number 2
_symmetry_cell_setting 'triclinic'
loop_
_space_group_symop_operation_xyz
x,y,z
-x,-y,-z
loop_
_atom_site_type_symbol
_atom_site_label
_atom_site_fract_x
_atom_site_fract_y
_atom_site_fract_z
Si Si1 0.004403 0.260320 0.107410
Si Si2 0.434253 0.896120 0.618916
Si Si3 0.514863 0.264740 0.350925
Si Si4 0.061194 0.333341 0.507238
Si Si5 0.594872 0.680025 0.222664
Si Si6 0.587918 0.899149 0.043938
Si Si7 0.764961 0.193107 0.748946
Si Si8 0.486263 0.693242 0.979250
O O1 0.017731 0.270963 0.003787
O O2 0.754730 0.066175 0.859717
O O3 0.821303 0.322325 0.134682
O O4 0.341607 0.337447 0.347752
O O5 0.503816 0.791162 0.599053
O O6 0.194396 0.814438 0.360038
O O7 0.310355 0.941418 0.706767
O O8 0.873494 0.365512 0.544254
O O9 0.339989 0.118806 0.059233
O O10 0.789542 0.209174 0.210481
O O11 0.174793 0.254841 0.536266
O O12 0.347876 0.507129 0.733487
O O13 0.352143 0.702907 0.189852
O O14 0.500000 0.500000 0.000000
O O15 0.662243 0.753516 0.207684
O O16 0.656343 0.812944 0.064416
O O17 0.500000 0.000000 0.500000
#
# Coordination Sequence:
#
# PCOD9087840 Si02
#       8
#     2   2   2   2   2   2   2   2
#     4   9  19  35  57  77 107 145 183 229 275 331
#     4  10  19  37  54  76 111 147 184 222 274 333
#     4  10  21  34  50  83 115 140 179 229 282 321
#     4   9  20  33  55  80 112 138 184 225 276 322
#     4   9  18  36  60  83 106 143 189 231 267 329
#     4   9  20  34  53  80 110 141 185 225 276 323
#     4   9  19  35  59  82 105 143 194 226 270 329
#     4   9  17  36  60  76 103 145 188 225 271 329
#
# _framework density 26.191557
#
# number of rings (size 3 to 8) (size 9 to 14) (size 15 to 20)
#    0.750    2.000    0.000    1.875    0.000    4.500 
#    2.250    0.625    0.000    2.250    0.000    0.000 
#    0.000    0.000    0.000    0.000    0.000    0.000 
#
# Total GULP energy -89263.205551 kJ/mol
# GULP energy per Si atom -5578.950347 kJ/mol
# Density = 2.613194 g / cm^3
# Si number density = 26.191557 Si / 1000 Ang^3
#
#
#
# Elastic Constant Matrix: (Units=GPa)
#
#
# Indices 1 2 3 4 5 6 
#
# 1 71.4223 20.9033 4.3173 -9.9745 -18.9345 -6.1397
# 2 20.9033 152.9037 33.3301 -45.2396 6.1950 16.0494
# 3 4.3173 33.3301 54.0165 -17.9037 -21.5722 15.0140
# 4 -9.9745 -45.2396 -17.9037 47.4142 6.7227 -11.2506
# 5 -18.9345 6.1950 -21.5722 6.7227 31.9721 -12.5283
# 6 -6.1397 16.0494 15.0140 -11.2506 -12.5283 39.2113
#
#
#
# Elastic Compliance Matrix: (Units=1/GPa)
#
#
# Indices 1 2 3 4 5 6 
#
# 1 0.024040 -0.007837 0.010831 0.000560 0.027566 0.011793
# 2 -0.007837 0.014060 -0.011002 0.008818 -0.019131 -0.006352
# 3 0.010831 -0.011002 0.038242 0.002031 0.035255 0.003403
# 4 0.000560 0.008818 0.002031 0.031904 -0.005502 0.003097
# 5 0.027566 -0.019131 0.035255 -0.005502 0.085854 0.024500
# 6 0.011793 -0.006352 0.003403 0.003097 0.024500 0.037363
#
#
# Mechanical properties :
#
#
# Convention : Reuss Voigt Hill
#
# Bulk Modulus (GPa) = 16.57602 43.93822 30.25712
# Shear Modulus (GPa) = 18.68543 38.37230 28.52887
#
# Velocity S-wave (km/s) = 2.67388 3.83177 3.30394
# Velocity P-wave (km/s) = 3.98439 6.03231 5.11195
#
# Compressibility (1/GPa) = 0.06032812
#
# Stress axis : x y z
#
# Youngs Moduli (GPa) = 41.59728 71.12187 26.14895
#
# Poissons Ratio (x) = 0.55735 -0.28321
# Poissons Ratio (y) = 0.32598 0.28768
# Poissons Ratio (z) = -0.45053 0.78245
#
# Static dielectric constant tensor:
#      x y z
#    x 2.138900 -0.026290 0.023540 
#    y -0.026290 2.041050 0.013340 
#    z 0.023540 0.013340 2.061470 
# 
# From -- ./inp_files/506781.got.cif
#   From: 2010.05.17/outbox.cif.g08.bks.cpg/sg2_254_cif.got.tgz:506781.got - 2010.06.03 11:33:40.
