data_PCOD9087868
_publ_section_title
;
Structure prediction by ZEFSAII (Michael W. Deem and Ramdas Pophale) SiO2 
 PCOD9087868
Probable space group: P -1
;
_chemical_formula_sum "Si O2"
_cell_formula_units_Z 16
_cell_length_a 9.586775
_cell_length_b 13.609412
_cell_length_c 8.165539
_cell_angle_alpha 129.558734
_cell_angle_beta 103.404545
_cell_angle_gamma 55.499162
_cell_volume 662.822263
_symmetry_space_group_name_H-M "P -1"
_symmetry_group_IT_number 2
_symmetry_cell_setting 'triclinic'
loop_
_space_group_symop_operation_xyz
x,y,z
-x,-y,-z
loop_
_atom_site_type_symbol
_atom_site_label
_atom_site_fract_x
_atom_site_fract_y
_atom_site_fract_z
Si Si1 0.224353 0.625951 0.987113
Si Si2 0.322039 0.105938 0.463360
Si Si3 0.408021 0.244890 0.331363
Si Si4 0.220462 0.380459 0.920194
Si Si5 0.179618 0.546637 0.400440
Si Si6 0.591446 0.383747 0.666916
Si Si7 0.900195 0.180471 0.135759
Si Si8 0.418696 0.822162 0.023672
O O1 0.266295 0.684176 0.223455
O O2 0.183745 0.504154 0.905314
O O3 0.408555 0.519329 0.833473
O O4 0.085908 0.761776 0.978016
O O5 0.352592 0.175182 0.382055
O O6 0.202730 0.246699 0.703571
O O7 0.500000 0.000000 0.500000
O O8 0.291078 0.980273 0.253660
O O9 0.250208 0.418036 0.423617
O O10 0.557193 0.260072 0.462590
O O11 0.483074 0.161753 0.087881
O O12 0.425513 0.290058 0.929371
O O13 0.130273 0.478460 0.164103
O O14 0.339916 0.550261 0.377370
O O15 0.064722 0.718254 0.624164
O O16 0.700973 0.230183 0.133476
O O17 0.000000 0.000000 0.000000
#
# Coordination Sequence:
#
# PCOD9087868 Si02
#       8
#     2   2   2   2   2   2   2   2
#     4  10  18  29  51  79 101 131 173 212 267 304
#     4  10  20  32  48  83 114 139 163 201 273 327
#     4  11  17  30  55  81 108 135 165 218 262 315
#     4   9  18  32  57  80 102 130 167 223 264 311
#     4  10  19  31  52  80 104 131 176 219 263 306
#     4  10  16  27  54  82 103 123 166 219 273 304
#     4  12  23  35  50  74 109 145 175 215 260 307
#     4  10  21  33  51  78 115 138 168 209 262 319
#
# _framework density 24.139199999999999
#
# number of rings (size 3 to 8) (size 9 to 14) (size 15 to 20)
#    0.000    1.750    3.750    3.750    1.750    0.000 
#    0.000    2.500    0.000    3.750    0.000    0.000 
#    0.000    0.000    0.000    0.000    0.000    0.000 
#
# Total GULP energy -89296.326422 kJ/mol
# GULP energy per Si atom -5581.020401 kJ/mol
# Density = 2.408426 g / cm^3
# Si number density = 24.139200 Si / 1000 Ang^3
#
#
#
# Elastic Constant Matrix: (Units=GPa)
#
#
# Indices 1 2 3 4 5 6 
#
# 1 53.5555 18.0083 -0.3188 -0.8179 5.5712 -2.5024
# 2 18.0083 151.2346 55.5506 12.4362 -18.4475 18.4983
# 3 -0.3188 55.5506 171.4242 17.8038 17.0192 -7.3394
# 4 -0.8179 12.4362 17.8038 23.0509 7.2440 -12.1680
# 5 5.5712 -18.4475 17.0192 7.2440 10.5800 9.5663
# 6 -2.5024 18.4983 -7.3394 -12.1680 9.5663 22.5350
#
#
#
# Elastic Compliance Matrix: (Units=1/GPa)
#
#
# Indices 1 2 3 4 5 6 
#
# 1 0.016134 0.001990 -0.001359 -0.008567 0.012117 -0.010054
# 2 0.001990 0.001660 0.000616 0.010610 -0.017430 0.012187
# 3 -0.001359 0.000616 0.005790 -0.010783 0.006512 -0.007358
# 4 -0.008567 0.010610 -0.010783 0.022394 0.042199 -0.018995
# 5 0.012117 -0.017430 0.006512 0.042199 -0.029693 0.053165
# 6 -0.010054 0.012187 -0.007358 -0.018995 0.053165 -0.001967
#
#
# Mechanical properties :
#
#
# Convention : Reuss Voigt Hill
#
# Bulk Modulus (GPa) = 38.34558 58.07717 48.21137
# Shear Modulus (GPa) = 243.73188 31.43146 137.58167
#
# Velocity S-wave (km/s) = 10.05925 3.61237 7.55770
# Velocity P-wave (km/s) = 12.28160 6.44286 9.80684
#
# Compressibility (1/GPa) = 0.02607863
#
# Stress axis : x y z
#
# Youngs Moduli (GPa) = 61.98182 602.52044 172.72241
#
# Poissons Ratio (x) = -1.19916 0.23466
# Poissons Ratio (y) = -0.12336 -0.10642
# Poissons Ratio (z) = 0.08421 -0.37124
#
# Static dielectric constant tensor:
#      x y z
#    x 1.927010 -0.023980 -0.013370 
#    y -0.023980 1.971490 -0.013150 
#    z -0.013370 -0.013150 2.025370 
# 
# From -- ./inp_files/226377.got.cif
#   From: 2010.05.17/outbox.cif.g08.bks.cpg/sg2_114_cif.got.tgz:226377.got - 2010.06.03 11:33:40.
