data_PCOD9087822
_publ_section_title
;
Structure prediction by ZEFSAII (Michael W. Deem and Ramdas Pophale) SiO2 
 PCOD9087822
Probable space group: P -1
;
_chemical_formula_sum "Si O2"
_cell_formula_units_Z 14
_cell_length_a 13.530484
_cell_length_b 7.484908
_cell_length_c 7.379663
_cell_angle_alpha 93.315623
_cell_angle_beta 135.072405
_cell_angle_gamma 75.748423
_cell_volume 504.100519
_symmetry_space_group_name_H-M "P -1"
_symmetry_group_IT_number 2
_symmetry_cell_setting 'triclinic'
loop_
_space_group_symop_operation_xyz
x,y,z
-x,-y,-z
loop_
_atom_site_type_symbol
_atom_site_label
_atom_site_fract_x
_atom_site_fract_y
_atom_site_fract_z
Si Si1 0.605275 0.588506 0.759467
Si Si2 0.567407 0.280291 0.118937
Si Si3 0.851779 0.314773 0.629087
Si Si4 0.940113 0.724666 0.410823
Si Si5 0.706676 0.757557 0.381429
Si Si6 0.167134 0.782659 0.976484
Si Si7 0.324865 0.078727 0.291173
O O1 0.500000 0.500000 0.500000
O O2 0.497222 0.723029 0.765432
O O3 0.722719 0.405592 0.976509
O O4 0.696471 0.709436 0.789720
O O5 0.739136 0.231031 0.365343
O O6 0.500000 0.500000 0.000000
O O7 0.469594 0.193830 0.858198
O O8 0.005051 0.251170 0.718586
O O9 0.780431 0.540475 0.523806
O O10 0.858877 0.262066 0.847890
O O11 0.000000 0.500000 0.500000
O O12 0.775848 0.781032 0.278540
O O13 0.024581 0.817624 0.671193
O O14 0.735698 0.890510 0.581069
O O15 0.251098 0.938730 0.090609
O O16 0.500000 0.000000 0.500000
#
# Coordination Sequence:
#
# PCOD9087822 Si02
#       7
#     2   2   2   2   2   2   2
#     4  12  20  41  66 101 138 175 225 283 347 402
#     4  10  19  36  70  96 131 178 222 289 341 397
#     4  10  20  41  70 101 131 183 231 279 354 401
#     4  10  24  44  71 102 136 188 234 278 347 416
#     4  10  22  43  63  99 143 173 233 286 336 416
#     4  12  24  43  73  98 142 181 230 288 340 415
#     4  12  25  40  67 107 136 177 231 283 348 408
#
# _framework density 27.772241999999999
#
# number of rings (size 3 to 8) (size 9 to 14) (size 15 to 20)
#    0.000    1.143    4.286    3.429    2.000    2.857 
#    5.143    2.143    0.000    0.000    0.000    0.000 
#    0.000    0.000    0.000    0.000    0.000    0.000 
#
# Total GULP energy -78463.141116 kJ/mol
# GULP energy per Si atom -5604.510080 kJ/mol
# Density = 2.770903 g / cm^3
# Si number density = 27.772242 Si / 1000 Ang^3
#
#
#
# Elastic Constant Matrix: (Units=GPa)
#
#
# Indices 1 2 3 4 5 6 
#
# 1 173.7408 30.1664 29.3368 1.6890 -1.0592 2.2770
# 2 30.1664 141.1804 35.5377 12.4936 10.8494 18.1557
# 3 29.3368 35.5377 115.0149 23.1624 18.6874 1.4534
# 4 1.6890 12.4936 23.1624 45.4679 -0.2579 4.9183
# 5 -1.0592 10.8494 18.6874 -0.2579 49.1859 -0.5999
# 6 2.2770 18.1557 1.4534 4.9183 -0.5999 39.3110
#
#
#
# Elastic Compliance Matrix: (Units=1/GPa)
#
#
# Indices 1 2 3 4 5 6 
#
# 1 0.006209 -0.001095 -0.001581 0.000869 0.000982 0.000111
# 2 -0.001095 0.008442 -0.001900 -0.000921 -0.001213 -0.003668
# 3 -0.001581 -0.001900 0.011395 -0.005372 -0.003958 0.001160
# 4 0.000869 -0.000921 -0.005372 0.025240 0.002364 -0.002548
# 5 0.000982 -0.001213 -0.003958 0.002364 0.022145 0.000692
# 6 0.000111 -0.003668 0.001160 -0.002548 0.000692 0.027413
#
#
# Mechanical properties :
#
#
# Convention : Reuss Voigt Hill
#
# Bulk Modulus (GPa) = 59.19653 68.89089 64.04371
# Shear Modulus (GPa) = 43.24221 49.11932 46.18077
#
# Velocity S-wave (km/s) = 3.95020 4.21009 4.08222
# Velocity P-wave (km/s) = 6.49359 6.96367 6.73273
#
# Compressibility (1/GPa) = 0.01689288
#
# Stress axis : x y z
#
# Youngs Moduli (GPa) = 161.05717 118.45576 87.75524
#
# Poissons Ratio (x) = 0.12975 0.13877
# Poissons Ratio (y) = 0.17641 0.16674
# Poissons Ratio (z) = 0.25469 0.22507
#
# Static dielectric constant tensor:
#      x y z
#    x 2.378460 0.128150 -0.099380 
#    y 0.128150 2.150730 -0.068210 
#    z -0.099380 -0.068210 2.232080 
# 
# From -- ./inp_files/296284.got.cif
#   From: 2010.05.17/outbox.cif.g08.bks.cpg/sg2_149_cif.got.tgz:296284.got - 2010.06.03 11:33:40.
