data_PCOD9087380
_publ_section_title
;
Structure prediction by ZEFSAII (Michael W. Deem and Ramdas Pophale) SiO2 
 PCOD9087380
Probable space group: P -1
;
_chemical_formula_sum "Si O2"
_cell_formula_units_Z 14
_cell_length_a 9.852758
_cell_length_b 15.640160
_cell_length_c 24.585210
_cell_angle_alpha 29.041228
_cell_angle_beta 152.400191
_cell_angle_gamma 151.931324
_cell_volume 748.199734
_symmetry_space_group_name_H-M "P -1"
_symmetry_group_IT_number 2
_symmetry_cell_setting 'triclinic'
loop_
_space_group_symop_operation_xyz
x,y,z
-x,-y,-z
loop_
_atom_site_type_symbol
_atom_site_label
_atom_site_fract_x
_atom_site_fract_y
_atom_site_fract_z
Si Si1 0.813257 0.489526 0.641935
Si Si2 0.734737 0.910946 0.877946
Si Si3 0.686193 0.516547 0.762648
Si Si4 0.960332 0.192273 0.366502
Si Si5 0.688363 0.192701 0.863070
Si Si6 0.648257 0.229881 0.069958
Si Si7 0.768056 0.628525 0.221349
O O1 0.500000 0.500000 0.500000
O O2 0.703098 0.311610 0.746511
O O3 0.007959 0.691945 0.631617
O O4 0.049272 0.472206 0.690269
O O5 0.385914 0.841296 0.763128
O O6 0.631668 0.881597 0.920910
O O7 0.966965 0.137168 0.815818
O O8 0.952621 0.799591 0.006919
O O9 0.652635 0.315310 0.833306
O O10 0.365855 0.457419 0.719100
O O11 0.753629 0.666399 0.652997
O O12 0.006819 0.639185 0.848256
O O13 0.000000 0.000000 0.500000
O O14 0.410318 0.958182 0.885346
O O15 0.542669 0.375352 0.919698
#
# Coordination Sequence:
#
# PCOD9087380 Si02
#       7
#     2   2   2   2   2   2   2
#     4  11  22  37  65  85 116 160 205 245 288 362
#     4  10  19  36  66  85 122 154 203 247 280 370
#     4  10  24  36  61  89 129 149 195 256 296 356
#     4  10  23  41  60  87 115 163 203 244 294 357
#     4  10  20  39  60  91 117 163 199 235 307 348
#     4  10  19  36  63  88 126 157 190 248 288 371
#     4  11  20  39  58  94 118 153 196 248 307 337
#
# _framework density 18.711580000000001
#
# number of rings (size 3 to 8) (size 9 to 14) (size 15 to 20)
#    0.000    1.714    2.857    2.143    4.000    4.000 
#    2.571    7.143    0.000    0.000    0.000    0.000 
#    0.000    0.000    0.000    0.000    0.000    0.000 
#
# Total GULP energy -78051.414283 kJ/mol
# GULP energy per Si atom -5575.101020 kJ/mol
# Density = 1.866899 g / cm^3
# Si number density = 18.711580 Si / 1000 Ang^3
#
#
#
# Elastic Constant Matrix: (Units=GPa)
#
#
# Indices 1 2 3 4 5 6 
#
# 1 135.3644 62.5833 55.3794 -14.3965 15.7027 3.8202
# 2 62.5833 54.0875 31.4379 -3.6221 5.9516 -8.3065
# 3 55.3794 31.4379 111.7874 -15.3258 9.6573 -13.2212
# 4 -14.3965 -3.6221 -15.3258 20.2350 -9.3254 -0.0529
# 5 15.7027 5.9516 9.6573 -9.3254 15.6577 -3.6773
# 6 3.8202 -8.3065 -13.2212 -0.0529 -3.6773 31.6937
#
#
#
# Elastic Compliance Matrix: (Units=1/GPa)
#
#
# Indices 1 2 3 4 5 6 
#
# 1 0.021773 -0.023033 -0.004332 0.002731 -0.011554 -0.011804
# 2 -0.023033 0.047252 -0.001445 -0.006281 0.005865 0.015228
# 3 -0.004332 -0.001445 0.013028 0.007907 0.002961 0.005935
# 4 0.002731 -0.006281 0.007907 0.075125 0.040971 0.006202
# 5 -0.011554 0.005865 0.002961 0.040971 0.099504 0.015779
# 6 -0.011804 0.015228 0.005935 0.006202 0.015779 0.041283
#
#
# Mechanical properties :
#
#
# Convention : Reuss Voigt Hill
#
# Bulk Modulus (GPa) = 40.92883 66.67118 53.80000
# Shear Modulus (GPa) = 13.74651 23.63987 18.69319
#
# Velocity S-wave (km/s) = 2.71339 3.55826 3.16415
# Velocity P-wave (km/s) = 5.63362 7.25190 6.49337
#
# Compressibility (1/GPa) = 0.02443265
#
# Stress axis : x y z
#
# Youngs Moduli (GPa) = 45.92931 21.16312 76.75704
#
# Poissons Ratio (x) = 0.48745 0.33252
# Poissons Ratio (y) = 1.05790 0.11090
# Poissons Ratio (z) = 0.19897 0.03058
#
# Static dielectric constant tensor:
#      x y z
#    x 1.673950 0.015680 -0.137010 
#    y 0.015680 1.676450 -0.113410 
#    z -0.137010 -0.113410 2.227670 
# 
# From -- ./inp_files/156971.got.cif
#   From: 2010.05.17/outbox.cif.g08.bks.cpg/sg2_79_cif.got.tgz:156971.got - 2010.06.03 11:33:40.
