data_PCOD9087479
_publ_section_title
;
Structure prediction by ZEFSAII (Michael W. Deem and Ramdas Pophale) SiO2 
 PCOD9087479
Probable space group: P -1
;
_chemical_formula_sum "Si O2"
_cell_formula_units_Z 16
_cell_length_a 20.364769
_cell_length_b 11.440984
_cell_length_c 13.687795
_cell_angle_alpha 31.140326
_cell_angle_beta 152.262947
_cell_angle_gamma 148.585621
_cell_volume 704.059236
_symmetry_space_group_name_H-M "P -1"
_symmetry_group_IT_number 2
_symmetry_cell_setting 'triclinic'
loop_
_space_group_symop_operation_xyz
x,y,z
-x,-y,-z
loop_
_atom_site_type_symbol
_atom_site_label
_atom_site_fract_x
_atom_site_fract_y
_atom_site_fract_z
Si Si1 0.056402 0.323024 0.636767
Si Si2 0.831146 0.314632 0.183354
Si Si3 0.369306 0.174530 0.644166
Si Si4 0.383355 0.858016 0.141476
Si Si5 0.152659 0.154601 0.204341
Si Si6 0.410432 0.105185 0.442069
Si Si7 0.649488 0.446936 0.262300
Si Si8 0.428064 0.388659 0.780904
O O1 0.230405 0.453417 0.738604
O O2 0.000000 0.500000 0.500000
O O3 0.967777 0.278590 0.446988
O O4 0.004708 0.074082 0.811361
O O5 0.687791 0.115863 0.196928
O O6 0.783316 0.234868 0.064138
O O7 0.859021 0.599229 0.025988
O O8 0.522779 0.247924 0.731194
O O9 0.243992 0.215005 0.383622
O O10 0.385321 0.312084 0.667799
O O11 0.431077 0.811867 0.344913
O O12 0.459503 0.155354 0.025599
O O13 0.265155 0.079086 0.337581
O O14 0.440772 0.336091 0.246782
O O15 0.380736 0.836842 0.555022
O O16 0.698801 0.591206 0.327042
O O17 0.500000 0.500000 0.000000
#
# Coordination Sequence:
#
# PCOD9087479 Si02
#       8
#     2   2   2   2   2   2   2   2
#     4  11  25  46  63  90 131 168 216 262 310 379
#     4  10  20  36  62  96 124 159 205 258 322 364
#     4   9  19  34  62  98 132 160 207 262 312 369
#     4  10  19  36  63  98 129 162 208 263 312 369
#     4  10  20  39  67  98 125 164 211 266 310 372
#     4  11  21  38  66  97 128 164 217 259 310 377
#     4  12  26  46  64  89 130 175 212 262 318 373
#     4  11  21  37  61  93 129 164 204 260 319 368
#
# _framework density 22.725360999999999
#
# number of rings (size 3 to 8) (size 9 to 14) (size 15 to 20)
#    0.000    1.500    2.500    4.125    0.000    4.500 
#    4.500    5.625    0.000    4.500    0.000    0.000 
#    0.000    0.000    0.000    0.000    0.000    0.000 
#
# Total GULP energy -89266.955580 kJ/mol
# GULP energy per Si atom -5579.184724 kJ/mol
# Density = 2.267364 g / cm^3
# Si number density = 22.725361 Si / 1000 Ang^3
#
#
#
# Elastic Constant Matrix: (Units=GPa)
#
#
# Indices 1 2 3 4 5 6 
#
# 1 101.1302 37.5227 13.7484 -13.6044 19.8564 -7.1524
# 2 37.5227 106.5418 47.1724 -35.5599 9.7474 11.5094
# 3 13.7484 47.1724 82.1606 -29.1462 -7.4323 1.1355
# 4 -13.6044 -35.5599 -29.1462 55.8881 -2.0969 -7.9588
# 5 19.8564 9.7474 -7.4323 -2.0969 27.5854 3.3810
# 6 -7.1524 11.5094 1.1355 -7.9588 3.3810 34.6839
#
#
#
# Elastic Compliance Matrix: (Units=1/GPa)
#
#
# Indices 1 2 3 4 5 6 
#
# 1 0.013766 -0.004016 -0.000587 0.000897 -0.009229 0.005296
# 2 -0.004016 0.016581 -0.007409 0.004907 -0.004031 -0.004569
# 3 -0.000587 -0.007409 0.019333 0.005859 0.008422 0.002228
# 4 0.000897 0.004907 0.005859 0.024883 0.000598 0.004017
# 5 -0.009229 -0.004031 0.008422 0.000598 0.047284 -0.005313
# 6 0.005296 -0.004569 0.002228 0.004017 -0.005313 0.032807
#
#
# Mechanical properties :
#
#
# Convention : Reuss Voigt Hill
#
# Bulk Modulus (GPa) = 38.98002 54.07996 46.52999
# Shear Modulus (GPa) = 26.70532 36.39073 31.54803
#
# Velocity S-wave (km/s) = 3.43174 4.00600 3.72994
# Velocity P-wave (km/s) = 5.73518 6.72653 6.25054
#
# Compressibility (1/GPa) = 0.02565417
#
# Stress axis : x y z
#
# Youngs Moduli (GPa) = 72.64517 60.31073 51.72627
#
# Poissons Ratio (x) = 0.24224 0.03037
# Poissons Ratio (y) = 0.29178 0.38322
# Poissons Ratio (z) = 0.04266 0.44682
#
# Static dielectric constant tensor:
#      x y z
#    x 1.867820 -0.017300 -0.049020 
#    y -0.017300 1.933880 0.035110 
#    z -0.049020 0.035110 1.883000 
# 
# From -- ./inp_files/541070.got.cif
#   From: 2010.05.17/outbox.cif.g08.bks.cpg/sg2_271_cif.got.tgz:541070.got - 2010.06.03 11:33:40.
