data_PCOD9087704
_publ_section_title
;
Structure prediction by ZEFSAII (Michael W. Deem and Ramdas Pophale) SiO2 
 PCOD9087704
Probable space group: P -1
;
_chemical_formula_sum "Si O2"
_cell_formula_units_Z 16
_cell_length_a 5.629010
_cell_length_b 17.711420
_cell_length_c 25.087059
_cell_angle_alpha 15.434969
_cell_angle_beta 89.927713
_cell_angle_gamma 82.596369
_cell_volume 584.108563
_symmetry_space_group_name_H-M "P -1"
_symmetry_group_IT_number 2
_symmetry_cell_setting 'triclinic'
loop_
_space_group_symop_operation_xyz
x,y,z
-x,-y,-z
loop_
_atom_site_type_symbol
_atom_site_label
_atom_site_fract_x
_atom_site_fract_y
_atom_site_fract_z
Si Si1 0.042175 0.036281 0.559669
Si Si2 0.116393 0.665684 0.118660
Si Si3 0.160987 0.411496 0.661828
Si Si4 0.108322 0.854206 0.806452
Si Si5 0.383467 0.153541 0.162621
Si Si6 0.529444 0.148741 0.748433
Si Si7 0.574005 0.281339 0.316441
Si Si8 0.644819 0.445958 0.693460
O O1 0.066986 0.929197 0.692908
O O2 0.740048 0.199001 0.426988
O O3 0.113106 0.327955 0.358529
O O4 0.218643 0.768430 0.697253
O O5 0.298679 0.606634 0.106046
O O6 0.271846 0.680149 0.161182
O O7 0.808916 0.930595 0.928120
O O8 0.017738 0.805010 0.392918
O O9 0.266408 0.234032 0.726331
O O10 0.436151 0.331811 0.748419
O O11 0.931689 0.345413 0.732701
O O12 0.939751 0.674455 0.945650
O O13 0.426331 0.693755 0.925671
O O14 0.444725 0.018875 0.194156
O O15 0.490413 0.834996 0.418350
O O16 0.500000 0.500000 0.500000
O O17 0.500000 0.000000 0.500000
#
# Coordination Sequence:
#
# PCOD9087704 Si02
#       8
#     2   2   2   2   2   2   2   2
#     4  10  19  38  66 102 123 162 204 273 331 387
#     4  11  23  39  63  95 129 169 214 270 316 385
#     4  10  21  38  60  89 126 167 218 267 319 370
#     4  10  19  36  66  87 125 162 220 260 321 379
#     4  10  21  39  60  88 125 174 216 261 319 376
#     4  12  25  43  60  89 133 180 221 261 318 373
#     4   9  20  37  64  99 131 154 201 267 340 390
#     4  10  20  39  63  88 124 163 223 269 320 368
#
# _framework density 27.39217
#
# number of rings (size 3 to 8) (size 9 to 14) (size 15 to 20)
#    0.000    1.750    5.000    1.500    1.750    4.000 
#    4.500    0.000    0.000    1.500    0.000    0.000 
#    0.000    0.000    0.000    0.000    0.000    0.000 
#
# Total GULP energy -89702.925859 kJ/mol
# GULP energy per Si atom -5606.432866 kJ/mol
# Density = 2.732982 g / cm^3
# Si number density = 27.392170 Si / 1000 Ang^3
#
#
#
# Elastic Constant Matrix: (Units=GPa)
#
#
# Indices 1 2 3 4 5 6 
#
# 1 195.6777 35.7895 27.8187 13.5217 10.6264 -11.2354
# 2 35.7895 100.8190 36.7249 5.1688 20.6043 -13.8209
# 3 27.8187 36.7249 87.5407 4.5964 14.8895 -9.3085
# 4 13.5217 5.1688 4.5964 44.7234 -1.1023 8.4637
# 5 10.6264 20.6043 14.8895 -1.1023 45.1164 3.9918
# 6 -11.2354 -13.8209 -9.3085 8.4637 3.9918 63.2717
#
#
#
# Elastic Compliance Matrix: (Units=1/GPa)
#
#
# Indices 1 2 3 4 5 6 
#
# 1 0.005686 -0.001364 -0.000976 -0.001628 -0.000506 0.000818
# 2 -0.001364 0.013218 -0.003983 -0.001299 -0.004656 0.002527
# 3 -0.000976 -0.003983 0.014064 -0.001010 -0.002735 0.001333
# 4 -0.001628 -0.001299 -0.001010 0.023931 0.002254 -0.004065
# 5 -0.000506 -0.004656 -0.002735 0.002254 0.025672 -0.003431
# 6 0.000818 0.002527 0.001333 -0.004065 -0.003431 0.017458
#
#
# Mechanical properties :
#
#
# Convention : Reuss Voigt Hill
#
# Bulk Modulus (GPa) = 49.20617 64.96707 57.08662
# Shear Modulus (GPa) = 41.85869 49.53592 45.69730
#
# Velocity S-wave (km/s) = 3.91337 4.25714 4.08887
# Velocity P-wave (km/s) = 6.19853 6.92338 6.57096
#
# Compressibility (1/GPa) = 0.02032266
#
# Stress axis : x y z
#
# Youngs Moduli (GPa) = 175.88267 75.65241 71.10108
#
# Poissons Ratio (x) = 0.10316 0.06940
# Poissons Ratio (y) = 0.23985 0.28321
# Poissons Ratio (z) = 0.17168 0.30133
#
# Static dielectric constant tensor:
#      x y z
#    x 2.157760 0.006890 -0.082930 
#    y 0.006890 2.132910 -0.061020 
#    z -0.082930 -0.061020 2.196350 
# 
# From -- ./inp_files/604951.got.cif
#   From: 2010.05.17/outbox.cif.g08.bks.cpg/sg2_303_cif.got.tgz:604951.got - 2010.06.03 11:33:40.
