data_PCOD9087562
_publ_section_title
;
Structure prediction by ZEFSAII (Michael W. Deem and Ramdas Pophale) SiO2 
 PCOD9087562
Probable space group: P -1
;
_chemical_formula_sum "Si O2"
_cell_formula_units_Z 16
_cell_length_a 9.066493
_cell_length_b 23.896245
_cell_length_c 5.624615
_cell_angle_alpha 95.017721
_cell_angle_beta 87.335335
_cell_angle_gamma 33.048904
_cell_volume 645.725277
_symmetry_space_group_name_H-M "P -1"
_symmetry_group_IT_number 2
_symmetry_cell_setting 'triclinic'
loop_
_space_group_symop_operation_xyz
x,y,z
-x,-y,-z
loop_
_atom_site_type_symbol
_atom_site_label
_atom_site_fract_x
_atom_site_fract_y
_atom_site_fract_z
Si Si1 0.381168 0.941702 0.993910
Si Si2 0.848013 0.212302 0.804122
Si Si3 0.171276 0.123831 0.252205
Si Si4 0.852973 0.084045 0.749413
Si Si5 0.890178 0.578654 0.839121
Si Si6 0.631310 0.569584 0.647638
Si Si7 0.650801 0.383234 0.706869
Si Si8 0.126102 0.595556 0.055674
O O1 0.375837 0.885015 0.116367
O O2 0.334953 0.011243 0.190361
O O3 0.639163 0.881542 0.797859
O O4 0.108425 0.018449 0.881131
O O5 0.744795 0.182219 0.744703
O O6 0.624220 0.334223 0.836315
O O7 0.037071 0.166226 0.540411
O O8 0.993733 0.174385 0.036108
O O9 0.000000 0.000000 0.500000
O O10 0.624612 0.636102 0.759883
O O11 0.139012 0.500491 0.603411
O O12 0.000000 0.500000 0.000000
O O13 0.873017 0.646175 0.969230
O O14 0.358392 0.631715 0.571294
O O15 0.768491 0.481158 0.779323
O O16 0.900371 0.336695 0.790182
O O17 0.385072 0.509192 0.819603
#
# Coordination Sequence:
#
# PCOD9087562 Si02
#       8
#     2   2   2   2   2   2   2   2
#     4   9  20  36  65  92 120 159 209 243 293 372
#     4  11  24  39  60  89 131 162 200 253 310 359
#     4  10  22  39  62  91 122 166 199 247 304 362
#     4  10  19  36  64  92 122 159 204 250 297 362
#     4   8  15  29  52  77 104 130 186 246 293 355
#     4   9  16  30  55  77 101 143 189 245 293 358
#     4  10  21  34  55  81 113 149 198 250 300 360
#     4   9  18  34  56  80 104 148 202 244 300 353
#
# _framework density 24.778337000000001
#
# number of rings (size 3 to 8) (size 9 to 14) (size 15 to 20)
#    0.000    2.500    1.250    0.375    3.500    1.500 
#    0.000    0.000   19.250    0.000    0.000    0.000 
#    0.000    0.000    0.000    0.000    0.000    0.000 
#
# Total GULP energy -89124.989746 kJ/mol
# GULP energy per Si atom -5570.311859 kJ/mol
# Density = 2.472194 g / cm^3
# Si number density = 24.778337 Si / 1000 Ang^3
#
#
#
# Elastic Constant Matrix: (Units=GPa)
#
#
# Indices 1 2 3 4 5 6 
#
# 1 239.8514 36.6758 65.7343 10.0990 13.8666 28.0904
# 2 36.6758 59.0183 11.0887 5.3216 -1.9109 20.3040
# 3 65.7343 11.0887 89.4506 12.9147 1.1463 4.7250
# 4 10.0990 5.3216 12.9147 22.1835 1.2873 -3.0102
# 5 13.8666 -1.9109 1.1463 1.2873 64.2775 5.5458
# 6 28.0904 20.3040 4.7250 -3.0102 5.5458 36.8919
#
#
#
# Elastic Compliance Matrix: (Units=1/GPa)
#
#
# Indices 1 2 3 4 5 6 
#
# 1 0.005949 -0.002010 -0.003925 -0.000260 -0.001027 -0.002787
# 2 -0.002010 0.022939 0.000168 -0.006443 0.002276 -0.011983
# 3 -0.003925 0.000168 0.015029 -0.007004 0.000698 0.000295
# 4 -0.000260 -0.006443 -0.007004 0.052172 -0.001847 0.009176
# 5 -0.001027 0.002276 0.000698 -0.001847 0.016142 -0.003137
# 6 -0.002787 -0.011983 0.000295 0.009176 -0.003137 0.037006
#
#
# Mechanical properties :
#
#
# Convention : Reuss Voigt Hill
#
# Bulk Modulus (GPa) = 30.88034 68.36866 49.62450
# Shear Modulus (GPa) = 29.14319 42.99200 36.06760
#
# Velocity S-wave (km/s) = 3.43323 4.16993 3.81938
# Velocity P-wave (km/s) = 5.31091 7.12997 6.28658
#
# Compressibility (1/GPa) = 0.03238306
#
# Stress axis : x y z
#
# Youngs Moduli (GPa) = 168.09411 43.59385 66.53658
#
# Poissons Ratio (x) = 0.08764 0.26113
# Poissons Ratio (y) = 0.33795 -0.01117
# Poissons Ratio (z) = 0.65971 -0.00732
#
# Static dielectric constant tensor:
#      x y z
#    x 2.047120 -0.027820 0.052480 
#    y -0.027820 2.024660 0.013550 
#    z 0.052480 0.013550 2.126740 
# 
# From -- ./inp_files/54921.got.cif
#   From: 2010.05.17/outbox.cif.g08.bks.cpg/sg2_28_cif.got.tgz:54921.got - 2010.06.03 11:33:40.
