data_PCOD9087560
_publ_section_title
;
Structure prediction by ZEFSAII (Michael W. Deem and Ramdas Pophale) SiO2 
 PCOD9087560
Probable space group: P -1
;
_chemical_formula_sum "Si O2"
_cell_formula_units_Z 14
_cell_length_a 6.948161
_cell_length_b 5.437526
_cell_length_c 17.585554
_cell_angle_alpha 77.575230
_cell_angle_beta 128.956452
_cell_angle_gamma 97.303227
_cell_volume 504.521240
_symmetry_space_group_name_H-M "P -1"
_symmetry_group_IT_number 2
_symmetry_cell_setting 'triclinic'
loop_
_space_group_symop_operation_xyz
x,y,z
-x,-y,-z
loop_
_atom_site_type_symbol
_atom_site_label
_atom_site_fract_x
_atom_site_fract_y
_atom_site_fract_z
Si Si1 0.311509 0.603829 0.349380
Si Si2 0.545747 0.160709 0.203194
Si Si3 0.003436 0.532186 0.089092
Si Si4 0.010289 0.983105 0.145693
Si Si5 0.032919 0.665569 0.423839
Si Si6 0.388002 0.889990 0.602440
Si Si7 0.567440 0.668574 0.202051
O O1 0.089541 0.772897 0.242714
O O2 0.205804 0.549572 0.409720
O O3 0.504148 0.830879 0.388688
O O4 0.421950 0.341312 0.359813
O O5 0.675991 0.161462 0.320511
O O6 0.605517 0.437844 0.171340
O O7 0.270680 0.082479 0.166649
O O8 0.588080 0.953846 0.162245
O O9 0.877633 0.796676 0.065642
O O10 0.296950 0.593688 0.172500
O O11 0.913040 0.267118 0.118975
O O12 0.000000 0.500000 0.000000
O O13 0.179849 0.892124 0.484920
O O14 0.000000 0.500000 0.500000
O O15 0.768089 0.689347 0.317214
#
# Coordination Sequence:
#
# PCOD9087560 Si02
#       7
#     2   2   2   2   2   2   2
#     4  11  24  43  60  87 126 174 210 246 302 366
#     4   9  17  34  57  79 115 156 190 243 295 345
#     4  10  19  36  64  92 114 150 201 255 306 369
#     4   9  18  33  60  83 120 151 197 246 301 362
#     4  12  26  40  62  91 128 170 211 260 299 351
#     4  11  22  41  60  83 120 171 218 245 290 364
#     4  10  21  36  54  88 124 151 192 254 310 348
#
# _framework density 27.749078999999998
#
# number of rings (size 3 to 8) (size 9 to 14) (size 15 to 20)
#    0.000    1.714    1.429    5.571    0.000    2.857 
#    0.000    0.000    0.000    1.714    0.000    0.000 
#    0.000    3.429    0.000    0.000    0.000    0.000 
#
# Total GULP energy -77996.899800 kJ/mol
# GULP energy per Si atom -5571.207129 kJ/mol
# Density = 2.768592 g / cm^3
# Si number density = 27.749079 Si / 1000 Ang^3
#
#
#
# Elastic Constant Matrix: (Units=GPa)
#
#
# Indices 1 2 3 4 5 6 
#
# 1 78.8775 50.7155 16.4470 -2.6533 -11.4386 -3.5957
# 2 50.7155 318.8243 35.4886 37.3041 -17.5423 -10.6205
# 3 16.4470 35.4886 76.9356 -10.4660 6.6827 -5.5422
# 4 -2.6533 37.3041 -10.4660 38.3305 -5.4258 -7.8045
# 5 -11.4386 -17.5423 6.6827 -5.4258 18.2790 -0.1441
# 6 -3.5957 -10.6205 -5.5422 -7.8045 -0.1441 35.0101
#
#
#
# Elastic Compliance Matrix: (Units=1/GPa)
#
#
# Indices 1 2 3 4 5 6 
#
# 1 0.016375 -0.002183 -0.002696 0.004325 0.010434 0.001600
# 2 -0.002183 0.004451 -0.002483 -0.004899 0.002357 -0.000349
# 3 -0.002696 -0.002483 0.016484 0.006157 -0.008246 0.002918
# 4 0.004325 -0.004899 0.006157 0.035324 0.006301 0.007833
# 5 0.010434 0.002357 -0.008246 0.006301 0.068401 0.002167
# 6 0.001600 -0.000349 0.002918 0.007833 0.002167 0.030839
#
#
# Mechanical properties :
#
#
# Convention : Reuss Voigt Hill
#
# Bulk Modulus (GPa) = 44.27619 75.54887 59.91253
# Shear Modulus (GPa) = 25.75625 43.12300 34.43962
#
# Velocity S-wave (km/s) = 3.04992 3.94640 3.52676
# Velocity P-wave (km/s) = 5.32853 6.93183 6.18237
#
# Compressibility (1/GPa) = 0.02258550
#
# Stress axis : x y z
#
# Youngs Moduli (GPa) = 61.06688 224.64765 60.66617
#
# Poissons Ratio (x) = 0.49049 0.16357
# Poissons Ratio (y) = 0.13333 0.15063
# Poissons Ratio (z) = 0.16466 0.55777
#
# Static dielectric constant tensor:
#      x y z
#    x 2.370350 -0.207590 0.222520 
#    y -0.207590 2.468820 -0.121490 
#    z 0.222520 -0.121490 2.411720 
# 
# From -- ./inp_files/553558.got.cif
#   From: 2010.05.17/outbox.cif.g08.bks.cpg/sg2_277_cif.got.tgz:553558.got - 2010.06.03 11:33:40.
