data_PCOD9087493
_publ_section_title
;
Structure prediction by ZEFSAII (Michael W. Deem and Ramdas Pophale) SiO2 
 PCOD9087493
Probable space group: P -1
;
_chemical_formula_sum "Si O2"
_cell_formula_units_Z 16
_cell_length_a 11.470375
_cell_length_b 6.837496
_cell_length_c 12.046503
_cell_angle_alpha 118.607451
_cell_angle_beta 76.957118
_cell_angle_gamma 123.524012
_cell_volume 690.505658
_symmetry_space_group_name_H-M "P -1"
_symmetry_group_IT_number 2
_symmetry_cell_setting 'triclinic'
loop_
_space_group_symop_operation_xyz
x,y,z
-x,-y,-z
loop_
_atom_site_type_symbol
_atom_site_label
_atom_site_fract_x
_atom_site_fract_y
_atom_site_fract_z
Si Si1 0.414085 0.582159 0.348374
Si Si2 0.671600 0.118883 0.174826
Si Si3 0.684128 0.053387 0.422187
Si Si4 0.954225 0.216955 0.323992
Si Si5 0.905808 0.625506 0.319418
Si Si6 0.150289 0.138525 0.946577
Si Si7 0.408236 0.619266 0.095325
Si Si8 0.166938 0.174922 0.392036
O O1 0.362227 0.771361 0.457119
O O2 0.395142 0.570926 0.217276
O O3 0.325941 0.305922 0.354166
O O4 0.579095 0.749720 0.385884
O O5 0.669281 0.088434 0.302434
O O6 0.771393 0.428573 0.219267
O O7 0.759243 0.992974 0.073674
O O8 0.507854 0.927757 0.128736
O O9 0.846589 0.153934 0.430729
O O10 0.951402 0.432100 0.308562
O O11 0.104918 0.299983 0.355384
O O12 0.887239 0.949830 0.196530
O O13 0.849464 0.732048 0.458307
O O14 0.052997 0.872233 0.317128
O O15 0.253428 0.444532 0.029912
O O16 0.000000 0.000000 0.000000
O O17 0.500000 0.500000 0.000000
#
# Coordination Sequence:
#
# PCOD9087493 Si02
#       8
#     2   2   2   2   2   2   2   2
#     4  10  16  27  49  76 101 130 174 210 247 316
#     4   8  15  31  48  66 104 135 163 209 254 303
#     4   8  16  28  46  73 102 130 163 207 264 297
#     4  10  19  34  53  73 108 137 165 215 259 305
#     4   9  19  32  49  79 109 134 166 211 256 316
#     4   9  16  28  46  74 100 126 172 212 242 293
#     4   9  17  28  48  73  97 138 175 206 252 301
#     4  11  19  30  55  79 104 138 170 204 262 315
#
# _framework density 23.171424999999999
#
# number of rings (size 3 to 8) (size 9 to 14) (size 15 to 20)
#    0.000    3.000    2.500    1.875    0.000    0.000 
#    0.000    0.000    0.000   30.000    0.000    0.000 
#    0.000    0.000    0.000    0.000    0.000    0.000 
#
# Total GULP energy -89149.739630 kJ/mol
# GULP energy per Si atom -5571.858727 kJ/mol
# Density = 2.311869 g / cm^3
# Si number density = 23.171425 Si / 1000 Ang^3
#
#
#
# Elastic Constant Matrix: (Units=GPa)
#
#
# Indices 1 2 3 4 5 6 
#
# 1 29.7928 21.2697 10.4404 6.9336 2.0280 12.1856
# 2 21.2697 202.0813 33.0144 38.2861 3.5471 42.8108
# 3 10.4404 33.0144 83.2044 8.3209 -7.9207 13.5373
# 4 6.9336 38.2861 8.3209 42.7542 18.9618 9.7109
# 5 2.0280 3.5471 -7.9207 18.9618 18.3978 2.2715
# 6 12.1856 42.8108 13.5373 9.7109 2.2715 38.0606
#
#
#
# Elastic Compliance Matrix: (Units=1/GPa)
#
#
# Indices 1 2 3 4 5 6 
#
# 1 0.040077 -0.001417 -0.003107 -0.000965 -0.003291 -0.009689
# 2 -0.001417 0.008253 -0.000106 -0.009763 0.009429 -0.006863
# 3 -0.003107 -0.000106 0.015477 -0.009217 0.016902 -0.003048
# 4 -0.000965 -0.009763 -0.009217 0.063640 -0.067865 0.002382
# 5 -0.003291 0.009429 0.016902 -0.067865 0.130869 -0.006059
# 6 -0.009689 -0.006863 -0.003048 0.002382 -0.006059 0.037934
#
#
# Mechanical properties :
#
#
# Convention : Reuss Voigt Hill
#
# Bulk Modulus (GPa) = 18.33278 49.39193 33.86235
# Shear Modulus (GPa) = 15.44667 36.53278 25.98973
#
# Velocity S-wave (km/s) = 2.58471 3.97499 3.35271
# Velocity P-wave (km/s) = 4.10325 6.51380 5.44363
#
# Compressibility (1/GPa) = 0.05454711
#
# Stress axis : x y z
#
# Youngs Moduli (GPa) = 24.95172 121.16408 64.61085
#
# Poissons Ratio (x) = 0.17174 0.20073
# Poissons Ratio (y) = 0.03537 0.00687
# Poissons Ratio (z) = 0.07752 0.01288
#
# Static dielectric constant tensor:
#      x y z
#    x 1.877410 0.003210 0.012400 
#    y 0.003210 1.994300 0.030530 
#    z 0.012400 0.030530 1.898740 
# 
# From -- ./inp_files/527819.got.cif
#   From: 2010.05.17/outbox.cif.g08.bks.cpg/sg2_264_cif.got.tgz:527819.got - 2010.06.03 11:33:40.
