data_PCOD9087543
_publ_section_title
;
Structure prediction by ZEFSAII (Michael W. Deem and Ramdas Pophale) SiO2 
 PCOD9087543
Probable space group: P -1
;
_chemical_formula_sum "Si O2"
_cell_formula_units_Z 14
_cell_length_a 10.189671
_cell_length_b 19.161937
_cell_length_c 9.518010
_cell_angle_alpha 28.867173
_cell_angle_beta 59.091736
_cell_angle_gamma 60.987960
_cell_volume 767.023133
_symmetry_space_group_name_H-M "P -1"
_symmetry_group_IT_number 2
_symmetry_cell_setting 'triclinic'
loop_
_space_group_symop_operation_xyz
x,y,z
-x,-y,-z
loop_
_atom_site_type_symbol
_atom_site_label
_atom_site_fract_x
_atom_site_fract_y
_atom_site_fract_z
Si Si1 0.339447 0.392855 0.891706
Si Si2 0.595467 0.277616 0.770444
Si Si3 0.006067 0.856414 0.841995
Si Si4 0.899119 0.594370 0.775380
Si Si5 0.855118 0.449505 0.758860
Si Si6 0.077977 0.866839 0.105874
Si Si7 0.713445 0.688918 0.239897
O O1 0.504777 0.310103 0.910613
O O2 0.356304 0.564630 0.580935
O O3 0.246422 0.360670 0.856003
O O4 0.253443 0.349616 0.153718
O O5 0.742832 0.167464 0.897188
O O6 0.459571 0.239037 0.808716
O O7 0.838888 0.791882 0.042923
O O8 0.000000 0.000000 0.500000
O O9 0.125660 0.723668 0.957711
O O10 0.052923 0.891860 0.910977
O O11 0.863160 0.501519 0.822420
O O12 0.993768 0.724343 0.442713
O O13 0.000000 0.500000 0.000000
O O14 0.718146 0.544566 0.587466
O O15 0.000000 0.500000 0.500000
O O16 0.000000 0.000000 0.000000
#
# Coordination Sequence:
#
# PCOD9087543 Si02
#       7
#     2   2   2   2   2   2   2
#     4   9  19  34  70  91 126 155 214 257 317 364
#     4   9  20  40  66  93 128 165 208 261 332 369
#     4  11  24  39  60  94 129 175 211 254 319 381
#     4  12  21  36  66  99 123 161 221 262 305 375
#     4  10  19  36  64  90 124 164 209 261 313 369
#     4  12  26  41  65  94 130 166 218 263 316 383
#     4   9  18  40  67  84 124 170 205 257 321 371
#
# _framework density 18.252382000000001
#
# number of rings (size 3 to 8) (size 9 to 14) (size 15 to 20)
#    0.857    0.857    4.286    2.571    4.000    0.000 
#    0.000    4.286    3.143    0.000    0.000    0.000 
#    0.000    0.000    0.000    0.000    0.000    0.000 
#
# Total GULP energy -78012.581843 kJ/mol
# GULP energy per Si atom -5572.327275 kJ/mol
# Density = 1.821084 g / cm^3
# Si number density = 18.252382 Si / 1000 Ang^3
#
#
#
# Elastic Constant Matrix: (Units=GPa)
#
#
# Indices 1 2 3 4 5 6 
#
# 1 125.2106 60.3555 33.4248 -9.3812 22.5911 -9.5815
# 2 60.3555 118.9175 39.3393 -3.4677 28.7391 1.0691
# 3 33.4248 39.3393 95.9101 -5.2931 29.4331 -5.3536
# 4 -9.3812 -3.4677 -5.2931 33.1843 1.2388 1.3611
# 5 22.5911 28.7391 29.4331 1.2388 22.1253 4.0819
# 6 -9.5815 1.0691 -5.3536 1.3611 4.0819 35.2072
#
#
#
# Elastic Compliance Matrix: (Units=1/GPa)
#
#
# Indices 1 2 3 4 5 6 
#
# 1 0.011937 -0.004123 0.000584 0.003180 -0.008589 0.004336
# 2 -0.004123 0.013877 0.000085 0.000818 -0.013986 0.000060
# 3 0.000584 0.000085 0.019241 0.004024 -0.027659 0.006133
# 4 0.003180 0.000818 0.004024 0.032135 -0.011752 0.001573
# 5 -0.008589 -0.013986 -0.027659 -0.011752 0.113049 -0.018771
# 6 0.004336 0.000060 0.006133 0.001573 -0.018771 0.032629
#
#
# Mechanical properties :
#
#
# Convention : Reuss Voigt Hill
#
# Bulk Modulus (GPa) = 26.21370 67.36415 46.78893
# Shear Modulus (GPa) = 20.61936 31.89794 26.25865
#
# Velocity S-wave (km/s) = 3.36472 4.18497 3.79706
# Velocity P-wave (km/s) = 5.43029 7.76783 6.70176
#
# Compressibility (1/GPa) = 0.03814799
#
# Stress axis : x y z
#
# Youngs Moduli (GPa) = 83.76971 72.06393 51.97367
#
# Poissons Ratio (x) = 0.29709 -0.03035
# Poissons Ratio (y) = 0.34535 -0.00444
# Poissons Ratio (z) = -0.04891 -0.00615
#
# Static dielectric constant tensor:
#      x y z
#    x 1.685470 -0.028110 -0.008720 
#    y -0.028110 1.637850 -0.001720 
#    z -0.008720 -0.001720 1.630780 
# 
# From -- ./inp_files/277208.got.cif
#   From: 2010.05.17/outbox.cif.g08.bks.cpg/sg2_139_cif.got.tgz:277208.got - 2010.06.03 11:33:40.
