data_PCOD9087769
_publ_section_title
;
Structure prediction by ZEFSAII (Michael W. Deem and Ramdas Pophale) SiO2 
 PCOD9087769
Probable space group: P -1
;
_chemical_formula_sum "Si O2"
_cell_formula_units_Z 16
_cell_length_a 12.094321
_cell_length_b 10.322062
_cell_length_c 11.439103
_cell_angle_alpha 101.687584
_cell_angle_beta 66.455679
_cell_angle_gamma 46.821935
_cell_volume 670.465756
_symmetry_space_group_name_H-M "P -1"
_symmetry_group_IT_number 2
_symmetry_cell_setting 'triclinic'
loop_
_space_group_symop_operation_xyz
x,y,z
-x,-y,-z
loop_
_atom_site_type_symbol
_atom_site_label
_atom_site_fract_x
_atom_site_fract_y
_atom_site_fract_z
Si Si1 0.176140 0.541085 0.312515
Si Si2 0.624201 0.603842 0.255008
Si Si3 0.610692 0.919247 0.812970
Si Si4 0.737734 0.781527 0.199165
Si Si5 0.176072 0.943009 0.367893
Si Si6 0.088061 0.855902 0.815061
Si Si7 0.977902 0.803226 0.189937
Si Si8 0.348401 0.837914 0.059385
O O1 0.191238 0.375253 0.316449
O O2 0.014712 0.763696 0.513151
O O3 0.069270 0.667476 0.252031
O O4 0.433930 0.359074 0.153506
O O5 0.649840 0.735341 0.299583
O O6 0.696867 0.436531 0.296587
O O7 0.373202 0.800669 0.349681
O O8 0.808817 0.410218 0.033141
O O9 0.640917 0.047411 0.835703
O O10 0.435416 0.051614 0.807012
O O11 0.500000 0.000000 0.000000
O O12 0.774290 0.891558 0.258522
O O13 0.000000 0.500000 0.000000
O O14 0.303529 0.770663 0.166069
O O15 0.000000 0.000000 0.500000
O O16 0.883483 0.950474 0.877738
O O17 0.106764 0.965742 0.742796
O O18 0.000000 0.000000 0.000000
#
# Coordination Sequence:
#
# PCOD9087769 Si02
#       8
#     2   2   2   2   2   2   2   2
#     4  11  25  41  72 102 137 178 236 277 350 407
#     4  10  21  42  63  97 136 174 225 280 334 406
#     4  10  21  37  69 103 131 177 230 281 342 404
#     4  10  19  36  67  95 136 173 223 280 337 403
#     4  12  26  43  69  98 139 184 228 285 342 405
#     4  10  24  37  70  97 132 183 226 273 351 404
#     4  10  21  40  64 101 135 174 226 280 337 411
#     4  11  23  46  68 100 136 177 231 290 336 409
#
# _framework density 23.864008999999999
#
# number of rings (size 3 to 8) (size 9 to 14) (size 15 to 20)
#    0.000    1.500    2.500    3.000   15.750    1.500 
#    0.000    4.375    0.000    0.000    0.000    0.000 
#    0.000    0.000    0.000    0.000    0.000    0.000 
#
# Total GULP energy -89273.676620 kJ/mol
# GULP energy per Si atom -5579.604789 kJ/mol
# Density = 2.380969 g / cm^3
# Si number density = 23.864009 Si / 1000 Ang^3
#
#
#
# Elastic Constant Matrix: (Units=GPa)
#
#
# Indices 1 2 3 4 5 6 
#
# 1 90.8373 47.9869 15.6937 19.4005 -27.1065 -3.5018
# 2 47.9869 142.1557 12.4039 18.4483 -8.2739 11.1083
# 3 15.6937 12.4039 118.4471 6.0394 -19.9243 10.0733
# 4 19.4005 18.4483 6.0394 26.0552 1.3580 1.2292
# 5 -27.1065 -8.2739 -19.9243 1.3580 29.3437 4.6870
# 6 -3.5018 11.1083 10.0733 1.2292 4.6870 34.7765
#
#
#
# Elastic Compliance Matrix: (Units=1/GPa)
#
#
# Indices 1 2 3 4 5 6 
#
# 1 0.022982 -0.004733 0.001802 -0.015353 0.021682 0.000925
# 2 -0.004733 0.009166 -0.000143 -0.002721 -0.001265 -0.003096
# 3 0.001802 -0.000143 0.010342 -0.003946 0.009452 -0.003903
# 4 -0.015353 -0.002721 -0.003946 0.053650 -0.020320 0.001308
# 5 0.021682 -0.001265 0.009452 -0.020320 0.062361 -0.007837
# 6 0.000925 -0.003096 -0.003903 0.001308 -0.007837 0.031978
#
#
# Mechanical properties :
#
#
# Convention : Reuss Voigt Hill
#
# Bulk Modulus (GPa) = 27.51702 55.95657 41.73680
# Shear Modulus (GPa) = 23.95293 36.39213 30.17253
#
# Velocity S-wave (km/s) = 3.17160 3.90934 3.55963
# Velocity P-wave (km/s) = 4.99679 6.62391 5.86703
#
# Compressibility (1/GPa) = 0.03634114
#
# Stress axis : x y z
#
# Youngs Moduli (GPa) = 43.51152 109.09601 96.69348
#
# Poissons Ratio (x) = 0.51637 -0.17424
# Poissons Ratio (y) = 0.20595 0.01387
# Poissons Ratio (z) = -0.07841 0.01565
#
# Static dielectric constant tensor:
#      x y z
#    x 0.870110 -0.598200 0.089570 
#    y -0.598200 1.552430 0.003690 
#    z 0.089570 0.003690 1.927590 
# 
# From -- ./inp_files/428383.got.cif
#   From: 2010.05.17/outbox.cif.g08.bks.cpg/sg2_215_cif.got.tgz:428383.got - 2010.06.03 11:33:40.
