data_PCOD9087450
_publ_section_title
;
Structure prediction by ZEFSAII (Michael W. Deem and Ramdas Pophale) SiO2 
 PCOD9087450
Probable space group: P -1
;
_chemical_formula_sum "Si O2"
_cell_formula_units_Z 16
_cell_length_a 20.705811
_cell_length_b 11.783548
_cell_length_c 11.357728
_cell_angle_alpha 115.081860
_cell_angle_beta 45.316787
_cell_angle_gamma 151.358916
_cell_volume 777.929503
_symmetry_space_group_name_H-M "P -1"
_symmetry_group_IT_number 2
_symmetry_cell_setting 'triclinic'
loop_
_space_group_symop_operation_xyz
x,y,z
-x,-y,-z
loop_
_atom_site_type_symbol
_atom_site_label
_atom_site_fract_x
_atom_site_fract_y
_atom_site_fract_z
Si Si1 0.396729 0.161207 0.178334
Si Si2 0.432196 0.787572 0.216943
Si Si3 0.470379 0.803477 0.736984
Si Si4 0.505641 0.362333 0.783682
Si Si5 0.994828 0.847183 0.903782
Si Si6 0.989488 0.147482 0.395596
Si Si7 0.240858 0.234434 0.140374
Si Si8 0.568720 0.694284 0.405593
O O1 0.428797 0.125269 0.241200
O O2 0.403175 0.069335 0.023584
O O3 0.603026 0.501075 0.035903
O O4 0.197419 0.003010 0.376988
O O5 0.466461 0.749339 0.274304
O O6 0.204179 0.474006 0.315772
O O7 0.463101 0.972408 0.271051
O O8 0.533044 0.783863 0.548044
O O9 0.223263 0.483660 0.928423
O O10 0.659856 0.616657 0.793537
O O11 0.542774 0.446027 0.638804
O O12 0.279961 0.139102 0.015154
O O13 0.024569 0.863869 0.732993
O O14 0.187399 0.024482 0.801245
O O15 0.000000 0.000000 0.000000
O O16 0.025876 0.043294 0.327862
O O17 0.500000 0.500000 0.500000
#
# Coordination Sequence:
#
# PCOD9087450 Si02
#       8
#     2   2   2   2   2   2   2   2
#     4  10  19  36  63  94 123 155 211 257 312 358
#     4  10  24  42  62  86 130 169 205 255 309 367
#     4  12  23  40  62  94 127 167 203 257 309 368
#     4   9  20  41  60  86 127 170 201 252 310 367
#     4  12  23  37  61  96 126 155 203 259 313 365
#     4  10  20  36  63  97 121 156 210 259 311 362
#     4   9  18  38  63  88 127 158 204 264 308 354
#     4  12  24  40  65  92 123 161 208 258 312 371
#
# _framework density 20.567416000000001
#
# number of rings (size 3 to 8) (size 9 to 14) (size 15 to 20)
#    0.000    1.750    5.000    1.875    0.000    2.000 
#    0.000   15.625    0.000    0.000    0.000    0.000 
#    0.000    0.000    0.000    0.000    0.000    0.000 
#
# Total GULP energy -89340.555794 kJ/mol
# GULP energy per Si atom -5583.784737 kJ/mol
# Density = 2.052060 g / cm^3
# Si number density = 20.567416 Si / 1000 Ang^3
#
#
#
# Elastic Constant Matrix: (Units=GPa)
#
#
# Indices 1 2 3 4 5 6 
#
# 1 149.1708 50.3555 48.5700 9.8692 -5.7725 -1.4970
# 2 50.3555 76.6650 33.2823 12.9302 -9.7884 -16.8531
# 3 48.5700 33.2823 129.3819 6.0762 -28.4645 -2.2862
# 4 9.8692 12.9302 6.0762 33.8083 9.5470 -7.8287
# 5 -5.7725 -9.7884 -28.4645 9.5470 38.0499 4.5721
# 6 -1.4970 -16.8531 -2.2862 -7.8287 4.5721 33.4876
#
#
#
# Elastic Compliance Matrix: (Units=1/GPa)
#
#
# Indices 1 2 3 4 5 6 
#
# 1 0.009382 -0.005834 -0.002384 -0.000243 -0.001495 -0.002532
# 2 -0.005834 0.020882 -0.002132 -0.004781 0.003062 0.008567
# 3 -0.002384 -0.002132 0.011192 -0.003495 0.008629 -0.002411
# 4 -0.000243 -0.004781 -0.003495 0.038082 -0.014424 0.008217
# 5 -0.001495 0.003062 0.008629 -0.014424 0.037693 -0.006455
# 6 -0.002532 0.008567 -0.002411 0.008217 -0.006455 0.036698
#
#
# Mechanical properties :
#
#
# Convention : Reuss Voigt Hill
#
# Bulk Modulus (GPa) = 48.17640 68.84815 58.51227
# Shear Modulus (GPa) = 27.54110 35.93648 31.73879
#
# Velocity S-wave (km/s) = 3.66329 4.18455 3.93257
# Velocity P-wave (km/s) = 6.43175 7.54283 7.00934
#
# Compressibility (1/GPa) = 0.02075705
#
# Stress axis : x y z
#
# Youngs Moduli (GPa) = 106.58655 47.88844 89.34684
#
# Poissons Ratio (x) = 0.27939 0.21296
# Poissons Ratio (y) = 0.62184 0.19048
# Poissons Ratio (z) = 0.25405 0.10209
#
# Static dielectric constant tensor:
#      x y z
#    x 1.771310 -0.007640 0.004510 
#    y -0.007640 1.746180 -0.000780 
#    z 0.004510 -0.000780 1.800210 
# 
# From -- ./inp_files/471206.got.cif
#   From: 2010.05.17/outbox.cif.g08.bks.cpg/sg2_236_cif.got.tgz:471206.got - 2010.06.03 11:33:40.
