data_PCOD9087180
_publ_section_title
;
Structure prediction by ZEFSAII (Michael W. Deem and Ramdas Pophale) SiO2 
 PCOD9087180
Probable space group: P -1
;
_chemical_formula_sum "Si O2"
_cell_formula_units_Z 14
_cell_length_a 12.925935
_cell_length_b 24.873473
_cell_length_c 17.170126
_cell_angle_alpha 17.674779
_cell_angle_beta 159.441547
_cell_angle_gamma 156.827419
_cell_volume 569.087619
_symmetry_space_group_name_H-M "P -1"
_symmetry_group_IT_number 2
_symmetry_cell_setting 'triclinic'
loop_
_space_group_symop_operation_xyz
x,y,z
-x,-y,-z
loop_
_atom_site_type_symbol
_atom_site_label
_atom_site_fract_x
_atom_site_fract_y
_atom_site_fract_z
Si Si1 0.222432 0.454555 0.556801
Si Si2 0.870708 0.771028 0.992231
Si Si3 0.546101 0.389482 0.340245
Si Si4 0.480080 0.808618 0.085839
Si Si5 0.984446 0.190471 0.125671
Si Si6 0.752226 0.497682 0.763792
Si Si7 0.926857 0.079085 0.921655
O O1 0.466098 0.527844 0.696241
O O2 0.084702 0.617808 0.210149
O O3 0.419277 0.407004 0.691409
O O4 0.955180 0.287658 0.627900
O O5 0.173558 0.703151 0.321131
O O6 0.927714 0.875996 0.805066
O O7 0.836213 0.889983 0.880008
O O8 0.622192 0.575796 0.084760
O O9 0.267381 0.241521 0.312406
O O10 0.321810 0.899381 0.917486
O O11 0.722516 0.699636 0.439365
O O12 0.227507 0.639251 0.103071
O O13 0.628702 0.952407 0.926026
O O14 0.000000 0.500000 0.000000
O O15 0.000000 0.000000 0.000000
#
# Coordination Sequence:
#
# PCOD9087180 Si02
#       7
#     2   2   2   2   2   2   2
#     4   9  19  35  59  84 113 151 190 235 284 337
#     4   9  20  34  59  86 115 149 191 235 290 338
#     4   9  17  35  59  89 110 147 192 243 282 333
#     4  10  22  36  58  86 113 155 192 232 294 340
#     4  10  19  36  62  87 112 145 199 242 282 337
#     4  10  19  37  58  83 113 150 196 238 277 340
#     4  11  21  40  58  79 125 159 183 237 288 343
#
# _framework density 24.600781999999999
#
# number of rings (size 3 to 8) (size 9 to 14) (size 15 to 20)
#    0.000    2.286    1.429    2.143    0.000    0.571 
#    0.000    5.714    0.000    0.000    0.000    0.000 
#    0.000    0.000    0.000    0.000    0.000    0.000 
#
# Total GULP energy -78071.964274 kJ/mol
# GULP energy per Si atom -5576.568877 kJ/mol
# Density = 2.454479 g / cm^3
# Si number density = 24.600782 Si / 1000 Ang^3
#
#
#
# Elastic Constant Matrix: (Units=GPa)
#
#
# Indices 1 2 3 4 5 6 
#
# 1 161.5769 24.8166 32.2775 -17.5069 -28.4475 -7.3055
# 2 24.8166 66.4487 41.7485 -9.0278 -15.0428 -0.6585
# 3 32.2775 41.7485 71.5644 9.4616 -23.8560 6.7454
# 4 -17.5069 -9.0278 9.4616 26.8391 2.3354 -11.5106
# 5 -28.4475 -15.0428 -23.8560 2.3354 26.0607 -5.4729
# 6 -7.3055 -0.6585 6.7454 -11.5106 -5.4729 48.1838
#
#
#
# Elastic Compliance Matrix: (Units=1/GPa)
#
#
# Indices 1 2 3 4 5 6 
#
# 1 0.009646 0.003434 -0.006026 0.011481 0.007208 0.005914
# 2 0.003434 0.034161 -0.026584 0.028033 -0.001009 0.011291
# 3 -0.006026 -0.026584 0.044797 -0.036372 0.019396 -0.014034
# 4 0.011481 0.028033 -0.036372 0.078365 -0.006308 0.025220
# 5 0.007208 -0.001009 0.019396 -0.006308 0.064866 0.004225
# 6 0.005914 0.011291 -0.014034 0.025220 0.004225 0.030274
#
#
# Mechanical properties :
#
#
# Convention : Reuss Voigt Hill
#
# Bulk Modulus (GPa) = 33.05676 55.25282 44.15479
# Shear Modulus (GPa) = 15.12648 33.59988 24.36318
#
# Velocity S-wave (km/s) = 2.48236 3.69969 3.15038
# Velocity P-wave (km/s) = 4.65646 6.38426 5.58755
#
# Compressibility (1/GPa) = 0.03025100
#
# Stress axis : x y z
#
# Youngs Moduli (GPa) = 103.67094 29.27304 22.32274
#
# Poissons Ratio (x) = -0.10052 0.13453
# Poissons Ratio (y) = -0.35601 0.59344
# Poissons Ratio (z) = 0.62476 0.77820
#
# Static dielectric constant tensor:
#      x y z
#    x 2.144030 -0.052810 0.013560 
#    y -0.052810 1.978710 -0.018290 
#    z 0.013560 -0.018290 1.923680 
# 
# From -- ./inp_files/472482.got.cif
#   From: 2010.05.17/outbox.cif.g08.bks.cpg/sg2_237_cif.got.tgz:472482.got - 2010.06.03 11:33:40.
