data_PCOD9087069
_publ_section_title
;
Structure prediction by ZEFSAII (Michael W. Deem and Ramdas Pophale) SiO2 
 PCOD9087069
Probable space group: P -1
;
_chemical_formula_sum "Si O2"
_cell_formula_units_Z 16
_cell_length_a 17.040194
_cell_length_b 20.365913
_cell_length_c 8.954713
_cell_angle_alpha 29.614707
_cell_angle_beta 141.399453
_cell_angle_gamma 149.405208
_cell_volume 774.778906
_symmetry_space_group_name_H-M "P -1"
_symmetry_group_IT_number 2
_symmetry_cell_setting 'triclinic'
loop_
_space_group_symop_operation_xyz
x,y,z
-x,-y,-z
loop_
_atom_site_type_symbol
_atom_site_label
_atom_site_fract_x
_atom_site_fract_y
_atom_site_fract_z
Si Si1 0.659476 0.170109 0.949009
Si Si2 0.567135 0.361387 0.247235
Si Si3 0.136426 0.677847 0.775285
Si Si4 0.093993 0.740158 0.084367
Si Si5 0.839144 0.952481 0.282982
Si Si6 0.037051 0.921203 0.077115
Si Si7 0.788187 0.424641 0.217165
Si Si8 0.710904 0.735220 0.794361
O O1 0.645828 0.306649 0.586068
O O2 0.805286 0.183120 0.066585
O O3 0.710073 0.217046 0.101198
O O4 0.500000 0.000000 0.000000
O O5 0.619157 0.356488 0.165861
O O6 0.388732 0.254520 0.244701
O O7 0.636253 0.548026 0.015094
O O8 0.187219 0.634576 0.784754
O O9 0.079972 0.795752 0.433434
O O10 0.000000 0.500000 0.000000
O O11 0.146360 0.635464 0.442372
O O12 0.910115 0.623309 0.011129
O O13 0.149655 0.884151 0.996982
O O14 0.713998 0.816830 0.480827
O O15 0.000000 0.000000 0.500000
O O16 0.838447 0.935850 0.136806
O O17 0.880456 0.816463 0.952734
O O18 0.000000 0.000000 0.000000
#
# Coordination Sequence:
#
# PCOD9087069 Si02
#       8
#     2   2   2   2   2   2   2   2
#     4  11  24  39  65  94 134 173 214 270 338 395
#     4  10  22  42  65  95 127 171 221 269 327 409
#     4  12  24  41  67 104 135 171 224 284 328 388
#     4  10  19  36  61  91 123 165 218 268 323 391
#     4  10  20  35  61  90 125 167 216 261 322 399
#     4  11  25  40  63  99 134 169 218 279 328 389
#     4  10  20  37  64  93 126 166 217 277 326 380
#     4  10  22  41  67  90 128 176 218 263 330 405
#
# _framework density 20.651052
#
# number of rings (size 3 to 8) (size 9 to 14) (size 15 to 20)
#    0.000    1.500    2.500    3.000    7.000    1.000 
#    0.000    5.000    0.000    3.750    0.000    0.000 
#    0.000    0.000    0.000    0.000    0.000    0.000 
#
# Total GULP energy -89153.125544 kJ/mol
# GULP energy per Si atom -5572.070347 kJ/mol
# Density = 2.060405 g / cm^3
# Si number density = 20.651052 Si / 1000 Ang^3
#
#
#
# Elastic Constant Matrix: (Units=GPa)
#
#
# Indices 1 2 3 4 5 6 
#
# 1 160.9559 32.3757 50.2768 -10.1324 -20.2257 0.2203
# 2 32.3757 63.7980 36.1311 -3.2864 -16.9887 -1.0146
# 3 50.2768 36.1311 94.6709 -12.8087 -9.3282 3.5196
# 4 -10.1324 -3.2864 -12.8087 24.3375 0.6195 -0.0992
# 5 -20.2257 -16.9887 -9.3282 0.6195 29.0087 1.1049
# 6 0.2203 -1.0146 3.5196 -0.0992 1.1049 32.8071
#
#
#
# Elastic Compliance Matrix: (Units=1/GPa)
#
#
# Indices 1 2 3 4 5 6 
#
# 1 0.008033 -0.001120 -0.003278 0.001370 0.003856 0.000137
# 2 -0.001120 0.023183 -0.007481 -0.001533 0.010378 0.001173
# 3 -0.003278 -0.007481 0.015882 0.006017 -0.001618 -0.001841
# 4 0.001370 -0.001533 0.006017 0.044590 0.001063 -0.000603
# 5 0.003856 0.010378 -0.001618 0.001063 0.042733 -0.000967
# 6 0.000137 0.001173 -0.001841 -0.000603 -0.000967 0.030745
#
#
# Mechanical properties :
#
#
# Convention : Reuss Voigt Hill
#
# Bulk Modulus (GPa) = 42.84733 61.88800 52.36767
# Shear Modulus (GPa) = 25.41882 30.60672 28.01277
#
# Velocity S-wave (km/s) = 3.51219 3.85397 3.68704
# Velocity P-wave (km/s) = 6.10250 7.05958 6.59842
#
# Compressibility (1/GPa) = 0.02333868
#
# Stress axis : x y z
#
# Youngs Moduli (GPa) = 124.48914 43.13463 62.96357
#
# Poissons Ratio (x) = 0.04832 0.20641
# Poissons Ratio (y) = 0.13946 0.47105
# Poissons Ratio (z) = 0.40810 0.32270
#
# Static dielectric constant tensor:
#      x y z
#    x 1.553740 0.389240 -0.523910 
#    y 0.389240 1.356180 0.531330 
#    z -0.523910 0.531330 0.920860 
# 
# From -- ./inp_files/338041.got.cif
#   From: 2010.05.17/outbox.cif.g08.bks.cpg/sg2_170_cif.got.tgz:338041.got - 2010.06.03 11:33:40.
