data_PCOD9087734
_publ_section_title
;
Structure prediction by ZEFSAII (Michael W. Deem and Ramdas Pophale) SiO2 
 PCOD9087734
Probable space group: P -1
;
_chemical_formula_sum "Si O2"
_cell_formula_units_Z 15
_cell_length_a 10.391421
_cell_length_b 14.091221
_cell_length_c 13.302592
_cell_angle_alpha 125.618881
_cell_angle_beta 32.312460
_cell_angle_gamma 102.256541
_cell_volume 647.392576
_symmetry_space_group_name_H-M "P -1"
_symmetry_group_IT_number 2
_symmetry_cell_setting 'triclinic'
loop_
_space_group_symop_operation_xyz
x,y,z
-x,-y,-z
loop_
_atom_site_type_symbol
_atom_site_label
_atom_site_fract_x
_atom_site_fract_y
_atom_site_fract_z
Si Si1 0.000000 0.500000 0.000000
Si Si2 0.857585 0.203915 0.628265
Si Si3 0.310671 0.192091 0.476830
Si Si4 0.408156 0.393933 0.215908
Si Si5 0.975579 0.640724 0.906716
Si Si6 0.007518 0.297659 0.390298
Si Si7 0.499802 0.098686 0.774344
Si Si8 0.599489 0.299741 0.235636
O O1 0.111391 0.353217 0.764351
O O2 0.853204 0.610809 0.065953
O O3 0.812584 0.079148 0.570585
O O4 0.125424 0.174331 0.504121
O O5 0.891456 0.251294 0.526339
O O6 0.546344 0.337507 0.978249
O O7 0.566440 0.185799 0.239843
O O8 0.437687 0.055395 0.385722
O O9 0.149966 0.373135 0.388831
O O10 0.662987 0.286995 0.067239
O O11 0.266823 0.568134 0.418702
O O12 0.255638 0.471378 0.573308
O O13 0.162228 0.695637 0.857214
O O14 0.709890 0.764729 0.082643
O O15 0.288931 0.160039 0.052755
#
# Coordination Sequence:
#
# PCOD9087734 Si02
#       8
#     1   2   2   2   2   2   2   2
#     4  10  24  44  70  96 130 172 236 274 330 408
#     4  11  23  40  67 102 138 181 222 274 343 403
#     4  11  24  45  68  99 134 181 228 281 340 404
#     4  10  19  36  66  95 133 173 226 282 323 399
#     4  10  22  42  66  96 130 177 225 277 333 398
#     4  10  21  38  63 102 135 174 223 277 338 396
#     4  11  25  44  66 102 143 173 225 281 343 402
#     4  10  20  40  66  90 132 180 225 272 331 400
#
# _framework density 23.169865999999999
#
# number of rings (size 3 to 8) (size 9 to 14) (size 15 to 20)
#    0.000    1.600    2.667    1.600    0.000    4.800 
#    7.200    0.000    0.000    0.000    0.000    0.000 
#    0.000    0.000    0.000    0.000    0.000    0.000 
#
# Total GULP energy -83516.114947 kJ/mol
# GULP energy per Si atom -5567.740996 kJ/mol
# Density = 2.311713 g / cm^3
# Si number density = 23.169866 Si / 1000 Ang^3
#
#
#
# Elastic Constant Matrix: (Units=GPa)
#
#
# Indices 1 2 3 4 5 6 
#
# 1 86.9733 44.3115 20.1100 4.4190 7.0934 -13.9351
# 2 44.3115 170.6769 43.7500 -0.7720 20.2741 -9.4945
# 3 20.1100 43.7500 45.6031 5.1733 5.0203 6.2103
# 4 4.4190 -0.7720 5.1733 34.2133 -2.6131 8.7774
# 5 7.0934 20.2741 5.0203 -2.6131 18.6662 4.1528
# 6 -13.9351 -9.4945 6.2103 8.7774 4.1528 33.2810
#
#
#
# Elastic Compliance Matrix: (Units=1/GPa)
#
#
# Indices 1 2 3 4 5 6 
#
# 1 0.015609 -0.001511 -0.005615 -0.003871 -0.005287 0.008833
# 2 -0.001511 0.009697 -0.008295 -0.000251 -0.008841 0.004851
# 3 -0.005615 -0.008295 0.033549 -0.001329 0.004421 -0.011179
# 4 -0.003871 -0.000251 -0.001329 0.033580 0.009354 -0.011468
# 5 -0.005287 -0.008841 0.004421 0.009354 0.069006 -0.016639
# 6 0.008833 0.004851 -0.011179 -0.011468 -0.016639 0.042316
#
#
# Mechanical properties :
#
#
# Convention : Reuss Voigt Hill
#
# Bulk Modulus (GPa) = 35.69916 57.73292 46.71604
# Shear Modulus (GPa) = 20.49709 30.23757 25.36733
#
# Velocity S-wave (km/s) = 2.97752 3.61645 3.31243
# Velocity P-wave (km/s) = 5.22129 6.51227 5.90218
#
# Compressibility (1/GPa) = 0.02801187
#
# Stress axis : x y z
#
# Youngs Moduli (GPa) = 64.06465 103.12994 29.80735
#
# Poissons Ratio (x) = 0.15585 0.16738
# Poissons Ratio (y) = 0.09682 0.24725
# Poissons Ratio (z) = 0.35974 0.85545
#
# Static dielectric constant tensor:
#      x y z
#    x 1.881100 -0.024640 -0.015880 
#    y -0.024640 1.865820 0.011090 
#    z -0.015880 0.011090 1.943230 
# 
# From -- ./inp_files/519804.got.cif
#   From: 2010.05.17/outbox.cif.g08.bks.cpg/sg2_260_cif.got.tgz:519804.got - 2010.06.03 11:33:40.
