data_PCOD9087030
_publ_section_title
;
Structure prediction by ZEFSAII (Michael W. Deem and Ramdas Pophale) SiO2 
 PCOD9087030
Probable space group: P -1
;
_chemical_formula_sum "Si O2"
_cell_formula_units_Z 16
_cell_length_a 7.789905
_cell_length_b 8.026625
_cell_length_c 15.850360
_cell_angle_alpha 129.224130
_cell_angle_beta 72.865371
_cell_angle_gamma 120.674775
_cell_volume 659.750088
_symmetry_space_group_name_H-M "P -1"
_symmetry_group_IT_number 2
_symmetry_cell_setting 'triclinic'
loop_
_space_group_symop_operation_xyz
x,y,z
-x,-y,-z
loop_
_atom_site_type_symbol
_atom_site_label
_atom_site_fract_x
_atom_site_fract_y
_atom_site_fract_z
Si Si1 0.796731 0.590491 0.890807
Si Si2 0.586827 0.381547 0.084338
Si Si3 0.903597 0.123542 0.357356
Si Si4 0.698986 0.408755 0.529855
Si Si5 0.378490 0.569295 0.648093
Si Si6 0.372100 0.004315 0.145540
Si Si7 0.942788 0.670005 0.243774
Si Si8 0.960322 0.975717 0.134038
O O1 0.568077 0.509845 0.874468
O O2 0.937415 0.795334 0.869253
O O3 0.867056 0.382116 0.811277
O O4 0.844449 0.743260 0.019310
O O5 0.487868 0.189340 0.112373
O O6 0.799318 0.553965 0.146718
O O7 0.598579 0.229997 0.954127
O O8 0.743435 0.178617 0.449984
O O9 0.101834 0.371071 0.395088
O O10 0.835978 0.027536 0.241702
O O11 0.966640 0.937171 0.334240
O O12 0.506044 0.419036 0.601763
O O13 0.681376 0.455994 0.448337
O O14 0.528101 0.842151 0.737495
O O15 0.184695 0.475056 0.704066
O O16 0.144067 0.952740 0.147041
#
# Coordination Sequence:
#
# PCOD9087030 Si02
#       8
#     2   2   2   2   2   2   2   2
#     4  10  21  36  63  93 123 165 207 232 295 380
#     4   9  19  34  56  95 123 156 200 238 294 372
#     4  11  24  41  61  89 123 160 200 261 312 350
#     4  10  23  43  63  86 114 159 220 252 298 366
#     4  10  21  40  66  90 114 159 210 256 297 359
#     4   9  16  33  61  86 122 158 199 245 290 358
#     4  11  23  41  61  94 129 158 193 257 315 355
#     4  10  19  36  61  89 120 168 202 242 289 369
#
# _framework density 24.251605999999999
#
# number of rings (size 3 to 8) (size 9 to 14) (size 15 to 20)
#    0.000    2.000    2.500    0.750    7.000    1.500 
#    4.500    0.625    0.000    0.000    0.000    0.000 
#    0.000    0.000    0.000    0.000    0.000    0.000 
#
# Total GULP energy -89577.359991 kJ/mol
# GULP energy per Si atom -5598.584999 kJ/mol
# Density = 2.419641 g / cm^3
# Si number density = 24.251606 Si / 1000 Ang^3
#
#
#
# Elastic Constant Matrix: (Units=GPa)
#
#
# Indices 1 2 3 4 5 6 
#
# 1 91.9877 17.7056 43.5872 11.5321 -37.5907 -12.4034
# 2 17.7056 58.6317 18.0017 14.2669 -4.8309 0.0386
# 3 43.5872 18.0017 123.2097 15.0227 -23.9021 -6.0554
# 4 11.5321 14.2669 15.0227 33.8915 -16.4131 -10.1988
# 5 -37.5907 -4.8309 -23.9021 -16.4131 47.4845 5.0166
# 6 -12.4034 0.0386 -6.0554 -10.1988 5.0166 31.7257
#
#
#
# Elastic Compliance Matrix: (Units=1/GPa)
#
#
# Indices 1 2 3 4 5 6 
#
# 1 0.019785 -0.005109 -0.003840 0.006234 0.014657 0.006695
# 2 -0.005109 0.021172 -0.001326 -0.010853 -0.005797 -0.004848
# 3 -0.003840 -0.001326 0.010150 -0.002176 0.001230 -0.000457
# 4 0.006234 -0.010853 -0.002176 0.045303 0.016924 0.013922
# 5 0.014657 -0.005797 0.001230 0.016924 0.037970 0.005409
# 6 0.006695 -0.004848 -0.000457 0.013922 0.005409 0.037677
#
#
# Mechanical properties :
#
#
# Convention : Reuss Voigt Hill
#
# Bulk Modulus (GPa) = 32.72594 48.04644 40.38619
# Shear Modulus (GPa) = 24.65573 35.58933 30.12253
#
# Velocity S-wave (km/s) = 3.19198 3.83496 3.52814
# Velocity P-wave (km/s) = 5.20659 6.28203 5.76942
#
# Compressibility (1/GPa) = 0.03055680
#
# Stress axis : x y z
#
# Youngs Moduli (GPa) = 50.54365 47.23264 98.52196
#
# Poissons Ratio (x) = 0.24132 0.37836
# Poissons Ratio (y) = 0.25823 0.13059
# Poissons Ratio (z) = 0.19411 0.06261
#
# Static dielectric constant tensor:
#      x y z
#    x 1.884350 -0.002830 -0.032800 
#    y -0.002830 2.021180 -0.000690 
#    z -0.032800 -0.000690 1.932730 
# 
# From -- ./inp_files/527672.got.cif
#   From: 2010.05.17/outbox.cif.g08.bks.cpg/sg2_264_cif.got.tgz:527672.got - 2010.06.03 11:33:40.
