data_PCOD9087390
_publ_section_title
;
Structure prediction by ZEFSAII (Michael W. Deem and Ramdas Pophale) SiO2 
 PCOD9087390
Probable space group: P -1
;
_chemical_formula_sum "Si O2"
_cell_formula_units_Z 16
_cell_length_a 5.067210
_cell_length_b 23.852151
_cell_length_c 16.664964
_cell_angle_alpha 22.285174
_cell_angle_beta 110.579369
_cell_angle_gamma 107.921853
_cell_volume 714.200970
_symmetry_space_group_name_H-M "P -1"
_symmetry_group_IT_number 2
_symmetry_cell_setting 'triclinic'
loop_
_space_group_symop_operation_xyz
x,y,z
-x,-y,-z
loop_
_atom_site_type_symbol
_atom_site_label
_atom_site_fract_x
_atom_site_fract_y
_atom_site_fract_z
Si Si1 0.009755 0.463704 0.319764
Si Si2 0.744245 0.404983 0.067799
Si Si3 0.447789 0.654281 0.043013
Si Si4 0.082183 0.957344 0.191846
Si Si5 0.294498 0.175159 0.790511
Si Si6 0.229268 0.203692 0.988021
Si Si7 0.271951 0.670357 0.666206
Si Si8 0.638254 0.334348 0.728803
O O1 0.239148 0.586241 0.175571
O O2 0.093335 0.325116 0.567703
O O3 0.705358 0.533461 0.216966
O O4 0.999199 0.400398 0.310551
O O5 0.727651 0.291367 0.290664
O O6 0.722748 0.325207 0.085521
O O7 0.498328 0.533897 0.867564
O O8 0.000000 0.500000 0.000000
O O9 0.606664 0.790017 0.918800
O O10 0.290262 0.814894 0.422140
O O11 0.781475 0.902505 0.199313
O O12 0.200309 0.058670 0.000374
O O13 0.084119 0.054935 0.142982
O O14 0.582632 0.247272 0.753846
O O15 0.462346 0.242597 0.895669
O O16 0.970356 0.326297 0.792661
O O17 0.500000 0.500000 0.500000
#
# Coordination Sequence:
#
# PCOD9087390 Si02
#       8
#     2   2   2   2   2   2   2   2
#     4  10  20  35  60  88 117 151 197 243 289 333
#     4  10  19  36  63  90 109 143 198 251 302 345
#     4  11  21  36  60  87 118 150 193 248 295 338
#     4   9  20  39  57  84 123 160 195 233 287 354
#     4   9  19  37  60  85 117 162 198 233 279 345
#     4  11  23  38  55  83 120 159 191 237 291 346
#     4   9  19  38  59  88 118 146 190 250 298 347
#     4  11  22  38  59  84 117 154 204 244 280 330
#
# _framework density 22.402659
#
# number of rings (size 3 to 8) (size 9 to 14) (size 15 to 20)
#    0.000    2.000    1.250    2.625    0.000    3.500 
#    4.500    4.375    0.000    0.750    0.000    0.000 
#    0.000    0.000    0.000    0.000    0.000    0.000 
#
# Total GULP energy -89128.283865 kJ/mol
# GULP energy per Si atom -5570.517742 kJ/mol
# Density = 2.235167 g / cm^3
# Si number density = 22.402659 Si / 1000 Ang^3
#
#
#
# Elastic Constant Matrix: (Units=GPa)
#
#
# Indices 1 2 3 4 5 6 
#
# 1 55.0530 0.8225 5.1716 13.3461 -4.5455 11.0697
# 2 0.8225 183.6951 43.0324 1.6225 -6.0955 24.5130
# 3 5.1716 43.0324 65.8685 18.8191 -2.7941 4.4800
# 4 13.3461 1.6225 18.8191 31.4674 -1.6090 2.0974
# 5 -4.5455 -6.0955 -2.7941 -1.6090 12.3537 0.1676
# 6 11.0697 24.5130 4.4800 2.0974 0.1676 26.4263
#
#
#
# Elastic Compliance Matrix: (Units=1/GPa)
#
#
# Indices 1 2 3 4 5 6 
#
# 1 0.023112 0.001422 0.000993 -0.009344 0.008356 -0.010480
# 2 0.001422 0.007732 -0.005341 0.002850 0.003598 -0.007111
# 3 0.000993 -0.005341 0.022401 -0.013613 0.000999 0.001815
# 4 -0.009344 0.002850 -0.013613 0.043759 0.000587 0.000101
# 5 0.008356 0.003598 0.000999 0.000587 0.086202 -0.007600
# 6 -0.010480 -0.007111 0.001815 0.000101 -0.007600 0.048560
#
#
# Mechanical properties :
#
#
# Convention : Reuss Voigt Hill
#
# Bulk Modulus (GPa) = 21.09977 44.74107 32.92042
# Shear Modulus (GPa) = 19.73036 31.08882 25.40959
#
# Velocity S-wave (km/s) = 2.97090 3.72926 3.37147
# Velocity P-wave (km/s) = 4.60513 6.20950 5.46649
#
# Compressibility (1/GPa) = 0.04739389
#
# Stress axis : x y z
#
# Youngs Moduli (GPa) = 43.26735 129.33625 44.64025
#
# Poissons Ratio (x) = -0.18394 -0.04433
# Poissons Ratio (y) = -0.06154 0.23842
# Poissons Ratio (z) = -0.04297 0.69078
#
# Static dielectric constant tensor:
#      x y z
#    x 1.859030 -0.026550 -0.009310 
#    y -0.026550 2.045620 0.011950 
#    z -0.009310 0.011950 1.831830 
# 
# From -- ./inp_files/551439.got.cif
#   From: 2010.05.17/outbox.cif.g08.bks.cpg/sg2_276_cif.got.tgz:551439.got - 2010.06.03 11:33:40.
