data_PCOD9087425
_publ_section_title
;
Structure prediction by ZEFSAII (Michael W. Deem and Ramdas Pophale) SiO2 
 PCOD9087425
Probable space group: P -1
;
_chemical_formula_sum "Si O2"
_cell_formula_units_Z 16
_cell_length_a 9.305928
_cell_length_b 11.235718
_cell_length_c 13.357081
_cell_angle_alpha 135.480148
_cell_angle_beta 70.601734
_cell_angle_gamma 128.054257
_cell_volume 756.354976
_symmetry_space_group_name_H-M "P -1"
_symmetry_group_IT_number 2
_symmetry_cell_setting 'triclinic'
loop_
_space_group_symop_operation_xyz
x,y,z
-x,-y,-z
loop_
_atom_site_type_symbol
_atom_site_label
_atom_site_fract_x
_atom_site_fract_y
_atom_site_fract_z
Si Si1 0.610934 0.977095 0.620169
Si Si2 0.474582 0.087874 0.958722
Si Si3 0.992093 0.984461 0.171069
Si Si4 0.265759 0.278591 0.111366
Si Si5 0.130087 0.750250 0.122588
Si Si6 0.929169 0.262516 0.476861
Si Si7 0.741379 0.297647 0.345282
Si Si8 0.392933 0.740567 0.340905
O O1 0.816056 0.124156 0.708176
O O2 0.545985 0.129826 0.698285
O O3 0.466358 0.796806 0.622911
O O4 0.555151 0.851784 0.453383
O O5 0.434926 0.259694 0.080471
O O6 0.664981 0.183259 0.913632
O O7 0.500000 0.000000 0.000000
O O8 0.294701 0.879889 0.827869
O O9 0.063898 0.852737 0.122011
O O10 0.141337 0.176102 0.179219
O O11 0.939423 0.072051 0.329348
O O12 0.833681 0.843601 0.041566
O O13 0.322304 0.506431 0.215408
O O14 0.000000 0.500000 0.000000
O O15 0.854272 0.294871 0.410171
O O16 0.781946 0.252046 0.580958
O O17 0.133469 0.466671 0.578923
#
# Coordination Sequence:
#
# PCOD9087425 Si02
#       8
#     2   2   2   2   2   2   2   2
#     4   9  20  40  60  83 125 159 200 247 309 359
#     4  11  22  41  60  91 127 160 203 257 304 363
#     4  11  22  38  64  96 124 158 209 254 300 365
#     4  11  22  38  66  95 119 160 213 250 301 368
#     4  11  24  43  61  89 128 166 199 256 315 361
#     4  10  19  36  63  92 120 156 205 251 299 356
#     4   9  18  35  60  86 120 155 197 248 303 350
#     4  10  21  39  65  90 121 164 204 252 301 365
#
# _framework density 21.154087000000001
#
# number of rings (size 3 to 8) (size 9 to 14) (size 15 to 20)
#    0.000    1.750    2.500    3.000    1.750    1.000 
#    9.000    4.375    0.000    0.000    0.000    0.000 
#    0.000    0.000    0.000    0.000    0.000    0.000 
#
# Total GULP energy -89093.528349 kJ/mol
# GULP energy per Si atom -5568.345522 kJ/mol
# Density = 2.110594 g / cm^3
# Si number density = 21.154087 Si / 1000 Ang^3
#
#
#
# Elastic Constant Matrix: (Units=GPa)
#
#
# Indices 1 2 3 4 5 6 
#
# 1 68.8391 21.3885 29.7990 2.7526 -3.9470 1.8880
# 2 21.3885 61.3816 49.0568 19.0758 4.0425 -0.4832
# 3 29.7990 49.0568 91.7255 27.4504 2.1926 12.0079
# 4 2.7526 19.0758 27.4504 35.5834 -0.4224 5.3304
# 5 -3.9470 4.0425 2.1926 -0.4224 43.9891 -1.1465
# 6 1.8880 -0.4832 12.0079 5.3304 -1.1465 21.3769
#
#
#
# Elastic Compliance Matrix: (Units=1/GPa)
#
#
# Indices 1 2 3 4 5 6 
#
# 1 0.017898 -0.003471 -0.005453 0.004655 0.002251 0.000364
# 2 -0.003471 0.032248 -0.015522 -0.006768 -0.002271 0.011320
# 3 -0.005453 -0.015522 0.025220 -0.008947 -0.000715 -0.011843
# 4 0.004655 -0.006768 -0.008947 0.039071 0.001726 -0.005188
# 5 0.002251 -0.002271 -0.000715 0.001726 0.023221 0.000966
# 6 0.000364 0.011320 -0.011843 -0.005188 0.000966 0.055001
#
#
# Mechanical properties :
#
#
# Convention : Reuss Voigt Hill
#
# Bulk Modulus (GPa) = 37.77018 46.93720 42.35369
# Shear Modulus (GPa) = 19.97003 28.30333 24.13668
#
# Velocity S-wave (km/s) = 3.07584 3.66178 3.38152
# Velocity P-wave (km/s) = 5.52340 6.33361 5.94233
#
# Compressibility (1/GPa) = 0.02647591
#
# Stress axis : x y z
#
# Youngs Moduli (GPa) = 55.87092 31.00983 39.65107
#
# Poissons Ratio (x) = 0.10762 0.21622
# Poissons Ratio (y) = 0.19391 0.61545
# Poissons Ratio (z) = 0.30467 0.48132
#
# Static dielectric constant tensor:
#      x y z
#    x 1.757110 0.055290 -0.000070 
#    y 0.055290 1.878420 -0.068470 
#    z -0.000070 -0.068470 1.877660 
# 
# From -- ./inp_files/499514.got.cif
#   From: 2010.05.17/outbox.cif.g08.bks.cpg/sg2_250_cif.got.tgz:499514.got - 2010.06.03 11:33:40.
