data_PCOD9087395
_publ_section_title
;
Structure prediction by ZEFSAII (Michael W. Deem and Ramdas Pophale) SiO2 
 PCOD9087395
Probable space group: P -1
;
_chemical_formula_sum "Si O2"
_cell_formula_units_Z 12
_cell_length_a 21.247392
_cell_length_b 14.653918
_cell_length_c 9.374212
_cell_angle_alpha 46.327050
_cell_angle_beta 142.449903
_cell_angle_gamma 160.084157
_cell_volume 584.399074
_symmetry_space_group_name_H-M "P -1"
_symmetry_group_IT_number 2
_symmetry_cell_setting 'triclinic'
loop_
_space_group_symop_operation_xyz
x,y,z
-x,-y,-z
loop_
_atom_site_type_symbol
_atom_site_label
_atom_site_fract_x
_atom_site_fract_y
_atom_site_fract_z
Si Si1 0.769395 0.390810 0.592926
Si Si2 0.798918 0.177168 0.492634
Si Si3 0.753893 0.998646 0.306738
Si Si4 0.504948 0.959185 0.795888
Si Si5 0.248150 0.213219 0.677401
Si Si6 0.596180 0.795994 0.778877
O O1 0.726999 0.247065 0.798988
O O2 0.588965 0.305548 0.388944
O O3 0.020649 0.713502 0.683323
O O4 0.689443 0.249836 0.449336
O O5 0.801400 0.085375 0.462333
O O6 0.000000 0.500000 0.500000
O O7 0.572034 0.017484 0.257717
O O8 0.776869 0.066743 0.713393
O O9 0.727427 0.827652 0.388357
O O10 0.549441 0.869312 0.032833
O O11 0.445658 0.532080 0.704646
O O12 0.296660 0.160103 0.942603
O O13 0.000000 0.000000 0.500000
#
# Coordination Sequence:
#
# PCOD9087395 Si02
#       6
#     2   2   2   2   2   2
#     4  10  19  36  63  90 121 159 211 254 302 361
#     4  11  24  42  62  94 135 160 194 257 328 367
#     4  12  22  37  64  93 122 161 207 251 309 370
#     4  10  21  37  58  92 126 162 201 254 305 368
#     4  11  23  42  68  90 118 167 222 252 290 365
#     4  10  23  44  64  90 127 163 206 263 302 358
#
# _framework density 20.533913999999999
#
# number of rings (size 3 to 8) (size 9 to 14) (size 15 to 20)
#    0.000    1.333    5.000    1.000    0.000    2.000 
#    3.000    0.833    0.000    0.000    0.000    0.000 
#    0.000    0.000    0.000    0.000    0.000    0.000 
#
# Total GULP energy -66954.653782 kJ/mol
# GULP energy per Si atom -5579.554482 kJ/mol
# Density = 2.048718 g / cm^3
# Si number density = 20.533914 Si / 1000 Ang^3
#
#
#
# Elastic Constant Matrix: (Units=GPa)
#
#
# Indices 1 2 3 4 5 6 
#
# 1 145.8351 24.2975 21.4296 -1.2339 0.2550 -18.5203
# 2 24.2975 83.5553 10.3216 -4.5449 -12.1734 -2.8499
# 3 21.4296 10.3216 56.7400 -10.6477 13.6358 0.0277
# 4 -1.2339 -4.5449 -10.6477 24.4213 -3.3574 0.8786
# 5 0.2550 -12.1734 13.6358 -3.3574 26.0517 3.0903
# 6 -18.5203 -2.8499 0.0277 0.8786 3.0903 32.7982
#
#
#
# Elastic Compliance Matrix: (Units=1/GPa)
#
#
# Indices 1 2 3 4 5 6 
#
# 1 0.008179 -0.001960 -0.002964 -0.001428 -0.000163 0.004505
# 2 -0.001960 0.014398 -0.003622 0.002270 0.009026 -0.000764
# 3 -0.002964 -0.003622 0.024034 0.007888 -0.013109 -0.000985
# 4 -0.001428 0.002270 0.007888 0.045229 0.003025 -0.002112
# 5 -0.000163 0.009026 -0.013109 0.003025 0.050345 -0.004121
# 6 0.004505 -0.000764 -0.000985 -0.002112 -0.004121 0.033412
#
#
# Mechanical properties :
#
#
# Convention : Reuss Voigt Hill
#
# Bulk Modulus (GPa) = 33.87526 44.24754 39.06140
# Shear Modulus (GPa) = 24.68795 31.99302 28.34049
#
# Velocity S-wave (km/s) = 3.47118 3.95151 3.71911
# Velocity P-wave (km/s) = 5.70951 6.51264 6.12426
#
# Compressibility (1/GPa) = 0.02952007
#
# Stress axis : x y z
#
# Youngs Moduli (GPa) = 122.25850 69.45449 41.60856
#
# Poissons Ratio (x) = 0.13615 0.12331
# Poissons Ratio (y) = 0.23966 0.15069
# Poissons Ratio (z) = 0.36232 0.25153
#
# Static dielectric constant tensor:
#      x y z
#    x 1.812930 -0.027450 -0.019230 
#    y -0.027450 1.751610 0.001670 
#    z -0.019230 0.001670 1.725090 
# 
# From -- ./inp_files/18366.got.cif
#   From: 2010.05.17/outbox.cif.g08.bks.cpg/sg2_10_cif.got.tgz:18366.got - 2010.06.03 11:33:40.
