data_PCOD9087640
_publ_section_title
;
Structure prediction by ZEFSAII (Michael W. Deem and Ramdas Pophale) SiO2 
 PCOD9087640
Probable space group: P -1
;
_chemical_formula_sum "Si O2"
_cell_formula_units_Z 16
_cell_length_a 8.628640
_cell_length_b 19.388886
_cell_length_c 8.042991
_cell_angle_alpha 39.986348
_cell_angle_beta 121.908935
_cell_angle_gamma 126.669855
_cell_volume 686.942890
_symmetry_space_group_name_H-M "P -1"
_symmetry_group_IT_number 2
_symmetry_cell_setting 'triclinic'
loop_
_space_group_symop_operation_xyz
x,y,z
-x,-y,-z
loop_
_atom_site_type_symbol
_atom_site_label
_atom_site_fract_x
_atom_site_fract_y
_atom_site_fract_z
Si Si1 0.231997 0.526942 0.064671
Si Si2 0.545892 0.972931 0.767729
Si Si3 0.062933 0.896442 0.293514
Si Si4 0.665759 0.747901 0.247760
Si Si5 0.804134 0.002611 0.459726
Si Si6 0.623903 0.734405 0.868348
Si Si7 0.262550 0.568582 0.378396
Si Si8 0.129975 0.388457 0.936505
O O1 0.280296 0.513922 0.309617
O O2 0.397588 0.650211 0.880982
O O3 0.232569 0.446785 0.057429
O O4 0.000000 0.500000 0.000000
O O5 0.500000 0.000000 0.500000
O O6 0.733220 0.082570 0.722923
O O7 0.345360 0.945519 0.804051
O O8 0.609256 0.862686 0.008377
O O9 0.881035 0.781028 0.383927
O O10 0.119659 0.926564 0.459718
O O11 0.000000 0.000000 0.000000
O O12 0.478198 0.652199 0.393161
O O13 0.681630 0.718633 0.119062
O O14 0.664953 0.869129 0.635004
O O15 0.000000 0.000000 0.500000
O O16 0.775877 0.705636 0.886697
O O17 0.191944 0.477623 0.653020
O O18 0.103832 0.633383 0.143381
#
# Coordination Sequence:
#
# PCOD9087640 Si02
#       8
#     2   2   2   2   2   2   2   2
#     4   9  20  40  63  87 118 157 204 250 310 375
#     4   9  17  36  59  80 120 165 193 247 297 353
#     4   9  17  38  60  79 117 158 200 243 290 358
#     4  10  19  36  65  88 116 163 210 244 306 373
#     4  11  23  37  57  90 126 158 205 249 301 360
#     4  11  21  37  61  86 122 158 200 254 312 358
#     4   9  21  39  64  88 119 162 203 248 318 375
#     4  10  21  40  61  87 128 152 199 268 309 361
#
# _framework density 23.291599999999999
#
# number of rings (size 3 to 8) (size 9 to 14) (size 15 to 20)
#    0.000    2.250    3.750    0.375    1.750    3.000 
#    0.000   10.000    0.000    0.000    0.000    0.000 
#    0.000    0.000    0.000    0.000    0.000    0.000 
#
# Total GULP energy -89126.223443 kJ/mol
# GULP energy per Si atom -5570.388965 kJ/mol
# Density = 2.323859 g / cm^3
# Si number density = 23.291600 Si / 1000 Ang^3
#
#
#
# Elastic Constant Matrix: (Units=GPa)
#
#
# Indices 1 2 3 4 5 6 
#
# 1 132.7160 64.2312 6.7230 17.5184 13.0281 12.4038
# 2 64.2312 142.2883 16.5877 9.5274 9.1207 25.3196
# 3 6.7230 16.5877 34.3969 0.2776 3.3910 5.5870
# 4 17.5184 9.5274 0.2776 15.1459 3.9238 8.7584
# 5 13.0281 9.1207 3.3910 3.9238 26.3502 5.5954
# 6 12.4038 25.3196 5.5870 8.7584 5.5954 50.5336
#
#
#
# Elastic Compliance Matrix: (Units=1/GPa)
#
#
# Indices 1 2 3 4 5 6 
#
# 1 0.011181 -0.004468 0.000070 -0.010316 -0.002791 0.001583
# 2 -0.004468 0.010038 -0.003349 0.001129 -0.000209 -0.003735
# 3 0.000070 -0.003349 0.031274 0.003413 -0.002971 -0.002059
# 4 -0.010316 0.001129 0.003413 0.086027 -0.005849 -0.012673
# 5 -0.002791 -0.000209 -0.002971 -0.005849 0.041171 -0.002427
# 6 0.001583 -0.003735 -0.002059 -0.012673 -0.002427 0.023964
#
#
# Mechanical properties :
#
#
# Convention : Reuss Voigt Hill
#
# Bulk Modulus (GPa) = 27.02745 53.83168 40.42956
# Shear Modulus (GPa) = 21.59996 33.19657 27.39826
#
# Velocity S-wave (km/s) = 3.04858 3.77936 3.43347
# Velocity P-wave (km/s) = 4.90112 6.49669 5.75447
#
# Compressibility (1/GPa) = 0.03699942
#
# Stress axis : x y z
#
# Youngs Moduli (GPa) = 89.43515 99.62479 31.97587
#
# Poissons Ratio (x) = 0.44509 -0.00225
# Poissons Ratio (y) = 0.39957 0.10709
# Poissons Ratio (z) = -0.00629 0.33366
#
# Static dielectric constant tensor:
#      x y z
#    x 2.021610 0.038530 0.017320 
#    y 0.038530 1.849120 -0.030110 
#    z 0.017320 -0.030110 1.928080 
# 
# From -- ./inp_files/214560.got.cif
#   From: 2010.05.17/outbox.cif.g08.bks.cpg/sg2_108_cif.got.tgz:214560.got - 2010.06.03 11:33:40.
