data_PCOD9087501
_publ_section_title
;
Structure prediction by ZEFSAII (Michael W. Deem and Ramdas Pophale) SiO2 
 PCOD9087501
Probable space group: P -1
;
_chemical_formula_sum "Si O2"
_cell_formula_units_Z 14
_cell_length_a 15.398975
_cell_length_b 8.407170
_cell_length_c 9.353633
_cell_angle_alpha 95.605949
_cell_angle_beta 134.001579
_cell_angle_gamma 52.570104
_cell_volume 569.218864
_symmetry_space_group_name_H-M "P -1"
_symmetry_group_IT_number 2
_symmetry_cell_setting 'triclinic'
loop_
_space_group_symop_operation_xyz
x,y,z
-x,-y,-z
loop_
_atom_site_type_symbol
_atom_site_label
_atom_site_fract_x
_atom_site_fract_y
_atom_site_fract_z
Si Si1 0.210422 0.251674 0.706322
Si Si2 0.588157 0.664304 0.407986
Si Si3 0.640161 0.559465 0.119157
Si Si4 0.845178 0.692626 0.677051
Si Si5 0.162989 0.143790 0.032287
Si Si6 0.761142 0.123109 0.318180
Si Si7 0.098411 0.874549 0.251101
O O1 0.313416 0.310865 0.878529
O O2 0.241746 0.194902 0.567528
O O3 0.000000 0.500000 0.500000
O O4 0.225353 0.057547 0.766798
O O5 0.612071 0.623505 0.260886
O O6 0.712328 0.691928 0.596428
O O7 0.698236 0.401240 0.570353
O O8 0.376200 0.902835 0.222424
O O9 0.777819 0.269921 0.257813
O O10 0.451618 0.675820 0.854890
O O11 0.848656 0.831210 0.805557
O O12 0.051857 0.413280 0.876528
O O13 0.028714 0.137792 0.827650
O O14 0.882492 0.016069 0.590421
O O15 0.000000 0.000000 0.000000
#
# Coordination Sequence:
#
# PCOD9087501 Si02
#       7
#     2   2   2   2   2   2   2
#     4  11  23  39  63  96 129 168 210 264 328 382
#     4   9  19  36  62  91 118 170 213 257 329 382
#     4   9  21  42  64  91 130 165 214 267 313 388
#     4   9  20  37  57  92 127 160 209 268 317 375
#     4  10  19  36  64  85 124 171 211 261 322 384
#     4  10  21  42  63  89 129 168 207 268 324 370
#     4  10  21  38  58  88 128 162 214 271 316 379
#
# _framework density 24.595109000000001
#
# number of rings (size 3 to 8) (size 9 to 14) (size 15 to 20)
#    0.000    2.286    0.000    2.571    2.000    1.143 
#    7.714    0.000    6.286    0.000    0.000    0.000 
#    0.000    0.000    0.000    0.000    0.000    0.000 
#
# Total GULP energy -78098.152185 kJ/mol
# GULP energy per Si atom -5578.439442 kJ/mol
# Density = 2.453913 g / cm^3
# Si number density = 24.595109 Si / 1000 Ang^3
#
#
#
# Elastic Constant Matrix: (Units=GPa)
#
#
# Indices 1 2 3 4 5 6 
#
# 1 56.5449 41.5597 26.3363 -0.4077 1.8451 9.2167
# 2 41.5597 130.2202 45.2496 -3.1623 22.5551 34.7919
# 3 26.3363 45.2496 138.0767 -2.5357 8.1603 -0.5106
# 4 -0.4077 -3.1623 -2.5357 61.9667 -0.5443 15.9940
# 5 1.8451 22.5551 8.1603 -0.5443 36.1272 3.0792
# 6 9.2167 34.7919 -0.5106 15.9940 3.0792 31.0741
#
#
#
# Elastic Compliance Matrix: (Units=1/GPa)
#
#
# Indices 1 2 3 4 5 6 
#
# 1 0.024331 -0.008327 -0.002172 -0.000856 0.004255 0.002089
# 2 -0.008327 0.019124 -0.004132 0.006182 -0.008670 -0.021333
# 3 -0.002172 -0.004132 0.009000 -0.001443 0.000112 0.006150
# 4 -0.000856 0.006182 -0.001443 0.020823 -0.001707 -0.017241
# 5 0.004255 -0.008670 0.000112 -0.001707 0.032302 0.006124
# 6 0.002089 -0.021333 0.006150 -0.017241 0.006124 0.063815
#
#
# Mechanical properties :
#
#
# Convention : Reuss Voigt Hill
#
# Bulk Modulus (GPa) = 43.11299 61.23700 52.17500
# Shear Modulus (GPa) = 24.22623 39.94668 32.08645
#
# Velocity S-wave (km/s) = 3.14188 4.03447 3.61582
# Velocity P-wave (km/s) = 5.54338 6.83043 6.22028
#
# Compressibility (1/GPa) = 0.02319487
#
# Stress axis : x y z
#
# Youngs Moduli (GPa) = 41.10008 52.29018 111.10760
#
# Poissons Ratio (x) = 0.43540 0.24127
# Poissons Ratio (y) = 0.34223 0.45910
# Poissons Ratio (z) = 0.08925 0.21606
#
# Static dielectric constant tensor:
#      x y z
#    x 2.065560 0.111610 -0.048080 
#    y 0.111610 2.069240 -0.064220 
#    z -0.048080 -0.064220 1.939770 
# 
# From -- ./inp_files/302145.got.cif
#   From: 2010.05.17/outbox.cif.g08.bks.cpg/sg2_152_cif.got.tgz:302145.got - 2010.06.03 11:33:40.
