data_PCOD9087663
_publ_section_title
;
Structure prediction by ZEFSAII (Michael W. Deem and Ramdas Pophale) SiO2 
 PCOD9087663
Probable space group: P -1
;
_chemical_formula_sum "Si O2"
_cell_formula_units_Z 16
_cell_length_a 12.323812
_cell_length_b 13.656905
_cell_length_c 10.563408
_cell_angle_alpha 54.219112
_cell_angle_beta 140.912797
_cell_angle_gamma 139.323282
_cell_volume 730.593464
_symmetry_space_group_name_H-M "P -1"
_symmetry_group_IT_number 2
_symmetry_cell_setting 'triclinic'
loop_
_space_group_symop_operation_xyz
x,y,z
-x,-y,-z
loop_
_atom_site_type_symbol
_atom_site_label
_atom_site_fract_x
_atom_site_fract_y
_atom_site_fract_z
Si Si1 0.704232 0.448431 0.429196
Si Si2 0.554227 0.790265 0.166454
Si Si3 0.330887 0.234182 0.432785
Si Si4 0.534638 0.183322 0.301283
Si Si5 0.165690 0.726974 0.722513
Si Si6 0.137947 0.976903 0.240047
Si Si7 0.709436 0.701918 0.153545
Si Si8 0.924497 0.098120 0.301528
O O1 0.521845 0.379723 0.423237
O O2 0.676459 0.307895 0.442749
O O3 0.654358 0.538722 0.221408
O O4 0.944023 0.570504 0.603071
O O5 0.569384 0.778755 0.338809
O O6 0.663999 0.726682 0.237466
O O7 0.700436 0.969026 0.129957
O O8 0.315724 0.707966 0.962979
O O9 0.234555 0.096361 0.351762
O O10 0.119710 0.219707 0.296737
O O11 0.684483 0.187313 0.328758
O O12 0.343222 0.024366 0.307424
O O13 0.416714 0.249869 0.077386
O O14 0.117022 0.825943 0.682983
O O15 0.958666 0.815248 0.256666
O O16 0.000000 0.000000 0.000000
O O17 0.000000 0.000000 0.500000
#
# Coordination Sequence:
#
# PCOD9087663 Si02
#       8
#     2   2   2   2   2   2   2   2
#     4  11  22  37  61  89 123 162 201 245 296 366
#     4  10  21  37  59  90 125 154 199 255 298 357
#     4  10  21  37  62  89 120 155 206 251 294 349
#     4   9  21  40  60  86 126 157 203 248 297 360
#     4  11  23  37  60  88 124 165 192 241 316 358
#     4   9  18  36  63  88 115 155 204 253 290 349
#     4  10  19  36  65  91 116 160 206 248 299 347
#     4  10  20  38  64  88 116 151 204 257 291 351
#
# _framework density 21.900005
#
# number of rings (size 3 to 8) (size 9 to 14) (size 15 to 20)
#    0.000    2.000    1.250    2.625    1.750    2.500 
#    0.000    1.875    5.500    0.000    0.000    0.000 
#    0.000    0.000    0.000    0.000    0.000    0.000 
#
# Total GULP energy -89328.507958 kJ/mol
# GULP energy per Si atom -5583.031747 kJ/mol
# Density = 2.185016 g / cm^3
# Si number density = 21.900005 Si / 1000 Ang^3
#
#
#
# Elastic Constant Matrix: (Units=GPa)
#
#
# Indices 1 2 3 4 5 6 
#
# 1 131.2641 57.8899 14.7902 14.6375 15.4826 22.6516
# 2 57.8899 74.7924 18.7345 20.9797 12.2901 32.8652
# 3 14.7902 18.7345 97.1595 16.8228 5.0303 13.8027
# 4 14.6375 20.9797 16.8228 29.9923 2.5331 2.9385
# 5 15.4826 12.2901 5.0303 2.5331 36.1989 5.6271
# 6 22.6516 32.8652 13.8027 2.9385 5.6271 38.6380
#
#
#
# Elastic Compliance Matrix: (Units=1/GPa)
#
#
# Indices 1 2 3 4 5 6 
#
# 1 0.011788 -0.009868 -0.000263 0.001294 -0.002021 0.001773
# 2 -0.009868 0.037537 0.001315 -0.019469 -0.003517 -0.024620
# 3 -0.000263 0.001315 0.011985 -0.006996 -0.000795 -0.004598
# 4 0.001294 -0.019469 -0.006996 0.048726 0.001382 0.014394
# 5 -0.002021 -0.003517 -0.000795 0.001382 0.029693 0.000031
# 6 0.001773 -0.024620 -0.004598 0.014394 0.000031 0.046327
#
#
# Mechanical properties :
#
#
# Convention : Reuss Voigt Hill
#
# Bulk Modulus (GPa) = 22.89525 54.00502 38.45013
# Shear Modulus (GPa) = 22.90989 35.08593 28.99791
#
# Velocity S-wave (km/s) = 3.23788 4.00696 3.64277
# Velocity P-wave (km/s) = 4.94526 6.79125 5.94040
#
# Compressibility (1/GPa) = 0.04367718
#
# Stress axis : x y z
#
# Youngs Moduli (GPa) = 84.83202 26.64061 83.44104
#
# Poissons Ratio (x) = 0.26289 0.02194
# Poissons Ratio (y) = 0.83713 -0.10973
# Poissons Ratio (z) = 0.02231 -0.03503
#
# Static dielectric constant tensor:
#      x y z
#    x 1.808370 0.030470 -0.012270 
#    y 0.030470 1.803350 -0.006770 
#    z -0.012270 -0.006770 1.874100 
# 
# From -- ./inp_files/407472.got.cif
#   From: 2010.05.17/outbox.cif.g08.bks.cpg/sg2_204_cif.got.tgz:407472.got - 2010.06.03 11:33:40.
