data_PCOD9087280
_publ_section_title
;
Structure prediction by ZEFSAII (Michael W. Deem and Ramdas Pophale) SiO2 
 PCOD9087280
Probable space group: P -1
;
_chemical_formula_sum "Si O2"
_cell_formula_units_Z 16
_cell_length_a 12.614460
_cell_length_b 8.174727
_cell_length_c 11.694220
_cell_angle_alpha 121.046680
_cell_angle_beta 59.609299
_cell_angle_gamma 81.112833
_cell_volume 737.089207
_symmetry_space_group_name_H-M "P -1"
_symmetry_group_IT_number 2
_symmetry_cell_setting 'triclinic'
loop_
_space_group_symop_operation_xyz
x,y,z
-x,-y,-z
loop_
_atom_site_type_symbol
_atom_site_label
_atom_site_fract_x
_atom_site_fract_y
_atom_site_fract_z
Si Si1 0.058029 0.705013 0.135414
Si Si2 0.107728 0.580603 0.438813
Si Si3 0.292295 0.781730 0.152010
Si Si4 0.886633 0.770407 0.452347
Si Si5 0.077626 0.705785 0.735016
Si Si6 0.639516 0.302340 0.425434
Si Si7 0.599515 0.509167 0.773529
Si Si8 0.140391 0.188158 0.926342
O O1 0.177615 0.750797 0.132403
O O2 0.904751 0.837927 0.341296
O O3 0.993601 0.774434 0.067917
O O4 0.127237 0.429535 0.012354
O O5 0.067186 0.762437 0.626703
O O6 0.284700 0.417564 0.282429
O O7 0.000000 0.500000 0.500000
O O8 0.049026 0.681199 0.382967
O O9 0.342718 0.640779 0.194562
O O10 0.221094 0.037321 0.330742
O O11 0.431216 0.702268 0.965767
O O12 0.865176 0.563533 0.383642
O O13 0.213298 0.714124 0.705233
O O14 0.917860 0.833436 0.926597
O O15 0.500000 0.500000 0.500000
O O16 0.610479 0.377180 0.602320
O O17 0.699062 0.034666 0.275878
#
# Coordination Sequence:
#
# PCOD9087280 Si02
#       8
#     2   2   2   2   2   2   2   2
#     4  10  21  37  66  94 118 157 211 258 307 363
#     4   9  18  36  59  83 117 154 195 249 298 363
#     4  11  22  37  64  90 125 159 193 268 314 366
#     4  10  19  36  62  93 114 153 204 256 314 358
#     4   9  21  38  58  87 118 154 209 252 297 366
#     4  11  24  42  60  85 124 169 201 253 308 370
#     4  10  23  40  56  91 125 155 207 247 318 371
#     4  10  22  40  63  89 119 158 216 255 294 370
#
# _framework density 21.707004999999999
#
# number of rings (size 3 to 8) (size 9 to 14) (size 15 to 20)
#    0.000    2.000    1.250    1.500    5.250    1.000 
#    4.500    6.250    0.000    0.000    0.000    0.000 
#    0.000    0.000    0.000    0.000    0.000    0.000 
#
# Total GULP energy -89121.580024 kJ/mol
# GULP energy per Si atom -5570.098751 kJ/mol
# Density = 2.165760 g / cm^3
# Si number density = 21.707005 Si / 1000 Ang^3
#
#
#
# Elastic Constant Matrix: (Units=GPa)
#
#
# Indices 1 2 3 4 5 6 
#
# 1 65.6713 25.9354 31.8581 9.7040 -6.8498 0.3280
# 2 25.9354 51.5471 34.5504 1.9991 -8.5157 4.6136
# 3 31.8581 34.5504 148.0928 14.2907 -13.8438 18.1941
# 4 9.7040 1.9991 14.2907 35.5099 0.9347 -0.1471
# 5 -6.8498 -8.5157 -13.8438 0.9347 30.2809 -4.7703
# 6 0.3280 4.6136 18.1941 -0.1471 -4.7703 26.5404
#
#
#
# Elastic Compliance Matrix: (Units=1/GPa)
#
#
# Indices 1 2 3 4 5 6 
#
# 1 0.020515 -0.008665 -0.002184 -0.004275 0.001818 0.003053
# 2 -0.008665 0.027192 -0.004260 0.002455 0.003497 -0.001057
# 3 -0.002184 -0.004260 0.009328 -0.002988 0.001827 -0.005315
# 4 -0.004275 0.002455 -0.002988 0.030461 -0.002359 0.001419
# 5 0.001818 0.003497 0.001827 -0.002359 0.036049 0.004583
# 6 0.003053 -0.001057 -0.005315 0.001419 0.004583 0.042300
#
#
# Mechanical properties :
#
#
# Convention : Reuss Voigt Hill
#
# Bulk Modulus (GPa) = 37.29012 49.99989 43.64500
# Shear Modulus (GPa) = 24.38982 29.99740 27.19361
#
# Velocity S-wave (km/s) = 3.35564 3.72145 3.54327
# Velocity P-wave (km/s) = 5.67714 6.44590 6.07369
#
# Compressibility (1/GPa) = 0.02681676
#
# Stress axis : x y z
#
# Youngs Moduli (GPa) = 48.74461 36.77566 107.19872
#
# Poissons Ratio (x) = 0.31866 0.23416
# Poissons Ratio (y) = 0.42237 0.45667
# Poissons Ratio (z) = 0.10648 0.15667
#
# Static dielectric constant tensor:
#      x y z
#    x 1.807930 -0.034900 0.047850 
#    y -0.034900 1.919820 0.013480 
#    z 0.047850 0.013480 1.825410 
# 
# From -- ./inp_files/419928.got.cif
#   From: 2010.05.17/outbox.cif.g08.bks.cpg/sg2_210_cif.got.tgz:419928.got - 2010.06.03 11:33:40.
