data_PCOD9087630
_publ_section_title
;
Structure prediction by ZEFSAII (Michael W. Deem and Ramdas Pophale) SiO2 
 PCOD9087630
Probable space group: P -1
;
_chemical_formula_sum "Si O2"
_cell_formula_units_Z 16
_cell_length_a 11.286839
_cell_length_b 12.087567
_cell_length_c 6.868626
_cell_angle_alpha 76.642305
_cell_angle_beta 110.513811
_cell_angle_gamma 131.743009
_cell_volume 654.857432
_symmetry_space_group_name_H-M "P -1"
_symmetry_group_IT_number 2
_symmetry_cell_setting 'triclinic'
loop_
_space_group_symop_operation_xyz
x,y,z
-x,-y,-z
loop_
_atom_site_type_symbol
_atom_site_label
_atom_site_fract_x
_atom_site_fract_y
_atom_site_fract_z
Si Si1 0.488253 0.535560 0.704703
Si Si2 0.260340 0.484086 0.058349
Si Si3 0.794679 0.239076 0.713019
Si Si4 0.717128 0.841978 0.929606
Si Si5 0.493467 0.062984 0.171174
Si Si6 0.970412 0.818885 0.140453
Si Si7 0.836659 0.321927 0.169510
Si Si8 0.196931 0.502199 0.444026
O O1 0.500000 0.500000 0.500000
O O2 0.561244 0.470672 0.896605
O O3 0.611352 0.711867 0.758756
O O4 0.302304 0.477550 0.648349
O O5 0.280500 0.537562 0.267437
O O6 0.190034 0.556467 0.886388
O O7 0.130535 0.304479 0.041181
O O8 0.933329 0.236261 0.705663
O O9 0.787385 0.356422 0.561265
O O10 0.622243 0.073428 0.695381
O O11 0.832664 0.285805 0.950124
O O12 0.591389 0.862269 0.935812
O O13 0.873074 0.007561 0.875618
O O14 0.820832 0.812163 0.135727
O O15 0.687144 0.183884 0.261149
O O16 0.500000 0.000000 0.000000
O O17 0.007483 0.378400 0.330306
#
# Coordination Sequence:
#
# PCOD9087630 Si02
#       8
#     2   2   2   2   2   2   2   2
#     4   9  19  31  47  75 104 133 160 205 254 294
#     4   9  15  28  49  75 101 122 165 216 250 273
#     4   9  15  28  49  75 101 122 165 216 250 273
#     4   9  18  30  47  72 104 128 165 206 250 291
#     4   9  19  31  47  75 104 133 160 205 254 294
#     4   9  14  27  48  70  94 122 154 213 256 265
#     4  10  16  27  50  78  95 130 171 201 242 303
#     4  10  16  27  50  78  95 130 171 201 242 303
#
# _framework density 24.432797999999998
#
# number of rings (size 3 to 8) (size 9 to 14) (size 15 to 20)
#    0.000    2.750    2.500    0.750    0.000    0.000 
#    0.000    5.625    0.000    0.000   16.250    5.250 
#    0.000    0.000    0.000    0.000    0.000    0.000 
#
# Total GULP energy -89101.226590 kJ/mol
# GULP energy per Si atom -5568.826662 kJ/mol
# Density = 2.437719 g / cm^3
# Si number density = 24.432798 Si / 1000 Ang^3
#
#
#
# Elastic Constant Matrix: (Units=GPa)
#
#
# Indices 1 2 3 4 5 6 
#
# 1 187.7285 21.3012 61.1984 10.8566 56.1652 -13.5109
# 2 21.3012 89.4448 49.7995 17.2620 19.2944 -16.8263
# 3 61.1984 49.7995 119.6502 5.8527 32.5473 -5.2282
# 4 10.8566 17.2620 5.8527 40.2171 -3.8472 1.9106
# 5 56.1652 19.2944 32.5473 -3.8472 66.4142 10.3715
# 6 -13.5109 -16.8263 -5.2282 1.9106 10.3715 37.5294
#
#
#
# Elastic Compliance Matrix: (Units=1/GPa)
#
#
# Indices 1 2 3 4 5 6 
#
# 1 0.009520 0.003985 -0.003530 -0.004974 -0.008929 0.007443
# 2 0.003985 0.020291 -0.007209 -0.010110 -0.008241 0.012320
# 3 -0.003530 -0.007209 0.013180 0.002168 -0.000857 -0.002541
# 4 -0.004974 -0.010110 0.002168 0.031629 0.009516 -0.010261
# 5 -0.008929 -0.008241 -0.000857 0.009516 0.028371 -0.015354
# 6 0.007443 0.012320 -0.002541 -0.010261 -0.015354 0.039261
#
#
# Mechanical properties :
#
#
# Convention : Reuss Voigt Hill
#
# Bulk Modulus (GPa) = 33.91871 73.49131 53.70501
# Shear Modulus (GPa) = 30.19520 46.46709 38.33115
#
# Velocity S-wave (km/s) = 3.51928 4.36573 3.96516
# Velocity P-wave (km/s) = 5.51601 7.45366 6.55681
#
# Compressibility (1/GPa) = 0.02948225
#
# Stress axis : x y z
#
# Youngs Moduli (GPa) = 105.03743 49.28255 75.87376
#
# Poissons Ratio (x) = -0.19637 0.26787
# Poissons Ratio (y) = -0.41854 0.54695
# Poissons Ratio (z) = 0.37083 0.35526
#
# Static dielectric constant tensor:
#      x y z
#    x 2.058620 0.044020 -0.097610 
#    y 0.044020 2.016760 -0.025670 
#    z -0.097610 -0.025670 2.166480 
# 
# From -- ./inp_files/258238.got.cif
#   From: 2010.05.17/outbox.cif.g08.bks.cpg/sg2_130_cif.got.tgz:258238.got - 2010.06.03 11:33:40.
