data_PCOD9087084
_publ_section_title
;
Structure prediction by ZEFSAII (Michael W. Deem and Ramdas Pophale) SiO2 
 PCOD9087084
Probable space group: P -1
;
_chemical_formula_sum "Si O2"
_cell_formula_units_Z 14
_cell_length_a 11.990350
_cell_length_b 14.148283
_cell_length_c 19.899476
_cell_angle_alpha 149.777990
_cell_angle_beta 150.649890
_cell_angle_gamma 29.038841
_cell_volume 725.585436
_symmetry_space_group_name_H-M "P -1"
_symmetry_group_IT_number 2
_symmetry_cell_setting 'triclinic'
loop_
_space_group_symop_operation_xyz
x,y,z
-x,-y,-z
loop_
_atom_site_type_symbol
_atom_site_label
_atom_site_fract_x
_atom_site_fract_y
_atom_site_fract_z
Si Si1 0.747699 0.531304 0.955419
Si Si2 0.658694 0.750184 0.911193
Si Si3 0.916604 0.863710 0.920443
Si Si4 0.573203 0.371609 0.887055
Si Si5 0.357810 0.701124 0.599160
Si Si6 0.703693 0.886163 0.238744
Si Si7 0.907352 0.627088 0.326262
O O1 0.625534 0.609354 0.866278
O O2 0.569261 0.505626 0.902380
O O3 0.803907 0.717508 0.127293
O O4 0.034082 0.325961 0.975550
O O5 0.557375 0.707840 0.761757
O O6 0.500000 0.000000 0.000000
O O7 0.967360 0.631580 0.776669
O O8 0.611004 0.004384 0.859218
O O9 0.123273 0.802512 0.051837
O O10 0.000000 0.000000 0.000000
O O11 0.357490 0.297003 0.724179
O O12 0.500000 0.500000 0.000000
O O13 0.500000 0.500000 0.500000
O O14 0.125973 0.679861 0.499920
O O15 0.243248 0.919129 0.629368
O O16 0.819251 0.749578 0.283323
#
# Coordination Sequence:
#
# PCOD9087084 Si02
#       7
#     2   2   2   2   2   2   2
#     4  11  22  41  67  94 127 168 222 267 319 381
#     4  11  25  44  66  95 129 173 219 266 322 387
#     4  11  19  33  58  92 131 160 211 263 323 371
#     4  10  19  36  61  92 131 162 212 268 316 377
#     4  12  24  41  65  95 133 173 218 267 327 384
#     4  12  20  37  64  96 129 168 207 272 322 373
#     4  11  22  37  55  97 133 164 211 269 325 381
#
# _framework density 19.294764000000001
#
# number of rings (size 3 to 8) (size 9 to 14) (size 15 to 20)
#    0.000    0.857    7.143    3.000    0.000    0.000 
#    0.000    0.714    0.000    0.857    0.000    0.000 
#    0.000    0.000    0.000    0.000    0.000    0.000 
#
# Total GULP energy -78103.881526 kJ/mol
# GULP energy per Si atom -5578.848680 kJ/mol
# Density = 1.925085 g / cm^3
# Si number density = 19.294764 Si / 1000 Ang^3
#
#
#
# Elastic Constant Matrix: (Units=GPa)
#
#
# Indices 1 2 3 4 5 6 
#
# 1 106.0492 20.6027 25.1495 6.0290 9.9606 25.6965
# 2 20.6027 100.3856 24.3118 8.8923 -1.9201 6.7128
# 3 25.1495 24.3118 65.4835 4.9009 13.5374 5.4303
# 4 6.0290 8.8923 4.9009 33.9809 3.0406 5.0932
# 5 9.9606 -1.9201 13.5374 3.0406 40.9236 -0.8763
# 6 25.6965 6.7128 5.4303 5.0932 -0.8763 39.9965
#
#
#
# Elastic Compliance Matrix: (Units=1/GPa)
#
#
# Indices 1 2 3 4 5 6 
#
# 1 0.012446 -0.001313 -0.003224 -0.000100 -0.002175 -0.007373
# 2 -0.001313 0.011481 -0.004056 -0.002372 0.002373 -0.000178
# 3 -0.003224 -0.004056 0.019238 -0.000644 -0.005720 0.000097
# 4 -0.000100 -0.002372 -0.000644 0.030874 -0.002241 -0.003431
# 5 -0.002175 0.002373 -0.005720 -0.002241 0.027192 0.002657
# 6 -0.007373 -0.000178 0.000097 -0.003431 0.002657 0.030251
#
#
# Mechanical properties :
#
#
# Convention : Reuss Voigt Hill
#
# Bulk Modulus (GPa) = 38.49473 45.78289 42.13881
# Shear Modulus (GPa) = 31.78089 36.43715 34.10902
#
# Velocity S-wave (km/s) = 4.06288 4.35034 4.20907
# Velocity P-wave (km/s) = 6.48101 7.00097 6.74600
#
# Compressibility (1/GPa) = 0.02597758
#
# Stress axis : x y z
#
# Youngs Moduli (GPa) = 80.34919 87.10119 51.98137
#
# Poissons Ratio (x) = 0.11439 0.16758
# Poissons Ratio (y) = 0.10552 0.21085
# Poissons Ratio (z) = 0.25903 0.35330
#
# Static dielectric constant tensor:
#      x y z
#    x 1.715750 -0.004160 0.019500 
#    y -0.004160 1.738320 -0.008310 
#    z 0.019500 -0.008310 1.691540 
# 
# From -- ./inp_files/436966.got.cif
#   From: 2010.05.17/outbox.cif.g08.bks.cpg/sg2_219_cif.got.tgz:436966.got - 2010.06.03 11:33:40.
