data_PCOD9087001
_publ_section_title
;
Structure prediction by ZEFSAII (Michael W. Deem and Ramdas Pophale) SiO2 
 PCOD9087001
Probable space group: P -1
;
_chemical_formula_sum "Si O2"
_cell_formula_units_Z 16
_cell_length_a 14.336424
_cell_length_b 11.700292
_cell_length_c 11.806875
_cell_angle_alpha 140.557897
_cell_angle_beta 55.163178
_cell_angle_gamma 143.441528
_cell_volume 743.107765
_symmetry_space_group_name_H-M "P -1"
_symmetry_group_IT_number 2
_symmetry_cell_setting 'triclinic'
loop_
_space_group_symop_operation_xyz
x,y,z
-x,-y,-z
loop_
_atom_site_type_symbol
_atom_site_label
_atom_site_fract_x
_atom_site_fract_y
_atom_site_fract_z
Si Si1 0.372223 0.039411 0.235559
Si Si2 0.265489 0.609192 0.816710
Si Si3 0.518074 0.436110 0.746859
Si Si4 0.548959 0.777857 0.124201
Si Si5 0.722168 0.310816 0.493082
Si Si6 0.018232 0.394330 0.626247
Si Si7 0.762705 0.817194 0.427753
Si Si8 0.729056 0.297547 0.743722
O O1 0.356317 0.935155 0.291632
O O2 0.554139 0.241774 0.228228
O O3 0.293426 0.148563 0.389287
O O4 0.280919 0.797045 0.033290
O O5 0.156116 0.538114 0.732786
O O6 0.196762 0.347834 0.715116
O O7 0.440294 0.295224 0.814031
O O8 0.633781 0.402560 0.608362
O O9 0.387221 0.333219 0.666640
O O10 0.608186 0.716636 0.936128
O O11 0.363543 0.618912 0.107228
O O12 0.639679 0.063869 0.289796
O O13 0.900126 0.522658 0.488983
O O14 0.705155 0.239599 0.582250
O O15 0.911946 0.457007 0.760606
O O16 0.903483 0.097528 0.498266
#
# Coordination Sequence:
#
# PCOD9087001 Si02
#       8
#     2   2   2   2   2   2   2   2
#     4  10  22  40  63  88 112 151 207 250 292 349
#     4  11  23  40  62  86 118 155 199 251 294 346
#     4  10  21  36  61  89 114 153 206 249 289 350
#     4  10  19  36  61  88 115 154 202 247 295 342
#     4  11  21  39  63  89 123 158 197 246 296 351
#     4  11  23  38  60  91 124 162 199 234 297 368
#     4  11  22  39  59  85 122 159 195 245 298 347
#     4  10  20  37  62  88 121 158 191 242 302 352
#
# _framework density 21.531198
#
# number of rings (size 3 to 8) (size 9 to 14) (size 15 to 20)
#    0.000    1.500    0.000    7.875    0.000    3.000 
#    0.000    5.000    0.000    7.500    0.000    0.000 
#    0.000    0.000    0.000    0.000    0.000    0.000 
#
# Total GULP energy -89343.454824 kJ/mol
# GULP energy per Si atom -5583.965926 kJ/mol
# Density = 2.148219 g / cm^3
# Si number density = 21.531198 Si / 1000 Ang^3
#
#
#
# Elastic Constant Matrix: (Units=GPa)
#
#
# Indices 1 2 3 4 5 6 
#
# 1 70.2084 -1.8303 20.8290 8.9811 -1.2239 -9.4336
# 2 -1.8303 70.9818 25.8174 -2.6413 1.1601 3.3163
# 3 20.8290 25.8174 128.3495 9.0685 -20.1639 1.7851
# 4 8.9811 -2.6413 9.0685 13.9959 -2.5386 2.7258
# 5 -1.2239 1.1601 -20.1639 -2.5386 21.3984 -2.5320
# 6 -9.4336 3.3163 1.7851 2.7258 -2.5320 17.0227
#
#
#
# Elastic Compliance Matrix: (Units=1/GPa)
#
#
# Indices 1 2 3 4 5 6 
#
# 1 0.018215 0.000383 -0.002537 -0.012587 -0.001432 0.012088
# 2 0.000383 0.016182 -0.004415 0.005589 -0.004837 -0.004092
# 3 -0.002537 -0.004415 0.010972 -0.004612 0.009948 0.000522
# 4 -0.012587 0.005589 -0.004612 0.088188 0.002570 -0.021319
# 5 -0.001432 -0.004837 0.009948 0.002570 0.057449 0.007239
# 6 0.012088 -0.004092 0.000522 -0.021319 0.007239 0.070677
#
#
# Mechanical properties :
#
#
# Convention : Reuss Voigt Hill
#
# Bulk Modulus (GPa) = 31.02552 39.90798 35.46675
# Shear Modulus (GPa) = 17.50912 25.46495 21.48703
#
# Velocity S-wave (km/s) = 2.85476 3.44277 3.16246
# Velocity P-wave (km/s) = 5.03061 5.86334 5.46286
#
# Compressibility (1/GPa) = 0.03223153
#
# Stress axis : x y z
#
# Youngs Moduli (GPa) = 54.89894 61.79720 91.13709
#
# Poissons Ratio (x) = -0.02365 0.23120
# Poissons Ratio (y) = -0.02101 0.40236
# Poissons Ratio (z) = 0.13927 0.27283
#
# Static dielectric constant tensor:
#      x y z
#    x 1.798900 -0.013250 -0.036630 
#    y -0.013250 1.783620 0.008170 
#    z -0.036630 0.008170 1.830420 
# 
# From -- ./inp_files/452624.got.cif
#   From: 2010.05.17/outbox.cif.g08.bks.cpg/sg2_227_cif.got.tgz:452624.got - 2010.06.03 11:33:40.
