data_PCOD9087968
_publ_section_title
;
Structure prediction by ZEFSAII (Michael W. Deem and Ramdas Pophale) SiO2 
 PCOD9087968
Probable space group: P -1
;
_chemical_formula_sum "Si O2"
_cell_formula_units_Z 16
_cell_length_a 12.450211
_cell_length_b 13.883908
_cell_length_c 13.936602
_cell_angle_alpha 32.638371
_cell_angle_beta 144.900014
_cell_angle_gamma 127.834513
_cell_volume 724.571374
_symmetry_space_group_name_H-M "P -1"
_symmetry_group_IT_number 2
_symmetry_cell_setting 'triclinic'
loop_
_space_group_symop_operation_xyz
x,y,z
-x,-y,-z
loop_
_atom_site_type_symbol
_atom_site_label
_atom_site_fract_x
_atom_site_fract_y
_atom_site_fract_z
Si Si1 0.235728 0.752375 0.229610
Si Si2 0.624829 0.179015 0.032396
Si Si3 0.380522 0.551603 0.026679
Si Si4 0.988259 0.129109 0.217893
Si Si5 0.355931 0.859102 0.419172
Si Si6 0.032879 0.495340 0.197155
Si Si7 0.355769 0.885684 0.611413
Si Si8 0.591755 0.776987 0.363791
O O1 0.215371 0.836726 0.249215
O O2 0.142584 0.579711 0.290962
O O3 0.462167 0.704741 0.407299
O O4 0.135262 0.885572 0.957285
O O5 0.578862 0.340120 0.940160
O O6 0.505355 0.236157 0.799563
O O7 0.847582 0.132575 0.200611
O O8 0.579311 0.990756 0.192956
O O9 0.497837 0.341164 0.291895
O O10 0.426645 0.674065 0.870338
O O11 0.153669 0.559661 0.855058
O O12 0.030932 0.329275 0.067342
O O13 0.184664 0.976718 0.482612
O O14 0.274353 0.911962 0.421347
O O15 0.476823 0.005933 0.354608
O O16 0.190249 0.338380 0.390990
#
# Coordination Sequence:
#
# PCOD9087968 Si02
#       8
#     2   2   2   2   2   2   2   2
#     4   9  20  37  62  87 117 160 199 242 297 352
#     4  10  22  35  61  90 121 157 198 240 300 359
#     4  12  24  40  61  92 122 158 199 244 300 358
#     4   9  21  40  56  91 119 157 194 241 300 349
#     4  11  23  42  67  85 116 160 203 251 299 346
#     4  10  21  36  58  86 126 154 194 241 295 359
#     4  11  24  43  62  88 121 155 204 251 294 354
#     4  10  19  37  57  90 124 155 196 246 290 359
#
# _framework density 22.082021999999998
#
# number of rings (size 3 to 8) (size 9 to 14) (size 15 to 20)
#    0.750    1.000    1.250    3.000    1.750    4.000 
#    0.000    1.875    0.000    0.000    0.000    0.000 
#    0.000    0.000    0.000    0.000    0.000    0.000 
#
# Total GULP energy -89435.286456 kJ/mol
# GULP energy per Si atom -5589.705404 kJ/mol
# Density = 2.203176 g / cm^3
# Si number density = 22.082022 Si / 1000 Ang^3
#
#
#
# Elastic Constant Matrix: (Units=GPa)
#
#
# Indices 1 2 3 4 5 6 
#
# 1 53.1504 34.3314 8.0818 -0.1691 -8.3051 -2.9490
# 2 34.3314 101.5310 8.9639 -14.0328 -18.4107 2.5954
# 3 8.0818 8.9639 52.3188 -14.8304 -3.9053 12.0112
# 4 -0.1691 -14.0328 -14.8304 31.8054 -3.1456 -16.3135
# 5 -8.3051 -18.4107 -3.9053 -3.1456 33.9879 -0.0955
# 6 -2.9490 2.5954 12.0112 -16.3135 -0.0955 32.6921
#
#
#
# Elastic Compliance Matrix: (Units=1/GPa)
#
#
# Indices 1 2 3 4 5 6 
#
# 1 0.025304 -0.008761 -0.004149 -0.004435 0.000557 0.002291
# 2 -0.008761 0.015169 0.001376 0.009026 0.007075 0.002025
# 3 -0.004149 0.001376 0.023490 0.009672 0.003314 -0.004278
# 4 -0.004435 0.009026 0.009672 0.051736 0.009764 0.021175
# 5 0.000557 0.007075 0.003314 0.009764 0.034684 0.003245
# 6 0.002291 0.002025 -0.004278 0.021175 0.003245 0.042782
#
#
# Mechanical properties :
#
#
# Convention : Reuss Voigt Hill
#
# Bulk Modulus (GPa) = 24.45292 34.41715 29.43504
# Shear Modulus (GPa) = 21.75192 30.07197 25.91194
#
# Velocity S-wave (km/s) = 3.14196 3.69430 3.42927
# Velocity P-wave (km/s) = 4.92547 5.81524 5.38875
#
# Compressibility (1/GPa) = 0.04089491
#
# Stress axis : x y z
#
# Youngs Moduli (GPa) = 39.51914 65.92551 42.57178
#
# Poissons Ratio (x) = 0.57754 0.17665
# Poissons Ratio (y) = 0.34621 -0.05859
# Poissons Ratio (z) = 0.16398 -0.09073
#
# Static dielectric constant tensor:
#      x y z
#    x 1.795610 -0.024720 -0.015540 
#    y -0.024720 1.822100 0.024730 
#    z -0.015540 0.024730 1.830030 
# 
# From -- ./inp_files/522224.got.cif
#   From: 2010.05.17/outbox.cif.g08.bks.cpg/sg2_262_cif.got.tgz:522224.got - 2010.06.03 11:33:40.
