data_PCOD9087837
_publ_section_title
;
Structure prediction by ZEFSAII (Michael W. Deem and Ramdas Pophale) SiO2 
 PCOD9087837
Probable space group: P -1
;
_chemical_formula_sum "Si O2"
_cell_formula_units_Z 12
_cell_length_a 7.158293
_cell_length_b 14.696268
_cell_length_c 12.938085
_cell_angle_alpha 35.530884
_cell_angle_beta 63.864038
_cell_angle_gamma 88.393062
_cell_volume 549.519751
_symmetry_space_group_name_H-M "P -1"
_symmetry_group_IT_number 2
_symmetry_cell_setting 'triclinic'
loop_
_space_group_symop_operation_xyz
x,y,z
-x,-y,-z
loop_
_atom_site_type_symbol
_atom_site_label
_atom_site_fract_x
_atom_site_fract_y
_atom_site_fract_z
Si Si1 0.388145 0.665389 0.324009
Si Si2 0.732229 0.712430 0.798926
Si Si3 0.199928 0.908009 0.636412
Si Si4 0.675158 0.610900 0.126912
Si Si5 0.314830 0.183366 0.670226
Si Si6 0.893974 0.210296 0.844933
O O1 0.561948 0.640498 0.227872
O O2 0.518604 0.372357 0.372347
O O3 0.109735 0.439770 0.619309
O O4 0.322641 0.793795 0.161750
O O5 0.787968 0.897664 0.553061
O O6 0.500000 0.500000 0.000000
O O7 0.625651 0.691396 0.961788
O O8 0.026784 0.778267 0.694609
O O9 0.500000 0.000000 0.500000
O O10 0.994973 0.747518 0.921295
O O11 0.464198 0.244677 0.687686
O O12 0.059467 0.175340 0.758333
O O13 0.222041 0.962060 0.881368
#
# Coordination Sequence:
#
# PCOD9087837 Si02
#       6
#     2   2   2   2   2   2
#     4  10  19  37  53  84 120 149 185 231 290 340
#     4   9  20  42  59  83 117 151 194 255 293 341
#     4   9  20  42  60  84 116 151 200 250 291 348
#     4   9  19  38  57  86 115 154 190 238 295 346
#     4  10  19  37  53  87 119 144 191 232 282 346
#     4   9  19  34  55  78 122 150 180 233 275 343
#
# _framework density 21.837250000000001
#
# number of rings (size 3 to 8) (size 9 to 14) (size 15 to 20)
#    1.000    1.667    0.000    2.500    0.000    0.667 
#   24.000    1.667    0.000    0.000    0.000    0.000 
#    0.000    0.000    0.000    0.000    0.000    0.000 
#
# Total GULP energy -66849.530408 kJ/mol
# GULP energy per Si atom -5570.794201 kJ/mol
# Density = 2.178755 g / cm^3
# Si number density = 21.837250 Si / 1000 Ang^3
#
#
#
# Elastic Constant Matrix: (Units=GPa)
#
#
# Indices 1 2 3 4 5 6 
#
# 1 120.9371 6.4000 36.6293 -7.6304 -20.5591 -9.0143
# 2 6.4000 26.1229 7.3864 -14.3944 -10.8592 15.7241
# 3 36.6293 7.3864 176.0960 -15.9870 -0.0754 -10.8602
# 4 -7.6304 -14.3944 -15.9870 27.2554 2.8180 -0.0216
# 5 -20.5591 -10.8592 -0.0754 2.8180 41.9638 -12.3667
# 6 -9.0143 15.7241 -10.8602 -0.0216 -12.3667 18.0246
#
#
#
# Elastic Compliance Matrix: (Units=1/GPa)
#
#
# Indices 1 2 3 4 5 6 
#
# 1 0.014925 -0.035229 -0.000154 -0.015839 0.013139 0.047100
# 2 -0.035229 0.316189 -0.012334 0.154091 -0.043147 -0.330301
# 3 -0.000154 -0.012334 0.006978 -0.002621 0.001639 0.016009
# 4 -0.015839 0.154091 -0.002621 0.114297 -0.022485 -0.159214
# 5 0.013139 -0.043147 0.001639 -0.022485 0.042525 0.074348
# 6 0.047100 -0.330301 0.016009 -0.159214 0.074348 0.427642
#
#
# Mechanical properties :
#
#
# Convention : Reuss Voigt Hill
#
# Bulk Modulus (GPa) = 4.12106 47.10971 25.61539
# Shear Modulus (GPa) = 4.55010 35.63144 20.09077
#
# Velocity S-wave (km/s) = 1.44505 4.04379 3.03648
# Velocity P-wave (km/s) = 2.16229 6.58961 4.90400
#
# Compressibility (1/GPa) = 0.24265572
#
# Stress axis : x y z
#
# Youngs Moduli (GPa) = 67.00249 3.16267 143.30261
#
# Poissons Ratio (x) = 0.11142 0.02212
# Poissons Ratio (y) = 2.36046 1.76753
# Poissons Ratio (z) = 0.01034 0.03901
#
# Static dielectric constant tensor:
#      x y z
#    x 1.810050 0.010470 -0.022940 
#    y 0.010470 1.804870 -0.035490 
#    z -0.022940 -0.035490 1.840100 
# 
# From -- ./inp_files/484987.got.cif
#   From: 2010.05.17/outbox.cif.g08.bks.cpg/sg2_243_cif.got.tgz:484987.got - 2010.06.03 11:33:40.
