data_PCOD9087924
_publ_section_title
;
Structure prediction by ZEFSAII (Michael W. Deem and Ramdas Pophale) SiO2 
 PCOD9087924
Probable space group: P -1
;
_chemical_formula_sum "Si O2"
_cell_formula_units_Z 14
_cell_length_a 11.331481
_cell_length_b 16.474909
_cell_length_c 9.208376
_cell_angle_alpha 61.796400
_cell_angle_beta 51.106024
_cell_angle_gamma 32.842335
_cell_volume 719.449803
_symmetry_space_group_name_H-M "P -1"
_symmetry_group_IT_number 2
_symmetry_cell_setting 'triclinic'
loop_
_space_group_symop_operation_xyz
x,y,z
-x,-y,-z
loop_
_atom_site_type_symbol
_atom_site_label
_atom_site_fract_x
_atom_site_fract_y
_atom_site_fract_z
Si Si1 0.934544 0.377093 0.099772
Si Si2 0.507772 0.490212 0.829129
Si Si3 0.497571 0.993447 0.336760
Si Si4 0.919081 0.278675 0.465942
Si Si5 0.728838 0.233045 0.406637
Si Si6 0.597163 0.782940 0.242977
Si Si7 0.783944 0.952388 0.916461
O O1 0.686579 0.492125 0.097983
O O2 0.869169 0.392729 0.306091
O O3 0.087977 0.207716 0.087606
O O4 0.130893 0.359645 0.916632
O O5 0.775983 0.346678 0.671121
O O6 0.410298 0.630685 0.709930
O O7 0.500000 0.500000 0.000000
O O8 0.212579 0.131792 0.386528
O O9 0.500000 0.000000 0.500000
O O10 0.612934 0.841923 0.320134
O O11 0.656175 0.997011 0.131822
O O12 0.808524 0.248999 0.478300
O O13 0.554579 0.233328 0.581904
O O14 0.990456 0.084746 0.249398
O O15 0.430823 0.917094 0.139372
#
# Coordination Sequence:
#
# PCOD9087924 Si02
#       7
#     2   2   2   2   2   2   2
#     4   9  17  34  58  79 103 145 188 220 254 327
#     4  10  22  38  57  77 108 149 187 221 270 328
#     4  11  21  32  57  87 113 146 176 220 272 335
#     4  10  19  37  57  79 106 145 193 215 262 329
#     4  10  21  35  60  82 107 144 183 233 266 315
#     4  11  18  36  58  85 112 136 182 230 276 314
#     4   9  17  34  55  81 109 142 182 213 270 325
#
# _framework density 19.459315
#
# number of rings (size 3 to 8) (size 9 to 14) (size 15 to 20)
#    0.000    2.286    4.286    3.000    6.000    0.000 
#    0.000    5.714    0.000    0.000    0.000    0.000 
#    0.000    0.000    0.000    0.000    0.000    0.000 
#
# Total GULP energy -78047.552580 kJ/mol
# GULP energy per Si atom -5574.825184 kJ/mol
# Density = 1.941502 g / cm^3
# Si number density = 19.459315 Si / 1000 Ang^3
#
#
#
# Elastic Constant Matrix: (Units=GPa)
#
#
# Indices 1 2 3 4 5 6 
#
# 1 59.9530 3.2124 69.3496 -1.2162 -4.0893 -5.0946
# 2 3.2124 29.0258 19.9580 11.8596 1.9014 -7.6125
# 3 69.3496 19.9580 194.4384 21.2607 -3.2867 -2.2085
# 4 -1.2162 11.8596 21.2607 31.9575 -7.5877 -2.3751
# 5 -4.0893 1.9014 -3.2867 -7.5877 51.8281 2.4590
# 6 -5.0946 -7.6125 -2.2085 -2.3751 2.4590 14.3939
#
#
#
# Elastic Compliance Matrix: (Units=1/GPa)
#
#
# Indices 1 2 3 4 5 6 
#
# 1 0.033236 0.004756 -0.013228 0.009875 0.002416 0.013466
# 2 0.004756 0.050524 -0.005091 -0.014465 -0.005158 0.026117
# 3 -0.013228 -0.005091 0.011020 -0.006632 -0.000814 -0.006639
# 4 0.009875 -0.014465 -0.006632 0.043207 0.007180 0.000730
# 5 0.002416 -0.005158 -0.000814 0.007180 0.020882 -0.004380
# 6 0.013466 0.026117 -0.006639 0.000730 -0.004380 0.087903
#
#
# Mechanical properties :
#
#
# Convention : Reuss Voigt Hill
#
# Bulk Modulus (GPa) = 14.78132 52.05082 33.41607
# Shear Modulus (GPa) = 16.86634 32.36237 24.61435
#
# Velocity S-wave (km/s) = 2.94725 4.08251 3.56042
# Velocity P-wave (km/s) = 4.38112 7.00208 5.84052
#
# Compressibility (1/GPa) = 0.06765298
#
# Stress axis : x y z
#
# Youngs Moduli (GPa) = 30.08809 19.79244 90.74709
#
# Poissons Ratio (x) = -0.09413 1.20042
# Poissons Ratio (y) = -0.14310 0.46201
# Poissons Ratio (z) = 0.39801 0.10077
#
# Static dielectric constant tensor:
#      x y z
#    x 1.702840 0.021830 -0.043430 
#    y 0.021830 1.724060 0.034840 
#    z -0.043430 0.034840 1.734900 
# 
# From -- ./inp_files/168543.got.cif
#   From: 2010.05.17/outbox.cif.g08.bks.cpg/sg2_85_cif.got.tgz:168543.got - 2010.06.03 11:33:40.
