data_PCOD9087646
_publ_section_title
;
Structure prediction by ZEFSAII (Michael W. Deem and Ramdas Pophale) SiO2 
 PCOD9087646
Probable space group: P -1
;
_chemical_formula_sum "Si O2"
_cell_formula_units_Z 14
_cell_length_a 5.433116
_cell_length_b 8.709567
_cell_length_c 12.246179
_cell_angle_alpha 77.052889
_cell_angle_beta 103.315130
_cell_angle_gamma 82.987374
_cell_volume 540.280938
_symmetry_space_group_name_H-M "P -1"
_symmetry_group_IT_number 2
_symmetry_cell_setting 'triclinic'
loop_
_space_group_symop_operation_xyz
x,y,z
-x,-y,-z
loop_
_atom_site_type_symbol
_atom_site_label
_atom_site_fract_x
_atom_site_fract_y
_atom_site_fract_z
Si Si1 0.342411 0.794713 0.068772
Si Si2 0.076004 0.572888 0.666238
Si Si3 0.875277 0.094300 0.364009
Si Si4 0.250003 0.139326 0.080042
Si Si5 0.402575 0.975378 0.369342
Si Si6 0.372294 0.361769 0.556573
Si Si7 0.190980 0.463429 0.128762
O O1 0.360918 0.604953 0.130326
O O2 0.318962 0.944042 0.127937
O O3 0.582341 0.818411 0.013931
O O4 0.059740 0.829429 0.976276
O O5 0.232594 0.717782 0.663011
O O6 0.840820 0.657760 0.551488
O O7 0.968061 0.530422 0.776750
O O8 0.223220 0.419771 0.642124
O O9 0.117154 0.072648 0.311036
O O10 0.000000 0.000000 0.500000
O O11 0.642263 0.011618 0.319396
O O12 0.310210 0.277644 0.146748
O O13 0.405566 0.789442 0.386993
O O14 0.500000 0.000000 0.500000
O O15 0.500000 0.500000 0.500000
O O16 0.000000 0.500000 0.000000
#
# Coordination Sequence:
#
# PCOD9087646 Si02
#       7
#     2   2   2   2   2   2   2
#     4   9  18  37  65  91 128 165 226 271 332 389
#     4  11  24  41  66  98 133 179 227 274 349 412
#     4  10  19  38  62  92 126 165 220 272 326 406
#     4   9  18  37  65  91 122 177 216 279 326 389
#     4  10  19  36  65  88 127 168 210 274 336 397
#     4  11  23  41  65  95 136 173 220 287 340 409
#     4  10  22  44  67  96 138 180 226 280 341 401
#
# _framework density 25.912447
#
# number of rings (size 3 to 8) (size 9 to 14) (size 15 to 20)
#    0.000    2.000    2.857    2.143    2.000    0.000 
#   12.857    0.000    6.286    0.000    0.000    0.000 
#    0.000    0.000    0.000    0.000    0.000    0.000 
#
# Total GULP energy -78247.112364 kJ/mol
# GULP energy per Si atom -5589.079455 kJ/mol
# Density = 2.585347 g / cm^3
# Si number density = 25.912447 Si / 1000 Ang^3
#
#
#
# Elastic Constant Matrix: (Units=GPa)
#
#
# Indices 1 2 3 4 5 6 
#
# 1 97.6418 0.8685 17.8298 6.6781 6.7697 8.8920
# 2 0.8685 192.8643 35.4410 3.2683 -2.4976 10.6148
# 3 17.8298 35.4410 114.6052 7.8596 -0.0885 -7.1334
# 4 6.6781 3.2683 7.8596 34.3064 0.4249 -8.8399
# 5 6.7697 -2.4976 -0.0885 0.4249 41.3562 8.5550
# 6 8.8920 10.6148 -7.1334 -8.8399 8.5550 51.6911
#
#
#
# Elastic Compliance Matrix: (Units=1/GPa)
#
#
# Indices 1 2 3 4 5 6 
#
# 1 0.011048 0.000449 -0.001847 -0.002385 -0.001254 -0.002448
# 2 0.000449 0.005641 -0.001876 -0.000643 0.000623 -0.001707
# 3 -0.001847 -0.001876 0.009793 -0.001221 -0.000165 0.001873
# 4 -0.002385 -0.000643 -0.001221 0.031505 -0.001208 0.005962
# 5 -0.001254 0.000623 -0.000165 -0.001208 0.025332 -0.004334
# 6 -0.002448 -0.001707 0.001873 0.005962 -0.004334 0.022113
#
#
# Mechanical properties :
#
#
# Convention : Reuss Voigt Hill
#
# Bulk Modulus (GPa) = 50.16870 57.04331 53.60601
# Shear Modulus (GPa) = 42.14976 48.86888 45.50932
#
# Velocity S-wave (km/s) = 4.03752 4.34743 4.19534
# Velocity P-wave (km/s) = 6.41391 6.87473 6.64831
#
# Compressibility (1/GPa) = 0.01993275
#
# Stress axis : x y z
#
# Youngs Moduli (GPa) = 90.51516 177.28594 102.11105
#
# Poissons Ratio (x) = -0.07953 0.18863
# Poissons Ratio (y) = -0.04061 0.19154
# Poissons Ratio (z) = 0.16721 0.33256
#
# Static dielectric constant tensor:
#      x y z
#    x 2.192320 0.150080 0.117850 
#    y 0.150080 2.234600 0.123050 
#    z 0.117850 0.123050 2.170960 
# 
# From -- ./inp_files/360731.got.cif
#   From: 2010.05.17/outbox.cif.g08.bks.cpg/sg2_181_cif.got.tgz:360731.got - 2010.06.03 11:33:40.
