data_PCOD9087969
_publ_section_title
;
Structure prediction by ZEFSAII (Michael W. Deem and Ramdas Pophale) SiO2 
 PCOD9087969
Probable space group: P -1
;
_chemical_formula_sum "Si O2"
_cell_formula_units_Z 16
_cell_length_a 12.118501
_cell_length_b 9.457513
_cell_length_c 8.095101
_cell_angle_alpha 54.262204
_cell_angle_beta 79.232179
_cell_angle_gamma 100.390544
_cell_volume 689.351311
_symmetry_space_group_name_H-M "P -1"
_symmetry_group_IT_number 2
_symmetry_cell_setting 'triclinic'
loop_
_space_group_symop_operation_xyz
x,y,z
-x,-y,-z
loop_
_atom_site_type_symbol
_atom_site_label
_atom_site_fract_x
_atom_site_fract_y
_atom_site_fract_z
Si Si1 0.151870 0.513053 0.590395
Si Si2 0.099415 0.157448 0.470771
Si Si3 0.627639 0.200368 0.162541
Si Si4 0.920643 0.213428 0.742632
Si Si5 0.376964 0.553561 0.322855
Si Si6 0.086604 0.384194 0.029218
Si Si7 0.496594 0.751402 0.495712
Si Si8 0.845894 0.095555 0.172086
O O1 0.164245 0.722449 0.396633
O O2 0.235407 0.461218 0.472678
O O3 0.007838 0.395083 0.695774
O O4 0.179584 0.475890 0.794471
O O5 0.140933 0.332186 0.215298
O O6 0.019027 0.177233 0.630546
O O7 0.195947 0.076543 0.571887
O O8 0.000000 0.000000 0.500000
O O9 0.768291 0.226172 0.123927
O O10 0.570112 0.974884 0.300722
O O11 0.608021 0.317665 0.931915
O O12 0.577334 0.251273 0.312530
O O13 0.848781 0.058928 0.000385
O O14 0.429098 0.677154 0.389994
O O15 0.433483 0.393358 0.398922
O O16 0.985698 0.196075 0.112569
O O17 0.000000 0.500000 0.000000
#
# Coordination Sequence:
#
# PCOD9087969 Si02
#       8
#     2   2   2   2   2   2   2   2
#     4  10  21  35  62  91 120 168 205 249 317 387
#     4  10  21  35  54  85 131 166 202 254 303 370
#     4  11  23  46  71  95 131 174 217 283 344 390
#     4  10  19  37  57  90 128 161 205 250 302 391
#     4  11  23  46  71  97 130 174 221 278 341 392
#     4  10  20  36  56  88 132 161 205 253 299 387
#     4  10  26  45  68 100 129 163 232 286 330 400
#     4  10  22  37  59  91 122 171 208 254 323 392
#
# _framework density 23.210222999999999
#
# number of rings (size 3 to 8) (size 9 to 14) (size 15 to 20)
#    0.000    1.750    2.500    1.125    3.500    0.000 
#    0.000    5.000    0.000    0.000    0.000    0.000 
#    0.000    0.000    0.000    0.000    0.000    0.000 
#
# Total GULP energy -89190.111067 kJ/mol
# GULP energy per Si atom -5574.381942 kJ/mol
# Density = 2.315740 g / cm^3
# Si number density = 23.210223 Si / 1000 Ang^3
#
#
#
# Elastic Constant Matrix: (Units=GPa)
#
#
# Indices 1 2 3 4 5 6 
#
# 1 87.2403 38.2465 66.4235 -5.1428 15.7366 -13.6625
# 2 38.2465 105.0366 56.5260 3.2350 5.9973 -7.4244
# 3 66.4235 56.5260 236.8339 11.0371 44.0188 -18.2945
# 4 -5.1428 3.2350 11.0371 29.2566 -14.2703 -1.6450
# 5 15.7366 5.9973 44.0188 -14.2703 40.7467 -8.5645
# 6 -13.6625 -7.4244 -18.2945 -1.6450 -8.5645 32.9733
#
#
#
# Elastic Compliance Matrix: (Units=1/GPa)
#
#
# Indices 1 2 3 4 5 6 
#
# 1 0.017091 -0.004000 -0.004006 0.005868 0.001337 0.004599
# 2 -0.004000 0.012017 -0.002081 -0.000235 0.002027 0.000409
# 3 -0.004006 -0.002081 0.008014 -0.008347 -0.009867 -0.000661
# 4 0.005868 -0.000235 -0.008347 0.051661 0.026388 0.007179
# 5 0.001337 0.002027 -0.009867 0.026388 0.045447 0.008657
# 6 0.004599 0.000409 -0.000661 0.007179 0.008657 0.034565
#
#
# Mechanical properties :
#
#
# Convention : Reuss Voigt Hill
#
# Bulk Modulus (GPa) = 58.99582 83.50032 71.24807
# Shear Modulus (GPa) = 25.69144 38.45632 32.07388
#
# Velocity S-wave (km/s) = 3.33062 4.07488 3.72141
# Velocity P-wave (km/s) = 6.34539 7.62845 7.01631
#
# Compressibility (1/GPa) = 0.01695035
#
# Stress axis : x y z
#
# Youngs Moduli (GPa) = 58.51140 83.21578 124.77812
#
# Poissons Ratio (x) = 0.33283 0.49980
# Poissons Ratio (y) = 0.23402 0.25962
# Poissons Ratio (z) = 0.23437 0.17314
#
# Static dielectric constant tensor:
#      x y z
#    x 1.906120 0.082590 0.039140 
#    y 0.082590 1.926980 0.026420 
#    z 0.039140 0.026420 1.890930 
# 
# From -- ./inp_files/211124.got.cif
#   From: 2010.05.17/outbox.cif.g08.bks.cpg/sg2_106_cif.got.tgz:211124.got - 2010.06.03 11:33:40.
