data_PCOD9087197
_publ_section_title
;
Structure prediction by ZEFSAII (Michael W. Deem and Ramdas Pophale) SiO2 
 PCOD9087197
Probable space group: P -1
;
_chemical_formula_sum "Si O2"
_cell_formula_units_Z 14
_cell_length_a 20.918296
_cell_length_b 21.875635
_cell_length_c 5.071561
_cell_angle_alpha 61.625411
_cell_angle_beta 66.658115
_cell_angle_gamma 17.684489
_cell_volume 606.241937
_symmetry_space_group_name_H-M "P -1"
_symmetry_group_IT_number 2
_symmetry_cell_setting 'triclinic'
loop_
_space_group_symop_operation_xyz
x,y,z
-x,-y,-z
loop_
_atom_site_type_symbol
_atom_site_label
_atom_site_fract_x
_atom_site_fract_y
_atom_site_fract_z
Si Si1 0.036040 0.418274 0.859643
Si Si2 0.620804 0.016747 0.764831
Si Si3 0.752950 0.577481 0.749500
Si Si4 0.417927 0.535152 0.311700
Si Si5 0.186058 0.094464 0.831873
Si Si6 0.655952 0.528943 0.188151
Si Si7 0.101845 0.741882 0.182952
O O1 0.856189 0.527531 0.907289
O O2 0.000000 0.500000 0.500000
O O3 0.000000 0.500000 0.000000
O O4 0.268390 0.161361 0.992004
O O5 0.742842 0.929973 0.486903
O O6 0.374679 0.253962 0.591432
O O7 0.669486 0.022274 0.914442
O O8 0.952965 0.347497 0.771255
O O9 0.596486 0.662279 0.924516
O O10 0.500000 0.500000 0.500000
O O11 0.488836 0.389281 0.578649
O O12 0.167682 0.752425 0.195989
O O13 0.500000 0.500000 0.000000
O O14 0.129395 0.067118 0.923434
O O15 0.839928 0.364529 0.449414
O O16 0.746128 0.407506 0.021037
#
# Coordination Sequence:
#
# PCOD9087197 Si02
#       7
#     2   2   2   2   2   2   2
#     4  11  24  42  62  89 125 159 196 253 302 363
#     4  11  24  39  65  91 116 165 205 241 317 358
#     4  10  23  42  64  89 126 156 207 258 296 362
#     4  10  16  27  47  85 119 151 201 236 289 367
#     4  10  21  39  59  91 125 148 207 260 294 352
#     4   9  18  30  53  80 114 154 192 252 293 331
#     4   9  16  29  50  76 118 153 188 249 295 334
#
# _framework density 23.093091999999999
#
# number of rings (size 3 to 8) (size 9 to 14) (size 15 to 20)
#    0.857    1.143    1.429    4.286    0.000    8.000 
#    0.000    0.000    0.000    0.000    0.000    6.000 
#    0.000    0.000    0.000    0.000    0.000    0.000 
#
# Total GULP energy -77941.288182 kJ/mol
# GULP energy per Si atom -5567.234870 kJ/mol
# Density = 2.304053 g / cm^3
# Si number density = 23.093092 Si / 1000 Ang^3
#
#
#
# Elastic Constant Matrix: (Units=GPa)
#
#
# Indices 1 2 3 4 5 6 
#
# 1 131.6489 13.2940 35.0738 1.6405 29.0948 -17.8589
# 2 13.2940 33.3220 27.5100 3.7579 2.9471 -1.3506
# 3 35.0738 27.5100 142.0210 16.6073 9.4156 10.9168
# 4 1.6405 3.7579 16.6073 45.9772 1.3236 1.4405
# 5 29.0948 2.9471 9.4156 1.3236 59.5196 6.3327
# 6 -17.8589 -1.3506 10.9168 1.4405 6.3327 21.0371
#
#
#
# Elastic Compliance Matrix: (Units=1/GPa)
#
#
# Indices 1 2 3 4 5 6 
#
# 1 0.011987 -0.000800 -0.003506 0.000662 -0.006763 0.013935
# 2 -0.000800 0.036662 -0.007226 -0.000512 -0.000879 0.005724
# 3 -0.003506 -0.007226 0.010221 -0.002737 0.001473 -0.009000
# 4 0.000662 -0.000512 -0.002737 0.022753 -0.000427 0.000520
# 5 -0.006763 -0.000879 0.001473 -0.000427 0.021304 -0.012946
# 6 0.013935 0.005724 -0.009000 0.000520 -0.012946 0.068264
#
#
# Mechanical properties :
#
#
# Convention : Reuss Voigt Hill
#
# Bulk Modulus (GPa) = 27.92713 50.97193 39.44953
# Shear Modulus (GPa) = 24.24942 40.71439 32.48191
#
# Velocity S-wave (km/s) = 3.24400 4.20343 3.75449
# Velocity P-wave (km/s) = 5.11380 6.75860 5.99290
#
# Compressibility (1/GPa) = 0.03580748
#
# Stress axis : x y z
#
# Youngs Moduli (GPa) = 83.42089 27.27588 97.83959
#
# Poissons Ratio (x) = 0.02182 0.34299
# Poissons Ratio (y) = 0.06674 0.70698
# Poissons Ratio (z) = 0.29244 0.19709
#
# Static dielectric constant tensor:
#      x y z
#    x 1.918190 -0.025870 -0.012750 
#    y -0.025870 2.003780 -0.049290 
#    z -0.012750 -0.049290 1.880270 
# 
# From -- ./inp_files/120506.got.cif
#   From: 2010.05.17/outbox.cif.g08.bks.cpg/sg2_61_cif.got.tgz:120506.got - 2010.06.03 11:33:40.
