data_PCOD9087798
_publ_section_title
;
Structure prediction by ZEFSAII (Michael W. Deem and Ramdas Pophale) SiO2 
 PCOD9087798
Probable space group: P -1
;
_chemical_formula_sum "Si O2"
_cell_formula_units_Z 14
_cell_length_a 20.029247
_cell_length_b 13.546050
_cell_length_c 13.585629
_cell_angle_alpha 149.659994
_cell_angle_beta 26.147363
_cell_angle_gamma 158.907221
_cell_volume 576.952233
_symmetry_space_group_name_H-M "P -1"
_symmetry_group_IT_number 2
_symmetry_cell_setting 'triclinic'
loop_
_space_group_symop_operation_xyz
x,y,z
-x,-y,-z
loop_
_atom_site_type_symbol
_atom_site_label
_atom_site_fract_x
_atom_site_fract_y
_atom_site_fract_z
Si Si1 0.704916 0.346211 0.804173
Si Si2 0.632717 0.872846 0.412004
Si Si3 0.791761 0.064892 0.833149
Si Si4 0.249824 0.793935 0.182588
Si Si5 0.699081 0.713931 0.994035
Si Si6 0.827062 0.852679 0.313206
Si Si7 0.784133 0.628139 0.366117
O O1 0.805565 0.415119 0.840011
O O2 0.755333 0.572512 0.862198
O O3 0.745863 0.181123 0.550571
O O4 0.447089 0.121681 0.971139
O O5 0.739131 0.796954 0.271540
O O6 0.391237 0.656484 0.588255
O O7 0.639421 0.821824 0.246154
O O8 0.857185 0.277823 0.843922
O O9 0.977303 0.230518 0.810447
O O10 0.782062 0.841951 0.602654
O O11 0.213433 0.968686 0.434656
O O12 0.500000 0.000000 0.000000
O O13 0.500000 0.500000 0.000000
O O14 0.920453 0.961781 0.859496
O O15 0.722227 0.602584 0.312031
#
# Coordination Sequence:
#
# PCOD9087798 Si02
#       7
#     2   2   2   2   2   2   2
#     4  10  21  41  64  92 132 166 217 264 317 385
#     4  11  24  41  67  94 130 167 219 267 319 380
#     4   9  17  34  63  94 130 163 215 261 322 377
#     4   8  17  33  60  92 122 162 206 260 308 373
#     4  12  26  44  69  91 130 180 211 263 324 384
#     4  10  22  40  65  97 133 170 217 259 322 386
#     4  10  19  36  68  97 126 170 211 269 323 376
#
# _framework density 24.265440000000002
#
# number of rings (size 3 to 8) (size 9 to 14) (size 15 to 20)
#    0.000    2.000    1.429    1.714    4.000    3.429 
#    2.571    0.000    6.286    0.000    0.000    0.000 
#    0.000    0.000    0.000    0.000    0.000    0.000 
#
# Total GULP energy -78340.153469 kJ/mol
# GULP energy per Si atom -5595.725248 kJ/mol
# Density = 2.421021 g / cm^3
# Si number density = 24.265440 Si / 1000 Ang^3
#
#
#
# Elastic Constant Matrix: (Units=GPa)
#
#
# Indices 1 2 3 4 5 6 
#
# 1 114.0401 12.8332 21.9327 -3.3114 9.8944 -0.8649
# 2 12.8332 58.9300 18.8477 -2.4125 3.5895 -9.0450
# 3 21.9327 18.8477 69.9630 -9.8507 17.6957 -4.3240
# 4 -3.3114 -2.4125 -9.8507 43.1150 1.5918 -11.9202
# 5 9.8944 3.5895 17.6957 1.5918 31.7498 1.1039
# 6 -0.8649 -9.0450 -4.3240 -11.9202 1.1039 41.3519
#
#
#
# Elastic Compliance Matrix: (Units=1/GPa)
#
#
# Indices 1 2 3 4 5 6 
#
# 1 0.009480 -0.001288 -0.002222 0.000142 -0.001569 -0.000233
# 2 -0.001288 0.019329 -0.004553 0.001029 0.000563 0.004006
# 3 -0.002222 -0.004553 0.019684 0.005217 -0.010122 0.002790
# 4 0.000142 0.001029 0.005217 0.027032 -0.004726 0.008692
# 5 -0.001569 0.000563 -0.010122 -0.004726 0.037916 -0.003343
# 6 -0.000233 0.004006 0.002790 0.008692 -0.003343 0.027941
#
#
# Mechanical properties :
#
#
# Convention : Reuss Voigt Hill
#
# Bulk Modulus (GPa) = 30.89765 38.90670 34.90217
# Shear Modulus (GPa) = 29.70954 35.86465 32.78709
#
# Velocity S-wave (km/s) = 3.50288 3.84866 3.67983
# Velocity P-wave (km/s) = 5.39639 5.98483 5.69821
#
# Compressibility (1/GPa) = 0.03236493
#
# Stress axis : x y z
#
# Youngs Moduli (GPa) = 105.48875 51.73625 50.80362
#
# Poissons Ratio (x) = 0.06664 0.11291
# Poissons Ratio (y) = 0.13587 0.23132
# Poissons Ratio (z) = 0.23444 0.23556
#
# Static dielectric constant tensor:
#      x y z
#    x 1.943840 -0.043670 0.006600 
#    y -0.043670 1.935460 0.027780 
#    z 0.006600 0.027780 1.950240 
# 
# From -- ./inp_files/278949.got.cif
#   From: 2010.05.17/outbox.cif.g08.bks.cpg/sg2_140_cif.got.tgz:278949.got - 2010.06.03 11:33:40.
