data_PCOD9087658
_publ_section_title
;
Structure prediction by ZEFSAII (Michael W. Deem and Ramdas Pophale) SiO2 
 PCOD9087658
Probable space group: P -1
;
_chemical_formula_sum "Si O2"
_cell_formula_units_Z 14
_cell_length_a 16.346158
_cell_length_b 7.736468
_cell_length_c 7.414191
_cell_angle_alpha 81.582405
_cell_angle_beta 132.769573
_cell_angle_gamma 119.759859
_cell_volume 570.142769
_symmetry_space_group_name_H-M "P -1"
_symmetry_group_IT_number 2
_symmetry_cell_setting 'triclinic'
loop_
_space_group_symop_operation_xyz
x,y,z
-x,-y,-z
loop_
_atom_site_type_symbol
_atom_site_label
_atom_site_fract_x
_atom_site_fract_y
_atom_site_fract_z
Si Si1 0.677061 0.618491 0.687620
Si Si2 0.360971 0.560767 0.981970
Si Si3 0.191433 0.741286 0.320923
Si Si4 0.634742 0.208230 0.713353
Si Si5 0.935605 0.725402 0.917511
Si Si6 0.648180 0.879578 0.291298
Si Si7 0.871502 0.859954 0.453920
O O1 0.617735 0.570507 0.807327
O O2 0.626272 0.388729 0.570181
O O3 0.833380 0.700278 0.920933
O O4 0.663784 0.768025 0.511247
O O5 0.345927 0.718222 0.063281
O O6 0.493853 0.707522 0.041926
O O7 0.226161 0.383380 0.714636
O O8 0.248360 0.806372 0.193285
O O9 0.124202 0.495384 0.244272
O O10 0.312040 0.894136 0.611407
O O11 0.076841 0.780676 0.185249
O O12 0.500000 0.000000 0.500000
O O13 0.932754 0.868331 0.739110
O O14 0.758224 0.912412 0.306813
O O15 0.000000 0.000000 0.500000
#
# Coordination Sequence:
#
# PCOD9087658 Si02
#       7
#     2   2   2   2   2   2   2
#     4   8  19  33  61  88 114 150 197 249 284 341
#     4  10  21  38  61  88 125 149 198 244 296 357
#     4  10  19  36  65  90 112 148 210 247 293 336
#     4   9  17  34  58  89 114 147 191 251 290 339
#     4   9  21  38  60  87 120 156 196 248 291 353
#     4  11  21  37  65  87 117 157 202 247 291 346
#     4  11  26  41  57  85 129 164 191 234 305 360
#
# _framework density 24.555250999999998
#
# number of rings (size 3 to 8) (size 9 to 14) (size 15 to 20)
#    0.857    1.429    1.429    0.857    4.000    1.143 
#    0.000    3.571    0.000    0.000    0.000    0.000 
#    0.000    0.000    0.000    0.000    0.000    0.000 
#
# Total GULP energy -78025.071802 kJ/mol
# GULP energy per Si atom -5573.219414 kJ/mol
# Density = 2.449936 g / cm^3
# Si number density = 24.555251 Si / 1000 Ang^3
#
#
#
# Elastic Constant Matrix: (Units=GPa)
#
#
# Indices 1 2 3 4 5 6 
#
# 1 126.8056 19.2842 24.2059 21.8829 31.2110 14.1089
# 2 19.2842 84.8100 35.2851 44.8953 8.4580 -0.6948
# 3 24.2059 35.2851 72.6860 29.3552 11.0027 8.1365
# 4 21.8829 44.8953 29.3552 52.2522 1.8489 -2.6031
# 5 31.2110 8.4580 11.0027 1.8489 40.0938 14.6127
# 6 14.1089 -0.6948 8.1365 -2.6031 14.6127 38.1296
#
#
#
# Elastic Compliance Matrix: (Units=1/GPa)
#
#
# Indices 1 2 3 4 5 6 
#
# 1 0.010737 0.001280 -0.000943 -0.004849 -0.007740 -0.001113
# 2 0.001280 0.023065 -0.003827 -0.017986 -0.004433 0.001234
# 3 -0.000943 -0.003827 0.019685 -0.007477 -0.002209 -0.003585
# 4 -0.004849 -0.017986 -0.007477 0.040758 0.006522 0.003345
# 5 -0.007740 -0.004433 -0.002209 0.006522 0.035869 -0.010046
# 6 -0.001113 0.001234 -0.003585 0.003345 -0.010046 0.031504
#
#
# Mechanical properties :
#
#
# Convention : Reuss Voigt Hill
#
# Bulk Modulus (GPa) = 21.50132 49.09468 35.29800
# Shear Modulus (GPa) = 27.15922 39.79686 33.47804
#
# Velocity S-wave (km/s) = 3.32933 4.03017 3.69640
# Velocity P-wave (km/s) = 4.85331 6.45703 5.71174
#
# Compressibility (1/GPa) = 0.04650878
#
# Stress axis : x y z
#
# Youngs Moduli (GPa) = 93.13530 43.35542 50.80098
#
# Poissons Ratio (x) = -0.05551 0.04789
# Poissons Ratio (y) = -0.11924 0.19440
# Poissons Ratio (z) = 0.08780 0.16591
#
# Static dielectric constant tensor:
#      x y z
#    x 1.981630 0.001190 0.043040 
#    y 0.001190 2.036770 0.006380 
#    z 0.043040 0.006380 1.998500 
# 
# From -- ./inp_files/328956.got.cif
#   From: 2010.05.17/outbox.cif.g08.bks.cpg/sg2_165_cif.got.tgz:328956.got - 2010.06.03 11:33:40.
