data_PCOD9087863
_publ_section_title
;
Structure prediction by ZEFSAII (Michael W. Deem and Ramdas Pophale) SiO2 
 PCOD9087863
Probable space group: P -1
;
_chemical_formula_sum "Si O2"
_cell_formula_units_Z 14
_cell_length_a 7.481278
_cell_length_b 10.620066
_cell_length_c 9.181691
_cell_angle_alpha 81.004466
_cell_angle_beta 104.509654
_cell_angle_gamma 64.638404
_cell_volume 608.490681
_symmetry_space_group_name_H-M "P -1"
_symmetry_group_IT_number 2
_symmetry_cell_setting 'triclinic'
loop_
_space_group_symop_operation_xyz
x,y,z
-x,-y,-z
loop_
_atom_site_type_symbol
_atom_site_label
_atom_site_fract_x
_atom_site_fract_y
_atom_site_fract_z
Si Si1 0.088911 0.199546 0.538966
Si Si2 0.782160 0.144921 0.691349
Si Si3 0.275441 0.082824 0.130588
Si Si4 0.404285 0.637181 0.124134
Si Si5 0.731274 0.314008 0.226500
Si Si6 0.430583 0.876139 0.617464
Si Si7 0.686409 0.780425 0.162826
O O1 0.167636 0.278489 0.654581
O O2 0.957107 0.145584 0.623176
O O3 0.934252 0.291210 0.361814
O O4 0.284302 0.050975 0.547088
O O5 0.710811 0.267900 0.776532
O O6 0.586055 0.178691 0.536449
O O7 0.854406 0.989376 0.812189
O O8 0.353464 0.155426 0.255697
O O9 0.488223 0.935740 0.145739
O O10 0.202805 0.184078 0.955229
O O11 0.527982 0.465040 0.206790
O O12 0.583862 0.682158 0.112897
O O13 0.256344 0.674684 0.946150
O O14 0.681776 0.186121 0.285652
#
# Coordination Sequence:
#
# PCOD9087863 Si02
#       7
#     2   2   2   2   2   2   2
#     4  10  22  36  55  84 115 138 171 229 285 306
#     4  10  20  33  55  86 106 139 185 223 261 323
#     4   9  17  32  56  78 111 140 182 217 264 324
#     4  10  21  37  60  78 103 150 191 210 261 326
#     4  10  20  37  58  78 108 147 179 225 263 325
#     4  10  19  37  55  83 112 144 170 227 276 320
#     4   9  18  35  54  79 108 145 176 221 269 321
#
# _framework density 23.007746999999998
#
# number of rings (size 3 to 8) (size 9 to 14) (size 15 to 20)
#    0.000    2.286    1.429    2.143    2.000    3.429 
#    2.571    0.000    0.000    6.857    0.000    0.000 
#    0.000    0.000    0.000    0.000    0.000    0.000 
#
# Total GULP energy -78261.237063 kJ/mol
# GULP energy per Si atom -5590.088362 kJ/mol
# Density = 2.295538 g / cm^3
# Si number density = 23.007747 Si / 1000 Ang^3
#
#
#
# Elastic Constant Matrix: (Units=GPa)
#
#
# Indices 1 2 3 4 5 6 
#
# 1 42.4010 -4.2879 16.4221 12.5673 -5.4949 -6.2062
# 2 -4.2879 55.9002 37.0155 13.5551 8.8250 -8.5223
# 3 16.4221 37.0155 157.4522 18.0040 24.9913 -10.4658
# 4 12.5673 13.5551 18.0040 32.3493 0.1305 -0.1075
# 5 -5.4949 8.8250 24.9913 0.1305 31.2100 5.9021
# 6 -6.2062 -8.5223 -10.4658 -0.1075 5.9021 16.7907
#
#
#
# Elastic Compliance Matrix: (Units=1/GPa)
#
#
# Indices 1 2 3 4 5 6 
#
# 1 0.032947 0.010193 -0.003748 -0.014953 0.003385 0.013730
# 2 0.010193 0.028295 -0.003984 -0.013514 -0.006322 0.017781
# 3 -0.003748 -0.003984 0.009597 -0.002164 -0.008241 0.005457
# 4 -0.014953 -0.013514 -0.002164 0.043515 0.005661 -0.015446
# 5 0.003385 -0.006322 -0.008241 0.005661 0.045349 -0.022998
# 6 0.013730 0.017781 0.005457 -0.015446 -0.022998 0.085043
#
#
# Mechanical properties :
#
#
# Convention : Reuss Voigt Hill
#
# Bulk Modulus (GPa) = 13.19929 39.33922 26.26925
# Shear Modulus (GPa) = 18.86245 29.84360 24.35302
#
# Velocity S-wave (km/s) = 2.86637 3.60545 3.25694
# Velocity P-wave (km/s) = 4.08707 5.87092 5.05825
#
# Compressibility (1/GPa) = 0.07576168
#
# Stress axis : x y z
#
# Youngs Moduli (GPa) = 30.35190 35.34172 104.19981
#
# Poissons Ratio (x) = -0.36025 0.39050
# Poissons Ratio (y) = -0.30939 0.41518
# Poissons Ratio (z) = 0.11375 0.14082
#
# Static dielectric constant tensor:
#      x y z
#    x 1.917430 -0.005930 0.013560 
#    y -0.005930 1.810700 0.025460 
#    z 0.013560 0.025460 1.874620 
# 
# From -- ./inp_files/178029.got.cif
#   From: 2010.05.17/outbox.cif.g08.bks.cpg/sg2_90_cif.got.tgz:178029.got - 2010.06.03 11:33:40.
