data_PCOD9087325
_publ_section_title
;
Structure prediction by ZEFSAII (Michael W. Deem and Ramdas Pophale) SiO2 
 PCOD9087325
Probable space group: P -1
;
_chemical_formula_sum "Si O2"
_cell_formula_units_Z 16
_cell_length_a 9.879758
_cell_length_b 18.472923
_cell_length_c 9.410759
_cell_angle_alpha 145.010713
_cell_angle_beta 72.741503
_cell_angle_gamma 111.467797
_cell_volume 916.533419
_symmetry_space_group_name_H-M "P -1"
_symmetry_group_IT_number 2
_symmetry_cell_setting 'triclinic'
loop_
_space_group_symop_operation_xyz
x,y,z
-x,-y,-z
loop_
_atom_site_type_symbol
_atom_site_label
_atom_site_fract_x
_atom_site_fract_y
_atom_site_fract_z
Si Si1 0.054316 0.913446 0.464254
Si Si2 0.871373 0.940879 0.836891
Si Si3 0.840002 0.569412 0.596172
Si Si4 0.348540 0.267223 0.244659
Si Si5 0.634543 0.091280 0.188628
Si Si6 0.629051 0.980272 0.326713
Si Si7 0.095166 0.685993 0.894140
Si Si8 0.346374 0.669329 0.606662
O O1 0.214715 0.976639 0.576265
O O2 0.941654 0.902449 0.610720
O O3 0.063025 0.776454 0.172922
O O4 0.000000 0.000000 0.500000
O O5 0.762458 0.821134 0.753342
O O6 0.777660 0.048684 0.018258
O O7 0.000000 0.000000 0.000000
O O8 0.731670 0.633135 0.644175
O O9 0.903061 0.464360 0.315931
O O10 0.751217 0.476376 0.597709
O O11 0.971522 0.673174 0.790742
O O12 0.496384 0.330810 0.381087
O O13 0.386472 0.167615 0.956639
O O14 0.626392 0.058922 0.306360
O O15 0.639733 0.239965 0.388762
O O16 0.500000 0.000000 0.000000
O O17 0.500000 0.000000 0.500000
O O18 0.254951 0.736129 0.856480
#
# Coordination Sequence:
#
# PCOD9087325 Si02
#       8
#     2   2   2   2   2   2   2   2
#     4  12  23  37  60  91 125 155 196 252 306 352
#     4  11  23  37  58  91 124 159 193 243 307 358
#     4   9  21  38  61  87 113 160 210 241 290 353
#     4  11  20  38  60  87 119 157 199 239 298 364
#     4  11  21  39  61  87 121 160 195 241 302 365
#     4  11  24  37  58  93 125 151 193 252 310 352
#     4   9  21  37  59  88 112 157 204 239 299 340
#     4  10  19  36  63  83 112 155 204 239 291 353
#
# _framework density 17.457083999999998
#
# number of rings (size 3 to 8) (size 9 to 14) (size 15 to 20)
#    0.750    0.750    5.000    2.625    3.500    0.000 
#    0.000    0.625    0.000    1.500    0.000    0.000 
#    0.000    0.000    0.000    0.000    0.000    0.000 
#
# Total GULP energy -89167.267589 kJ/mol
# GULP energy per Si atom -5572.954224 kJ/mol
# Density = 1.741735 g / cm^3
# Si number density = 17.457084 Si / 1000 Ang^3
#
#
#
# Elastic Constant Matrix: (Units=GPa)
#
#
# Indices 1 2 3 4 5 6 
#
# 1 137.4224 34.2653 14.9652 -4.7246 -5.9704 -7.2345
# 2 34.2653 70.7103 15.3470 -7.3134 -8.8577 -8.9356
# 3 14.9652 15.3470 62.8390 -21.8135 -8.4076 -3.0928
# 4 -4.7246 -7.3134 -21.8135 27.7965 4.9783 -7.8337
# 5 -5.9704 -8.8577 -8.4076 4.9783 26.3607 2.4014
# 6 -7.2345 -8.9356 -3.0928 -7.8337 2.4014 37.1011
#
#
#
# Elastic Compliance Matrix: (Units=1/GPa)
#
#
# Indices 1 2 3 4 5 6 
#
# 1 0.008361 -0.003737 -0.001135 -0.000352 0.000293 0.000542
# 2 -0.003737 0.017562 -0.001651 0.003114 0.003595 0.003788
# 3 -0.001135 -0.001651 0.023819 0.019048 0.002713 0.005213
# 4 -0.000352 0.003114 0.019048 0.056680 -0.004989 0.014560
# 5 0.000293 0.003595 0.002713 -0.004989 0.041252 -0.002574
# 6 0.000542 0.003788 0.005213 0.014560 -0.002574 0.031647
#
#
# Mechanical properties :
#
#
# Convention : Reuss Voigt Hill
#
# Bulk Modulus (GPa) = 27.24983 44.45851 35.85417
# Shear Modulus (GPa) = 24.43805 32.01127 28.22466
#
# Velocity S-wave (km/s) = 3.74557 4.28683 4.02531
# Velocity P-wave (km/s) = 5.86082 7.07285 6.49517
#
# Compressibility (1/GPa) = 0.03669748
#
# Stress axis : x y z
#
# Youngs Moduli (GPa) = 119.59840 56.93987 41.98334
#
# Poissons Ratio (x) = 0.21276 0.04765
# Poissons Ratio (y) = 0.44689 0.06931
# Poissons Ratio (z) = 0.13575 0.09401
#
# Static dielectric constant tensor:
#      x y z
#    x 1.601670 0.001070 -0.006360 
#    y 0.001070 1.612600 0.012350 
#    z -0.006360 0.012350 1.578570 
# 
# From -- ./inp_files/218839.got.cif
#   From: 2010.05.17/outbox.cif.g08.bks.cpg/sg2_110_cif.got.tgz:218839.got - 2010.06.03 11:33:40.
