data_PCOD9087270
_publ_section_title
;
Structure prediction by ZEFSAII (Michael W. Deem and Ramdas Pophale) SiO2 
 PCOD9087270
Probable space group: P -1
;
_chemical_formula_sum "Si O2"
_cell_formula_units_Z 16
_cell_length_a 8.859388
_cell_length_b 21.445560
_cell_length_c 19.483536
_cell_angle_alpha 27.614418
_cell_angle_beta 37.985482
_cell_angle_gamma 26.913637
_cell_volume 776.635681
_symmetry_space_group_name_H-M "P -1"
_symmetry_group_IT_number 2
_symmetry_cell_setting 'triclinic'
loop_
_space_group_symop_operation_xyz
x,y,z
-x,-y,-z
loop_
_atom_site_type_symbol
_atom_site_label
_atom_site_fract_x
_atom_site_fract_y
_atom_site_fract_z
Si Si1 0.867942 0.903809 0.286552
Si Si2 0.452188 0.262001 0.439163
Si Si3 0.900298 0.468436 0.916786
Si Si4 0.225826 0.015596 0.043626
Si Si5 0.063397 0.009333 0.359696
Si Si6 0.426014 0.892289 0.670881
Si Si7 0.504310 0.106256 0.084703
Si Si8 0.706560 0.412823 0.897132
O O1 0.813247 0.763100 0.441999
O O2 0.616647 0.051159 0.290607
O O3 0.758699 0.003350 0.155682
O O4 0.203306 0.865145 0.218338
O O5 0.301747 0.459742 0.276803
O O6 0.740545 0.126555 0.410845
O O7 0.653612 0.185891 0.513624
O O8 0.720818 0.676602 0.765142
O O9 0.883276 0.393799 0.923566
O O10 0.660272 0.489984 0.038823
O O11 0.280908 0.323126 0.946346
O O12 0.886904 0.218275 0.988991
O O13 0.316026 0.992179 0.954503
O O14 0.500000 0.000000 0.000000
O O15 0.234645 0.090503 0.213812
O O16 0.915513 0.033047 0.314606
O O17 0.500000 0.000000 0.500000
#
# Coordination Sequence:
#
# PCOD9087270 Si02
#       8
#     2   2   2   2   2   2   2   2
#     4  11  24  41  62  93 132 169 208 260 319 377
#     4  10  20  38  65  90 131 162 205 263 324 367
#     4  11  20  36  64  95 128 158 211 267 309 374
#     4  12  24  43  67  91 125 173 217 256 314 381
#     4  10  19  36  62  92 122 169 200 255 319 378
#     4  12  21  36  61  96 131 162 210 263 318 368
#     4  11  23  41  65  92 130 169 210 256 321 376
#     4  11  20  38  66  98 120 162 218 259 310 376
#
# _framework density 20.601680999999999
#
# number of rings (size 3 to 8) (size 9 to 14) (size 15 to 20)
#    0.000    1.000    6.250    1.875    0.000    0.500 
#    2.250    3.125    2.750    0.000    0.000    0.000 
#    0.000    0.000    0.000    0.000    0.000    0.000 
#
# Total GULP energy -89256.593826 kJ/mol
# GULP energy per Si atom -5578.537114 kJ/mol
# Density = 2.055479 g / cm^3
# Si number density = 20.601681 Si / 1000 Ang^3
#
#
#
# Elastic Constant Matrix: (Units=GPa)
#
#
# Indices 1 2 3 4 5 6 
#
# 1 44.9210 10.5129 23.8051 1.4143 -3.3278 8.2609
# 2 10.5129 47.0810 27.1783 5.8036 9.9609 12.4377
# 3 23.8051 27.1783 131.1090 -7.8061 -8.0756 -2.0501
# 4 1.4143 5.8036 -7.8061 25.7705 -0.1144 1.8585
# 5 -3.3278 9.9609 -8.0756 -0.1144 34.2931 16.3545
# 6 8.2609 12.4377 -2.0501 1.8585 16.3545 27.5645
#
#
#
# Elastic Compliance Matrix: (Units=1/GPa)
#
#
# Indices 1 2 3 4 5 6 
#
# 1 0.028076 -0.001886 -0.004487 -0.001523 0.008267 -0.012699
# 2 -0.001886 0.030547 -0.007011 -0.008242 -0.006202 -0.009505
# 3 -0.004487 -0.007011 0.010378 0.004722 0.002363 0.003560
# 4 -0.001523 -0.008242 0.004722 0.042231 0.003763 -0.000554
# 5 0.008267 -0.006202 0.002363 0.003763 0.044930 -0.026415
# 6 -0.012699 -0.009505 0.003560 -0.000554 -0.026415 0.060348
#
#
# Mechanical properties :
#
#
# Convention : Reuss Voigt Hill
#
# Bulk Modulus (GPa) = 23.67776 38.45593 31.06685
# Shear Modulus (GPa) = 19.42841 28.29995 23.86418
#
# Velocity S-wave (km/s) = 3.07424 3.71033 3.40716
# Velocity P-wave (km/s) = 4.91115 6.08788 5.53090
#
# Compressibility (1/GPa) = 0.04223372
#
# Stress axis : x y z
#
# Youngs Moduli (GPa) = 35.61760 32.73609 96.36043
#
# Poissons Ratio (x) = 0.06172 0.43236
# Poissons Ratio (y) = 0.06716 0.67561
# Poissons Ratio (z) = 0.15981 0.22952
#
# Static dielectric constant tensor:
#      x y z
#    x 1.846490 -0.056290 -0.017780 
#    y -0.056290 1.731240 0.009730 
#    z -0.017780 0.009730 1.772990 
# 
# From -- ./inp_files/562623.got.cif
#   From: 2010.05.17/outbox.cif.g08.bks.cpg/sg2_282_cif.got.tgz:562623.got - 2010.06.03 11:33:40.
