data_PCOD9087627
_publ_section_title
;
Structure prediction by ZEFSAII (Michael W. Deem and Ramdas Pophale) SiO2 
 PCOD9087627
Probable space group: P -1
;
_chemical_formula_sum "Si O2"
_cell_formula_units_Z 14
_cell_length_a 16.914801
_cell_length_b 15.912353
_cell_length_c 11.641383
_cell_angle_alpha 141.851690
_cell_angle_beta 159.038993
_cell_angle_gamma 31.698147
_cell_volume 588.418476
_symmetry_space_group_name_H-M "P -1"
_symmetry_group_IT_number 2
_symmetry_cell_setting 'triclinic'
loop_
_space_group_symop_operation_xyz
x,y,z
-x,-y,-z
loop_
_atom_site_type_symbol
_atom_site_label
_atom_site_fract_x
_atom_site_fract_y
_atom_site_fract_z
Si Si1 0.150441 0.847571 0.698084
Si Si2 0.802411 0.461912 0.005982
Si Si3 0.443386 0.913035 0.507054
Si Si4 0.326325 0.220106 0.577143
Si Si5 0.071337 0.630284 0.513532
Si Si6 0.414401 0.623801 0.183875
Si Si7 0.998645 0.811107 0.201779
O O1 0.019403 0.785468 0.540801
O O2 0.121308 0.809026 0.486857
O O3 0.454968 0.757084 0.045893
O O4 0.035767 0.037583 0.754631
O O5 0.055223 0.369162 0.332823
O O6 0.818515 0.616318 0.165751
O O7 0.591649 0.454634 0.789285
O O8 0.855639 0.351132 0.847921
O O9 0.545811 0.856260 0.454749
O O10 0.326204 0.809459 0.277699
O O11 0.287153 0.102931 0.481037
O O12 0.702132 0.859852 0.873029
O O13 0.290923 0.476881 0.572847
O O14 0.229391 0.617044 0.829035
#
# Coordination Sequence:
#
# PCOD9087627 Si02
#       7
#     2   2   2   2   2   2   2
#     4  10  19  36  65  80 116 156 186 232 291 331
#     4  11  22  37  60  88 116 145 196 235 279 339
#     4   9  16  33  57  83 110 147 187 230 281 330
#     4   9  16  32  58  84 110 142 190 235 273 333
#     4  11  21  37  58  86 115 152 187 232 288 340
#     4  11  21  36  60  86 119 149 184 241 286 331
#     4   9  20  38  60  87 110 153 194 231 281 343
#
# _framework density 23.792591999999999
#
# number of rings (size 3 to 8) (size 9 to 14) (size 15 to 20)
#    0.000    2.000    4.286    2.143    0.000    1.143 
#    0.000    0.714    3.143    2.571    0.000    0.000 
#    0.000    0.000    0.000    0.000    0.000    0.000 
#
# Total GULP energy -78283.473841 kJ/mol
# GULP energy per Si atom -5591.676703 kJ/mol
# Density = 2.373844 g / cm^3
# Si number density = 23.792592 Si / 1000 Ang^3
#
#
#
# Elastic Constant Matrix: (Units=GPa)
#
#
# Indices 1 2 3 4 5 6 
#
# 1 48.4926 3.3945 17.0752 5.3048 17.8152 11.2456
# 2 3.3945 70.7588 19.9403 37.7842 7.0971 15.9382
# 3 17.0752 19.9403 77.4042 16.7002 -11.7074 4.9633
# 4 5.3048 37.7842 16.7002 47.6503 14.9000 9.9545
# 5 17.8152 7.0971 -11.7074 14.9000 32.0879 10.5657
# 6 11.2456 15.9382 4.9633 9.9545 10.5657 23.7377
#
#
#
# Elastic Compliance Matrix: (Units=1/GPa)
#
#
# Indices 1 2 3 4 5 6 
#
# 1 0.036477 0.001148 -0.014436 0.010369 -0.028363 -0.006757
# 2 0.001148 0.028172 -0.000882 -0.021624 0.007278 -0.013446
# 3 -0.014436 -0.000882 0.022605 -0.012299 0.022943 -0.002349
# 4 0.010369 -0.021624 -0.012299 0.049715 -0.030104 0.004730
# 5 -0.028363 0.007278 0.022943 -0.030104 0.072950 -0.016093
# 6 -0.006757 -0.013446 -0.002349 0.004730 -0.016093 0.060028
#
#
# Mechanical properties :
#
#
# Convention : Reuss Voigt Hill
#
# Bulk Modulus (GPa) = 16.97380 30.83064 23.90222
# Shear Modulus (GPa) = 15.72694 31.11155 23.41925
#
# Velocity S-wave (km/s) = 2.57378 3.62002 3.14077
# Velocity P-wave (km/s) = 3.99775 5.51896 4.81876
#
# Compressibility (1/GPa) = 0.05891434
#
# Stress axis : x y z
#
# Youngs Moduli (GPa) = 27.41416 35.49648 44.23715
#
# Poissons Ratio (x) = -0.04077 0.63863
# Poissons Ratio (y) = -0.03149 0.03903
# Poissons Ratio (z) = 0.39576 0.03132
#
# Static dielectric constant tensor:
#      x y z
#    x 1.962700 -0.047160 0.040240 
#    y -0.047160 1.996830 0.030380 
#    z 0.040240 0.030380 1.883030 
# 
# From -- ./inp_files/465606.got.cif
#   From: 2010.05.17/outbox.cif.g08.bks.cpg/sg2_233_cif.got.tgz:465606.got - 2010.06.03 11:33:40.
