data_PCOD9087690
_publ_section_title
;
Structure prediction by ZEFSAII (Michael W. Deem and Ramdas Pophale) SiO2 
 PCOD9087690
Probable space group: P -1
;
_chemical_formula_sum "Si O2"
_cell_formula_units_Z 16
_cell_length_a 8.685629
_cell_length_b 14.245433
_cell_length_c 7.463893
_cell_angle_alpha 129.957289
_cell_angle_beta 68.167747
_cell_angle_gamma 91.401421
_cell_volume 626.587306
_symmetry_space_group_name_H-M "P -1"
_symmetry_group_IT_number 2
_symmetry_cell_setting 'triclinic'
loop_
_space_group_symop_operation_xyz
x,y,z
-x,-y,-z
loop_
_atom_site_type_symbol
_atom_site_label
_atom_site_fract_x
_atom_site_fract_y
_atom_site_fract_z
Si Si1 0.937010 0.001895 0.739480
Si Si2 0.820772 0.764721 0.653485
Si Si3 0.284212 0.822699 0.427626
Si Si4 0.583682 0.151811 0.994998
Si Si5 0.065837 0.620112 0.671568
Si Si6 0.298913 0.553447 0.192621
Si Si7 0.124286 0.343526 0.872164
Si Si8 0.568851 0.906109 0.523768
O O1 0.864642 0.888294 0.705171
O O2 0.129397 0.955495 0.685598
O O3 0.770428 0.128665 0.987706
O O4 0.000000 0.000000 0.500000
O O5 0.927571 0.730464 0.750627
O O6 0.887180 0.658645 0.338511
O O7 0.615461 0.775515 0.776930
O O8 0.372407 0.809158 0.176257
O O9 0.227546 0.696264 0.318468
O O10 0.431467 0.828361 0.511348
O O11 0.573072 0.007173 0.795455
O O12 0.000000 0.500000 0.500000
O O13 0.255063 0.580801 0.454999
O O14 0.046453 0.640517 0.915682
O O15 0.500000 0.500000 0.000000
O O16 0.213013 0.449223 0.027255
O O17 0.249374 0.202602 0.703206
O O18 0.500000 0.000000 0.500000
#
# Coordination Sequence:
#
# PCOD9087690 Si02
#       8
#     2   2   2   2   2   2   2   2
#     4  10  21  39  62  97 138 175 217 289 339 391
#     4  12  23  44  71  99 135 183 227 276 341 409
#     4  10  20  40  65  95 137 176 220 288 344 391
#     4  10  22  39  69  93 138 177 228 275 335 408
#     4  10  24  43  67  97 131 174 227 280 333 399
#     4  11  22  41  67  92 135 173 217 285 339 393
#     4  11  24  42  69  97 134 179 234 272 335 415
#     4  10  19  36  65  96 127 180 225 268 333 404
#
# _framework density 25.535146000000001
#
# number of rings (size 3 to 8) (size 9 to 14) (size 15 to 20)
#    0.000    1.500    3.750    1.875    1.750    2.000 
#    0.000    5.000    0.000    0.000    0.000    0.000 
#    0.000    0.000    0.000    0.000    0.000    0.000 
#
# Total GULP energy -89298.630392 kJ/mol
# GULP energy per Si atom -5581.164400 kJ/mol
# Density = 2.547703 g / cm^3
# Si number density = 25.535146 Si / 1000 Ang^3
#
#
#
# Elastic Constant Matrix: (Units=GPa)
#
#
# Indices 1 2 3 4 5 6 
#
# 1 53.0923 -3.6441 27.8467 -8.5964 -31.2081 3.1551
# 2 -3.6441 100.8562 32.6815 -5.8039 -2.6921 11.4536
# 3 27.8467 32.6815 140.6242 -30.0149 -30.9264 10.9712
# 4 -8.5964 -5.8039 -30.0149 48.8079 13.0708 -8.5129
# 5 -31.2081 -2.6921 -30.9264 13.0708 49.0152 2.0139
# 6 3.1551 11.4536 10.9712 -8.5129 2.0139 35.4281
#
#
#
# Elastic Compliance Matrix: (Units=1/GPa)
#
#
# Indices 1 2 3 4 5 6 
#
# 1 0.031835 0.002967 -0.002757 -0.001686 0.019325 -0.004444
# 2 0.002967 0.011317 -0.002901 -0.000757 0.001016 -0.003264
# 3 -0.002757 -0.002901 0.010063 0.004272 0.003341 -0.001096
# 4 -0.001686 -0.000757 0.004272 0.025100 -0.005335 0.005407
# 5 0.019325 0.001016 0.003341 -0.005335 0.036558 -0.006444
# 6 -0.004444 -0.003264 -0.001096 0.005407 -0.006444 0.031682
#
#
# Mechanical properties :
#
#
# Convention : Reuss Voigt Hill
#
# Bulk Modulus (GPa) = 20.90555 45.37122 33.13838
# Shear Modulus (GPa) = 29.78291 42.49615 36.13953
#
# Velocity S-wave (km/s) = 3.41889 4.08391 3.76611
# Velocity P-wave (km/s) = 4.87748 6.32807 5.64953
#
# Compressibility (1/GPa) = 0.04783419
#
# Stress axis : x y z
#
# Youngs Moduli (GPa) = 31.41155 88.36576 99.37068
#
# Poissons Ratio (x) = -0.26219 0.27393
# Poissons Ratio (y) = -0.09320 0.28827
# Poissons Ratio (z) = 0.08659 0.25635
#
# Static dielectric constant tensor:
#      x y z
#    x 2.328270 0.004040 0.053030 
#    y 0.004040 2.090660 -0.001170 
#    z 0.053030 -0.001170 2.061280 
# 
# From -- ./inp_files/274278.got.cif
#   From: 2010.05.17/outbox.cif.g08.bks.cpg/sg2_138_cif.got.tgz:274278.got - 2010.06.03 11:33:40.
