data_PCOD9087367
_publ_section_title
;
Structure prediction by ZEFSAII (Michael W. Deem and Ramdas Pophale) SiO2 
 PCOD9087367
Probable space group: P -1
;
_chemical_formula_sum "Si O2"
_cell_formula_units_Z 16
_cell_length_a 21.386806
_cell_length_b 23.718436
_cell_length_c 12.331918
_cell_angle_alpha 31.224974
_cell_angle_beta 24.264313
_cell_angle_gamma 16.295994
_cell_volume 710.514473
_symmetry_space_group_name_H-M "P -1"
_symmetry_group_IT_number 2
_symmetry_cell_setting 'triclinic'
loop_
_space_group_symop_operation_xyz
x,y,z
-x,-y,-z
loop_
_atom_site_type_symbol
_atom_site_label
_atom_site_fract_x
_atom_site_fract_y
_atom_site_fract_z
Si Si1 0.340591 0.110121 0.211233
Si Si2 0.139545 0.686508 0.508712
Si Si3 0.895961 0.680801 0.333643
Si Si4 0.295404 0.875487 0.202657
Si Si5 0.774500 0.904344 0.353265
Si Si6 0.512358 0.730188 0.321613
Si Si7 0.918273 0.774261 0.939534
Si Si8 0.134141 0.919647 0.150455
O O1 0.195217 0.179429 0.444625
O O2 0.160631 0.150889 0.343460
O O3 0.367359 0.219371 0.949423
O O4 0.662334 0.872073 0.116143
O O5 0.313591 0.471174 0.565745
O O6 0.256109 0.734212 0.213123
O O7 0.107999 0.710912 0.649647
O O8 0.926455 0.747245 0.274293
O O9 0.000000 0.500000 0.500000
O O10 0.560906 0.883635 0.496960
O O11 0.052202 0.623319 0.071090
O O12 0.509539 0.707525 0.233644
O O13 0.315801 0.843110 0.096298
O O14 0.244200 0.032798 0.053230
O O15 0.000000 0.000000 0.500000
O O16 0.877711 0.966586 0.092059
O O17 0.188165 0.915824 0.571878
#
# Coordination Sequence:
#
# PCOD9087367 Si02
#       8
#     2   2   2   2   2   2   2   2
#     4  10  22  43  60  87 121 161 209 247 294 356
#     4  12  23  37  64  90 119 159 209 249 295 353
#     4  10  22  38  63  93 119 156 208 242 300 365
#     4   9  16  36  54  82 119 144 183 239 303 345
#     4  10  23  41  62  85 128 164 189 253 305 353
#     4  10  23  38  61  90 119 156 207 251 297 353
#     4  10  19  36  63  88 114 155 196 251 299 348
#     4  11  22  40  60  87 127 161 191 250 310 360
#
# _framework density 22.518895000000001
#
# number of rings (size 3 to 8) (size 9 to 14) (size 15 to 20)
#    0.000    1.750    5.000    0.750    3.500    2.000 
#    0.000    0.625    0.000    0.000    0.000    0.000 
#    0.000    0.000    0.000    0.000    0.000    0.000 
#
# Total GULP energy -89254.516056 kJ/mol
# GULP energy per Si atom -5578.407253 kJ/mol
# Density = 2.246764 g / cm^3
# Si number density = 22.518895 Si / 1000 Ang^3
#
#
#
# Elastic Constant Matrix: (Units=GPa)
#
#
# Indices 1 2 3 4 5 6 
#
# 1 83.1433 13.0261 31.2605 -8.8990 -6.8892 0.1911
# 2 13.0261 55.0695 25.4172 -27.0497 -0.6881 4.8157
# 3 31.2605 25.4172 134.7051 -27.4033 -6.9893 8.5511
# 4 -8.8990 -27.0497 -27.4033 35.1972 5.2272 3.4188
# 5 -6.8892 -0.6881 -6.9893 5.2272 31.1054 -0.2294
# 6 0.1911 4.8157 8.5511 3.4188 -0.2294 13.1121
#
#
#
# Elastic Compliance Matrix: (Units=1/GPa)
#
#
# Indices 1 2 3 4 5 6 
#
# 1 0.013666 -0.003098 -0.003097 -0.002073 0.002637 0.003545
# 2 -0.003098 0.034664 0.001323 0.029670 -0.004766 -0.021368
# 3 -0.003097 0.001323 0.010388 0.009249 0.000052 -0.009626
# 4 -0.002073 0.029670 0.009249 0.062382 -0.008453 -0.033312
# 5 0.002637 -0.004766 0.000052 -0.008453 0.034093 0.004478
# 6 0.003545 -0.021368 -0.009626 -0.033312 0.004478 0.099103
#
#
# Mechanical properties :
#
#
# Convention : Reuss Voigt Hill
#
# Bulk Modulus (GPa) = 20.41899 45.81395 33.11647
# Shear Modulus (GPa) = 17.83404 29.43054 23.63229
#
# Velocity S-wave (km/s) = 2.81723 3.61907 3.24302
# Velocity P-wave (km/s) = 4.43504 6.15243 5.36292
#
# Compressibility (1/GPa) = 0.04897402
#
# Stress axis : x y z
#
# Youngs Moduli (GPa) = 73.17643 28.84852 96.26640
#
# Poissons Ratio (x) = 0.08939 0.29810
# Poissons Ratio (y) = 0.22674 -0.12741
# Poissons Ratio (z) = 0.22660 -0.03818
#
# Static dielectric constant tensor:
#      x y z
#    x 1.886990 0.043670 -0.014350 
#    y 0.043670 1.921170 -0.024830 
#    z -0.014350 -0.024830 1.944840 
# 
# From -- ./inp_files/472860.got.cif
#   From: 2010.05.17/outbox.cif.g08.bks.cpg/sg2_237_cif.got.tgz:472860.got - 2010.06.03 11:33:40.
