data_PCOD9087135
_publ_section_title
;
Structure prediction by ZEFSAII (Michael W. Deem and Ramdas Pophale) SiO2 
 PCOD9087135
Probable space group: P -1
;
_chemical_formula_sum "Si O2"
_cell_formula_units_Z 14
_cell_length_a 18.309966
_cell_length_b 8.770203
_cell_length_c 8.942970
_cell_angle_alpha 83.028913
_cell_angle_beta 54.878875
_cell_angle_gamma 41.421273
_cell_volume 636.932057
_symmetry_space_group_name_H-M "P -1"
_symmetry_group_IT_number 2
_symmetry_cell_setting 'triclinic'
loop_
_space_group_symop_operation_xyz
x,y,z
-x,-y,-z
loop_
_atom_site_type_symbol
_atom_site_label
_atom_site_fract_x
_atom_site_fract_y
_atom_site_fract_z
Si Si1 0.946840 0.346681 0.802929
Si Si2 0.386582 0.677753 0.252625
Si Si3 0.777103 0.577622 0.253727
Si Si4 0.723682 0.952693 0.448628
Si Si5 0.580806 0.563719 0.457683
Si Si6 0.896647 0.052336 0.940815
Si Si7 0.058681 0.090298 0.420910
O O1 0.933556 0.179448 0.850553
O O2 0.802539 0.609724 0.052827
O O3 0.108694 0.193116 0.703398
O O4 0.942197 0.371838 0.623456
O O5 0.373359 0.871013 0.305692
O O6 0.424231 0.520041 0.371141
O O7 0.214936 0.871159 0.367883
O O8 0.500000 0.500000 0.000000
O O9 0.630210 0.668919 0.418268
O O10 0.764375 0.723456 0.378444
O O11 0.944455 0.243263 0.129119
O O12 0.593302 0.192625 0.447629
O O13 0.730140 0.292814 0.205158
O O14 0.889744 0.962578 0.806069
O O15 0.000000 0.000000 0.500000
#
# Coordination Sequence:
#
# PCOD9087135 Si02
#       7
#     2   2   2   2   2   2   2
#     4   9  19  35  57  84 116 151 192 233 275 332
#     4  11  23  39  58  83 112 147 193 241 284 336
#     4  11  21  37  58  87 119 151 188 233 282 339
#     4  11  22  37  58  89 119 147 186 239 287 331
#     4  11  22  39  60  83 113 156 196 229 279 346
#     4  10  19  36  62  83 110 155 196 227 275 343
#     4   9  17  33  56  83 108 143 190 232 268 325
#
# _framework density 21.980366
#
# number of rings (size 3 to 8) (size 9 to 14) (size 15 to 20)
#    0.000    1.714    0.000    8.143    0.000    1.143 
#    0.000    5.000    0.000    0.000    0.000    0.000 
#    0.000    0.000    0.000    0.000    0.000    0.000 
#
# Total GULP energy -77997.876208 kJ/mol
# GULP energy per Si atom -5571.276872 kJ/mol
# Density = 2.193034 g / cm^3
# Si number density = 21.980366 Si / 1000 Ang^3
#
#
#
# Elastic Constant Matrix: (Units=GPa)
#
#
# Indices 1 2 3 4 5 6 
#
# 1 159.2448 18.5973 46.5181 -1.2195 23.4197 15.6490
# 2 18.5973 17.5026 20.6719 1.1533 8.6231 -1.3226
# 3 46.5181 20.6719 126.6022 -9.0945 31.6197 28.9212
# 4 -1.2195 1.1533 -9.0945 19.1176 0.9031 6.4029
# 5 23.4197 8.6231 31.6197 0.9031 44.8914 0.9675
# 6 15.6490 -1.3226 28.9212 6.4029 0.9675 29.8238
#
#
#
# Elastic Compliance Matrix: (Units=1/GPa)
#
#
# Indices 1 2 3 4 5 6 
#
# 1 0.008163 -0.009015 0.000989 0.003814 -0.003163 -0.006359
# 2 -0.009015 0.100663 -0.025631 -0.032714 0.003196 0.040970
# 3 0.000989 -0.025631 0.022499 0.022180 -0.011286 -0.027869
# 4 0.003814 -0.032714 0.022180 0.079597 -0.012032 -0.041659
# 5 -0.003163 0.003196 -0.011286 -0.012032 0.031195 0.014317
# 6 -0.006359 0.040970 -0.027869 -0.041659 0.014317 0.074189
#
#
# Mechanical properties :
#
#
# Convention : Reuss Voigt Hill
#
# Bulk Modulus (GPa) = 15.62246 52.76935 34.19591
# Shear Modulus (GPa) = 12.34701 33.27072 22.80886
#
# Velocity S-wave (km/s) = 2.37265 3.89479 3.22482
# Velocity P-wave (km/s) = 3.82477 6.65474 5.42745
#
# Compressibility (1/GPa) = 0.06401041
#
# Stress axis : x y z
#
# Youngs Moduli (GPa) = 122.50788 9.93412 44.44673
#
# Poissons Ratio (x) = 0.08956 -0.04397
# Poissons Ratio (y) = 1.10442 1.13923
# Poissons Ratio (z) = -0.12120 0.25463
#
# Static dielectric constant tensor:
#      x y z
#    x 1.857690 0.026620 -0.049450 
#    y 0.026620 1.868820 -0.007790 
#    z -0.049450 -0.007790 2.192010 
# 
# From -- ./inp_files/329139.got.cif
#   From: 2010.05.17/outbox.cif.g08.bks.cpg/sg2_165_cif.got.tgz:329139.got - 2010.06.03 11:33:40.
