data_PCOD9087775
_publ_section_title
;
Structure prediction by ZEFSAII (Michael W. Deem and Ramdas Pophale) SiO2 
 PCOD9087775
Probable space group: P -1
;
_chemical_formula_sum "Si O2"
_cell_formula_units_Z 14
_cell_length_a 12.568267
_cell_length_b 8.755556
_cell_length_c 8.757347
_cell_angle_alpha 59.170890
_cell_angle_beta 132.775021
_cell_angle_gamma 104.532181
_cell_volume 600.160860
_symmetry_space_group_name_H-M "P -1"
_symmetry_group_IT_number 2
_symmetry_cell_setting 'triclinic'
loop_
_space_group_symop_operation_xyz
x,y,z
-x,-y,-z
loop_
_atom_site_type_symbol
_atom_site_label
_atom_site_fract_x
_atom_site_fract_y
_atom_site_fract_z
Si Si1 0.450458 0.517510 0.118456
Si Si2 0.981332 0.563804 0.746541
Si Si3 0.879652 0.831935 0.279069
Si Si4 0.867496 0.083582 0.714705
Si Si5 0.757193 0.762670 0.877374
Si Si6 0.722307 0.396916 0.632704
Si Si7 0.774386 0.205367 0.089968
O O1 0.584658 0.521868 0.362423
O O2 0.326483 0.690907 0.931384
O O3 0.500000 0.500000 0.000000
O O4 0.378786 0.345045 0.194614
O O5 0.902178 0.636715 0.475555
O O6 0.848937 0.513417 0.742873
O O7 0.099265 0.387185 0.928989
O O8 0.068768 0.723155 0.797419
O O9 0.778143 0.837135 0.029063
O O10 0.041139 0.870107 0.365884
O O11 0.805174 0.991626 0.232564
O O12 0.784333 0.258351 0.629407
O O13 0.765539 0.928065 0.686102
O O14 0.000000 0.000000 0.000000
O O15 0.699063 0.279277 0.818442
#
# Coordination Sequence:
#
# PCOD9087775 Si02
#       7
#     2   2   2   2   2   2   2
#     4  11  27  44  66  93 128 172 218 261 319 381
#     4  11  22  36  69  99 127 168 209 264 320 374
#     4  11  20  39  67 102 130 160 212 272 317 366
#     4  10  19  36  67  97 126 157 212 263 317 369
#     4  10  20  41  64  95 128 170 213 253 319 388
#     4  12  22  43  68  94 130 170 212 263 315 383
#     4  11  24  43  63  93 136 165 213 265 315 381
#
# _framework density 23.327078
#
# number of rings (size 3 to 8) (size 9 to 14) (size 15 to 20)
#    0.000    1.143    5.714    2.571    4.000    1.714 
#    0.000    2.857    0.000    0.000    0.000    0.000 
#    0.000    0.000    0.000    0.000    0.000    0.000 
#
# Total GULP energy -78291.211352 kJ/mol
# GULP energy per Si atom -5592.229382 kJ/mol
# Density = 2.327398 g / cm^3
# Si number density = 23.327078 Si / 1000 Ang^3
#
#
#
# Elastic Constant Matrix: (Units=GPa)
#
#
# Indices 1 2 3 4 5 6 
#
# 1 102.6885 25.4305 19.1767 -9.9366 -0.4488 -5.6130
# 2 25.4305 95.1546 -1.0664 -13.3749 16.3457 -8.7451
# 3 19.1767 -1.0664 56.6106 -2.6232 5.0007 -3.4287
# 4 -9.9366 -13.3749 -2.6232 30.8258 8.3954 3.0053
# 5 -0.4488 16.3457 5.0007 8.3954 35.4822 -0.1650
# 6 -5.6130 -8.7451 -3.4287 3.0053 -0.1650 34.5408
#
#
#
# Elastic Compliance Matrix: (Units=1/GPa)
#
#
# Indices 1 2 3 4 5 6 
#
# 1 0.011445 -0.003169 -0.004000 0.001421 0.001835 0.000546
# 2 -0.003169 0.014169 0.002613 0.007457 -0.008688 0.002641
# 3 -0.004000 0.002613 0.019704 0.002618 -0.004643 0.001718
# 4 0.001421 0.007457 0.002618 0.040087 -0.013277 -0.001172
# 5 0.001835 -0.008688 -0.004643 -0.013277 0.035999 -0.001035
# 6 0.000546 0.002641 0.001718 -0.001172 -0.001035 0.029976
#
#
# Mechanical properties :
#
#
# Convention : Reuss Voigt Hill
#
# Bulk Modulus (GPa) = 27.61878 37.94837 32.78358
# Shear Modulus (GPa) = 28.97527 34.23064 31.60296
#
# Velocity S-wave (km/s) = 3.52821 3.83485 3.68472
# Velocity P-wave (km/s) = 5.33509 5.99261 5.67338
#
# Compressibility (1/GPa) = 0.03620724
#
# Stress axis : x y z
#
# Youngs Moduli (GPa) = 87.37227 70.57815 50.75056
#
# Poissons Ratio (x) = 0.22365 0.20300
# Poissons Ratio (y) = 0.27687 -0.13263
# Poissons Ratio (z) = 0.34948 -0.18444
#
# Static dielectric constant tensor:
#      x y z
#    x 1.932550 0.032630 -0.032340 
#    y 0.032630 1.893730 0.041210 
#    z -0.032340 0.041210 1.879920 
# 
# From -- ./inp_files/159663.got.cif
#   From: 2010.05.17/outbox.cif.g08.bks.cpg/sg2_80_cif.got.tgz:159663.got - 2010.06.03 11:33:40.
