data_PCOD9087855
_publ_section_title
;
Structure prediction by ZEFSAII (Michael W. Deem and Ramdas Pophale) SiO2 
 PCOD9087855
Probable space group: P -1
;
_chemical_formula_sum "Si O2"
_cell_formula_units_Z 14
_cell_length_a 13.293141
_cell_length_b 10.134568
_cell_length_c 11.761744
_cell_angle_alpha 102.624535
_cell_angle_beta 144.887246
_cell_angle_gamma 57.284635
_cell_volume 680.110354
_symmetry_space_group_name_H-M "P -1"
_symmetry_group_IT_number 2
_symmetry_cell_setting 'triclinic'
loop_
_space_group_symop_operation_xyz
x,y,z
-x,-y,-z
loop_
_atom_site_type_symbol
_atom_site_label
_atom_site_fract_x
_atom_site_fract_y
_atom_site_fract_z
Si Si1 0.667961 0.348297 0.037367
Si Si2 0.050737 0.540637 0.710704
Si Si3 0.609396 0.757703 0.202746
Si Si4 0.236976 0.008730 0.254379
Si Si5 0.704122 0.307396 0.810320
Si Si6 0.535256 0.947722 0.720028
Si Si7 0.193012 0.454141 0.084847
O O1 0.890637 0.333192 0.249204
O O2 0.500000 0.500000 0.000000
O O3 0.624448 0.213036 0.000221
O O4 0.590446 0.395845 0.843053
O O5 0.248254 0.348043 0.799299
O O6 0.803387 0.620924 0.450815
O O7 0.079456 0.522159 0.868202
O O8 0.540680 0.940670 0.214346
O O9 0.366368 0.798976 0.330770
O O10 0.341145 0.039794 0.460902
O O11 0.275028 0.060800 0.176972
O O12 0.967764 0.137784 0.052149
O O13 0.712238 0.444278 0.777172
O O14 0.618499 0.756013 0.784950
O O15 0.000000 0.500000 0.000000
#
# Coordination Sequence:
#
# PCOD9087855 Si02
#       7
#     2   2   2   2   2   2   2
#     4   9  17  31  56  82 103 138 188 230 266 322
#     4   9  21  37  58  83 112 147 186 233 279 329
#     4  10  19  37  61  83 106 147 196 230 270 333
#     4  10  21  34  57  80 105 148 194 228 266 334
#     4  10  19  37  55  77 113 145 186 231 278 327
#     4  11  21  34  55  83 110 146 186 231 278 332
#     4  11  22  35  53  83 120 147 174 231 292 329
#
# _framework density 20.584894999999999
#
# number of rings (size 3 to 8) (size 9 to 14) (size 15 to 20)
#    0.000    2.000    2.857    1.714    2.000    1.143 
#    0.000    1.429    0.000    0.000    0.000   23.000 
#    0.000    0.000    0.000    0.000    0.000    0.000 
#
# Total GULP energy -77940.030076 kJ/mol
# GULP energy per Si atom -5567.145005 kJ/mol
# Density = 2.053804 g / cm^3
# Si number density = 20.584895 Si / 1000 Ang^3
#
#
#
# Elastic Constant Matrix: (Units=GPa)
#
#
# Indices 1 2 3 4 5 6 
#
# 1 77.8356 27.4495 12.3870 8.0377 3.3830 -5.4982
# 2 27.4495 143.6999 0.2584 6.3978 -1.1088 -3.7833
# 3 12.3870 0.2584 33.0101 6.9530 0.6933 -4.2303
# 4 8.0377 6.3978 6.9530 29.9892 -0.4720 -5.2936
# 5 3.3830 -1.1088 0.6933 -0.4720 17.6384 3.7814
# 6 -5.4982 -3.7833 -4.2303 -5.2936 3.7814 29.4884
#
#
#
# Elastic Compliance Matrix: (Units=1/GPa)
#
#
# Indices 1 2 3 4 5 6 
#
# 1 0.015085 -0.002759 -0.004905 -0.002049 -0.003317 0.001812
# 2 -0.002759 0.007547 0.001229 -0.001084 0.000857 0.000326
# 3 -0.004905 0.001229 0.033869 -0.006266 -0.001151 0.003124
# 4 -0.002049 -0.001084 -0.006266 0.036481 0.000461 0.005070
# 5 -0.003317 0.000857 -0.001151 0.000461 0.059196 -0.008182
# 6 0.001812 0.000326 0.003124 0.005070 -0.008182 0.036699
#
#
# Mechanical properties :
#
#
# Convention : Reuss Voigt Hill
#
# Bulk Modulus (GPa) = 22.92043 37.19282 30.05662
# Shear Modulus (GPa) = 23.11669 29.71991 26.41830
#
# Velocity S-wave (km/s) = 3.35474 3.80382 3.58632
# Velocity P-wave (km/s) = 5.11512 6.11550 5.63755
#
# Compressibility (1/GPa) = 0.04362921
#
# Stress axis : x y z
#
# Youngs Moduli (GPa) = 66.29006 132.49782 29.52516
#
# Poissons Ratio (x) = 0.36561 0.14484
# Poissons Ratio (y) = 0.18292 -0.03627
# Poissons Ratio (z) = 0.32519 -0.16278
#
# Static dielectric constant tensor:
#      x y z
#    x 1.773760 0.016400 0.047450 
#    y 0.016400 1.825640 0.058970 
#    z 0.047450 0.058970 1.762040 
# 
# From -- ./inp_files/169254.got.cif
#   From: 2010.05.17/outbox.cif.g08.bks.cpg/sg2_85_cif.got.tgz:169254.got - 2010.06.03 11:33:40.
