data_PCOD9087657
_publ_section_title
;
Structure prediction by ZEFSAII (Michael W. Deem and Ramdas Pophale) SiO2 
 PCOD9087657
Probable space group: P -1
;
_chemical_formula_sum "Si O2"
_cell_formula_units_Z 16
_cell_length_a 11.163588
_cell_length_b 22.816553
_cell_length_c 8.741238
_cell_angle_alpha 40.816891
_cell_angle_beta 68.310533
_cell_angle_gamma 38.393389
_cell_volume 754.418979
_symmetry_space_group_name_H-M "P -1"
_symmetry_group_IT_number 2
_symmetry_cell_setting 'triclinic'
loop_
_space_group_symop_operation_xyz
x,y,z
-x,-y,-z
loop_
_atom_site_type_symbol
_atom_site_label
_atom_site_fract_x
_atom_site_fract_y
_atom_site_fract_z
Si Si1 0.546819 0.780583 0.276991
Si Si2 0.977982 0.691051 0.759877
Si Si3 0.339007 0.138837 0.179692
Si Si4 0.896736 0.182956 0.561639
Si Si5 0.976319 0.942787 0.912466
Si Si6 0.369189 0.466268 0.225910
Si Si7 0.014251 0.765532 0.028265
Si Si8 0.247280 0.192293 0.692362
O O1 0.292770 0.922975 0.189522
O O2 0.615204 0.639789 0.489688
O O3 0.721178 0.726478 0.419177
O O4 0.552630 0.846086 0.003382
O O5 0.863653 0.705037 0.927689
O O6 0.835054 0.755910 0.545874
O O7 0.964969 0.806718 0.555061
O O8 0.247824 0.521224 0.008619
O O9 0.500000 0.000000 0.500000
O O10 0.220490 0.127611 0.160309
O O11 0.999256 0.036931 0.716384
O O12 0.630666 0.347090 0.316616
O O13 0.898020 0.162807 0.783264
O O14 0.041318 0.849977 0.914041
O O15 0.218703 0.615514 0.116301
O O16 0.962880 0.736850 0.262237
O O17 0.500000 0.000000 0.000000
#
# Coordination Sequence:
#
# PCOD9087657 Si02
#       8
#     2   2   2   2   2   2   2   2
#     4  10  21  39  61  88 119 153 201 235 306 352
#     4  11  21  37  57  90 118 159 198 235 307 352
#     4  10  21  33  60  87 121 151 188 251 296 349
#     4  10  20  38  63  83 118 154 205 244 293 342
#     4  10  19  36  65  90 107 156 206 249 280 357
#     4  10  24  39  57  86 122 163 188 246 293 359
#     4  10  20  36  58  89 117 152 200 233 305 349
#     4  11  19  34  64  86 117 153 197 250 286 358
#
# _framework density 21.208373999999999
#
# number of rings (size 3 to 8) (size 9 to 14) (size 15 to 20)
#    0.000    1.750    2.500    2.625    0.000    5.500 
#    0.000    2.500    0.000    0.000    0.000    0.000 
#    0.000    0.000    0.000    0.000    0.000    0.000 
#
# Total GULP energy -89152.594604 kJ/mol
# GULP energy per Si atom -5572.037163 kJ/mol
# Density = 2.116010 g / cm^3
# Si number density = 21.208374 Si / 1000 Ang^3
#
#
#
# Elastic Constant Matrix: (Units=GPa)
#
#
# Indices 1 2 3 4 5 6 
#
# 1 76.2212 20.8348 29.6175 0.1388 -10.8034 15.5209
# 2 20.8348 74.7650 23.4346 1.0245 0.0064 15.2091
# 3 29.6175 23.4346 79.6582 -0.5923 10.4449 15.1762
# 4 0.1388 1.0245 -0.5923 27.6448 -1.4292 1.2760
# 5 -10.8034 0.0064 10.4449 -1.4292 35.6477 2.5888
# 6 15.5209 15.2091 15.1762 1.2760 2.5888 33.7212
#
#
#
# Elastic Compliance Matrix: (Units=1/GPa)
#
#
# Indices 1 2 3 4 5 6 
#
# 1 0.018269 -0.002082 -0.006183 0.000499 0.007754 -0.005301
# 2 -0.002082 0.015911 -0.003060 -0.000389 0.000601 -0.004872
# 3 -0.006183 -0.003060 0.017206 0.000307 -0.006683 -0.003016
# 4 0.000499 -0.000389 0.000307 0.036355 0.001642 -0.001694
# 5 0.007754 0.000601 -0.006683 0.001642 0.032673 -0.003402
# 6 -0.005301 -0.004872 -0.003016 -0.001694 -0.003402 0.035975
#
#
# Mechanical properties :
#
#
# Convention : Reuss Voigt Hill
#
# Bulk Modulus (GPa) = 34.80033 42.04644 38.42339
# Shear Modulus (GPa) = 26.50865 29.85325 28.18095
#
# Velocity S-wave (km/s) = 3.53925 3.75589 3.64918
# Velocity P-wave (km/s) = 5.75726 6.21912 5.99264
#
# Compressibility (1/GPa) = 0.02873536
#
# Stress axis : x y z
#
# Youngs Moduli (GPa) = 54.73788 62.84934 58.11930
#
# Poissons Ratio (x) = 0.13086 0.35935
# Poissons Ratio (y) = 0.11397 0.17786
# Poissons Ratio (z) = 0.33844 0.19233
#
# Static dielectric constant tensor:
#      x y z
#    x 1.797450 -0.002780 0.004120 
#    y -0.002780 1.874360 -0.023060 
#    z 0.004120 -0.023060 1.823410 
# 
# From -- ./inp_files/284630.got.cif
#   From: 2010.05.17/outbox.cif.g08.bks.cpg/sg2_143_cif.got.tgz:284630.got - 2010.06.03 11:33:40.
