data_PCOD9087702
_publ_section_title
;
Structure prediction by ZEFSAII (Michael W. Deem and Ramdas Pophale) SiO2 
 PCOD9087702
Probable space group: P -1
;
_chemical_formula_sum "Si O2"
_cell_formula_units_Z 16
_cell_length_a 15.474212
_cell_length_b 11.204928
_cell_length_c 8.894088
_cell_angle_alpha 70.802619
_cell_angle_beta 38.519709
_cell_angle_gamma 47.389491
_cell_volume 635.346273
_symmetry_space_group_name_H-M "P -1"
_symmetry_group_IT_number 2
_symmetry_cell_setting 'triclinic'
loop_
_space_group_symop_operation_xyz
x,y,z
-x,-y,-z
loop_
_atom_site_type_symbol
_atom_site_label
_atom_site_fract_x
_atom_site_fract_y
_atom_site_fract_z
Si Si1 0.922437 0.687300 0.969774
Si Si2 0.194610 0.718185 0.446524
Si Si3 0.832598 0.014803 0.470338
Si Si4 0.770866 0.632424 0.962380
Si Si5 0.522930 0.820275 0.917628
Si Si6 0.547910 0.323571 0.481427
Si Si7 0.148384 0.228538 0.636671
Si Si8 0.405982 0.670763 0.914272
O O1 0.772610 0.757845 0.007985
O O2 0.087049 0.666279 0.676792
O O3 0.845853 0.799122 0.181206
O O4 0.000000 0.500000 0.000000
O O5 0.096445 0.904630 0.576822
O O6 0.425539 0.546263 0.246015
O O7 0.222232 0.726028 0.228354
O O8 0.694236 0.166893 0.466545
O O9 0.936764 0.836372 0.310037
O O10 0.695293 0.031856 0.773157
O O11 0.660744 0.702777 0.924640
O O12 0.996587 0.440475 0.718035
O O13 0.660952 0.607660 0.234076
O O14 0.635353 0.865701 0.671763
O O15 0.498805 0.721787 0.870961
O O16 0.500000 0.500000 0.500000
O O17 0.633540 0.250851 0.228557
#
# Coordination Sequence:
#
# PCOD9087702 Si02
#       8
#     2   2   2   2   2   2   2   2
#     4  10  21  38  59  86 123 159 205 250 303 362
#     4  10  20  36  57  88 120 159 200 254 302 362
#     4  10  23  38  61  94 126 161 202 254 314 359
#     4  10  22  39  63  93 120 160 211 253 297 367
#     4  10  21  40  63  93 121 163 210 250 298 367
#     4  11  21  40  63  93 119 154 211 255 295 368
#     4  11  21  38  63  92 127 165 196 255 318 360
#     4  10  19  36  66  86 115 161 212 250 298 352
#
# _framework density 25.183116999999999
#
# number of rings (size 3 to 8) (size 9 to 14) (size 15 to 20)
#    0.000    1.750    1.250    4.500    1.750    0.500 
#    0.000    8.125    0.000    3.750    0.000    0.000 
#    0.000    0.000    0.000    0.000    0.000    0.000 
#
# Total GULP energy -89460.509984 kJ/mol
# GULP energy per Si atom -5591.281874 kJ/mol
# Density = 2.512580 g / cm^3
# Si number density = 25.183117 Si / 1000 Ang^3
#
#
#
# Elastic Constant Matrix: (Units=GPa)
#
#
# Indices 1 2 3 4 5 6 
#
# 1 111.9399 35.7043 42.9475 -13.0430 40.1167 20.7504
# 2 35.7043 68.4773 41.3062 -9.6919 11.3191 11.1637
# 3 42.9475 41.3062 149.8235 -47.9096 27.4114 13.4728
# 4 -13.0430 -9.6919 -47.9096 41.0990 6.1194 -0.6569
# 5 40.1167 11.3191 27.4114 6.1194 41.1197 2.5587
# 6 20.7504 11.1637 13.4728 -0.6569 2.5587 41.2948
#
#
#
# Elastic Compliance Matrix: (Units=1/GPa)
#
#
# Indices 1 2 3 4 5 6 
#
# 1 0.021119 -0.007010 0.006290 0.015912 -0.024676 -0.008987
# 2 -0.007010 0.020433 -0.006923 -0.006495 0.006813 -0.000268
# 3 0.006290 -0.006923 0.019385 0.025940 -0.020645 -0.005921
# 4 0.015912 -0.006495 0.025940 0.063839 -0.039830 -0.011219
# 5 -0.024676 0.006813 -0.020645 -0.039830 0.065424 0.012606
# 6 -0.008987 -0.000268 -0.005921 -0.011219 0.012606 0.029777
#
#
# Mechanical properties :
#
#
# Convention : Reuss Voigt Hill
#
# Bulk Modulus (GPa) = 21.90555 63.35073 42.62814
# Shear Modulus (GPa) = 19.96168 38.72155 29.34161
#
# Velocity S-wave (km/s) = 2.81848 3.92548 3.41710
# Velocity P-wave (km/s) = 4.39422 6.76435 5.70375
#
# Compressibility (1/GPa) = 0.04565053
#
# Stress axis : x y z
#
# Youngs Moduli (GPa) = 47.34968 48.94112 51.58699
#
# Poissons Ratio (x) = 0.34306 -0.32447
# Poissons Ratio (y) = 0.33190 0.35715
# Poissons Ratio (z) = -0.29781 0.33883
#
# Static dielectric constant tensor:
#      x y z
#    x 2.083670 -0.002340 -0.012910 
#    y -0.002340 2.016680 0.032420 
#    z -0.012910 0.032420 1.978540 
# 
# From -- ./inp_files/307473.got.cif
#   From: 2010.05.17/outbox.cif.g08.bks.cpg/sg2_154_cif.got.tgz:307473.got - 2010.06.03 11:33:40.
