data_PCOD9087233
_publ_section_title
;
Structure prediction by ZEFSAII (Michael W. Deem and Ramdas Pophale) SiO2 
 PCOD9087233
Probable space group: P -1
;
_chemical_formula_sum "Si O2"
_cell_formula_units_Z 16
_cell_length_a 10.854395
_cell_length_b 9.350905
_cell_length_c 16.914358
_cell_angle_alpha 115.624211
_cell_angle_beta 31.666893
_cell_angle_gamma 115.184566
_cell_volume 806.625904
_symmetry_space_group_name_H-M "P -1"
_symmetry_group_IT_number 2
_symmetry_cell_setting 'triclinic'
loop_
_space_group_symop_operation_xyz
x,y,z
-x,-y,-z
loop_
_atom_site_type_symbol
_atom_site_label
_atom_site_fract_x
_atom_site_fract_y
_atom_site_fract_z
Si Si1 0.328280 0.416695 0.752921
Si Si2 0.784286 0.767856 0.066462
Si Si3 0.371359 0.975324 0.307165
Si Si4 0.756687 0.225813 0.113858
Si Si5 0.079307 0.794256 0.157082
Si Si6 0.061677 0.051362 0.355675
Si Si7 0.754907 0.573919 0.648029
Si Si8 0.609380 0.463381 0.014992
O O1 0.282459 0.302836 0.826895
O O2 0.212302 0.582246 0.858041
O O3 0.602658 0.492206 0.636928
O O4 0.179981 0.308980 0.740811
O O5 0.578696 0.863699 0.170599
O O6 0.794370 0.617079 0.968886
O O7 0.051208 0.841850 0.951916
O O8 0.205330 0.952364 0.468261
O O9 0.506019 0.152786 0.266810
O O10 0.199614 0.951826 0.319863
O O11 0.798352 0.176979 0.988969
O O12 0.065612 0.959958 0.249029
O O13 0.251277 0.689414 0.086369
O O14 0.180336 0.234141 0.339255
O O15 0.589008 0.539079 0.807969
O O16 0.000000 0.500000 0.500000
O O17 0.500000 0.500000 0.000000
#
# Coordination Sequence:
#
# PCOD9087233 Si02
#       8
#     2   2   2   2   2   2   2   2
#     4  10  19  41  66  87 120 167 207 244 307 379
#     4  10  19  36  62  90 118 160 207 253 301 367
#     4  11  23  39  59  91 129 163 201 250 313 363
#     4  11  19  40  66  88 119 166 212 246 307 370
#     4  11  21  39  66  93 118 161 209 258 304 359
#     4  11  24  40  61  89 132 163 201 251 312 365
#     4  11  23  43  66  87 120 173 207 239 310 386
#     4  11  21  36  60  92 125 152 206 261 303 353
#
# _framework density 19.835713999999999
#
# number of rings (size 3 to 8) (size 9 to 14) (size 15 to 20)
#    0.000    1.250    5.000    3.375    0.000    4.000 
#    0.000    7.500    0.000    0.000    0.000    0.000 
#    0.000    0.000    0.000    0.000    0.000    0.000 
#
# Total GULP energy -89104.567014 kJ/mol
# GULP energy per Si atom -5569.035438 kJ/mol
# Density = 1.979057 g / cm^3
# Si number density = 19.835714 Si / 1000 Ang^3
#
#
#
# Elastic Constant Matrix: (Units=GPa)
#
#
# Indices 1 2 3 4 5 6 
#
# 1 92.5815 15.3478 28.5022 3.8440 -17.5629 9.4049
# 2 15.3478 53.1096 8.9860 -5.4207 -5.9914 11.5860
# 3 28.5022 8.9860 49.1048 -7.8318 -21.5025 13.1748
# 4 3.8440 -5.4207 -7.8318 29.9911 -1.3817 -5.3389
# 5 -17.5629 -5.9914 -21.5025 -1.3817 32.2134 0.4484
# 6 9.4049 11.5860 13.1748 -5.3389 0.4484 22.5230
#
#
#
# Elastic Compliance Matrix: (Units=1/GPa)
#
#
# Indices 1 2 3 4 5 6 
#
# 1 0.014189 -0.002761 -0.006952 -0.004289 0.002419 -0.001503
# 2 -0.002761 0.022567 0.003558 0.003507 0.005382 -0.011813
# 3 -0.006952 0.003558 0.042680 0.009956 0.026094 -0.022052
# 4 -0.004289 0.003507 0.009956 0.037968 0.006546 0.003033
# 5 0.002419 0.005382 0.026094 0.006546 0.051319 -0.018512
# 6 -0.001503 -0.011813 -0.022052 0.003033 -0.018512 0.065090
#
#
# Mechanical properties :
#
#
# Convention : Reuss Voigt Hill
#
# Bulk Modulus (GPa) = 14.89747 33.38532 24.14139
# Shear Modulus (GPa) = 18.62208 26.40948 22.51578
#
# Velocity S-wave (km/s) = 3.06733 3.65281 3.37280
# Velocity P-wave (km/s) = 4.48012 5.88712 5.23114
#
# Compressibility (1/GPa) = 0.06712548
#
# Stress axis : x y z
#
# Youngs Moduli (GPa) = 70.47740 44.31254 23.43030
#
# Poissons Ratio (x) = 0.12236 0.16290
# Poissons Ratio (y) = 0.19460 -0.08338
# Poissons Ratio (z) = 0.48999 -0.15769
#
# Static dielectric constant tensor:
#      x y z
#    x 1.745340 0.012920 -0.033690 
#    y 0.012920 1.744600 -0.020180 
#    z -0.033690 -0.020180 1.696180 
# 
# From -- ./inp_files/320942.got.cif
#   From: 2010.05.17/outbox.cif.g08.bks.cpg/sg2_161_cif.got.tgz:320942.got - 2010.06.03 11:33:40.
