data_PCOD9087152
_publ_section_title
;
Structure prediction by ZEFSAII (Michael W. Deem and Ramdas Pophale) SiO2 
 PCOD9087152
Probable space group: P -1
;
_chemical_formula_sum "Si O2"
_cell_formula_units_Z 16
_cell_length_a 26.732590
_cell_length_b 10.450533
_cell_length_c 12.346576
_cell_angle_alpha 37.534711
_cell_angle_beta 154.899391
_cell_angle_gamma 154.426930
_cell_volume 626.223000
_symmetry_space_group_name_H-M "P -1"
_symmetry_group_IT_number 2
_symmetry_cell_setting 'triclinic'
loop_
_space_group_symop_operation_xyz
x,y,z
-x,-y,-z
loop_
_atom_site_type_symbol
_atom_site_label
_atom_site_fract_x
_atom_site_fract_y
_atom_site_fract_z
Si Si1 0.162226 0.849186 0.120097
Si Si2 0.653723 0.284846 0.504331
Si Si3 0.313007 0.992755 0.936384
Si Si4 0.811480 0.797025 0.299960
Si Si5 0.471264 0.665397 0.075804
Si Si6 0.314185 0.927836 0.598786
Si Si7 0.002472 0.674440 0.266842
Si Si8 0.934777 0.851809 0.798786
O O1 0.296943 0.896244 0.276458
O O2 0.251771 0.917669 0.366052
O O3 0.000000 0.500000 0.000000
O O4 0.061700 0.936712 0.896514
O O5 0.739438 0.507151 0.418339
O O6 0.749615 0.532480 0.620477
O O7 0.457930 0.075328 0.240642
O O8 0.216073 0.041491 0.784547
O O9 0.178147 0.658341 0.852164
O O10 0.410283 0.217051 0.874772
O O11 0.696622 0.676504 0.048510
O O12 0.000000 0.000000 0.500000
O O13 0.412771 0.834564 0.846411
O O14 0.566976 0.757006 0.314900
O O15 0.151021 0.702481 0.507853
O O16 0.050404 0.885870 0.318140
O O17 0.988455 0.798235 0.048486
#
# Coordination Sequence:
#
# PCOD9087152 Si02
#       8
#     2   2   2   2   2   2   2   2
#     4   9  17  36  65  84 109 164 207 249 296 361
#     4  10  20  40  64  86 123 157 204 257 307 366
#     4  11  23  37  63  92 122 159 208 251 311 368
#     4  11  23  39  61  93 124 162 205 247 313 383
#     4  10  21  38  59  92 126 165 196 252 323 367
#     4  10  19  36  62  84 127 161 197 252 310 368
#     4  10  22  39  60  88 121 161 208 254 305 369
#     4   9  21  39  63  83 116 164 210 251 312 355
#
# _framework density 25.550004000000001
#
# number of rings (size 3 to 8) (size 9 to 14) (size 15 to 20)
#    0.000    2.000    2.500    2.250    5.250    1.000 
#    4.500    0.625    0.000    0.000    0.000    0.000 
#    0.000    0.000    0.000    0.000    0.000    0.000 
#
# Total GULP energy -89429.673876 kJ/mol
# GULP energy per Si atom -5589.354617 kJ/mol
# Density = 2.549185 g / cm^3
# Si number density = 25.550004 Si / 1000 Ang^3
#
#
#
# Elastic Constant Matrix: (Units=GPa)
#
#
# Indices 1 2 3 4 5 6 
#
# 1 150.2522 42.6463 67.8372 27.1787 4.9692 -30.9815
# 2 42.6463 64.4075 35.3738 22.1859 10.6447 -12.1311
# 3 67.8372 35.3738 139.4992 30.5144 7.9345 -16.3212
# 4 27.1787 22.1859 30.5144 43.4483 -6.7778 -8.4103
# 5 4.9692 10.6447 7.9345 -6.7778 62.9501 11.2753
# 6 -30.9815 -12.1311 -16.3212 -8.4103 11.2753 44.7047
#
#
#
# Elastic Compliance Matrix: (Units=1/GPa)
#
#
# Indices 1 2 3 4 5 6 
#
# 1 0.010465 -0.003491 -0.003191 -0.001688 -0.000921 0.005055
# 2 -0.003491 0.023056 -0.001652 -0.008638 -0.004852 0.002833
# 3 -0.003191 -0.001652 0.010261 -0.004463 -0.001348 0.000587
# 4 -0.001688 -0.008638 -0.004463 0.032416 0.005735 -0.000491
# 5 -0.000921 -0.004852 -0.001348 0.005735 0.018654 -0.006073
# 6 0.005055 0.002833 0.000587 -0.000491 -0.006073 0.028294
#
#
# Mechanical properties :
#
#
# Convention : Reuss Voigt Hill
#
# Bulk Modulus (GPa) = 36.88157 71.76373 54.32265
# Shear Modulus (GPa) = 33.59045 44.10741 38.84893
#
# Velocity S-wave (km/s) = 3.62981 4.15940 3.90360
# Velocity P-wave (km/s) = 5.65983 7.15654 6.45174
#
# Compressibility (1/GPa) = 0.02711382
#
# Stress axis : x y z
#
# Youngs Moduli (GPa) = 95.55610 43.37309 97.45935
#
# Poissons Ratio (x) = 0.15142 0.31097
# Poissons Ratio (y) = 0.33360 0.16099
# Poissons Ratio (z) = 0.30490 0.07165
#
# Static dielectric constant tensor:
#      x y z
#    x 2.093070 0.227750 -0.106700 
#    y 0.227750 2.534470 -0.217840 
#    z -0.106700 -0.217840 2.140240 
# 
# From -- ./inp_files/474762.got.cif
#   From: 2010.05.17/outbox.cif.g08.bks.cpg/sg2_238_cif.got.tgz:474762.got - 2010.06.03 11:33:40.
