data_PCOD9087064
_publ_section_title
;
Structure prediction by ZEFSAII (Michael W. Deem and Ramdas Pophale) SiO2 
 PCOD9087064
Probable space group: P -1
;
_chemical_formula_sum "Si O2"
_cell_formula_units_Z 16
_cell_length_a 9.199678
_cell_length_b 10.841788
_cell_length_c 12.872636
_cell_angle_alpha 98.099624
_cell_angle_beta 55.189071
_cell_angle_gamma 125.344201
_cell_volume 824.785331
_symmetry_space_group_name_H-M "P -1"
_symmetry_group_IT_number 2
_symmetry_cell_setting 'triclinic'
loop_
_space_group_symop_operation_xyz
x,y,z
-x,-y,-z
loop_
_atom_site_type_symbol
_atom_site_label
_atom_site_fract_x
_atom_site_fract_y
_atom_site_fract_z
Si Si1 0.891995 0.296004 0.050709
Si Si2 0.409242 0.112536 0.146780
Si Si3 0.193044 0.009651 0.859566
Si Si4 0.471243 0.353694 0.439489
Si Si5 0.024239 0.450788 0.813559
Si Si6 0.897263 0.849811 0.597862
Si Si7 0.309069 0.024757 0.576220
Si Si8 0.394221 0.821981 0.154037
O O1 0.644588 0.242669 0.121921
O O2 0.853503 0.151237 0.105473
O O3 0.026462 0.447352 0.086881
O O4 0.999662 0.331492 0.896617
O O5 0.232116 0.137355 0.254704
O O6 0.340595 0.946214 0.196056
O O7 0.461041 0.128650 0.005591
O O8 0.209894 0.016197 0.729216
O O9 0.440717 0.149402 0.819297
O O10 0.000000 0.000000 0.000000
O O11 0.500000 0.500000 0.500000
O O12 0.723476 0.431413 0.311461
O O13 0.290406 0.296186 0.413686
O O14 0.390057 0.193458 0.515274
O O15 0.838587 0.348605 0.789843
O O16 0.000000 0.000000 0.500000
O O17 0.113551 0.882088 0.565942
O O18 0.500000 0.000000 0.500000
#
# Coordination Sequence:
#
# PCOD9087064 Si02
#       8
#     2   2   2   2   2   2   2   2
#     4   9  19  35  63  87 120 161 201 258 311 375
#     4   9  16  35  57  90 117 155 214 254 299 358
#     4  11  23  40  62  88 129 166 215 255 311 372
#     4  11  25  41  65  94 126 161 215 268 306 373
#     4  10  19  36  61  91 120 152 200 263 321 357
#     4  10  22  38  64  86 120 166 220 251 298 378
#     4  11  26  44  66  91 129 175 212 253 323 386
#     4   9  20  31  61  90 120 157 204 263 305 367
#
# _framework density 19.398987999999999
#
# number of rings (size 3 to 8) (size 9 to 14) (size 15 to 20)
#    0.000    2.000    1.250    2.250   10.500    0.000 
#    0.000    4.375    0.000    0.000    0.000    0.000 
#    0.000    0.000    0.000    0.000    0.000    0.000 
#
# Total GULP energy -89154.256362 kJ/mol
# GULP energy per Si atom -5572.141023 kJ/mol
# Density = 1.935483 g / cm^3
# Si number density = 19.398988 Si / 1000 Ang^3
#
#
#
# Elastic Constant Matrix: (Units=GPa)
#
#
# Indices 1 2 3 4 5 6 
#
# 1 110.4893 49.8169 38.4196 1.9831 -2.4525 28.3085
# 2 49.8169 109.6484 24.0390 3.2660 -0.8167 32.7465
# 3 38.4196 24.0390 79.1358 -8.1064 1.7780 5.4919
# 4 1.9831 3.2660 -8.1064 32.5274 -0.8405 1.7228
# 5 -2.4525 -0.8167 1.7780 -0.8405 22.6210 3.9104
# 6 28.3085 32.7465 5.4919 1.7228 3.9104 37.7452
#
#
#
# Elastic Compliance Matrix: (Units=1/GPa)
#
#
# Indices 1 2 3 4 5 6 
#
# 1 0.014477 -0.002916 -0.005836 -0.001552 0.003203 -0.007739
# 2 -0.002916 0.013893 -0.002303 -0.001227 0.001994 -0.009681
# 3 -0.005836 -0.002303 0.016395 0.004393 -0.002542 0.004052
# 4 -0.001552 -0.001227 0.004393 0.032069 0.000623 0.000061
# 5 0.003203 0.001994 -0.002542 0.000623 0.046334 -0.008591
# 6 -0.007739 -0.009681 0.004052 0.000061 -0.008591 0.040994
#
#
# Mechanical properties :
#
#
# Convention : Reuss Voigt Hill
#
# Bulk Modulus (GPa) = 44.14295 58.20273 51.17284
# Shear Modulus (GPa) = 25.79662 31.04526 28.42094
#
# Velocity S-wave (km/s) = 3.65059 4.00478 3.83178
# Velocity P-wave (km/s) = 6.36975 7.17304 6.78330
#
# Compressibility (1/GPa) = 0.02265367
#
# Stress axis : x y z
#
# Youngs Moduli (GPa) = 69.07630 71.98095 60.99304
#
# Poissons Ratio (x) = 0.20992 0.35597
# Poissons Ratio (y) = 0.20145 0.14046
# Poissons Ratio (z) = 0.40314 0.16576
#
# Static dielectric constant tensor:
#      x y z
#    x 1.701220 0.012900 -0.000290 
#    y 0.012900 1.721060 0.016880 
#    z -0.000290 0.016880 1.754800 
# 
# From -- ./inp_files/319039.got.cif
#   From: 2010.05.17/outbox.cif.g08.bks.cpg/sg2_160_cif.got.tgz:319039.got - 2010.06.03 11:33:40.
