data_PCOD9087883
_publ_section_title
;
Structure prediction by ZEFSAII (Michael W. Deem and Ramdas Pophale) SiO2 
 PCOD9087883
Probable space group: P -1
;
_chemical_formula_sum "Si O2"
_cell_formula_units_Z 16
_cell_length_a 11.754478
_cell_length_b 10.359491
_cell_length_c 12.232371
_cell_angle_alpha 36.133258
_cell_angle_beta 52.260990
_cell_angle_gamma 52.581253
_cell_volume 673.774679
_symmetry_space_group_name_H-M "P -1"
_symmetry_group_IT_number 2
_symmetry_cell_setting 'triclinic'
loop_
_space_group_symop_operation_xyz
x,y,z
-x,-y,-z
loop_
_atom_site_type_symbol
_atom_site_label
_atom_site_fract_x
_atom_site_fract_y
_atom_site_fract_z
Si Si1 0.444291 0.654338 0.034218
Si Si2 0.263718 0.349383 0.716550
Si Si3 0.888147 0.209192 0.368996
Si Si4 0.449211 0.951388 0.186748
Si Si5 0.839588 0.206229 0.025642
Si Si6 0.822312 0.801661 0.916962
Si Si7 0.933377 0.683556 0.323118
Si Si8 0.327514 0.605149 0.786440
O O1 0.274067 0.763194 0.031130
O O2 0.519281 0.861803 0.874386
O O3 0.500000 0.500000 0.000000
O O4 0.500355 0.493434 0.216582
O O5 0.171127 0.590566 0.647979
O O6 0.439901 0.280828 0.682038
O O7 0.222161 0.328393 0.630030
O O8 0.205180 0.177972 0.950866
O O9 0.738543 0.201819 0.395027
O O10 0.006679 0.257845 0.175303
O O11 0.000000 0.000000 0.500000
O O12 0.274783 0.988794 0.239525
O O13 0.500000 0.000000 0.000000
O O14 0.748952 0.308017 0.114515
O O15 0.914752 0.945304 0.186127
O O16 0.955132 0.346664 0.824657
O O17 0.740643 0.603042 0.068873
O O18 0.000000 0.500000 0.500000
#
# Coordination Sequence:
#
# PCOD9087883 Si02
#       8
#     2   2   2   2   2   2   2   2
#     4   9  17  33  59  83 104 143 192 233 279 344
#     4  10  19  37  56  78 111 144 185 232 281 336
#     4  11  22  34  53  83 114 145 184 232 285 339
#     4   9  17  32  57  84 105 142 189 233 280 338
#     4  10  20  37  58  80 110 148 185 232 280 334
#     4   9  18  35  59  81 105 145 185 225 283 346
#     4  11  23  35  54  83 114 148 187 228 282 336
#     4   9  18  35  60  77 104 142 187 225 280 340
#
# _framework density 23.74681
#
# number of rings (size 3 to 8) (size 9 to 14) (size 15 to 20)
#    0.000    2.250    1.250    3.750    1.750    0.000 
#    0.000    1.875    0.000    2.250    0.000    0.000 
#    0.000    0.000    0.000    0.000    0.000    0.000 
#
# Total GULP energy -89143.079314 kJ/mol
# GULP energy per Si atom -5571.442457 kJ/mol
# Density = 2.369276 g / cm^3
# Si number density = 23.746810 Si / 1000 Ang^3
#
#
#
# Elastic Constant Matrix: (Units=GPa)
#
#
# Indices 1 2 3 4 5 6 
#
# 1 127.9605 31.0099 49.8589 -23.1339 43.9404 -20.8690
# 2 31.0099 108.9110 26.3385 -23.1745 7.6622 -11.6790
# 3 49.8589 26.3385 98.9213 -29.6586 37.4265 -14.3222
# 4 -23.1339 -23.1745 -29.6586 27.1509 -19.3970 19.3563
# 5 43.9404 7.6622 37.4265 -19.3970 44.8561 -11.7824
# 6 -20.8690 -11.6790 -14.3222 19.3563 -11.7824 47.6467
#
#
#
# Elastic Compliance Matrix: (Units=1/GPa)
#
#
# Indices 1 2 3 4 5 6 
#
# 1 0.013102 -0.002946 -0.002346 -0.004410 -0.011419 0.003279
# 2 -0.002946 0.012385 -0.000450 0.014006 0.006557 -0.002459
# 3 -0.002346 -0.000450 0.018034 0.014568 -0.007274 -0.003434
# 4 -0.004410 0.014006 0.014568 0.098968 0.025189 -0.028096
# 5 -0.011419 0.006557 -0.007274 0.025189 0.048305 -0.003869
# 6 0.003279 -0.002459 -0.003434 -0.028096 -0.003869 0.031246
#
#
# Mechanical properties :
#
#
# Convention : Reuss Voigt Hill
#
# Bulk Modulus (GPa) = 31.21500 61.13415 46.17458
# Shear Modulus (GPa) = 20.47468 39.16977 29.82222
#
# Velocity S-wave (km/s) = 2.93952 4.06578 3.54763
# Velocity P-wave (km/s) = 4.96936 6.91670 6.02226
#
# Compressibility (1/GPa) = 0.03203588
#
# Stress axis : x y z
#
# Youngs Moduli (GPa) = 76.32508 80.74327 55.44996
#
# Poissons Ratio (x) = 0.23791 0.13010
# Poissons Ratio (y) = 0.22489 0.02495
# Poissons Ratio (z) = 0.17908 0.03632
#
# Static dielectric constant tensor:
#      x y z
#    x 1.979460 -0.043890 0.032910 
#    y -0.043890 1.940560 -0.017540 
#    z 0.032910 -0.017540 2.021830 
# 
# From -- ./inp_files/427360.got.cif
#   From: 2010.05.17/outbox.cif.g08.bks.cpg/sg2_214_cif.got.tgz:427360.got - 2010.06.03 11:33:40.
