data_PCOD9087151
_publ_section_title
;
Structure prediction by ZEFSAII (Michael W. Deem and Ramdas Pophale) SiO2 
 PCOD9087151
Probable space group: P -1
;
_chemical_formula_sum "Si O2"
_cell_formula_units_Z 16
_cell_length_a 9.889945
_cell_length_b 9.101299
_cell_length_c 10.999707
_cell_angle_alpha 71.914569
_cell_angle_beta 112.234886
_cell_angle_gamma 73.276295
_cell_volume 773.311172
_symmetry_space_group_name_H-M "P -1"
_symmetry_group_IT_number 2
_symmetry_cell_setting 'triclinic'
loop_
_space_group_symop_operation_xyz
x,y,z
-x,-y,-z
loop_
_atom_site_type_symbol
_atom_site_label
_atom_site_fract_x
_atom_site_fract_y
_atom_site_fract_z
Si Si1 0.165942 0.534514 0.404671
Si Si2 0.136291 0.118977 0.185125
Si Si3 0.897421 0.763996 0.449534
Si Si4 0.657203 0.245824 0.546200
Si Si5 0.333023 0.839997 0.700300
Si Si6 0.597849 0.807461 0.638356
Si Si7 0.051674 0.402819 0.912689
Si Si8 0.138861 0.679864 0.783415
O O1 0.195826 0.348017 0.514449
O O2 0.301115 0.598815 0.456704
O O3 0.007857 0.672563 0.393799
O O4 0.100430 0.554560 0.239727
O O5 0.226659 0.204769 0.277797
O O6 0.959000 0.193155 0.170036
O O7 0.246929 0.912264 0.287225
O O8 0.126909 0.201265 0.028692
O O9 0.020184 0.743722 0.608260
O O10 0.772145 0.965422 0.337350
O O11 0.727942 0.163782 0.458163
O O12 0.465065 0.296589 0.445848
O O13 0.520354 0.797160 0.745046
O O14 0.297599 0.704179 0.799382
O O15 0.500000 0.000000 0.500000
O O16 0.159499 0.487511 0.867824
O O17 0.000000 0.500000 0.000000
#
# Coordination Sequence:
#
# PCOD9087151 Si02
#       8
#     2   2   2   2   2   2   2   2
#     4  10  19  28  46  79 107 123 164 219 251 291
#     4  10  17  32  52  71 105 139 169 193 247 314
#     4  10  16  27  47  76 105 123 154 216 271 280
#     4   9  17  29  51  77  99 123 168 208 248 286
#     4  10  17  29  53  78 100 125 167 211 254 298
#     4   8  16  30  50  76  99 134 166 202 248 304
#     4   9  21  33  47  70 106 144 164 199 255 306
#     4  10  16  29  51  76  97 126 172 211 242 290
#
# _framework density 20.690248
#
# number of rings (size 3 to 8) (size 9 to 14) (size 15 to 20)
#    0.750    1.750    2.500    1.125    0.000    0.500 
#    0.000    0.625    0.000   19.500    0.000    1.750 
#    0.000    0.000    0.000    0.000    0.000    0.000 
#
# Total GULP energy -89099.085301 kJ/mol
# GULP energy per Si atom -5568.692831 kJ/mol
# Density = 2.064316 g / cm^3
# Si number density = 20.690248 Si / 1000 Ang^3
#
#
#
# Elastic Constant Matrix: (Units=GPa)
#
#
# Indices 1 2 3 4 5 6 
#
# 1 84.2256 11.6384 -1.4068 0.1724 -20.0046 26.6334
# 2 11.6384 76.2138 -3.7372 4.3635 -1.2441 17.4729
# 3 -1.4068 -3.7372 47.0768 -4.4055 -6.2854 7.5557
# 4 0.1724 4.3635 -4.4055 25.5726 5.3319 -2.9718
# 5 -20.0046 -1.2441 -6.2854 5.3319 18.4754 -0.8913
# 6 26.6334 17.4729 7.5557 -2.9718 -0.8913 34.4078
#
#
#
# Elastic Compliance Matrix: (Units=1/GPa)
#
#
# Indices 1 2 3 4 5 6 
#
# 1 0.027706 0.002985 0.008806 -0.009292 0.034681 -0.024799
# 2 0.002985 0.015824 0.003573 -0.004747 0.006334 -0.011376
# 3 0.008806 0.003573 0.026371 -0.001627 0.018537 -0.014082
# 4 -0.009292 -0.004747 -0.001627 0.046171 -0.023616 0.013337
# 5 0.034681 0.006334 0.018537 -0.023616 0.103610 -0.033488
# 6 -0.024799 -0.011376 -0.014082 0.013337 -0.033488 0.057413
#
#
# Mechanical properties :
#
#
# Convention : Reuss Voigt Hill
#
# Bulk Modulus (GPa) = 9.93768 24.50054 17.21911
# Shear Modulus (GPa) = 17.86284 29.09261 23.47772
#
# Velocity S-wave (km/s) = 2.94146 3.75387 3.37222
# Velocity P-wave (km/s) = 4.04348 5.53679 4.84798
#
# Compressibility (1/GPa) = 0.10062709
#
# Stress axis : x y z
#
# Youngs Moduli (GPa) = 36.09382 63.19608 37.91981
#
# Poissons Ratio (x) = -0.18862 -0.33392
# Poissons Ratio (y) = -0.10773 -0.13547
# Poissons Ratio (z) = -0.31784 -0.22578
#
# Static dielectric constant tensor:
#      x y z
#    x 1.815430 -0.016200 -0.010040 
#    y -0.016200 1.760380 -0.024680 
#    z -0.010040 -0.024680 1.759020 
# 
# From -- ./inp_files/414531.got.cif
#   From: 2010.05.17/outbox.cif.g08.bks.cpg/sg2_208_cif.got.tgz:414531.got - 2010.06.03 11:33:40.
