data_PCOD9087013
_publ_section_title
;
Structure prediction by ZEFSAII (Michael W. Deem and Ramdas Pophale) SiO2 
 PCOD9087013
Probable space group: P -1
;
_chemical_formula_sum "Si O2"
_cell_formula_units_Z 14
_cell_length_a 23.367645
_cell_length_b 4.992943
_cell_length_c 7.248035
_cell_angle_alpha 52.882920
_cell_angle_beta 125.289501
_cell_angle_gamma 102.729043
_cell_volume 539.619588
_symmetry_space_group_name_H-M "P -1"
_symmetry_group_IT_number 2
_symmetry_cell_setting 'triclinic'
loop_
_space_group_symop_operation_xyz
x,y,z
-x,-y,-z
loop_
_atom_site_type_symbol
_atom_site_label
_atom_site_fract_x
_atom_site_fract_y
_atom_site_fract_z
Si Si1 0.454108 0.375726 0.719556
Si Si2 0.323718 0.132439 0.648257
Si Si3 0.287961 0.138322 0.146127
Si Si4 0.849570 0.358661 0.443371
Si Si5 0.416044 0.387441 0.211250
Si Si6 0.192104 0.614313 0.245195
Si Si7 0.082966 0.984443 0.631865
O O1 0.435612 0.381412 0.466134
O O2 0.509190 0.630460 0.750180
O O3 0.380265 0.383280 0.687035
O O4 0.500000 0.000000 0.000000
O O5 0.306121 0.140696 0.394799
O O6 0.246219 0.260438 0.540732
O O7 0.365612 0.756205 0.929776
O O8 0.246590 0.831942 0.167259
O O9 0.229351 0.474489 0.847263
O O10 0.362933 0.126043 0.185342
O O11 0.840026 0.235956 0.683675
O O12 0.892057 0.072661 0.508372
O O13 0.892795 0.670852 0.398628
O O14 0.000000 0.000000 0.500000
O O15 0.128254 0.659488 0.962929
#
# Coordination Sequence:
#
# PCOD9087013 Si02
#       7
#     2   2   2   2   2   2   2
#     4   8  16  31  54  90 125 175 222 282 339 403
#     4  10  19  36  61  88 133 173 226 283 341 407
#     4  10  21  38  59  93 134 171 229 283 339 402
#     4  11  25  42  73 101 141 182 229 282 350 409
#     4   9  17  31  61  87 125 178 227 276 343 399
#     4  11  25  40  67 100 137 175 230 279 347 411
#     4  11  26  48  71 104 142 180 229 284 342 419
#
# _framework density 25.944203000000002
#
# number of rings (size 3 to 8) (size 9 to 14) (size 15 to 20)
#    0.000    2.000    1.429    1.286    4.000    2.286 
#    0.000    0.714    0.000   35.143    0.000    0.000 
#    0.000    0.000    0.000    0.000    0.000    0.000 
#
# Total GULP energy -78449.512495 kJ/mol
# GULP energy per Si atom -5603.536607 kJ/mol
# Density = 2.588515 g / cm^3
# Si number density = 25.944203 Si / 1000 Ang^3
#
#
#
# Elastic Constant Matrix: (Units=GPa)
#
#
# Indices 1 2 3 4 5 6 
#
# 1 125.0940 20.9768 51.8359 20.8661 10.1714 12.5480
# 2 20.9768 107.2714 52.7771 16.2837 14.8491 25.8389
# 3 51.8359 52.7771 102.3726 17.2602 13.0659 23.6870
# 4 20.8661 16.2837 17.2602 37.8812 13.5759 10.1924
# 5 10.1714 14.8491 13.0659 13.5759 43.7791 10.5739
# 6 12.5480 25.8389 23.6870 10.1924 10.5739 42.8971
#
#
#
# Elastic Compliance Matrix: (Units=1/GPa)
#
#
# Indices 1 2 3 4 5 6 
#
# 1 0.010666 0.001118 -0.005329 -0.003929 -0.000073 0.000100
# 2 0.001118 0.013643 -0.006068 -0.002044 -0.001388 -0.004367
# 3 -0.005329 -0.006068 0.016652 -0.000876 -0.000522 -0.003645
# 4 -0.003929 -0.002044 -0.000876 0.033471 -0.007744 -0.003180
# 5 -0.000073 -0.001388 -0.000522 -0.007744 0.026759 -0.003611
# 6 0.000100 -0.004367 -0.003645 -0.003180 -0.003611 0.029571
#
#
# Mechanical properties :
#
#
# Convention : Reuss Voigt Hill
#
# Bulk Modulus (GPa) = 49.00798 65.10196 57.05497
# Shear Modulus (GPa) = 31.62188 38.85470 35.23829
#
# Velocity S-wave (km/s) = 3.49498 3.87411 3.68942
# Velocity P-wave (km/s) = 5.93441 6.72006 6.33942
#
# Compressibility (1/GPa) = 0.02040484
#
# Stress axis : x y z
#
# Youngs Moduli (GPa) = 93.75877 73.29824 60.05257
#
# Poissons Ratio (x) = -0.08197 0.31999
# Poissons Ratio (y) = -0.10485 0.36438
# Poissons Ratio (z) = 0.49960 0.44475
#
# Static dielectric constant tensor:
#      x y z
#    x 1.988700 0.028120 -0.006620 
#    y 0.028120 2.120570 -0.062620 
#    z -0.006620 -0.062620 2.032010 
# 
# From -- ./inp_files/477424.got.cif
#   From: 2010.05.17/outbox.cif.g08.bks.cpg/sg2_239_cif.got.tgz:477424.got - 2010.06.03 11:33:40.
