data_PCOD9087678
_publ_section_title
;
Structure prediction by ZEFSAII (Michael W. Deem and Ramdas Pophale) SiO2 
 PCOD9087678
Probable space group: P -1
;
_chemical_formula_sum "Si O2"
_cell_formula_units_Z 12
_cell_length_a 12.533126
_cell_length_b 9.849323
_cell_length_c 8.430187
_cell_angle_alpha 134.278577
_cell_angle_beta 127.781595
_cell_angle_gamma 83.593284
_cell_volume 488.383229
_symmetry_space_group_name_H-M "P -1"
_symmetry_group_IT_number 2
_symmetry_cell_setting 'triclinic'
loop_
_space_group_symop_operation_xyz
x,y,z
-x,-y,-z
loop_
_atom_site_type_symbol
_atom_site_label
_atom_site_fract_x
_atom_site_fract_y
_atom_site_fract_z
Si Si1 0.997205 0.727182 0.168379
Si Si2 0.476266 0.037085 0.197701
Si Si3 0.889698 0.189389 0.311295
Si Si4 0.536935 0.391372 0.086441
Si Si5 0.642823 0.542134 0.776675
Si Si6 0.080314 0.327532 0.283218
O O1 0.070567 0.844393 0.500724
O O2 0.816101 0.665575 0.960638
O O3 0.034350 0.808880 0.085586
O O4 0.000000 0.500000 0.000000
O O5 0.605073 0.292967 0.579640
O O6 0.301417 0.994313 0.030816
O O7 0.478143 0.844787 0.139726
O O8 0.500000 0.000000 0.000000
O O9 0.911139 0.435158 0.523282
O O10 0.997070 0.201723 0.271051
O O11 0.384433 0.329391 0.007118
O O12 0.725858 0.574835 0.463781
O O13 0.500000 0.500000 0.000000
O O14 0.500000 0.500000 0.500000
#
# Coordination Sequence:
#
# PCOD9087678 Si02
#       6
#     2   2   2   2   2   2
#     4  10  19  36  65  93 123 177 216 266 334 391
#     4  11  22  42  68  98 131 176 222 274 329 396
#     4   9  19  35  62  91 124 172 217 261 331 395
#     4  11  23  40  66  97 136 171 220 276 332 395
#     4  12  22  41  70  94 131 175 221 272 331 389
#     4   9  17  35  59  87 129 170 208 269 329 383
#
# _framework density 24.570868999999998
#
# number of rings (size 3 to 8) (size 9 to 14) (size 15 to 20)
#    0.000    1.667    3.333    3.000    0.000    2.000 
#    0.000    3.333    3.667    0.000    0.000    0.000 
#    0.000    0.000    0.000    0.000    0.000    0.000 
#
# Total GULP energy -66955.253232 kJ/mol
# GULP energy per Si atom -5579.604436 kJ/mol
# Density = 2.451494 g / cm^3
# Si number density = 24.570869 Si / 1000 Ang^3
#
#
#
# Elastic Constant Matrix: (Units=GPa)
#
#
# Indices 1 2 3 4 5 6 
#
# 1 114.1474 21.4073 17.0363 -8.9491 5.1728 -8.2174
# 2 21.4073 150.7190 35.9753 -13.3836 -17.7642 -14.2124
# 3 17.0363 35.9753 42.8944 1.7270 -10.5948 -3.7885
# 4 -8.9491 -13.3836 1.7270 37.8860 5.0588 0.8538
# 5 5.1728 -17.7642 -10.5948 5.0588 18.1898 -7.9215
# 6 -8.2174 -14.2124 -3.7885 0.8538 -7.9215 35.1026
#
#
#
# Elastic Compliance Matrix: (Units=1/GPa)
#
#
# Indices 1 2 3 4 5 6 
#
# 1 0.010373 -0.000826 -0.005639 0.003523 -0.008220 -0.000455
# 2 -0.000826 0.009659 -0.005467 0.002293 0.007966 0.004869
# 3 -0.005639 -0.005467 0.036422 -0.008006 0.022139 0.005588
# 4 0.003523 0.002293 -0.008006 0.030206 -0.013041 -0.002789
# 5 -0.008220 0.007966 0.022139 -0.013041 0.092446 0.024870
# 6 -0.000455 0.004869 0.005588 -0.002789 0.024870 0.036636
#
#
# Mechanical properties :
#
#
# Convention : Reuss Voigt Hill
#
# Bulk Modulus (GPa) = 30.68542 50.73317 40.70930
# Shear Modulus (GPa) = 19.96244 33.79180 26.87712
#
# Velocity S-wave (km/s) = 2.85343 3.71250 3.31095
# Velocity P-wave (km/s) = 4.83443 6.25055 5.58754
#
# Compressibility (1/GPa) = 0.03258876
#
# Stress axis : x y z
#
# Youngs Moduli (GPa) = 96.40309 103.53161 27.45573
#
# Poissons Ratio (x) = 0.08554 0.15483
# Poissons Ratio (y) = 0.07965 0.15011
# Poissons Ratio (z) = 0.54364 0.56604
#
# Static dielectric constant tensor:
#      x y z
#    x 1.734490 0.019620 -0.093020 
#    y 0.019620 1.980930 0.019450 
#    z -0.093020 0.019450 1.975580 
# 
# From -- ./inp_files/156454.got.cif
#   From: 2010.05.17/outbox.cif.g08.bks.cpg/sg2_79_cif.got.tgz:156454.got - 2010.06.03 11:33:40.
