data_PCOD9087872
_publ_section_title
;
Structure prediction by ZEFSAII (Michael W. Deem and Ramdas Pophale) SiO2 
 PCOD9087872
Probable space group: P -1
;
_chemical_formula_sum "Si O2"
_cell_formula_units_Z 14
_cell_length_a 9.338663
_cell_length_b 16.100322
_cell_length_c 5.444976
_cell_angle_alpha 123.392713
_cell_angle_beta 123.911088
_cell_angle_gamma 78.130337
_cell_volume 561.162778
_symmetry_space_group_name_H-M "P -1"
_symmetry_group_IT_number 2
_symmetry_cell_setting 'triclinic'
loop_
_space_group_symop_operation_xyz
x,y,z
-x,-y,-z
loop_
_atom_site_type_symbol
_atom_site_label
_atom_site_fract_x
_atom_site_fract_y
_atom_site_fract_z
Si Si1 0.630219 0.228017 0.986017
Si Si2 0.969571 0.283838 0.104825
Si Si3 0.608977 0.029242 0.902959
Si Si4 0.878758 0.534684 0.160112
Si Si5 0.549941 0.403984 0.532370
Si Si6 0.205749 0.288390 0.952624
Si Si7 0.752709 0.848367 0.627839
O O1 0.616816 0.331424 0.277590
O O2 0.788150 0.237992 0.966176
O O3 0.654874 0.147464 0.091895
O O4 0.451731 0.195288 0.610835
O O5 0.014652 0.400631 0.419265
O O6 0.011627 0.284215 0.860629
O O7 0.110141 0.211578 0.207267
O O8 0.500000 0.000000 0.500000
O O9 0.765234 0.962581 0.915941
O O10 0.500000 0.000000 0.000000
O O11 0.716115 0.448745 0.928843
O O12 0.789500 0.627893 0.116764
O O13 0.000000 0.500000 0.000000
O O14 0.500000 0.500000 0.500000
O O15 0.371070 0.338807 0.356287
O O16 0.227842 0.180320 0.688324
#
# Coordination Sequence:
#
# PCOD9087872 Si02
#       7
#     2   2   2   2   2   2   2
#     4  10  21  42  65  96 130 174 220 278 337 409
#     4  11  22  39  64  95 129 170 221 276 336 404
#     4  10  23  44  73 103 135 181 232 285 345 415
#     4  10  19  37  55  87 127 166 217 274 323 399
#     4   9  18  37  62  82 131 171 214 274 331 401
#     4   9  21  38  59  89 126 169 218 273 331 401
#     4   9  22  42  63  90 130 168 216 274 336 399
#
# _framework density 24.948195999999999
#
# number of rings (size 3 to 8) (size 9 to 14) (size 15 to 20)
#    0.000    2.286    1.429    0.857    6.000    1.714 
#   12.857    0.714    0.000    0.000    0.000    0.000 
#    0.000    0.000    0.000    0.000    0.000    0.000 
#
# Total GULP energy -78100.631991 kJ/mol
# GULP energy per Si atom -5578.616571 kJ/mol
# Density = 2.489141 g / cm^3
# Si number density = 24.948196 Si / 1000 Ang^3
#
#
#
# Elastic Constant Matrix: (Units=GPa)
#
#
# Indices 1 2 3 4 5 6 
#
# 1 165.9036 35.8545 27.2042 14.6753 -7.2714 3.0713
# 2 35.8545 117.2408 26.1966 23.3972 -8.1356 -20.4388
# 3 27.2042 26.1966 58.4346 11.3660 -8.6186 -7.4150
# 4 14.6753 23.3972 11.3660 29.0673 -17.5873 -11.2199
# 5 -7.2714 -8.1356 -8.6186 -17.5873 35.8514 0.0283
# 6 3.0713 -20.4388 -7.4150 -11.2199 0.0283 42.9004
#
#
#
# Elastic Compliance Matrix: (Units=1/GPa)
#
#
# Indices 1 2 3 4 5 6 
#
# 1 0.007014 -0.001506 -0.002476 -0.002825 -0.000898 -0.002386
# 2 -0.001506 0.011527 -0.002928 -0.007366 -0.002010 0.003168
# 3 -0.002476 -0.002928 0.020621 -0.002090 0.002764 0.001798
# 4 -0.002825 -0.007366 -0.002090 0.065562 0.029405 0.013459
# 5 -0.000898 -0.002010 0.002764 0.029405 0.042338 0.007247
# 6 -0.002386 0.003168 0.001798 0.013459 0.007247 0.028816
#
#
# Mechanical properties :
#
#
# Convention : Reuss Voigt Hill
#
# Bulk Modulus (GPa) = 39.46079 57.78773 48.62426
# Shear Modulus (GPa) = 25.23398 38.38541 31.80969
#
# Velocity S-wave (km/s) = 3.18379 3.92676 3.57463
# Velocity P-wave (km/s) = 5.41911 6.61609 6.04729
#
# Compressibility (1/GPa) = 0.02534161
#
# Stress axis : x y z
#
# Youngs Moduli (GPa) = 142.57641 86.75065 48.49489
#
# Poissons Ratio (x) = 0.13067 0.12006
# Poissons Ratio (y) = 0.21476 0.14200
# Poissons Ratio (z) = 0.35299 0.25401
#
# Static dielectric constant tensor:
#      x y z
#    x 2.030020 0.003580 0.025330 
#    y 0.003580 2.136410 -0.108240 
#    z 0.025330 -0.108240 2.192820 
# 
# From -- ./inp_files/46075.got.cif
#   From: 2010.05.17/outbox.cif.g08.bks.cpg/sg2_24_cif.got.tgz:46075.got - 2010.06.03 11:33:40.
