data_PCOD9087655
_publ_section_title
;
Structure prediction by ZEFSAII (Michael W. Deem and Ramdas Pophale) SiO2 
 PCOD9087655
Probable space group: P -1
;
_chemical_formula_sum "Si O2"
_cell_formula_units_Z 16
_cell_length_a 12.436869
_cell_length_b 19.580198
_cell_length_c 16.190434
_cell_angle_alpha 152.858373
_cell_angle_beta 24.575667
_cell_angle_gamma 152.629307
_cell_volume 680.491703
_symmetry_space_group_name_H-M "P -1"
_symmetry_group_IT_number 2
_symmetry_cell_setting 'triclinic'
loop_
_space_group_symop_operation_xyz
x,y,z
-x,-y,-z
loop_
_atom_site_type_symbol
_atom_site_label
_atom_site_fract_x
_atom_site_fract_y
_atom_site_fract_z
Si Si1 0.181385 0.702533 0.001883
Si Si2 0.697670 0.996035 0.023610
Si Si3 0.219217 0.365769 0.630706
Si Si4 0.872340 0.087869 0.447936
Si Si5 0.283673 0.973484 0.768112
Si Si6 0.712088 0.733857 0.260496
Si Si7 0.824350 0.397741 0.591422
Si Si8 0.700139 0.336929 0.365815
O O1 0.998607 0.686685 0.196021
O O2 0.969264 0.691492 0.064002
O O3 0.449171 0.876328 0.009525
O O4 0.277134 0.553806 0.776018
O O5 0.952611 0.938222 0.778125
O O6 0.601514 0.985967 0.174251
O O7 0.782880 0.183022 0.139084
O O8 0.499742 0.345480 0.441808
O O9 0.062830 0.248680 0.538461
O O10 0.563898 0.082238 0.637382
O O11 0.823192 0.924664 0.361767
O O12 0.198462 0.785767 0.600169
O O13 0.000000 0.000000 0.000000
O O14 0.500549 0.626549 0.220471
O O15 0.506569 0.698268 0.446503
O O16 0.000000 0.500000 0.500000
O O17 0.017632 0.497032 0.638877
#
# Coordination Sequence:
#
# PCOD9087655 Si02
#       8
#     2   2   2   2   2   2   2   2
#     4  10  21  36  62  92 125 165 209 256 320 360
#     4  12  23  40  64  92 123 164 209 253 308 373
#     4  10  21  37  61  94 127 162 209 260 310 370
#     4  11  23  41  63  93 122 161 214 249 309 373
#     4  11  24  42  68  87 127 166 200 258 314 363
#     4   9  18  37  60  88 124 161 210 253 300 371
#     4   9  17  36  62  91 114 163 209 248 302 366
#     4  10  19  36  65  89 124 167 209 255 305 367
#
# _framework density 23.512409999999999
#
# number of rings (size 3 to 8) (size 9 to 14) (size 15 to 20)
#    0.000    1.750    5.000    0.750    1.750    7.000 
#    0.000    2.500    0.000    0.000    0.000    0.000 
#    0.000    0.000    0.000    0.000    0.000    0.000 
#
# Total GULP energy -89470.283971 kJ/mol
# GULP energy per Si atom -5591.892748 kJ/mol
# Density = 2.345889 g / cm^3
# Si number density = 23.512410 Si / 1000 Ang^3
#
#
#
# Elastic Constant Matrix: (Units=GPa)
#
#
# Indices 1 2 3 4 5 6 
#
# 1 37.8682 15.9697 10.2531 -4.6063 3.3024 16.1985
# 2 15.9697 135.5777 34.2014 11.3053 -1.1878 45.9276
# 3 10.2531 34.2014 99.0088 -7.5051 -4.0439 25.8577
# 4 -4.6063 11.3053 -7.5051 35.9079 5.4473 3.8370
# 5 3.3024 -1.1878 -4.0439 5.4473 37.7298 -15.2947
# 6 16.1985 45.9276 25.8577 3.8370 -15.2947 36.3687
#
#
#
# Elastic Compliance Matrix: (Units=1/GPa)
#
#
# Indices 1 2 3 4 5 6 
#
# 1 0.043122 0.006370 0.003844 0.011822 -0.021131 -0.040118
# 2 0.006370 0.015893 0.000884 0.000811 -0.011639 -0.028516
# 3 0.003844 0.000884 0.013675 0.005661 -0.006016 -0.015678
# 4 0.011822 0.000811 0.005661 0.034396 -0.013286 -0.019530
# 5 -0.021131 -0.011639 -0.006016 -0.013286 0.049832 0.050745
# 6 -0.040118 -0.028516 -0.015678 -0.019530 0.050745 0.115923
#
#
# Mechanical properties :
#
#
# Convention : Reuss Voigt Hill
#
# Bulk Modulus (GPa) = 10.53899 43.70036 27.11967
# Shear Modulus (GPa) = 17.71341 36.13665 26.92503
#
# Velocity S-wave (km/s) = 2.74773 3.92461 3.38766
# Velocity P-wave (km/s) = 3.81559 6.25805 5.18275
#
# Compressibility (1/GPa) = 0.09488572
#
# Stress axis : x y z
#
# Youngs Moduli (GPa) = 23.19012 62.92125 73.12813
#
# Poissons Ratio (x) = -0.40081 -0.28113
# Poissons Ratio (y) = -0.14772 -0.06463
# Poissons Ratio (z) = -0.08915 -0.05561
#
# Static dielectric constant tensor:
#      x y z
#    x 1.906430 -0.001830 0.011800 
#    y -0.001830 1.841910 -0.064830 
#    z 0.011800 -0.064830 1.893690 
# 
# From -- ./inp_files/307835.got.cif
#   From: 2010.05.17/outbox.cif.g08.bks.cpg/sg2_154_cif.got.tgz:307835.got - 2010.06.03 11:33:40.
