data_PCOD9087884
_publ_section_title
;
Structure prediction by ZEFSAII (Michael W. Deem and Ramdas Pophale) SiO2 
 PCOD9087884
Probable space group: P -1
;
_chemical_formula_sum "Si O2"
_cell_formula_units_Z 16
_cell_length_a 20.600110
_cell_length_b 10.084201
_cell_length_c 8.213510
_cell_angle_alpha 45.278694
_cell_angle_beta 119.600969
_cell_angle_gamma 145.899649
_cell_volume 662.626698
_symmetry_space_group_name_H-M "P -1"
_symmetry_group_IT_number 2
_symmetry_cell_setting 'triclinic'
loop_
_space_group_symop_operation_xyz
x,y,z
-x,-y,-z
loop_
_atom_site_type_symbol
_atom_site_label
_atom_site_fract_x
_atom_site_fract_y
_atom_site_fract_z
Si Si1 0.610682 0.643182 0.196735
Si Si2 0.127820 0.599164 0.405674
Si Si3 0.283275 0.357603 0.358111
Si Si4 0.732148 0.599579 0.189349
Si Si5 0.626698 0.039374 0.443227
Si Si6 0.465148 0.232754 0.771149
Si Si7 0.102193 0.925375 0.259439
Si Si8 0.864660 0.671288 0.597046
O O1 0.681076 0.680546 0.399938
O O2 0.681494 0.707553 0.072022
O O3 0.590127 0.815307 0.082651
O O4 0.616314 0.011718 0.258641
O O5 0.250442 0.802464 0.474264
O O6 0.087092 0.730129 0.279002
O O7 0.137404 0.547547 0.276396
O O8 0.022741 0.275288 0.640577
O O9 0.408438 0.625649 0.188671
O O10 0.213616 0.409774 0.278192
O O11 0.193021 0.054467 0.406440
O O12 0.626398 0.250894 0.322553
O O13 0.804362 0.659931 0.379474
O O14 0.822702 0.774397 0.000929
O O15 0.517681 0.706386 0.664985
O O16 0.500000 0.500000 0.500000
O O17 0.000000 0.000000 0.500000
#
# Coordination Sequence:
#
# PCOD9087884 Si02
#       8
#     2   2   2   2   2   2   2   2
#     4   9  17  34  59  82 109 148 185 224 273 332
#     4  10  21  35  59  76 114 151 184 221 283 336
#     4   9  17  33  57  76 109 146 180 221 274 328
#     4  10  22  34  57  85 115 139 188 236 268 321
#     4   9  17  34  56  84 105 147 189 219 276 332
#     4   8  15  30  55  80 105 143 187 219 264 329
#     4  11  21  37  54  85 112 146 186 230 277 322
#     4  10  19  37  56  79 105 150 183 220 276 334
#
# _framework density 24.146325000000001
#
# number of rings (size 3 to 8) (size 9 to 14) (size 15 to 20)
#    0.000    2.750    1.250    2.625    0.000    3.000 
#    0.000    6.875    0.000    0.000    0.000    0.000 
#    0.000    0.000    0.000    0.000    0.000    0.000 
#
# Total GULP energy -89300.191172 kJ/mol
# GULP energy per Si atom -5581.261948 kJ/mol
# Density = 2.409137 g / cm^3
# Si number density = 24.146325 Si / 1000 Ang^3
#
#
#
# Elastic Constant Matrix: (Units=GPa)
#
#
# Indices 1 2 3 4 5 6 
#
# 1 113.1411 37.3561 -0.7520 3.3557 -8.8531 -32.9878
# 2 37.3561 146.4429 5.8057 8.7481 -2.0117 -6.1951
# 3 -0.7520 5.8057 29.4156 -3.7735 -7.4763 11.0456
# 4 3.3557 8.7481 -3.7735 11.4793 6.7713 -2.1741
# 5 -8.8531 -2.0117 -7.4763 6.7713 26.4139 -5.4178
# 6 -32.9878 -6.1951 11.0456 -2.1741 -5.4178 34.4025
#
#
#
# Elastic Compliance Matrix: (Units=1/GPa)
#
#
# Indices 1 2 3 4 5 6 
#
# 1 0.015320 -0.002597 -0.003798 -0.005774 0.008716 0.016450
# 2 -0.002597 0.007938 -0.002025 -0.006492 0.000679 -0.000714
# 3 -0.003798 -0.002025 0.043031 0.010997 0.004568 -0.016408
# 4 -0.005774 -0.006492 0.010997 0.113607 -0.030037 -0.007787
# 5 0.008716 0.000679 0.004568 -0.030037 0.052572 0.013394
# 6 0.016450 -0.000714 -0.016408 -0.007787 0.013394 0.051598
#
#
# Mechanical properties :
#
#
# Convention : Reuss Voigt Hill
#
# Bulk Modulus (GPa) = 20.22292 41.53545 30.87919
# Shear Modulus (GPa) = 15.75348 30.89845 23.32597
#
# Velocity S-wave (km/s) = 2.55702 3.58108 3.11147
# Velocity P-wave (km/s) = 4.13656 5.85984 5.07193
#
# Compressibility (1/GPa) = 0.04944884
#
# Stress axis : x y z
#
# Youngs Moduli (GPa) = 65.27363 125.97208 23.23895
#
# Poissons Ratio (x) = 0.32714 0.08826
# Poissons Ratio (y) = 0.16951 0.04707
# Poissons Ratio (z) = 0.24791 0.25515
#
# Static dielectric constant tensor:
#      x y z
#    x 2.032490 -0.073350 -0.007640 
#    y -0.073350 1.922890 -0.019510 
#    z -0.007640 -0.019510 1.948290 
# 
# From -- ./inp_files/342559.got.cif
#   From: 2010.05.17/outbox.cif.g08.bks.cpg/sg2_172_cif.got.tgz:342559.got - 2010.06.03 11:33:40.
