data_PCOD9087721
_publ_section_title
;
Structure prediction by ZEFSAII (Michael W. Deem and Ramdas Pophale) SiO2 
 PCOD9087721
Probable space group: P -1
;
_chemical_formula_sum "Si O2"
_cell_formula_units_Z 14
_cell_length_a 8.532141
_cell_length_b 5.376806
_cell_length_c 22.492006
_cell_angle_alpha 54.808798
_cell_angle_beta 127.851147
_cell_angle_gamma 118.252564
_cell_volume 654.275511
_symmetry_space_group_name_H-M "P -1"
_symmetry_group_IT_number 2
_symmetry_cell_setting 'triclinic'
loop_
_space_group_symop_operation_xyz
x,y,z
-x,-y,-z
loop_
_atom_site_type_symbol
_atom_site_label
_atom_site_fract_x
_atom_site_fract_y
_atom_site_fract_z
Si Si1 0.527476 0.602676 0.170395
Si Si2 0.450927 0.703431 0.906024
Si Si3 0.969773 0.102907 0.372804
Si Si4 0.898409 0.014528 0.239528
Si Si5 0.602276 0.214355 0.347947
Si Si6 0.260515 0.696774 0.371366
Si Si7 0.310553 0.730406 0.510859
O O1 0.480384 0.427694 0.121751
O O2 0.488477 0.386925 0.248730
O O3 0.453912 0.931046 0.113847
O O4 0.770162 0.727128 0.213361
O O5 0.208224 0.707843 0.845859
O O6 0.500000 0.500000 0.000000
O O7 0.136760 0.400664 0.350557
O O8 0.843922 0.985378 0.300739
O O9 0.819196 0.187082 0.375232
O O10 0.105586 0.860154 0.457958
O O11 0.126633 0.966749 0.298704
O O12 0.627318 0.379479 0.395407
O O13 0.476706 0.867028 0.376397
O O14 0.267725 0.574588 0.457774
O O15 0.500000 0.000000 0.500000
#
# Coordination Sequence:
#
# PCOD9087721 Si02
#       7
#     2   2   2   2   2   2   2
#     4  10  20  38  60  93 123 152 209 242 308 366
#     4  10  19  36  66  93 121 158 199 248 308 377
#     4  11  19  40  55  85 115 159 211 253 294 366
#     4   9  19  37  59  83 124 148 204 246 301 364
#     4  11  20  38  58  85 118 161 204 257 299 353
#     4  10  21  38  57  82 122 161 206 248 304 353
#     4   9  22  37  51  85 117 161 210 248 305 351
#
# _framework density 21.397713
#
# number of rings (size 3 to 8) (size 9 to 14) (size 15 to 20)
#    0.857    1.143    2.857    0.857    0.000    2.857 
#   20.571    0.000    0.000    1.714    0.000    0.000 
#    0.000    0.000    0.000    0.000    0.000    0.000 
#
# Total GULP energy -77989.159001 kJ/mol
# GULP energy per Si atom -5570.654214 kJ/mol
# Density = 2.134901 g / cm^3
# Si number density = 21.397713 Si / 1000 Ang^3
#
#
#
# Elastic Constant Matrix: (Units=GPa)
#
#
# Indices 1 2 3 4 5 6 
#
# 1 61.9078 28.7181 45.4846 -9.4738 -0.1000 -6.5906
# 2 28.7181 80.4146 37.6482 -6.8704 -8.2243 -15.2429
# 3 45.4846 37.6482 183.0288 -8.4125 -10.7476 -18.4502
# 4 -9.4738 -6.8704 -8.4125 26.9057 -1.4154 -4.2181
# 5 -0.1000 -8.2243 -10.7476 -1.4154 23.7634 3.2787
# 6 -6.5906 -15.2429 -18.4502 -4.2181 3.2787 32.9182
#
#
#
# Elastic Compliance Matrix: (Units=1/GPa)
#
#
# Indices 1 2 3 4 5 6 
#
# 1 0.023006 -0.006028 -0.004430 0.005034 -0.003742 0.000349
# 2 -0.006028 0.016927 -0.000956 0.003095 0.004755 0.006019
# 3 -0.004430 -0.000956 0.007221 0.000997 0.002619 0.002585
# 4 0.005034 0.003095 0.000997 0.041452 0.002905 0.008022
# 5 -0.003742 0.004755 0.002619 0.002905 0.045236 -0.001213
# 6 0.000349 0.006019 0.002585 0.008022 -0.001213 0.035833
#
#
# Mechanical properties :
#
#
# Convention : Reuss Voigt Hill
#
# Bulk Modulus (GPa) = 41.10784 61.00588 51.05686
# Shear Modulus (GPa) = 24.92364 30.95081 27.93723
#
# Velocity S-wave (km/s) = 3.41659 3.80735 3.61725
# Velocity P-wave (km/s) = 5.90061 6.92100 6.43107
#
# Compressibility (1/GPa) = 0.02432626
#
# Stress axis : x y z
#
# Youngs Moduli (GPa) = 43.46691 59.07608 138.47755
#
# Poissons Ratio (x) = 0.35612 0.61351
# Poissons Ratio (y) = 0.26203 0.13234
# Poissons Ratio (z) = 0.19258 0.05646
#
# Static dielectric constant tensor:
#      x y z
#    x 1.794400 -0.020360 0.031200 
#    y -0.020360 1.835130 -0.025380 
#    z 0.031200 -0.025380 1.787690 
# 
# From -- ./inp_files/44724.got.cif
#   From: 2010.05.17/outbox.cif.g08.bks.cpg/sg2_23_cif.got.tgz:44724.got - 2010.06.03 11:33:40.
