data_PCOD9087708
_publ_section_title
;
Structure prediction by ZEFSAII (Michael W. Deem and Ramdas Pophale) SiO2 
 PCOD9087708
Probable space group: P -1
;
_chemical_formula_sum "Si O2"
_cell_formula_units_Z 16
_cell_length_a 8.330891
_cell_length_b 7.878226
_cell_length_c 10.981321
_cell_angle_alpha 111.150327
_cell_angle_beta 102.640147
_cell_angle_gamma 90.346907
_cell_volume 653.023052
_symmetry_space_group_name_H-M "P -1"
_symmetry_group_IT_number 2
_symmetry_cell_setting 'triclinic'
loop_
_space_group_symop_operation_xyz
x,y,z
-x,-y,-z
loop_
_atom_site_type_symbol
_atom_site_label
_atom_site_fract_x
_atom_site_fract_y
_atom_site_fract_z
Si Si1 0.815009 0.081871 0.375810
Si Si2 0.344844 0.331130 0.064263
Si Si3 0.454981 0.017969 0.356675
Si Si4 0.978339 0.280113 0.956687
Si Si5 0.991866 0.749215 0.315810
Si Si6 0.496538 0.644128 0.645581
Si Si7 0.113305 0.589559 0.651131
Si Si8 0.366704 0.732947 0.064483
O O1 0.623868 0.119088 0.349875
O O2 0.904751 0.194478 0.310235
O O3 0.886936 0.165708 0.536627
O O4 0.835015 0.868572 0.326332
O O5 0.400778 0.384834 0.221953
O O6 0.345350 0.517322 0.033950
O O7 0.160510 0.231333 0.007555
O O8 0.486816 0.223884 0.996369
O O9 0.363957 0.190415 0.350136
O O10 0.500000 0.000000 0.500000
O O11 0.414270 0.839653 0.225297
O O12 0.935809 0.213614 0.794939
O O13 0.815952 0.220148 0.992322
O O14 0.000000 0.500000 0.000000
O O15 0.943008 0.536890 0.277565
O O16 0.500000 0.500000 0.500000
O O17 0.306591 0.580642 0.653671
O O18 0.000000 0.500000 0.500000
#
# Coordination Sequence:
#
# PCOD9087708 Si02
#       8
#     2   2   2   2   2   2   2   2
#     4   9  20  36  58  98 124 168 220 276 331 399
#     4  10  23  42  67  94 132 175 220 272 331 402
#     4  11  22  38  64  92 131 170 217 278 332 391
#     4  10  22  39  65  96 127 175 224 267 317 411
#     4  10  19  36  66  88 130 172 218 270 336 393
#     4  11  25  42  63  97 130 163 220 280 333 402
#     4   9  21  38  60  92 128 171 211 274 333 396
#     4  10  22  41  67  96 130 180 221 264 331 400
#
# _framework density 24.501431
#
# number of rings (size 3 to 8) (size 9 to 14) (size 15 to 20)
#    0.000    2.000    0.000    2.250    8.750    5.500 
#    2.250    0.625    0.000    0.000    0.000    0.000 
#    0.000    0.000    0.000    0.000    0.000    0.000 
#
# Total GULP energy -89082.168553 kJ/mol
# GULP energy per Si atom -5567.635535 kJ/mol
# Density = 2.444567 g / cm^3
# Si number density = 24.501431 Si / 1000 Ang^3
#
#
#
# Elastic Constant Matrix: (Units=GPa)
#
#
# Indices 1 2 3 4 5 6 
#
# 1 6.6962 -46.5908 119.9736 -37.5462 -20.0562 152.8160
# 2 -46.5908 27.3668 36.1896 -14.4002 -5.1478 66.2514
# 3 119.9736 36.1896 20.1156 9.4660 18.1832 -101.9897
# 4 -37.5462 -14.4002 9.4660 21.6658 -11.2484 29.9728
# 5 -20.0562 -5.1478 18.1832 -11.2484 9.6479 36.9957
# 6 152.8160 66.2514 -101.9897 29.9728 36.9957 -144.3815
#
#
#
# Elastic Compliance Matrix: (Units=1/GPa)
#
#
# Indices 1 2 3 4 5 6 
#
# 1 0.007067 -0.001832 -0.001727 -0.000145 -0.006669 0.006120
# 2 -0.001832 0.020448 0.001644 -0.000527 -0.010230 0.003552
# 3 -0.001727 0.001644 0.012620 0.005877 0.007050 -0.006962
# 4 -0.000145 -0.000527 0.005877 0.039600 0.010301 0.006313
# 5 -0.006669 -0.010230 0.007050 0.010301 0.070119 0.003372
# 6 0.006120 0.003552 -0.006962 0.006313 0.003372 0.008274
#
#
# Mechanical properties :
#
#
# Convention : Reuss Voigt Hill
#
# Bulk Modulus (GPa) = 27.54491 30.36929 28.95710
# Shear Modulus (GPa) = 28.72566 -26.30649 1.20959
#
# Velocity S-wave (km/s) = 3.42776 -3.28025 0.70339
# Velocity P-wave (km/s) = 5.18966 1.38740 3.53608
#
# Compressibility (1/GPa) = 0.03630435
#
# Stress axis : x y z
#
# Youngs Moduli (GPa) = 141.49554 48.90498 79.23984
#
# Poissons Ratio (x) = 0.08959 0.13684
# Poissons Ratio (y) = 0.25922 -0.13024
# Poissons Ratio (z) = 0.24435 -0.08038
#
# Static dielectric constant tensor:
#      x y z
#    x 2.009440 0.081300 0.005970 
#    y 0.081300 1.885610 0.067980 
#    z 0.005970 0.067980 1.875030 
# 
# From -- ./inp_files/380398.got.cif
#   From: 2010.05.17/outbox.cif.g08.bks.cpg/sg2_191_cif.got.tgz:380398.got - 2010.06.03 11:33:40.
