data_PCOD9087875
_publ_section_title
;
Structure prediction by ZEFSAII (Michael W. Deem and Ramdas Pophale) SiO2 
 PCOD9087875
Probable space group: P -1
;
_chemical_formula_sum "Si O2"
_cell_formula_units_Z 16
_cell_length_a 14.419499
_cell_length_b 11.423557
_cell_length_c 25.962335
_cell_angle_alpha 147.744628
_cell_angle_beta 19.057471
_cell_angle_gamma 148.156670
_cell_volume 713.684561
_symmetry_space_group_name_H-M "P -1"
_symmetry_group_IT_number 2
_symmetry_cell_setting 'triclinic'
loop_
_space_group_symop_operation_xyz
x,y,z
-x,-y,-z
loop_
_atom_site_type_symbol
_atom_site_label
_atom_site_fract_x
_atom_site_fract_y
_atom_site_fract_z
Si Si1 0.323944 0.446745 0.265587
Si Si2 0.447570 0.107757 0.267947
Si Si3 0.140089 0.948491 0.130811
Si Si4 0.239274 0.595179 0.150391
Si Si5 0.097455 0.271670 0.430373
Si Si6 0.192808 0.858048 0.175858
Si Si7 0.206557 0.878151 0.810866
Si Si8 0.903912 0.796017 0.089434
O O1 0.170906 0.206436 0.228950
O O2 0.268869 0.417123 0.345120
O O3 0.673904 0.547723 0.111672
O O4 0.174019 0.624824 0.384666
O O5 0.273113 0.262142 0.387474
O O6 0.526725 0.134474 0.296548
O O7 0.276010 0.837994 0.249286
O O8 0.767255 0.164832 0.092012
O O9 0.043042 0.799557 0.177532
O O10 0.479342 0.968942 0.944015
O O11 0.942064 0.860099 0.153037
O O12 0.256423 0.668655 0.108667
O O13 0.955052 0.377019 0.218782
O O14 0.500000 0.500000 0.000000
O O15 0.021477 0.009355 0.352982
O O16 0.244178 0.033223 0.798701
O O17 0.000000 0.000000 0.000000
#
# Coordination Sequence:
#
# PCOD9087875 Si02
#       8
#     2   2   2   2   2   2   2   2
#     4  10  23  36  64  80 123 152 185 230 300 341
#     4  10  21  36  60  82 116 147 198 235 277 341
#     4  10  19  37  55  89 115 147 182 247 284 336
#     4  11  17  32  54  80 113 154 174 241 287 327
#     4   9  19  44  55  86 116 159 184 229 290 359
#     4   9  19  33  59  82 115 144 196 228 282 340
#     4  10  21  32  52  88 115 144 197 236 280 338
#     4  11  21  35  57  91 112 146 194 247 272 339
#
# _framework density 22.418868
#
# number of rings (size 3 to 8) (size 9 to 14) (size 15 to 20)
#    0.000    2.000    5.000    0.000    3.500    2.500 
#    0.000    8.750    0.000    3.750    0.000    0.000 
#    0.000    0.000    0.000    0.000    0.000    0.000 
#
# Total GULP energy -89218.578861 kJ/mol
# GULP energy per Si atom -5576.161179 kJ/mol
# Density = 2.236784 g / cm^3
# Si number density = 22.418868 Si / 1000 Ang^3
#
#
#
# Elastic Constant Matrix: (Units=GPa)
#
#
# Indices 1 2 3 4 5 6 
#
# 1 173.8808 21.5788 35.3863 14.5665 -54.0563 -2.5492
# 2 21.5788 81.4986 26.8560 4.8581 -18.4886 4.5137
# 3 35.3863 26.8560 70.0816 24.2369 -26.8363 3.0976
# 4 14.5665 4.8581 24.2369 20.9246 -10.6979 -9.9000
# 5 -54.0563 -18.4886 -26.8363 -10.6979 30.4112 11.5544
# 6 -2.5492 4.5137 3.0976 -9.9000 11.5544 30.0965
#
#
#
# Elastic Compliance Matrix: (Units=1/GPa)
#
#
# Indices 1 2 3 4 5 6 
#
# 1 0.026066 0.006294 0.027244 -0.030431 0.079478 -0.042063
# 2 0.006294 0.017048 0.003807 -0.005185 0.028864 -0.015202
# 3 0.027244 0.003807 0.080288 -0.089919 0.121383 -0.082706
# 4 -0.030431 -0.005185 -0.089919 0.163909 -0.119714 0.107331
# 5 0.079478 0.028864 0.121383 -0.119714 0.322548 -0.173300
# 6 -0.042063 -0.015202 -0.082706 0.107331 -0.173300 0.142294
#
#
# Mechanical properties :
#
#
# Convention : Reuss Voigt Hill
#
# Bulk Modulus (GPa) = 5.04813 54.78925 29.91869
# Shear Modulus (GPa) = 6.72500 32.39578 19.56039
#
# Velocity S-wave (km/s) = 1.73384 3.80547 2.95701
# Velocity P-wave (km/s) = 2.50298 6.61821 5.00328
#
# Compressibility (1/GPa) = 0.19809307
#
# Stress axis : x y z
#
# Youngs Moduli (GPa) = 38.36377 58.65708 12.45514
#
# Poissons Ratio (x) = -0.36921 -0.33933
# Poissons Ratio (y) = -0.24148 -0.04741
# Poissons Ratio (z) = -1.04519 -0.22329
#
# Static dielectric constant tensor:
#      x y z
#    x 1.867420 -0.034120 0.020690 
#    y -0.034120 1.890050 0.009220 
#    z 0.020690 0.009220 1.860110 
# 
# From -- ./inp_files/623520.got.cif
#   From: 2010.05.17/outbox.cif.g08.bks.cpg/sg2_312_cif.got.tgz:623520.got - 2010.06.03 11:33:40.
