data_PCOD9087716
_publ_section_title
;
Structure prediction by ZEFSAII (Michael W. Deem and Ramdas Pophale) SiO2 
 PCOD9087716
Probable space group: P -1
;
_chemical_formula_sum "Si O2"
_cell_formula_units_Z 14
_cell_length_a 15.746562
_cell_length_b 11.538390
_cell_length_c 8.122589
_cell_angle_alpha 99.359204
_cell_angle_beta 43.597326
_cell_angle_gamma 131.881306
_cell_volume 591.521757
_symmetry_space_group_name_H-M "P -1"
_symmetry_group_IT_number 2
_symmetry_cell_setting 'triclinic'
loop_
_space_group_symop_operation_xyz
x,y,z
-x,-y,-z
loop_
_atom_site_type_symbol
_atom_site_label
_atom_site_fract_x
_atom_site_fract_y
_atom_site_fract_z
Si Si1 0.297105 0.721478 0.355729
Si Si2 0.712058 0.240537 0.255551
Si Si3 0.055130 0.938235 0.532740
Si Si4 0.561686 0.381141 0.508013
Si Si5 0.807551 0.775577 0.161010
Si Si6 0.783209 0.182270 0.812976
Si Si7 0.486896 0.347567 0.974572
O O1 0.203685 0.683801 0.658062
O O2 0.193528 0.712900 0.350502
O O3 0.328480 0.606257 0.243630
O O4 0.538427 0.953773 0.090919
O O5 0.645692 0.321242 0.324705
O O6 0.500000 0.000000 0.500000
O O7 0.832920 0.279645 0.940588
O O8 0.087552 0.837136 0.385071
O O9 0.000000 0.000000 0.500000
O O10 0.880666 0.790263 0.881886
O O11 0.287114 0.155032 0.318757
O O12 0.749335 0.618923 0.315353
O O13 0.399188 0.306364 0.588162
O O14 0.447904 0.287946 0.822120
O O15 0.000000 0.000000 0.000000
O O16 0.500000 0.500000 0.000000
#
# Coordination Sequence:
#
# PCOD9087716 Si02
#       7
#     2   2   2   2   2   2   2
#     4   8  17  32  56  90 117 155 214 261 307 390
#     4   9  18  34  63  90 120 168 213 264 326 383
#     4  11  22  40  60  90 129 163 211 268 325 395
#     4  10  22  41  63  95 131 167 223 269 319 403
#     4  11  24  40  64  94 131 173 212 271 333 387
#     4   9  18  34  57  86 119 161 207 259 322 379
#     4  10  19  36  66  91 124 166 213 268 326 386
#
# _framework density 23.667769
#
# number of rings (size 3 to 8) (size 9 to 14) (size 15 to 20)
#    0.000    2.286    1.429    1.714    0.000    6.857 
#    0.000    0.714    0.000    4.286    0.000    0.000 
#    0.000    0.000    0.000    0.000    0.000    0.000 
#
# Total GULP energy -78204.235925 kJ/mol
# GULP energy per Si atom -5586.016852 kJ/mol
# Density = 2.361390 g / cm^3
# Si number density = 23.667769 Si / 1000 Ang^3
#
#
#
# Elastic Constant Matrix: (Units=GPa)
#
#
# Indices 1 2 3 4 5 6 
#
# 1 111.2724 67.8835 38.1210 26.0087 11.7132 -27.0285
# 2 67.8835 152.1425 37.9480 15.9697 -14.0243 -23.3752
# 3 38.1210 37.9480 89.4640 19.0924 11.8205 -7.6200
# 4 26.0087 15.9697 19.0924 58.5988 -0.9068 -10.4962
# 5 11.7132 -14.0243 11.8205 -0.9068 24.2147 -0.1129
# 6 -27.0285 -23.3752 -7.6200 -10.4962 -0.1129 41.9358
#
#
#
# Elastic Compliance Matrix: (Units=1/GPa)
#
#
# Indices 1 2 3 4 5 6 
#
# 1 0.017700 -0.007307 -0.001344 -0.004557 -0.012281 0.005917
# 2 -0.007307 0.012032 -0.003855 0.001729 0.012458 0.001763
# 3 -0.001344 -0.003855 0.015285 -0.003688 -0.009188 -0.001185
# 4 -0.004557 0.001729 -0.003688 0.020349 0.005779 0.002465
# 5 -0.012281 0.012458 -0.009188 0.005779 0.059150 -0.001035
# 6 0.005917 0.001763 -0.001185 0.002465 -0.001035 0.029042
#
#
# Mechanical properties :
#
#
# Convention : Reuss Voigt Hill
#
# Bulk Modulus (GPa) = 49.98255 71.19821 60.59038
# Shear Modulus (GPa) = 26.99208 38.87828 32.93518
#
# Velocity S-wave (km/s) = 3.38073 4.05738 3.73441
# Velocity P-wave (km/s) = 6.03352 7.21786 6.65210
#
# Compressibility (1/GPa) = 0.02000698
#
# Stress axis : x y z
#
# Youngs Moduli (GPa) = 56.49578 83.10858 65.42188
#
# Poissons Ratio (x) = 0.60728 0.08790
# Poissons Ratio (y) = 0.41282 0.25220
# Poissons Ratio (z) = 0.07590 0.32039
#
# Static dielectric constant tensor:
#      x y z
#    x 1.893610 0.036720 -0.006460 
#    y 0.036720 1.901010 -0.037590 
#    z -0.006460 -0.037590 1.948730 
# 
# From -- ./inp_files/332110.got.cif
#   From: 2010.05.17/outbox.cif.g08.bks.cpg/sg2_167_cif.got.tgz:332110.got - 2010.06.03 11:33:40.
