data_PCOD9087250
_publ_section_title
;
Structure prediction by ZEFSAII (Michael W. Deem and Ramdas Pophale) SiO2 
 PCOD9087250
Probable space group: P -1
;
_chemical_formula_sum "Si O2"
_cell_formula_units_Z 16
_cell_length_a 11.949750
_cell_length_b 10.454252
_cell_length_c 17.642397
_cell_angle_alpha 68.589382
_cell_angle_beta 24.846615
_cell_angle_gamma 61.361286
_cell_volume 798.074495
_symmetry_space_group_name_H-M "P -1"
_symmetry_group_IT_number 2
_symmetry_cell_setting 'triclinic'
loop_
_space_group_symop_operation_xyz
x,y,z
-x,-y,-z
loop_
_atom_site_type_symbol
_atom_site_label
_atom_site_fract_x
_atom_site_fract_y
_atom_site_fract_z
Si Si1 0.273232 0.293674 0.445878
Si Si2 0.686839 0.490551 0.963097
Si Si3 0.791846 0.155758 0.559919
Si Si4 0.863427 0.017591 0.826537
Si Si5 0.408837 0.982581 0.409349
Si Si6 0.871509 0.812084 0.279575
Si Si7 0.293823 0.590395 0.329545
Si Si8 0.192168 0.226342 0.176280
O O1 0.174870 0.261095 0.596834
O O2 0.357345 0.436390 0.368207
O O3 0.029920 0.342330 0.519252
O O4 0.481006 0.129369 0.326798
O O5 0.851289 0.603012 0.833848
O O6 0.898813 0.321741 0.878078
O O7 0.500000 0.500000 0.000000
O O8 0.482347 0.547792 0.147762
O O9 0.558671 0.117452 0.662425
O O10 0.664759 0.282962 0.672772
O O11 0.992779 0.206064 0.369663
O O12 0.000000 0.000000 0.500000
O O13 0.875151 0.852147 0.840196
O O14 0.067470 0.037869 0.629183
O O15 0.000807 0.063595 0.804753
O O16 0.532997 0.130978 0.000777
O O17 0.582998 0.886912 0.393290
#
# Coordination Sequence:
#
# PCOD9087250 Si02
#       8
#     2   2   2   2   2   2   2   2
#     4  10  19  36  62  91 121 156 203 260 305 359
#     4  12  22  38  60  91 125 160 210 258 298 362
#     4  11  23  39  63  92 126 159 203 260 311 368
#     4   9  18  34  61  91 118 147 205 259 290 350
#     4  10  21  40  63  93 122 168 208 247 306 375
#     4  11  21  39  65  89 126 166 209 249 304 372
#     4  11  23  36  60  93 123 156 207 260 310 346
#     4  10  21  35  61  94 119 154 209 253 311 344
#
# _framework density 20.048254
#
# number of rings (size 3 to 8) (size 9 to 14) (size 15 to 20)
#    0.000    1.500    3.750    3.000    5.250    0.000 
#    0.000    8.125    2.750    0.000    0.000    0.000 
#    0.000    0.000    0.000    0.000    0.000    0.000 
#
# Total GULP energy -89212.484736 kJ/mol
# GULP energy per Si atom -5575.780296 kJ/mol
# Density = 2.000262 g / cm^3
# Si number density = 20.048254 Si / 1000 Ang^3
#
#
#
# Elastic Constant Matrix: (Units=GPa)
#
#
# Indices 1 2 3 4 5 6 
#
# 1 96.4741 58.7231 15.3248 10.9053 7.7927 25.6887
# 2 58.7231 137.5508 20.1911 8.9693 7.9653 31.4747
# 3 15.3248 20.1911 36.1081 17.6353 8.7457 9.2272
# 4 10.9053 8.9693 17.6353 24.1858 8.7750 8.6014
# 5 7.7927 7.9653 8.7457 8.7750 19.6943 8.7054
# 6 25.6887 31.4747 9.2272 8.6014 8.7054 40.7061
#
#
#
# Elastic Compliance Matrix: (Units=1/GPa)
#
#
# Indices 1 2 3 4 5 6 
#
# 1 0.015200 -0.005027 -0.001219 -0.002262 -0.000269 -0.004893
# 2 -0.005027 0.010984 -0.004247 0.002963 0.000349 -0.005058
# 3 -0.001219 -0.004247 0.046307 -0.030044 -0.005450 0.001071
# 4 -0.002262 0.002963 -0.030044 0.071021 -0.016125 -0.005611
# 5 -0.000269 0.000349 -0.005450 -0.016125 0.064429 -0.009236
# 6 -0.004893 -0.005058 0.001071 -0.005611 -0.009236 0.034484
#
#
# Mechanical properties :
#
#
# Convention : Reuss Voigt Hill
#
# Bulk Modulus (GPa) = 19.41645 50.95676 35.18661
# Shear Modulus (GPa) = 17.82031 28.64351 23.23191
#
# Velocity S-wave (km/s) = 2.98463 3.78395 3.40781
# Velocity P-wave (km/s) = 4.64577 6.67557 5.75094
#
# Compressibility (1/GPa) = 0.05150273
#
# Stress axis : x y z
#
# Youngs Moduli (GPa) = 65.79127 91.04356 21.59505
#
# Poissons Ratio (x) = 0.45770 0.02633
# Poissons Ratio (y) = 0.33075 0.09172
# Poissons Ratio (z) = 0.08022 0.38667
#
# Static dielectric constant tensor:
#      x y z
#    x 1.728810 0.029770 0.010730 
#    y 0.029770 1.761220 -0.011400 
#    z 0.010730 -0.011400 1.750470 
# 
# From -- ./inp_files/416262.got.cif
#   From: 2010.05.17/outbox.cif.g08.bks.cpg/sg2_209_cif.got.tgz:416262.got - 2010.06.03 11:33:40.
