data_PCOD9087697
_publ_section_title
;
Structure prediction by ZEFSAII (Michael W. Deem and Ramdas Pophale) SiO2 
 PCOD9087697
Probable space group: P -1
;
_chemical_formula_sum "Si O2"
_cell_formula_units_Z 14
_cell_length_a 13.267373
_cell_length_b 19.082109
_cell_length_c 7.093583
_cell_angle_alpha 76.089961
_cell_angle_beta 78.653553
_cell_angle_gamma 19.554899
_cell_volume 581.012687
_symmetry_space_group_name_H-M "P -1"
_symmetry_group_IT_number 2
_symmetry_cell_setting 'triclinic'
loop_
_space_group_symop_operation_xyz
x,y,z
-x,-y,-z
loop_
_atom_site_type_symbol
_atom_site_label
_atom_site_fract_x
_atom_site_fract_y
_atom_site_fract_z
Si Si1 0.211263 0.428503 0.226088
Si Si2 0.695735 0.306148 0.465430
Si Si3 0.444070 0.093661 0.752727
Si Si4 0.139818 0.057531 0.146978
Si Si5 0.365363 0.377145 0.601119
Si Si6 0.137835 0.976398 0.853503
Si Si7 0.727015 0.774670 0.706724
O O1 0.269197 0.389564 0.455027
O O2 0.506645 0.273508 0.141914
O O3 0.229808 0.337150 0.189703
O O4 0.876648 0.680736 0.175216
O O5 0.500000 0.500000 0.500000
O O6 0.491227 0.369718 0.485381
O O7 0.844663 0.234008 0.263276
O O8 0.970826 0.101228 0.636588
O O9 0.408806 0.134781 0.514411
O O10 0.703598 0.973112 0.819265
O O11 0.525120 0.955962 0.800227
O O12 0.380580 0.834664 0.246609
O O13 0.085858 0.082752 0.929190
O O14 0.060405 0.589504 0.693937
O O15 0.000000 0.000000 0.000000
#
# Coordination Sequence:
#
# PCOD9087697 Si02
#       7
#     2   2   2   2   2   2   2
#     4  11  21  40  67  98 135 180 227 273 344 411
#     4  12  26  45  69 101 140 181 228 287 344 400
#     4  10  20  37  65 101 136 177 223 283 334 408
#     4  12  22  43  70  98 136 182 231 274 342 407
#     4  11  19  39  70  96 132 185 226 277 337 407
#     4  12  26  43  71 102 131 181 237 278 337 417
#     4  10  19  36  66 100 133 176 230 272 341 408
#
# _framework density 24.095862
#
# number of rings (size 3 to 8) (size 9 to 14) (size 15 to 20)
#    0.000    0.857    5.714    3.000    0.000    3.429 
#    0.000    2.143    0.000    0.000    0.000    0.000 
#    0.000    0.000    0.000    0.000    0.000    0.000 
#
# Total GULP energy -78434.255011 kJ/mol
# GULP energy per Si atom -5602.446786 kJ/mol
# Density = 2.404102 g / cm^3
# Si number density = 24.095862 Si / 1000 Ang^3
#
#
#
# Elastic Constant Matrix: (Units=GPa)
#
#
# Indices 1 2 3 4 5 6 
#
# 1 161.6589 73.0616 10.4428 13.9962 -2.3481 9.6876
# 2 73.0616 107.4853 8.2782 32.8611 -17.5339 10.4336
# 3 10.4428 8.2782 42.9260 5.5509 -2.1595 -1.6395
# 4 13.9962 32.8611 5.5509 38.9925 -7.6707 -3.1319
# 5 -2.3481 -17.5339 -2.1595 -7.6707 29.4505 5.6193
# 6 9.6876 10.4336 -1.6395 -3.1319 5.6193 48.9588
#
#
#
# Elastic Compliance Matrix: (Units=1/GPa)
#
#
# Indices 1 2 3 4 5 6 
#
# 1 0.009458 -0.007704 -0.001314 0.002660 -0.003288 0.000274
# 2 -0.007704 0.020485 -0.000109 -0.013078 0.009068 -0.004722
# 3 -0.001314 -0.000109 0.024048 -0.002646 0.000745 0.000834
# 4 0.002660 -0.013078 -0.002646 0.036627 0.000930 0.004408
# 5 -0.003288 0.009068 0.000745 0.000930 0.040505 -0.005846
# 6 0.000274 -0.004722 0.000834 0.004408 -0.005846 0.022358
#
#
# Mechanical properties :
#
#
# Convention : Reuss Voigt Hill
#
# Bulk Modulus (GPa) = 27.98281 55.07061 41.52671
# Shear Modulus (GPa) = 27.22607 38.16619 32.69613
#
# Velocity S-wave (km/s) = 3.36506 3.98418 3.68763
# Velocity P-wave (km/s) = 5.17073 6.63847 5.95003
#
# Compressibility (1/GPa) = 0.03573623
#
# Stress axis : x y z
#
# Youngs Moduli (GPa) = 105.72929 48.81693 41.58321
#
# Poissons Ratio (x) = 0.37609 0.05465
# Poissons Ratio (y) = 0.81454 0.00454
# Poissons Ratio (z) = 0.13894 0.00533
#
# Static dielectric constant tensor:
#      x y z
#    x 1.926390 -0.016440 0.034690 
#    y -0.016440 1.902670 -0.016360 
#    z 0.034690 -0.016360 1.969370 
# 
# From -- ./inp_files/279279.got.cif
#   From: 2010.05.17/outbox.cif.g08.bks.cpg/sg2_140_cif.got.tgz:279279.got - 2010.06.03 11:33:40.
