data_PCOD9087675
_publ_section_title
;
Structure prediction by ZEFSAII (Michael W. Deem and Ramdas Pophale) SiO2 
 PCOD9087675
Probable space group: P -1
;
_chemical_formula_sum "Si O2"
_cell_formula_units_Z 16
_cell_length_a 12.687848
_cell_length_b 8.235001
_cell_length_c 14.414627
_cell_angle_alpha 97.190847
_cell_angle_beta 35.000019
_cell_angle_gamma 77.825787
_cell_volume 715.363114
_symmetry_space_group_name_H-M "P -1"
_symmetry_group_IT_number 2
_symmetry_cell_setting 'triclinic'
loop_
_space_group_symop_operation_xyz
x,y,z
-x,-y,-z
loop_
_atom_site_type_symbol
_atom_site_label
_atom_site_fract_x
_atom_site_fract_y
_atom_site_fract_z
Si Si1 0.540910 0.163855 0.757571
Si Si2 0.090625 0.792447 0.030521
Si Si3 0.269414 0.099549 0.223952
Si Si4 0.161659 0.738562 0.536841
Si Si5 0.737524 0.402856 0.922275
Si Si6 0.275313 0.473227 0.255021
Si Si7 0.723483 0.983856 0.166829
Si Si8 0.514677 0.579708 0.592974
O O1 0.691971 0.171605 0.570273
O O2 0.382894 0.376440 0.933982
O O3 0.392744 0.094953 0.815833
O O4 0.698903 0.019337 0.714487
O O5 0.096991 0.740142 0.128779
O O6 0.316812 0.614871 0.806681
O O7 0.120905 0.973383 0.005415
O O8 0.879702 0.843982 0.126731
O O9 0.216428 0.314343 0.301157
O O10 0.095752 0.110652 0.277587
O O11 0.500000 0.000000 0.000000
O O12 0.253107 0.581144 0.541204
O O13 0.215504 0.614392 0.394469
O O14 0.540629 0.367753 0.047072
O O15 0.827026 0.407812 0.757717
O O16 0.541698 0.200131 0.353439
O O17 0.500000 0.500000 0.500000
#
# Coordination Sequence:
#
# PCOD9087675 Si02
#       8
#     2   2   2   2   2   2   2   2
#     4  11  20  40  62  94 131 164 213 263 317 371
#     4   9  18  40  63  93 125 172 213 257 314 369
#     4  12  24  39  63  95 123 168 220 260 312 384
#     4  11  24  43  63  88 131 175 204 266 323 371
#     4  10  19  36  65  92 130 165 206 263 311 379
#     4  10  20  40  62  89 127 169 209 254 318 380
#     4   9  20  37  66  90 124 168 213 261 312 365
#     4  10  20  42  62  87 125 171 214 257 312 376
#
# _framework density 22.366263
#
# number of rings (size 3 to 8) (size 9 to 14) (size 15 to 20)
#    0.750    1.000    3.750    2.250    0.000    1.500 
#    2.250    0.625    0.000    0.000    0.000    0.000 
#    0.000    0.000    0.000    0.000    0.000    0.000 
#
# Total GULP energy -89415.067464 kJ/mol
# GULP energy per Si atom -5588.441716 kJ/mol
# Density = 2.231536 g / cm^3
# Si number density = 22.366263 Si / 1000 Ang^3
#
#
#
# Elastic Constant Matrix: (Units=GPa)
#
#
# Indices 1 2 3 4 5 6 
#
# 1 143.2158 47.4129 15.8931 13.8341 -14.0802 -21.1014
# 2 47.4129 76.7665 0.2965 8.9434 -7.1710 -20.2324
# 3 15.8931 0.2965 35.0421 13.9809 -11.9222 -0.3525
# 4 13.8341 8.9434 13.9809 14.0530 -4.9648 -8.2390
# 5 -14.0802 -7.1710 -11.9222 -4.9648 37.3032 5.6534
# 6 -21.1014 -20.2324 -0.3525 -8.2390 5.6534 55.5332
#
#
#
# Elastic Compliance Matrix: (Units=1/GPa)
#
#
# Indices 1 2 3 4 5 6 
#
# 1 0.009540 -0.005224 -0.003205 -0.001692 0.001145 0.001334
# 2 -0.005224 0.018554 0.007694 -0.011932 0.002034 0.002846
# 3 -0.003205 0.007694 0.057762 -0.059732 0.012013 -0.008133
# 4 -0.001692 -0.011932 -0.059732 0.148144 -0.004899 0.017108
# 5 0.001145 0.002034 0.012013 -0.004899 0.031220 -0.002652
# 6 0.001334 0.002846 -0.008133 0.017108 -0.002652 0.022308
#
#
# Mechanical properties :
#
#
# Convention : Reuss Voigt Hill
#
# Bulk Modulus (GPa) = 11.85029 42.46992 27.16011
# Shear Modulus (GPa) = 15.76657 34.13932 24.95295
#
# Velocity S-wave (km/s) = 2.65793 3.91112 3.34376
# Velocity P-wave (km/s) = 3.83787 6.27897 5.20359
#
# Compressibility (1/GPa) = 0.08438614
#
# Stress axis : x y z
#
# Youngs Moduli (GPa) = 104.81979 53.89772 17.31231
#
# Poissons Ratio (x) = 0.28158 0.05548
# Poissons Ratio (y) = 0.54761 -0.13320
# Poissons Ratio (z) = 0.33590 -0.41468
#
# Static dielectric constant tensor:
#      x y z
#    x 1.760870 0.050630 0.048080 
#    y 0.050630 1.717870 -0.142770 
#    z 0.048080 -0.142770 1.714200 
# 
# From -- ./inp_files/515631.got.cif
#   From: 2010.05.17/outbox.cif.g08.bks.cpg/sg2_258_cif.got.tgz:515631.got - 2010.06.03 11:33:40.
