data_PCOD9087333
_publ_section_title
;
Structure prediction by ZEFSAII (Michael W. Deem and Ramdas Pophale) SiO2 
 PCOD9087333
Probable space group: P -1
;
_chemical_formula_sum "Si O2"
_cell_formula_units_Z 16
_cell_length_a 21.072384
_cell_length_b 15.506786
_cell_length_c 10.573020
_cell_angle_alpha 155.080685
_cell_angle_beta 144.931375
_cell_angle_gamma 34.419659
_cell_volume 786.119855
_symmetry_space_group_name_H-M "P -1"
_symmetry_group_IT_number 2
_symmetry_cell_setting 'triclinic'
loop_
_space_group_symop_operation_xyz
x,y,z
-x,-y,-z
loop_
_atom_site_type_symbol
_atom_site_label
_atom_site_fract_x
_atom_site_fract_y
_atom_site_fract_z
Si Si1 0.596991 0.554233 0.147890
Si Si2 0.214860 0.833518 0.952877
Si Si3 0.710024 0.841033 0.869565
Si Si4 0.607587 0.261534 0.108679
Si Si5 0.675098 0.947486 0.242868
Si Si6 0.938484 0.468602 0.727557
Si Si7 0.911062 0.863324 0.659220
Si Si8 0.461944 0.345445 0.330289
O O1 0.709097 0.332059 0.033430
O O2 0.634009 0.721223 0.514543
O O3 0.500000 0.500000 0.000000
O O4 0.528450 0.672277 0.068479
O O5 0.307449 0.830963 0.993261
O O6 0.128180 0.708299 0.595983
O O7 0.149899 0.076148 0.221976
O O8 0.841776 0.704785 0.859457
O O9 0.653755 0.088182 0.063271
O O10 0.702797 0.839190 0.005640
O O11 0.616041 0.486197 0.470398
O O12 0.575930 0.180801 0.367065
O O13 0.797103 0.952634 0.502260
O O14 0.613750 0.804860 0.035663
O O15 0.018690 0.366889 0.599716
O O16 0.000000 0.500000 0.000000
O O17 0.000000 0.000000 0.000000
O O18 0.500000 0.500000 0.500000
#
# Coordination Sequence:
#
# PCOD9087333 Si02
#       8
#     2   2   2   2   2   2   2   2
#     4   9  18  34  58  85 120 160 200 243 308 377
#     4   9  20  37  60  87 120 156 208 250 313 375
#     4  11  21  36  59  92 117 167 206 254 319 377
#     4  11  21  37  58  88 131 158 201 256 317 381
#     4  11  22  40  67  91 132 163 211 260 323 377
#     4  10  19  36  63  85 112 157 214 256 307 368
#     4  10  21  39  68  91 117 169 219 262 315 373
#     4  11  23  39  61  99 129 165 206 262 319 386
#
# _framework density 20.35313
#
# number of rings (size 3 to 8) (size 9 to 14) (size 15 to 20)
#    0.000    1.750    2.500    3.375    0.000    3.000 
#    2.250    1.250    5.500    0.000    0.000    0.000 
#    0.000    0.000    0.000    0.000    0.000    0.000 
#
# Total GULP energy -89072.135107 kJ/mol
# GULP energy per Si atom -5567.008444 kJ/mol
# Density = 2.030681 g / cm^3
# Si number density = 20.353130 Si / 1000 Ang^3
#
#
#
# Elastic Constant Matrix: (Units=GPa)
#
#
# Indices 1 2 3 4 5 6 
#
# 1 69.3809 25.5199 27.4694 10.2890 -10.3387 -8.1993
# 2 25.5199 104.1563 66.3192 -3.8564 6.0905 -10.3222
# 3 27.4694 66.3192 95.1389 -2.0175 -11.1879 -2.3330
# 4 10.2890 -3.8564 -2.0175 40.0738 -10.9980 -10.8079
# 5 -10.3387 6.0905 -11.1879 -10.9980 25.7063 6.1698
# 6 -8.1993 -10.3222 -2.3330 -10.8079 6.1698 28.3882
#
#
#
# Elastic Compliance Matrix: (Units=1/GPa)
#
#
# Indices 1 2 3 4 5 6 
#
# 1 0.017947 -0.003123 -0.002428 -0.003206 0.005168 0.001504
# 2 -0.003123 0.022957 -0.016757 0.000350 -0.016171 0.009716
# 3 -0.002428 -0.016757 0.024745 0.002884 0.016750 -0.007303
# 4 -0.003206 0.000350 0.002884 0.031447 0.011181 0.008980
# 5 0.005168 -0.016171 0.016750 0.011181 0.059699 -0.011729
# 6 0.001504 0.009716 -0.007303 0.008980 -0.011729 0.044561
#
#
# Mechanical properties :
#
#
# Convention : Reuss Voigt Hill
#
# Bulk Modulus (GPa) = 47.54622 56.36589 51.95606
# Shear Modulus (GPa) = 19.76413 28.79151 24.27782
#
# Velocity S-wave (km/s) = 3.11957 3.76520 3.45748
# Velocity P-wave (km/s) = 6.03216 6.83055 6.44373
#
# Compressibility (1/GPa) = 0.02103217
#
# Stress axis : x y z
#
# Youngs Moduli (GPa) = 55.72067 43.55894 40.41230
#
# Poissons Ratio (x) = 0.13603 0.09813
# Poissons Ratio (y) = 0.17401 0.67720
# Poissons Ratio (z) = 0.13530 0.72993
#
# Static dielectric constant tensor:
#      x y z
#    x 2.430810 0.303870 -2.279950 
#    y 0.303870 1.902020 -1.025610 
#    z -2.279950 -1.025610 9.337780 
# 
# From -- ./inp_files/455275.got.cif
#   From: 2010.05.17/outbox.cif.g08.bks.cpg/sg2_228_cif.got.tgz:455275.got - 2010.06.03 11:33:40.
