data_PCOD9087710
_publ_section_title
;
Structure prediction by ZEFSAII (Michael W. Deem and Ramdas Pophale) SiO2 
 PCOD9087710
Probable space group: P -1
;
_chemical_formula_sum "Si O2"
_cell_formula_units_Z 16
_cell_length_a 5.903956
_cell_length_b 9.624801
_cell_length_c 17.452851
_cell_angle_alpha 61.877556
_cell_angle_beta 49.506771
_cell_angle_gamma 60.259788
_cell_volume 637.922383
_symmetry_space_group_name_H-M "P -1"
_symmetry_group_IT_number 2
_symmetry_cell_setting 'triclinic'
loop_
_space_group_symop_operation_xyz
x,y,z
-x,-y,-z
loop_
_atom_site_type_symbol
_atom_site_label
_atom_site_fract_x
_atom_site_fract_y
_atom_site_fract_z
Si Si1 0.950338 0.851608 0.391745
Si Si2 0.277227 0.527708 0.315329
Si Si3 0.804991 0.921904 0.123984
Si Si4 0.189485 0.371713 0.052969
Si Si5 0.768184 0.975700 0.881372
Si Si6 0.323381 0.780193 0.615763
Si Si7 0.183966 0.581881 0.143795
Si Si8 0.204142 0.658354 0.521295
O O1 0.624681 0.814001 0.497243
O O2 0.140398 0.715649 0.324745
O O3 0.180577 0.800626 0.427753
O O4 0.842850 0.047993 0.350208
O O5 0.587381 0.392353 0.311945
O O6 0.247106 0.529736 0.230376
O O7 0.042078 0.434576 0.423667
O O8 0.874664 0.725405 0.157382
O O9 0.447892 0.983353 0.158566
O O10 0.960931 0.951387 0.163365
O O11 0.000000 0.000000 0.000000
O O12 0.067779 0.216094 0.112057
O O13 0.196212 0.438713 0.119015
O O14 0.546233 0.334473 0.958789
O O15 0.000000 0.500000 0.000000
O O16 0.500000 0.000000 0.000000
O O17 0.125498 0.744595 0.597608
O O18 0.500000 0.500000 0.500000
#
# Coordination Sequence:
#
# PCOD9087710 Si02
#       8
#     2   2   2   2   2   2   2   2
#     4  10  20  37  64  91 121 170 211 254 316 376
#     4  11  23  41  58  94 136 164 206 266 325 378
#     4  10  19  39  62  91 120 161 217 269 321 397
#     4  11  23  41  65  87 116 167 218 270 334 399
#     4  10  19  36  66  90 115 155 220 270 320 392
#     4  10  20  38  63  92 126 164 213 255 306 389
#     4  11  25  40  61  90 126 166 213 272 338 397
#     4  11  18  37  67  92 125 170 211 256 310 381
#
# _framework density 25.081422
#
# number of rings (size 3 to 8) (size 9 to 14) (size 15 to 20)
#    0.000    1.500    5.000    2.625    1.750    1.000 
#    2.250    1.250    0.000    0.000    0.000    0.000 
#    0.000    0.000    0.000    0.000    0.000    0.000 
#
# Total GULP energy -89278.341316 kJ/mol
# GULP energy per Si atom -5579.896332 kJ/mol
# Density = 2.502434 g / cm^3
# Si number density = 25.081422 Si / 1000 Ang^3
#
#
#
# Elastic Constant Matrix: (Units=GPa)
#
#
# Indices 1 2 3 4 5 6 
#
# 1 106.1489 33.1737 29.6487 7.9520 22.9150 -11.6368
# 2 33.1737 177.1346 45.5443 -0.9773 30.3108 3.1667
# 3 29.6487 45.5443 77.9075 1.6380 22.2852 -4.2504
# 4 7.9520 -0.9773 1.6380 26.1481 -0.1595 9.6962
# 5 22.9150 30.3108 22.2852 -0.1595 57.2479 -2.7954
# 6 -11.6368 3.1667 -4.2504 9.6962 -2.7954 40.2684
#
#
#
# Elastic Compliance Matrix: (Units=1/GPa)
#
#
# Indices 1 2 3 4 5 6 
#
# 1 0.012038 -0.001156 -0.002717 -0.005153 -0.002952 0.004319
# 2 -0.001156 0.007092 -0.003225 0.001447 -0.002117 -0.001728
# 3 -0.002717 -0.003225 0.016904 -0.000818 -0.003729 0.001191
# 4 -0.005153 0.001447 -0.000818 0.044493 0.001137 -0.012324
# 5 -0.002952 -0.002117 -0.003729 0.001137 0.021231 0.000120
# 6 0.004319 -0.001728 0.001191 -0.012324 0.000120 0.029319
#
#
# Mechanical properties :
#
#
# Convention : Reuss Voigt Hill
#
# Bulk Modulus (GPa) = 45.79261 64.21381 55.00321
# Shear Modulus (GPa) = 32.77558 41.58783 37.18170
#
# Velocity S-wave (km/s) = 3.61884 4.07641 3.85442
# Velocity P-wave (km/s) = 5.97985 6.91476 6.46423
#
# Compressibility (1/GPa) = 0.02183758
#
# Stress axis : x y z
#
# Youngs Moduli (GPa) = 83.07221 140.99633 59.15784
#
# Poissons Ratio (x) = 0.16305 0.16071
# Poissons Ratio (y) = 0.09607 0.19079
# Poissons Ratio (z) = 0.22568 0.45473
#
# Static dielectric constant tensor:
#      x y z
#    x 2.076020 -0.102120 -0.007540 
#    y -0.102120 2.037780 -0.005290 
#    z -0.007540 -0.005290 2.045600 
# 
# From -- ./inp_files/547957.got.cif
#   From: 2010.05.17/outbox.cif.g08.bks.cpg/sg2_274_cif.got.tgz:547957.got - 2010.06.03 11:33:40.
