data_PCOD9087104
_publ_section_title
;
Structure prediction by ZEFSAII (Michael W. Deem and Ramdas Pophale) SiO2 
 PCOD9087104
Probable space group: P -1
;
_chemical_formula_sum "Si O2"
_cell_formula_units_Z 14
_cell_length_a 9.087009
_cell_length_b 22.718856
_cell_length_c 5.544019
_cell_angle_alpha 118.702417
_cell_angle_beta 102.092442
_cell_angle_gamma 34.034341
_cell_volume 518.804181
_symmetry_space_group_name_H-M "P -1"
_symmetry_group_IT_number 2
_symmetry_cell_setting 'triclinic'
loop_
_space_group_symop_operation_xyz
x,y,z
-x,-y,-z
loop_
_atom_site_type_symbol
_atom_site_label
_atom_site_fract_x
_atom_site_fract_y
_atom_site_fract_z
Si Si1 0.661631 0.053903 0.701674
Si Si2 0.862608 0.726920 0.762465
Si Si3 0.358671 0.981294 0.881130
Si Si4 0.025337 0.562618 0.854571
Si Si5 0.321481 0.732897 0.509843
Si Si6 0.792905 0.371690 0.714239
Si Si7 0.600131 0.231781 0.890554
O O1 0.754445 0.981197 0.351546
O O2 0.807192 0.975694 0.847587
O O3 0.675801 0.127427 0.796798
O O4 0.325312 0.167380 0.878682
O O5 0.947100 0.622554 0.681498
O O6 0.143906 0.653371 0.602242
O O7 0.613000 0.829696 0.681956
O O8 0.500000 0.000000 0.000000
O O9 0.335150 0.413789 0.667502
O O10 0.743834 0.629564 0.962703
O O11 0.043947 0.622438 0.141793
O O12 0.160033 0.723393 0.385474
O O13 0.289289 0.765444 0.843657
O O14 0.294048 0.793265 0.391559
O O15 0.500000 0.500000 0.000000
#
# Coordination Sequence:
#
# PCOD9087104 Si02
#       7
#     2   2   2   2   2   2   2
#     4   9  20  35  60  83 123 146 184 243 308 343
#     4   9  20  33  60  80 123 147 199 234 312 326
#     4  10  19  36  61  96 116 139 189 255 310 355
#     4  10  22  36  58  77 119 158 205 250 296 328
#     4  11  25  35  55  83 118 161 210 236 279 352
#     4  10  23  38  56  82 123 167 205 247 287 339
#     4  11  22  39  55  84 118 159 197 245 289 349
#
# _framework density 26.985133000000001
#
# number of rings (size 3 to 8) (size 9 to 14) (size 15 to 20)
#    0.857    1.143    0.000    3.857   10.000    1.143 
#    0.000    0.000    0.000    0.000    0.000    6.000 
#    0.000    0.000    0.000    0.000    0.000    0.000 
#
# Total GULP energy -78122.553560 kJ/mol
# GULP energy per Si atom -5580.182397 kJ/mol
# Density = 2.692371 g / cm^3
# Si number density = 26.985133 Si / 1000 Ang^3
#
#
#
# Elastic Constant Matrix: (Units=GPa)
#
#
# Indices 1 2 3 4 5 6 
#
# 1 83.9413 25.1823 90.2247 -11.5924 -21.0249 18.3766
# 2 25.1823 70.8215 28.5541 -23.5352 -12.0728 0.7962
# 3 90.2247 28.5541 179.9192 -19.1799 -21.7468 9.3003
# 4 -11.5924 -23.5352 -19.1799 22.8047 10.6484 0.2346
# 5 -21.0249 -12.0728 -21.7468 10.6484 74.3133 -6.5614
# 6 18.3766 0.7962 9.3003 0.2346 -6.5614 48.6916
#
#
#
# Elastic Compliance Matrix: (Units=1/GPa)
#
#
# Indices 1 2 3 4 5 6 
#
# 1 0.031228 -0.005915 -0.014263 -0.003770 0.003492 -0.008476
# 2 -0.005915 0.022833 0.001562 0.022116 -0.000554 0.001380
# 3 -0.014263 0.001562 0.012824 0.005376 -0.000551 0.002808
# 4 -0.003770 0.022116 0.005376 0.072261 -0.006358 -0.001171
# 5 0.003492 -0.000554 -0.000551 -0.006358 0.015181 0.000873
# 6 -0.008476 0.001380 0.002808 -0.001171 0.000873 0.023301
#
#
# Mechanical properties :
#
#
# Convention : Reuss Voigt Hill
#
# Bulk Modulus (GPa) = 33.72420 69.17824 51.45122
# Shear Modulus (GPa) = 22.24760 41.87665 32.06212
#
# Velocity S-wave (km/s) = 2.87442 3.94362 3.45068
# Velocity P-wave (km/s) = 4.85189 6.81377 5.91474
#
# Compressibility (1/GPa) = 0.02965230
#
# Stress axis : x y z
#
# Youngs Moduli (GPa) = 32.02302 43.79610 77.97990
#
# Poissons Ratio (x) = 0.25907 1.11220
# Poissons Ratio (y) = 0.18943 -0.12181
# Poissons Ratio (z) = 0.45673 -0.06841
#
# Static dielectric constant tensor:
#      x y z
#    x 2.176960 -0.115840 -0.069600 
#    y -0.115840 2.344920 -0.138720 
#    z -0.069600 -0.138720 2.317270 
# 
# From -- ./inp_files/50735.got.cif
#   From: 2010.05.17/outbox.cif.g08.bks.cpg/sg2_26_cif.got.tgz:50735.got - 2010.06.03 11:33:40.
