data_PCOD9087700
_publ_section_title
;
Structure prediction by ZEFSAII (Michael W. Deem and Ramdas Pophale) SiO2 
 PCOD9087700
Probable space group: P -1
;
_chemical_formula_sum "Si O2"
_cell_formula_units_Z 16
_cell_length_a 7.690584
_cell_length_b 8.681197
_cell_length_c 27.846003
_cell_angle_alpha 29.994194
_cell_angle_beta 133.564039
_cell_angle_gamma 131.684600
_cell_volume 661.407228
_symmetry_space_group_name_H-M "P -1"
_symmetry_group_IT_number 2
_symmetry_cell_setting 'triclinic'
loop_
_space_group_symop_operation_xyz
x,y,z
-x,-y,-z
loop_
_atom_site_type_symbol
_atom_site_label
_atom_site_fract_x
_atom_site_fract_y
_atom_site_fract_z
Si Si1 0.261584 0.786037 0.139767
Si Si2 0.332228 0.120853 0.352782
Si Si3 0.278418 0.128191 0.961540
Si Si4 0.418675 0.411695 0.453630
Si Si5 0.966815 0.215974 0.696896
Si Si6 0.459352 0.219183 0.139755
Si Si7 0.051535 0.866687 0.895576
Si Si8 0.181097 0.200701 0.645455
O O1 0.353989 0.491268 0.259538
O O2 0.975498 0.765721 0.100774
O O3 0.394250 0.106384 0.103908
O O4 0.290149 0.825539 0.077741
O O5 0.558206 0.950299 0.451561
O O6 0.242089 0.029081 0.305406
O O7 0.093472 0.947967 0.384355
O O8 0.486579 0.414537 0.938659
O O9 0.243447 0.046904 0.921365
O O10 0.500000 0.500000 0.500000
O O11 0.161397 0.528083 0.369790
O O12 0.630328 0.598212 0.409024
O O13 0.127778 0.359994 0.642856
O O14 0.102535 0.009972 0.813682
O O15 0.218150 0.057330 0.166013
O O16 0.690386 0.085019 0.237724
O O17 0.000000 0.500000 0.000000
#
# Coordination Sequence:
#
# PCOD9087700 Si02
#       8
#     2   2   2   2   2   2   2   2
#     4  10  20  37  62  97 130 172 224 280 330 394
#     4   9  19  35  64  94 131 173 219 273 333 400
#     4  10  21  38  62  93 132 177 227 270 335 399
#     4  10  19  36  66 103 132 175 219 278 339 398
#     4   9  20  36  62  94 142 171 219 277 328 398
#     4  11  22  39  65  93 130 176 221 277 331 399
#     4  11  23  39  63  93 139 180 219 278 333 392
#     4  10  20  37  66  97 132 174 225 263 342 402
#
# _framework density 24.190844999999999
#
# number of rings (size 3 to 8) (size 9 to 14) (size 15 to 20)
#    0.750    1.250    2.500    1.500    0.000    2.500 
#    0.000    1.875    0.000    0.750    0.000    0.000 
#    0.000    0.000    0.000    0.000    0.000    0.000 
#
# Total GULP energy -89288.619908 kJ/mol
# GULP energy per Si atom -5580.538744 kJ/mol
# Density = 2.413579 g / cm^3
# Si number density = 24.190845 Si / 1000 Ang^3
#
#
#
# Elastic Constant Matrix: (Units=GPa)
#
#
# Indices 1 2 3 4 5 6 
#
# 1 140.0700 23.8251 57.9857 -8.0845 -1.4605 -3.2271
# 2 23.8251 85.2175 24.7254 -13.2911 -13.2967 4.5470
# 3 57.9857 24.7254 116.7186 -11.2944 -10.1491 -7.0986
# 4 -8.0845 -13.2911 -11.2944 25.4164 -9.9904 1.6535
# 5 -1.4605 -13.2967 -10.1491 -9.9904 40.5810 9.2791
# 6 -3.2271 4.5470 -7.0986 1.6535 9.2791 17.4317
#
#
#
# Elastic Compliance Matrix: (Units=1/GPa)
#
#
# Indices 1 2 3 4 5 6 
#
# 1 0.009215 -0.001810 -0.004343 -0.000781 -0.001879 0.001484
# 2 -0.001810 0.017069 -0.001233 0.013061 0.011303 -0.012545
# 3 -0.004343 -0.001233 0.011786 0.004184 0.002871 0.002392
# 4 -0.000781 0.013061 0.004184 0.058713 0.024420 -0.020416
# 5 -0.001879 0.011303 0.002871 0.024420 0.041016 -0.026277
# 6 0.001484 -0.012545 0.002392 -0.020416 -0.026277 0.077812
#
#
# Mechanical properties :
#
#
# Convention : Reuss Voigt Hill
#
# Bulk Modulus (GPa) = 42.92283 61.67539 52.29911
# Shear Modulus (GPa) = 20.99530 32.38382 26.68956
#
# Velocity S-wave (km/s) = 2.94922 3.66277 3.32519
# Velocity P-wave (km/s) = 5.42025 6.59079 6.03397
#
# Compressibility (1/GPa) = 0.02329763
#
# Stress axis : x y z
#
# Youngs Moduli (GPa) = 108.52263 58.58713 84.84378
#
# Poissons Ratio (x) = 0.10606 0.36848
# Poissons Ratio (y) = 0.19646 0.10458
# Poissons Ratio (z) = 0.47132 0.07222
#
# Static dielectric constant tensor:
#      x y z
#    x 2.018650 -0.008780 0.000010 
#    y -0.008780 1.925440 0.001450 
#    z 0.000010 0.001450 1.961910 
# 
# From -- ./inp_files/616598.got.cif
#   From: 2010.05.17/outbox.cif.g08.bks.cpg/sg2_309_cif.got.tgz:616598.got - 2010.06.03 11:33:40.
