data_PCOD9087698
_publ_section_title
;
Structure prediction by ZEFSAII (Michael W. Deem and Ramdas Pophale) SiO2 
 PCOD9087698
Probable space group: P -1
;
_chemical_formula_sum "Si O2"
_cell_formula_units_Z 16
_cell_length_a 15.786033
_cell_length_b 12.117008
_cell_length_c 12.429005
_cell_angle_alpha 72.861789
_cell_angle_beta 126.983962
_cell_angle_gamma 152.557629
_cell_volume 665.236110
_symmetry_space_group_name_H-M "P -1"
_symmetry_group_IT_number 2
_symmetry_cell_setting 'triclinic'
loop_
_space_group_symop_operation_xyz
x,y,z
-x,-y,-z
loop_
_atom_site_type_symbol
_atom_site_label
_atom_site_fract_x
_atom_site_fract_y
_atom_site_fract_z
Si Si1 0.683911 0.199238 0.292591
Si Si2 0.855941 0.659722 0.789443
Si Si3 0.176770 0.176457 0.760920
Si Si4 0.570068 0.793974 0.590596
Si Si5 0.257934 0.612243 0.031062
Si Si6 0.792912 0.555013 0.175957
Si Si7 0.573205 0.604331 0.339503
Si Si8 0.319699 0.877200 0.303973
O O1 0.669217 0.314493 0.204400
O O2 0.000000 0.500000 0.500000
O O3 0.567550 0.983401 0.184484
O O4 0.437865 0.943123 0.268138
O O5 0.704275 0.462785 0.620744
O O6 0.902672 0.603816 0.924563
O O7 0.621346 0.497546 0.722877
O O8 0.098269 0.994072 0.836381
O O9 0.274760 0.391097 0.836856
O O10 0.371699 0.334891 0.763416
O O11 0.877140 0.908144 0.548454
O O12 0.572387 0.665856 0.668645
O O13 0.582518 0.890725 0.673358
O O14 0.858163 0.106092 0.652071
O O15 0.281319 0.537365 0.979828
O O16 0.026075 0.471208 0.850097
O O17 0.500000 0.000000 0.500000
#
# Coordination Sequence:
#
# PCOD9087698 Si02
#       8
#     2   2   2   2   2   2   2   2
#     4  12  25  44  71 102 135 178 233 296 355 417
#     4  11  20  41  65  98 143 181 229 290 348 409
#     4  10  20  36  65 101 134 187 235 283 343 417
#     4  10  19  39  66  96 133 184 228 281 352 407
#     4  11  26  44  67  99 141 187 229 290 359 417
#     4  11  21  40  63  94 137 178 229 287 342 411
#     4  10  19  36  66 100 139 181 238 284 340 415
#     4  11  24  45  71  95 131 186 237 287 354 426
#
# _framework density 24.051611999999999
#
# number of rings (size 3 to 8) (size 9 to 14) (size 15 to 20)
#    0.000    1.250    2.500    5.250    0.000    0.500 
#    2.250    0.625    0.000    0.000    0.000    0.000 
#    0.000    0.000    0.000    0.000    0.000    0.000 
#
# Total GULP energy -89488.808290 kJ/mol
# GULP energy per Si atom -5593.050518 kJ/mol
# Density = 2.399687 g / cm^3
# Si number density = 24.051612 Si / 1000 Ang^3
#
#
#
# Elastic Constant Matrix: (Units=GPa)
#
#
# Indices 1 2 3 4 5 6 
#
# 1 76.5359 23.0698 26.6160 21.4769 -24.6806 -4.0546
# 2 23.0698 106.9644 39.2074 -19.7002 -14.7556 -8.0212
# 3 26.6160 39.2074 103.0704 10.9488 -6.9495 -18.1318
# 4 21.4769 -19.7002 10.9488 29.5234 -0.9141 -9.3446
# 5 -24.6806 -14.7556 -6.9495 -0.9141 36.2478 7.4349
# 6 -4.0546 -8.0212 -18.1318 -9.3446 7.4349 35.5476
#
#
#
# Elastic Compliance Matrix: (Units=1/GPa)
#
#
# Indices 1 2 3 4 5 6 
#
# 1 0.030973 -0.010439 -0.001468 -0.032131 0.018172 -0.011819
# 2 -0.010439 0.018483 -0.005827 0.024152 -0.001459 0.006662
# 3 -0.001468 -0.005827 0.013601 -0.006627 -0.001768 0.004083
# 4 -0.032131 0.024152 -0.006627 0.082766 -0.016054 0.023519
# 5 0.018172 -0.001459 -0.001768 -0.016054 0.041078 -0.011970
# 6 -0.011819 0.006662 0.004083 0.023519 -0.011970 0.039055
#
#
# Mechanical properties :
#
#
# Convention : Reuss Voigt Hill
#
# Bulk Modulus (GPa) = 36.24754 51.59522 43.92138
# Shear Modulus (GPa) = 18.47606 33.44226 25.95916
#
# Velocity S-wave (km/s) = 2.77462 3.73290 3.28885
# Velocity P-wave (km/s) = 5.03668 6.33071 5.72040
#
# Compressibility (1/GPa) = 0.02758808
#
# Stress axis : x y z
#
# Youngs Moduli (GPa) = 32.28609 54.10442 73.52602
#
# Poissons Ratio (x) = 0.56482 0.10792
# Poissons Ratio (y) = 0.33705 0.42843
# Poissons Ratio (z) = 0.04739 0.31526
#
# Static dielectric constant tensor:
#      x y z
#    x 1.925560 -0.024390 -0.024010 
#    y -0.024390 1.905620 -0.016320 
#    z -0.024010 -0.016320 2.002350 
# 
# From -- ./inp_files/452296.got.cif
#   From: 2010.05.17/outbox.cif.g08.bks.cpg/sg2_227_cif.got.tgz:452296.got - 2010.06.03 11:33:40.
