data_PCOD9087932
_publ_section_title
;
Structure prediction by ZEFSAII (Michael W. Deem and Ramdas Pophale) SiO2 
 PCOD9087932
Probable space group: P -1
;
_chemical_formula_sum "Si O2"
_cell_formula_units_Z 12
_cell_length_a 16.241263
_cell_length_b 9.615040
_cell_length_c 15.058272
_cell_angle_alpha 46.517249
_cell_angle_beta 24.701056
_cell_angle_gamma 30.602492
_cell_volume 448.963866
_symmetry_space_group_name_H-M "P -1"
_symmetry_group_IT_number 2
_symmetry_cell_setting 'triclinic'
loop_
_space_group_symop_operation_xyz
x,y,z
-x,-y,-z
loop_
_atom_site_type_symbol
_atom_site_label
_atom_site_fract_x
_atom_site_fract_y
_atom_site_fract_z
Si Si1 0.697436 0.831889 0.525796
Si Si2 0.933711 0.763433 0.985121
Si Si3 0.931285 0.955441 0.367320
Si Si4 0.236945 0.910881 0.232686
Si Si5 0.613867 0.573890 0.163166
Si Si6 0.287215 0.422729 0.547044
O O1 0.934080 0.770831 0.381776
O O2 0.485087 0.149176 0.542226
O O3 0.794686 0.616191 0.447990
O O4 0.435198 0.924638 0.800522
O O5 0.105439 0.819313 0.751387
O O6 0.048272 0.674096 0.015105
O O7 0.000000 0.500000 0.000000
O O8 0.627826 0.169771 0.636100
O O9 0.223906 0.770862 0.226991
O O10 0.043074 0.240791 0.243533
O O11 0.542458 0.723315 0.072487
O O12 0.000000 0.000000 0.500000
O O13 0.520121 0.425144 0.302012
#
# Coordination Sequence:
#
# PCOD9087932 Si02
#       6
#     2   2   2   2   2   2
#     4  11  21  34  58  89 110 143 185 229 282 322
#     4  12  21  32  61  88 107 143 191 232 268 326
#     4  10  19  37  57  82 112 142 186 231 269 320
#     4   8  18  35  63  76 107 158 179 221 281 323
#     4  10  19  38  59  81 113 148 184 228 274 327
#     4   9  19  37  54  84 115 143 183 228 280 326
#
# _framework density 26.728207000000001
#
# number of rings (size 3 to 8) (size 9 to 14) (size 15 to 20)
#    0.000    2.333    3.333    2.500    0.000    0.667 
#    0.000   10.833    0.000    9.000    0.000    0.000 
#    0.000    0.000    0.000    0.000    0.000    0.000 
#
# Total GULP energy -67088.621615 kJ/mol
# GULP energy per Si atom -5590.718468 kJ/mol
# Density = 2.666737 g / cm^3
# Si number density = 26.728207 Si / 1000 Ang^3
#
#
#
# Elastic Constant Matrix: (Units=GPa)
#
#
# Indices 1 2 3 4 5 6 
#
# 1 221.2487 33.6647 30.5930 -5.7841 -46.2578 25.8892
# 2 33.6647 60.0333 8.0855 -15.3381 -9.3885 8.5112
# 3 30.5930 8.0855 62.7518 -2.2561 -16.3916 8.1554
# 4 -5.7841 -15.3381 -2.2561 17.0071 3.8617 3.9658
# 5 -46.2578 -9.3885 -16.3916 3.8617 44.3150 0.1220
# 6 25.8892 8.5112 8.1554 3.9658 0.1220 51.7013
#
#
#
# Elastic Compliance Matrix: (Units=1/GPa)
#
#
# Indices 1 2 3 4 5 6 
#
# 1 0.006593 -0.002449 -0.000992 -0.000850 0.006078 -0.002691
# 2 -0.002449 0.024437 -0.000445 0.022053 0.000547 -0.004419
# 3 -0.000992 -0.000445 0.018274 0.000985 0.005550 -0.002401
# 4 -0.000850 0.022053 0.000985 0.081431 -0.002921 -0.009599
# 5 0.006078 0.000547 0.005550 -0.002921 0.031344 -0.003859
# 6 -0.002691 -0.004419 -0.002401 -0.009599 -0.003859 0.022541
#
#
# Mechanical properties :
#
#
# Convention : Reuss Voigt Hill
#
# Bulk Modulus (GPa) = 24.07714 54.30227 39.18971
# Shear Modulus (GPa) = 24.24411 40.71738 32.48075
#
# Velocity S-wave (km/s) = 3.01501 3.90729 3.48979
# Velocity P-wave (km/s) = 4.59871 6.38095 5.56168
#
# Compressibility (1/GPa) = 0.04153317
#
# Stress axis : x y z
#
# Youngs Moduli (GPa) = 151.67804 40.92144 54.72230
#
# Poissons Ratio (x) = 0.10021 0.05428
# Poissons Ratio (y) = 0.37142 0.02434
# Poissons Ratio (z) = 0.15046 0.01820
#
# Static dielectric constant tensor:
#      x y z
#    x 2.117760 -0.055870 0.059060 
#    y -0.055870 2.130290 -0.030680 
#    z 0.059060 -0.030680 2.130240 
# 
# From -- ./inp_files/501503.got.cif
#   From: 2010.05.17/outbox.cif.g08.bks.cpg/sg2_251_cif.got.tgz:501503.got - 2010.06.03 11:33:40.
