data_PCOD9087720
_publ_section_title
;
Structure prediction by ZEFSAII (Michael W. Deem and Ramdas Pophale) SiO2 
 PCOD9087720
Probable space group: P -1
;
_chemical_formula_sum "Si O2"
_cell_formula_units_Z 16
_cell_length_a 11.667655
_cell_length_b 13.601395
_cell_length_c 8.380676
_cell_angle_alpha 75.923871
_cell_angle_beta 124.882739
_cell_angle_gamma 133.621188
_cell_volume 763.729231
_symmetry_space_group_name_H-M "P -1"
_symmetry_group_IT_number 2
_symmetry_cell_setting 'triclinic'
loop_
_space_group_symop_operation_xyz
x,y,z
-x,-y,-z
loop_
_atom_site_type_symbol
_atom_site_label
_atom_site_fract_x
_atom_site_fract_y
_atom_site_fract_z
Si Si1 0.232611 0.668253 0.454305
Si Si2 0.164399 0.857757 0.342002
Si Si3 0.453812 0.607245 0.094453
Si Si4 0.147970 0.630182 0.782874
Si Si5 0.680949 0.860732 0.699426
Si Si6 0.224450 0.104408 0.608884
Si Si7 0.296619 0.919143 0.790336
Si Si8 0.731119 0.689919 0.996085
O O1 0.206303 0.770013 0.333515
O O2 0.187146 0.648151 0.615612
O O3 0.449428 0.740033 0.574682
O O4 0.069006 0.517137 0.304461
O O5 0.268988 0.906775 0.579723
O O6 0.248832 0.992159 0.251616
O O7 0.932230 0.757849 0.215035
O O8 0.638243 0.735297 0.291675
O O9 0.344818 0.446820 0.106777
O O10 0.302486 0.624817 0.971098
O O11 0.555544 0.636459 0.992953
O O12 0.171992 0.758342 0.806445
O O13 0.741343 0.887810 0.553858
O O14 0.772253 0.811170 0.880229
O O15 0.267508 0.021912 0.769371
O O16 0.000000 0.000000 0.500000
O O17 0.500000 0.000000 0.000000
#
# Coordination Sequence:
#
# PCOD9087720 Si02
#       8
#     2   2   2   2   2   2   2   2
#     4  10  20  37  62  93 121 162 206 261 312 359
#     4  10  21  37  59  92 126 157 209 264 306 364
#     4  11  21  39  66  92 127 162 213 260 306 376
#     4  10  19  36  66  92 122 159 210 258 307 368
#     4  11  23  40  61  91 129 165 209 256 311 376
#     4  11  25  44  63  92 130 167 206 258 317 378
#     4  10  20  37  64  91 123 164 208 249 314 375
#     4  11  23  39  66  96 122 166 213 258 315 366
#
# _framework density 20.949831
#
# number of rings (size 3 to 8) (size 9 to 14) (size 15 to 20)
#    0.000    1.500    3.750    2.250    0.000    1.500 
#    0.000    3.125    0.000    0.000    0.000    0.000 
#    0.000    0.000    0.000    0.000    0.000    0.000 
#
# Total GULP energy -89201.849153 kJ/mol
# GULP energy per Si atom -5575.115572 kJ/mol
# Density = 2.090215 g / cm^3
# Si number density = 20.949831 Si / 1000 Ang^3
#
#
#
# Elastic Constant Matrix: (Units=GPa)
#
#
# Indices 1 2 3 4 5 6 
#
# 1 64.1319 142.0673 -2.8393 30.0018 54.3883 -26.5397
# 2 142.0673 593.5721 -23.4821 135.8027 140.0509 -135.4380
# 3 -2.8393 -23.4821 91.8539 -10.1170 13.0550 8.1832
# 4 30.0018 135.8027 -10.1170 71.4954 32.1584 -16.8674
# 5 54.3883 140.0509 13.0550 32.1584 67.1907 -25.1519
# 6 -26.5397 -135.4380 8.1832 -16.8674 -25.1519 59.0117
#
#
#
# Elastic Compliance Matrix: (Units=1/GPa)
#
#
# Indices 1 2 3 4 5 6 
#
# 1 0.062924 -0.008671 0.007050 0.007560 -0.040767 -0.007793
# 2 -0.008671 0.011761 0.000625 -0.012135 -0.005349 0.017258
# 3 0.007050 0.000625 0.013259 0.002489 -0.011273 -0.001328
# 4 0.007560 -0.012135 0.002489 0.031430 -0.002702 -0.016964
# 5 -0.040767 -0.005349 -0.011273 -0.002702 0.061101 -0.003777
# 6 -0.007793 0.017258 -0.001328 -0.016964 -0.003777 0.046775
#
#
# Mechanical properties :
#
#
# Convention : Reuss Voigt Hill
#
# Bulk Modulus (GPa) = 11.63445 109.00552 60.31999
# Shear Modulus (GPa) = 19.38784 81.79368 50.59076
#
# Velocity S-wave (km/s) = 3.04541 6.25519 4.91945
# Velocity P-wave (km/s) = 4.23457 10.21345 7.81812
#
# Compressibility (1/GPa) = 0.08595163
#
# Stress axis : x y z
#
# Youngs Moduli (GPa) = 15.89217 85.02735 75.42023
#
# Poissons Ratio (x) = 0.73723 -0.53168
# Poissons Ratio (y) = 0.13779 -0.04712
# Poissons Ratio (z) = -0.11203 -0.05312
#
# Static dielectric constant tensor:
#      x y z
#    x 1.739560 -0.028520 -0.005900 
#    y -0.028520 1.785110 -0.004420 
#    z -0.005900 -0.004420 1.733060 
# 
# From -- ./inp_files/272713.got.cif
#   From: 2010.05.17/outbox.cif.g08.bks.cpg/sg2_137_cif.got.tgz:272713.got - 2010.06.03 11:33:40.
