data_PCOD9087392
_publ_section_title
;
Structure prediction by ZEFSAII (Michael W. Deem and Ramdas Pophale) SiO2 
 PCOD9087392
Probable space group: P -1
;
_chemical_formula_sum "Si O2"
_cell_formula_units_Z 14
_cell_length_a 12.544330
_cell_length_b 10.497035
_cell_length_c 8.633832
_cell_angle_alpha 105.530457
_cell_angle_beta 47.409410
_cell_angle_gamma 69.891900
_cell_volume 542.293818
_symmetry_space_group_name_H-M "P -1"
_symmetry_group_IT_number 2
_symmetry_cell_setting 'triclinic'
loop_
_space_group_symop_operation_xyz
x,y,z
-x,-y,-z
loop_
_atom_site_type_symbol
_atom_site_label
_atom_site_fract_x
_atom_site_fract_y
_atom_site_fract_z
Si Si1 0.750964 0.209803 0.924832
Si Si2 0.788399 0.725002 0.315969
Si Si3 0.874512 0.210720 0.491473
Si Si4 0.908186 0.833488 0.012796
Si Si5 0.357263 0.446385 0.595645
Si Si6 0.562028 0.251264 0.639690
Si Si7 0.617273 0.039426 0.804469
O O1 0.805885 0.276097 0.756559
O O2 0.690045 0.113458 0.862514
O O3 0.565648 0.366125 0.280262
O O4 0.971187 0.022347 0.731980
O O5 0.633730 0.714314 0.521601
O O6 0.800303 0.832440 0.465317
O O7 0.000000 0.500000 0.000000
O O8 0.753655 0.819776 0.216638
O O9 0.013983 0.219125 0.258167
O O10 0.662242 0.313764 0.640669
O O11 0.134518 0.662620 0.828083
O O12 0.764343 0.055435 0.276343
O O13 0.383171 0.403142 0.738467
O O14 0.502776 0.191280 0.819064
O O15 0.500000 0.000000 0.000000
#
# Coordination Sequence:
#
# PCOD9087392 Si02
#       7
#     2   2   2   2   2   2   2
#     4  10  21  36  62  85 121 162 197 249 301 357
#     4   9  20  37  60  92 122 147 200 255 292 356
#     4  10  21  40  57  86 122 160 203 248 297 354
#     4  10  21  36  61  86 119 156 199 250 295 354
#     4  11  21  37  63  89 118 159 203 247 304 354
#     4  10  22  38  60  89 120 156 208 249 291 359
#     4  10  19  36  63  90 117 162 200 241 307 365
#
# _framework density 25.816265000000001
#
# number of rings (size 3 to 8) (size 9 to 14) (size 15 to 20)
#    0.000    2.000    2.857    0.429    0.000    4.571 
#    0.000    0.000   22.000    9.429    0.000    0.000 
#    0.000    0.000    0.000    0.000    0.000    0.000 
#
# Total GULP energy -78140.486962 kJ/mol
# GULP energy per Si atom -5581.463354 kJ/mol
# Density = 2.575751 g / cm^3
# Si number density = 25.816265 Si / 1000 Ang^3
#
#
#
# Elastic Constant Matrix: (Units=GPa)
#
#
# Indices 1 2 3 4 5 6 
#
# 1 60.6650 23.5204 13.2028 10.0198 12.5766 -10.8082
# 2 23.5204 133.7104 54.4595 -30.3550 -2.9561 -13.8961
# 3 13.2028 54.4595 148.0933 -24.9156 10.4644 -7.5450
# 4 10.0198 -30.3550 -24.9156 46.9598 3.7848 -7.7651
# 5 12.5766 -2.9561 10.4644 3.7848 39.8617 8.3692
# 6 -10.8082 -13.8961 -7.5450 -7.7651 8.3692 41.8829
#
#
#
# Elastic Compliance Matrix: (Units=1/GPa)
#
#
# Indices 1 2 3 4 5 6 
#
# 1 0.021906 -0.004918 -0.000576 -0.006889 -0.007333 0.004105
# 2 -0.004918 0.011410 -0.002453 0.007506 0.001671 0.003132
# 3 -0.000576 -0.002453 0.008631 0.003669 -0.003008 0.001874
# 4 -0.006889 0.007506 0.003669 0.031061 -0.002797 0.007691
# 5 -0.007333 0.001671 -0.003008 -0.002797 0.030356 -0.008464
# 6 0.004105 0.003132 0.001874 0.007691 -0.008464 0.029430
#
#
# Mechanical properties :
#
#
# Convention : Reuss Voigt Hill
#
# Bulk Modulus (GPa) = 38.38446 58.31491 48.34969
# Shear Modulus (GPa) = 31.77205 42.49329 37.13267
#
# Velocity S-wave (km/s) = 3.51194 4.06148 3.79667
# Velocity P-wave (km/s) = 5.59871 6.68069 6.16349
#
# Compressibility (1/GPa) = 0.02605221
#
# Stress axis : x y z
#
# Youngs Moduli (GPa) = 45.65063 87.64569 115.85928
#
# Poissons Ratio (x) = 0.43104 0.06674
# Poissons Ratio (y) = 0.22451 0.28419
# Poissons Ratio (z) = 0.02630 0.21499
#
# Static dielectric constant tensor:
#      x y z
#    x 2.101470 0.092340 -0.000920 
#    y 0.092340 2.131580 -0.017140 
#    z -0.000920 -0.017140 2.048420 
# 
# From -- ./inp_files/170628.got.cif
#   From: 2010.05.17/outbox.cif.g08.bks.cpg/sg2_86_cif.got.tgz:170628.got - 2010.06.03 11:33:40.
