data_PCOD9087660
_publ_section_title
;
Structure prediction by ZEFSAII (Michael W. Deem and Ramdas Pophale) SiO2 
 PCOD9087660
Probable space group: P -1
;
_chemical_formula_sum "Si O2"
_cell_formula_units_Z 16
_cell_length_a 8.101232
_cell_length_b 13.561282
_cell_length_c 21.368373
_cell_angle_alpha 157.894154
_cell_angle_beta 58.667282
_cell_angle_gamma 109.441486
_cell_volume 668.712703
_symmetry_space_group_name_H-M "P -1"
_symmetry_group_IT_number 2
_symmetry_cell_setting 'triclinic'
loop_
_space_group_symop_operation_xyz
x,y,z
-x,-y,-z
loop_
_atom_site_type_symbol
_atom_site_label
_atom_site_fract_x
_atom_site_fract_y
_atom_site_fract_z
Si Si1 0.478952 0.685596 0.176535
Si Si2 0.904130 0.758035 0.452073
Si Si3 0.265737 0.978442 0.812011
Si Si4 0.342299 0.193707 0.215609
Si Si5 0.036754 0.266164 0.436357
Si Si6 0.120142 0.209780 0.849845
Si Si7 0.400592 0.362506 0.103538
Si Si8 0.656823 0.437722 0.342697
O O1 0.633013 0.839816 0.232991
O O2 0.536108 0.486627 0.110115
O O3 0.231924 0.942095 0.381688
O O4 0.500000 0.500000 0.000000
O O5 0.810545 0.525854 0.322656
O O6 0.842023 0.836882 0.583181
O O7 0.162144 0.616961 0.316124
O O8 0.462884 0.718687 0.581513
O O9 0.203348 0.795611 0.767636
O O10 0.094475 0.196645 0.922967
O O11 0.351000 0.163319 0.946004
O O12 0.157851 0.399854 0.325529
O O13 0.525593 0.300112 0.249594
O O14 0.201933 0.256370 0.344615
O O15 0.468245 0.839768 0.983031
O O16 0.931145 0.050515 0.315768
O O17 0.000000 0.500000 0.000000
#
# Coordination Sequence:
#
# PCOD9087660 Si02
#       8
#     2   2   2   2   2   2   2   2
#     4  12  22  44  68  89 117 161 219 257 292 362
#     4  12  24  39  63  92 130 161 203 251 317 372
#     4  10  19  36  65  90 117 152 213 255 294 356
#     4  10  21  40  65  90 127 159 215 255 301 359
#     4  11  23  38  63  95 122 165 202 260 306 361
#     4  12  23  38  66  94 122 152 209 263 307 353
#     4  11  24  39  62  94 123 165 203 257 312 365
#     4  10  19  39  65  92 115 163 212 257 292 356
#
# _framework density 23.926569000000001
#
# number of rings (size 3 to 8) (size 9 to 14) (size 15 to 20)
#    0.000    1.000    3.750    4.875    1.750    2.500 
#    0.000    0.625    8.250    0.000    0.000    0.000 
#    0.000    0.000    0.000    0.000    0.000    0.000 
#
# Total GULP energy -89395.875345 kJ/mol
# GULP energy per Si atom -5587.242209 kJ/mol
# Density = 2.387211 g / cm^3
# Si number density = 23.926569 Si / 1000 Ang^3
#
#
#
# Elastic Constant Matrix: (Units=GPa)
#
#
# Indices 1 2 3 4 5 6 
#
# 1 82.7107 14.6357 13.8892 14.9243 -3.8261 4.2154
# 2 14.6357 71.1935 25.8804 18.4128 3.2170 2.3631
# 3 13.8892 25.8804 60.1160 13.0532 -25.4339 -7.4677
# 4 14.9243 18.4128 13.0532 36.0772 0.1936 -10.9993
# 5 -3.8261 3.2170 -25.4339 0.1936 37.9144 11.7287
# 6 4.2154 2.3631 -7.4677 -10.9993 11.7287 44.6055
#
#
#
# Elastic Compliance Matrix: (Units=1/GPa)
#
#
# Indices 1 2 3 4 5 6 
#
# 1 0.013750 -0.000822 -0.001261 -0.005842 0.001677 -0.003349
# 2 -0.000822 0.020415 -0.010989 -0.006756 -0.008444 -0.002289
# 3 -0.001261 -0.010989 0.032643 -0.006255 0.023191 -0.001474
# 4 -0.005842 -0.006756 -0.006255 0.039458 -0.008035 0.011706
# 5 0.001677 -0.008444 0.023191 -0.008035 0.045916 -0.009883
# 6 -0.003349 -0.002289 -0.001474 0.011706 -0.009883 0.028095
#
#
# Mechanical properties :
#
#
# Convention : Reuss Voigt Hill
#
# Bulk Modulus (GPa) = 24.59121 35.87010 30.23066
# Shear Modulus (GPa) = 22.72986 34.36040 28.54513
#
# Velocity S-wave (km/s) = 3.08552 3.79367 3.45777
# Velocity P-wave (km/s) = 4.79521 5.84924 5.34825
#
# Compressibility (1/GPa) = 0.04066493
#
# Stress axis : x y z
#
# Youngs Moduli (GPa) = 72.72769 48.98444 30.63431
#
# Poissons Ratio (x) = 0.04027 0.03862
# Poissons Ratio (y) = 0.05978 0.33663
# Poissons Ratio (z) = 0.09169 0.53827
#
# Static dielectric constant tensor:
#      x y z
#    x 1.913590 -0.000340 -0.023030 
#    y -0.000340 1.913940 0.013830 
#    z -0.023030 0.013830 1.994990 
# 
# From -- ./inp_files/608204.got.cif
#   From: 2010.05.17/outbox.cif.g08.bks.cpg/sg2_305_cif.got.tgz:608204.got - 2010.06.03 11:33:40.
