data_PCOD9087756
_publ_section_title
;
Structure prediction by ZEFSAII (Michael W. Deem and Ramdas Pophale) SiO2 
 PCOD9087756
Probable space group: P -1
;
_chemical_formula_sum "Si O2"
_cell_formula_units_Z 16
_cell_length_a 7.350611
_cell_length_b 11.683235
_cell_length_c 11.392887
_cell_angle_alpha 49.477425
_cell_angle_beta 64.084091
_cell_angle_gamma 70.221757
_cell_volume 666.823166
_symmetry_space_group_name_H-M "P -1"
_symmetry_group_IT_number 2
_symmetry_cell_setting 'triclinic'
loop_
_space_group_symop_operation_xyz
x,y,z
-x,-y,-z
loop_
_atom_site_type_symbol
_atom_site_label
_atom_site_fract_x
_atom_site_fract_y
_atom_site_fract_z
Si Si1 0.231134 0.783414 0.981339
Si Si2 0.489304 0.985061 0.653745
Si Si3 0.716248 0.472642 0.030293
Si Si4 0.449848 0.829198 0.126579
Si Si5 0.839838 0.483763 0.656298
Si Si6 0.387366 0.471499 0.711347
Si Si7 0.159124 0.267852 0.311493
Si Si8 0.251024 0.783790 0.444124
O O1 0.275898 0.946445 0.799807
O O2 0.217589 0.692042 0.925073
O O3 0.400592 0.791520 0.030995
O O4 0.107597 0.664551 0.176459
O O5 0.653144 0.839759 0.716901
O O6 0.500000 0.000000 0.500000
O O7 0.579792 0.126711 0.596975
O O8 0.686523 0.487108 0.165327
O O9 0.500000 0.500000 0.000000
O O10 0.863018 0.597998 0.866121
O O11 0.627851 0.703835 0.199193
O O12 0.267622 0.822083 0.276796
O O13 0.500000 0.000000 0.000000
O O14 0.627847 0.474926 0.655938
O O15 0.806564 0.633309 0.647227
O O16 0.000000 0.500000 0.500000
O O17 0.295908 0.603728 0.567114
O O18 0.964415 0.180164 0.456098
#
# Coordination Sequence:
#
# PCOD9087756 Si02
#       8
#     2   2   2   2   2   2   2   2
#     4  10  19  37  62  92 119 168 213 250 320 387
#     4  12  23  40  65  89 130 170 217 262 317 391
#     4  11  17  37  69  88 120 165 212 262 313 379
#     4  11  21  39  62  86 129 171 205 250 323 386
#     4  10  19  36  67  90 120 165 217 262 313 382
#     4  11  22  41  63  97 124 167 221 255 320 387
#     4  11  21  38  61  96 124 164 211 265 326 374
#     4  12  26  38  62  95 132 165 209 270 321 379
#
# _framework density 23.994368000000001
#
# number of rings (size 3 to 8) (size 9 to 14) (size 15 to 20)
#    0.000    1.000    6.250    3.750    0.000    0.500 
#    0.000    0.000    2.750    2.250    0.000    0.000 
#    0.000    0.000    0.000    0.000    0.000    0.000 
#
# Total GULP energy -89093.108764 kJ/mol
# GULP energy per Si atom -5568.319298 kJ/mol
# Density = 2.393976 g / cm^3
# Si number density = 23.994368 Si / 1000 Ang^3
#
#
#
# Elastic Constant Matrix: (Units=GPa)
#
#
# Indices 1 2 3 4 5 6 
#
# 1 33.3618 12.8898 9.6210 3.9079 -5.9353 -2.9184
# 2 12.8898 115.0463 48.9639 -5.1582 -0.0846 12.6724
# 3 9.6210 48.9639 154.6248 14.3459 -9.8466 3.8346
# 4 3.9079 -5.1582 14.3459 53.1303 0.4232 0.0960
# 5 -5.9353 -0.0846 -9.8466 0.4232 23.1268 3.0619
# 6 -2.9184 12.6724 3.8346 0.0960 3.0619 18.2087
#
#
#
# Elastic Compliance Matrix: (Units=1/GPa)
#
#
# Indices 1 2 3 4 5 6 
#
# 1 0.034237 -0.004788 -0.000019 -0.003054 0.007821 0.007524
# 2 -0.004788 0.011723 -0.003556 0.002478 -0.001699 -0.007904
# 3 -0.000019 -0.003556 0.008043 -0.002543 0.003425 0.000216
# 4 -0.003054 0.002478 -0.002543 0.019992 -0.002032 -0.001442
# 5 0.007821 -0.001699 0.003425 -0.002032 0.047567 -0.006273
# 6 0.007524 -0.007904 0.000216 -0.001442 -0.006273 0.062643
#
#
# Mechanical properties :
#
#
# Convention : Reuss Voigt Hill
#
# Bulk Modulus (GPa) = 26.82680 49.55358 38.19019
# Shear Modulus (GPa) = 23.43491 34.33038 28.88264
#
# Velocity S-wave (km/s) = 3.12858 3.78665 3.47324
# Velocity P-wave (km/s) = 4.92498 6.30994 5.65998
#
# Compressibility (1/GPa) = 0.03727615
#
# Stress axis : x y z
#
# Youngs Moduli (GPa) = 29.20814 85.30490 124.32658
#
# Poissons Ratio (x) = 0.40841 0.00242
# Poissons Ratio (y) = 0.13984 0.44215
# Poissons Ratio (z) = 0.00057 0.30337
#
# Static dielectric constant tensor:
#      x y z
#    x 1.993040 -0.062370 -0.055120 
#    y -0.062370 2.000270 -0.031560 
#    z -0.055120 -0.031560 2.020270 
# 
# From -- ./inp_files/392022.got.cif
#   From: 2010.05.17/outbox.cif.g08.bks.cpg/sg2_197_cif.got.tgz:392022.got - 2010.06.03 11:33:40.
