data_PCOD9087118
_publ_section_title
;
Structure prediction by ZEFSAII (Michael W. Deem and Ramdas Pophale) SiO2 
 PCOD9087118
Probable space group: P -1
;
_chemical_formula_sum "Si O2"
_cell_formula_units_Z 12
_cell_length_a 9.450454
_cell_length_b 11.251698
_cell_length_c 11.327446
_cell_angle_alpha 140.676017
_cell_angle_beta 36.629059
_cell_angle_gamma 125.649887
_cell_volume 453.100463
_symmetry_space_group_name_H-M "P -1"
_symmetry_group_IT_number 2
_symmetry_cell_setting 'triclinic'
loop_
_space_group_symop_operation_xyz
x,y,z
-x,-y,-z
loop_
_atom_site_type_symbol
_atom_site_label
_atom_site_fract_x
_atom_site_fract_y
_atom_site_fract_z
Si Si1 0.602990 0.364836 0.559129
Si Si2 0.232726 0.461900 0.185967
Si Si3 0.394366 0.042425 0.731992
Si Si4 0.055799 0.418985 0.032694
Si Si5 0.433058 0.708574 0.776267
Si Si6 0.719016 0.007542 0.696982
O O1 0.765938 0.454958 0.617848
O O2 0.707219 0.149352 0.306052
O O3 0.545140 0.506049 0.595807
O O4 0.334257 0.347025 0.774996
O O5 0.067370 0.531719 0.237149
O O6 0.500000 0.500000 0.000000
O O7 0.229369 0.235801 0.009097
O O8 0.620644 0.064403 0.679338
O O9 0.500000 0.000000 0.500000
O O10 0.839002 0.289330 0.087399
O O11 0.000000 0.500000 0.000000
O O12 0.616920 0.813033 0.654550
O O13 0.394993 0.835494 0.016852
O O14 0.000000 0.000000 0.500000
#
# Coordination Sequence:
#
# PCOD9087118 Si02
#       6
#     2   2   2   2   2   2
#     4  10  20  39  67  97 139 183 226 283 345 408
#     4  10  19  36  61  99 138 182 227 279 345 411
#     4  12  22  37  66 101 136 181 234 278 342 420
#     4   9  18  33  64  96 127 183 222 267 349 405
#     4  10  22  45  68  98 142 182 229 290 349 404
#     4  11  25  43  69 104 136 181 238 289 344 419
#
# _framework density 26.484190999999999
#
# number of rings (size 3 to 8) (size 9 to 14) (size 15 to 20)
#    0.000    1.667    5.000    1.000    0.000    0.667 
#    0.000    2.500    0.000    2.000    0.000    0.000 
#    0.000    0.000    0.000    0.000    0.000    0.000 
#
# Total GULP energy -67075.905357 kJ/mol
# GULP energy per Si atom -5589.658780 kJ/mol
# Density = 2.642391 g / cm^3
# Si number density = 26.484191 Si / 1000 Ang^3
#
#
#
# Elastic Constant Matrix: (Units=GPa)
#
#
# Indices 1 2 3 4 5 6 
#
# 1 231.5581 52.6479 21.6828 -11.5456 5.8299 6.3291
# 2 52.6479 164.4152 51.9956 3.9457 -19.7953 13.9986
# 3 21.6828 51.9956 80.6317 9.8782 -2.3319 12.0529
# 4 -11.5456 3.9457 9.8782 54.9503 10.8586 -3.0543
# 5 5.8299 -19.7953 -2.3319 10.8586 43.2824 -10.6705
# 6 6.3291 13.9986 12.0529 -3.0543 -10.6705 56.8006
#
#
#
# Elastic Compliance Matrix: (Units=1/GPa)
#
#
# Indices 1 2 3 4 5 6 
#
# 1 0.004874 -0.001663 -0.000441 0.001584 -0.001916 -0.000314
# 2 -0.001663 0.008700 -0.004902 -0.000918 0.004121 -0.000194
# 3 -0.000441 -0.004902 0.016346 -0.002567 -0.001297 -0.002593
# 4 0.001584 -0.000918 -0.002567 0.020217 -0.005693 0.000612
# 5 -0.001916 0.004121 -0.001297 -0.005693 0.027682 0.004367
# 6 -0.000314 -0.000194 -0.002593 0.000612 0.004367 0.019092
#
#
# Mechanical properties :
#
#
# Convention : Reuss Voigt Hill
#
# Bulk Modulus (GPa) = 62.86159 81.02864 71.94511
# Shear Modulus (GPa) = 43.01986 54.35858 48.68922
#
# Velocity S-wave (km/s) = 4.03471 4.53536 4.29234
# Velocity P-wave (km/s) = 6.74479 7.62151 7.19652
#
# Compressibility (1/GPa) = 0.01590797
#
# Stress axis : x y z
#
# Youngs Moduli (GPa) = 205.18020 114.94557 61.17598
#
# Poissons Ratio (x) = 0.19118 0.02695
# Poissons Ratio (y) = 0.34126 0.29990
# Poissons Ratio (z) = 0.09038 0.56349
#
# Static dielectric constant tensor:
#      x y z
#    x 2.134050 -0.044910 0.087740 
#    y -0.044910 2.154150 0.047970 
#    z 0.087740 0.047970 2.174570 
# 
# From -- ./inp_files/388484.got.cif
#   From: 2010.05.17/outbox.cif.g08.bks.cpg/sg2_195_cif.got.tgz:388484.got - 2010.06.03 11:33:40.
