data_PCOD9087023
_publ_section_title
;
Structure prediction by ZEFSAII (Michael W. Deem and Ramdas Pophale) SiO2 
 PCOD9087023
Probable space group: P -1
;
_chemical_formula_sum "Si O2"
_cell_formula_units_Z 14
_cell_length_a 15.643745
_cell_length_b 7.858253
_cell_length_c 9.466646
_cell_angle_alpha 109.928620
_cell_angle_beta 38.541732
_cell_angle_gamma 130.455820
_cell_volume 516.535208
_symmetry_space_group_name_H-M "P -1"
_symmetry_group_IT_number 2
_symmetry_cell_setting 'triclinic'
loop_
_space_group_symop_operation_xyz
x,y,z
-x,-y,-z
loop_
_atom_site_type_symbol
_atom_site_label
_atom_site_fract_x
_atom_site_fract_y
_atom_site_fract_z
Si Si1 0.699649 0.506493 0.038896
Si Si2 0.290424 0.080919 0.351537
Si Si3 0.748909 0.160311 0.936276
Si Si4 0.636406 0.264357 0.542719
Si Si5 0.111756 0.781175 0.943422
Si Si6 0.775173 0.708295 0.284838
Si Si7 0.286626 0.390014 0.245268
O O1 0.506472 0.274165 0.159584
O O2 0.791169 0.408749 0.958248
O O3 0.692554 0.636546 0.214869
O O4 0.787615 0.664787 0.831223
O O5 0.224812 0.093225 0.590248
O O6 0.210731 0.171462 0.381149
O O7 0.249907 0.881582 0.243708
O O8 0.866802 0.160503 0.901160
O O9 0.553277 0.946240 0.196907
O O10 0.707191 0.140881 0.343888
O O11 0.659640 0.455974 0.456771
O O12 0.735922 0.437028 0.599779
O O13 0.000000 0.500000 0.000000
O O14 0.979588 0.813325 0.057642
O O15 0.500000 0.500000 0.000000
#
# Coordination Sequence:
#
# PCOD9087023 Si02
#       7
#     2   2   2   2   2   2   2
#     4  11  20  36  63  94 121 151 204 250 295 356
#     4  10  22  38  62  92 121 155 202 251 302 345
#     4  12  21  36  66  97 115 152 207 260 285 347
#     4  10  19  36  61  89 116 159 200 245 294 348
#     4  10  21  39  58  87 125 164 196 237 305 370
#     4  10  22  40  62  87 124 168 193 237 306 370
#     4   9  18  36  59  86 126 154 191 246 306 354
#
# _framework density 27.103672
#
# number of rings (size 3 to 8) (size 9 to 14) (size 15 to 20)
#    0.000    1.714    5.714    1.286    0.000    0.571 
#    0.000    0.714    0.000    3.429    0.000    0.000 
#    0.000    0.000    0.000    0.000    0.000    0.000 
#
# Total GULP energy -78145.340152 kJ/mol
# GULP energy per Si atom -5581.810011 kJ/mol
# Density = 2.704198 g / cm^3
# Si number density = 27.103672 Si / 1000 Ang^3
#
#
#
# Elastic Constant Matrix: (Units=GPa)
#
#
# Indices 1 2 3 4 5 6 
#
# 1 146.8708 26.7024 39.6679 12.7238 34.5607 4.0908
# 2 26.7024 60.7364 45.4215 21.5651 13.1463 16.5904
# 3 39.6679 45.4215 73.2860 38.2019 17.4700 10.0024
# 4 12.7238 21.5651 38.2019 50.4643 8.9977 21.3620
# 5 34.5607 13.1463 17.4700 8.9977 58.1757 12.4840
# 6 4.0908 16.5904 10.0024 21.3620 12.4840 29.7663
#
#
#
# Elastic Compliance Matrix: (Units=1/GPa)
#
#
# Indices 1 2 3 4 5 6 
#
# 1 0.008977 -0.000572 -0.004473 0.001611 -0.004382 0.001270
# 2 -0.000572 0.039234 -0.029472 0.015394 0.003148 -0.024253
# 3 -0.004473 -0.029472 0.050316 -0.035075 -0.006372 0.027977
# 4 0.001611 0.015394 -0.035075 0.054747 0.005957 -0.038803
# 5 -0.004382 0.003148 -0.006372 0.005957 0.022834 -0.012862
# 6 0.001270 -0.024253 0.027977 -0.038803 -0.012862 0.070779
#
#
# Mechanical properties :
#
#
# Convention : Reuss Voigt Hill
#
# Bulk Modulus (GPa) = 33.90470 56.05300 44.97885
# Shear Modulus (GPa) = 15.34913 38.95468 27.15190
#
# Velocity S-wave (km/s) = 2.38231 3.79522 3.16852
# Velocity P-wave (km/s) = 4.48371 6.31908 5.47880
#
# Compressibility (1/GPa) = 0.02949444
#
# Stress axis : x y z
#
# Youngs Moduli (GPa) = 111.39518 25.48808 19.87430
#
# Poissons Ratio (x) = 0.01458 0.08890
# Poissons Ratio (y) = 0.06372 0.58573
# Poissons Ratio (z) = 0.49826 0.75117
#
# Static dielectric constant tensor:
#      x y z
#    x 2.172810 0.016940 -0.005500 
#    y 0.016940 2.177050 -0.023490 
#    z -0.005500 -0.023490 2.339060 
# 
# From -- ./inp_files/296004.got.cif
#   From: 2010.05.17/outbox.cif.g08.bks.cpg/sg2_149_cif.got.tgz:296004.got - 2010.06.03 11:33:40.
