data_PCOD9087928
_publ_section_title
;
Structure prediction by ZEFSAII (Michael W. Deem and Ramdas Pophale) SiO2 
 PCOD9087928
Probable space group: P -1
;
_chemical_formula_sum "Si O2"
_cell_formula_units_Z 14
_cell_length_a 11.168080
_cell_length_b 8.658402
_cell_length_c 11.037312
_cell_angle_alpha 101.927761
_cell_angle_beta 127.916629
_cell_angle_gamma 116.745918
_cell_volume 547.142762
_symmetry_space_group_name_H-M "P -1"
_symmetry_group_IT_number 2
_symmetry_cell_setting 'triclinic'
loop_
_space_group_symop_operation_xyz
x,y,z
-x,-y,-z
loop_
_atom_site_type_symbol
_atom_site_label
_atom_site_fract_x
_atom_site_fract_y
_atom_site_fract_z
Si Si1 0.326993 0.024127 0.567166
Si Si2 0.321567 0.484160 0.010916
Si Si3 0.912490 0.385862 0.794335
Si Si4 0.764728 0.897683 0.970587
Si Si5 0.866936 0.597008 0.355206
Si Si6 0.919287 0.283828 0.258496
Si Si7 0.297310 0.218464 0.347450
O O1 0.327172 0.153368 0.481555
O O2 0.117834 0.842805 0.502044
O O3 0.526753 0.248298 0.812448
O O4 0.319832 0.857091 0.455539
O O5 0.068102 0.353011 0.861321
O O6 0.345302 0.347778 0.085251
O O7 0.304135 0.446417 0.848457
O O8 0.978040 0.583318 0.783776
O O9 0.000000 0.500000 0.000000
O O10 0.693560 0.877770 0.786023
O O11 0.727565 0.008368 0.061326
O O12 0.039740 0.086424 0.168896
O O13 0.836254 0.385465 0.279316
O O14 0.889731 0.637439 0.518961
O O15 0.500000 0.500000 0.500000
#
# Coordination Sequence:
#
# PCOD9087928 Si02
#       7
#     2   2   2   2   2   2   2
#     4  10  19  37  57  81 111 154 184 233 282 333
#     4  10  20  36  59  80 112 152 189 229 285 332
#     4  10  21  38  58  83 115 146 187 236 282 338
#     4  11  21  36  59  86 112 150 189 234 286 338
#     4   9  20  42  57  79 116 149 189 239 275 334
#     4   9  20  38  62  81 112 152 187 232 288 328
#     4  11  21  34  56  85 121 143 184 234 288 331
#
# _framework density 25.587472999999999
#
# number of rings (size 3 to 8) (size 9 to 14) (size 15 to 20)
#    0.000    2.286    4.286    0.857    2.000    1.143 
#    0.000   20.714    0.000    0.000    0.000    0.000 
#    0.000    0.000    0.000    0.000    0.000    0.000 
#
# Total GULP energy -78088.146524 kJ/mol
# GULP energy per Si atom -5577.724752 kJ/mol
# Density = 2.552923 g / cm^3
# Si number density = 25.587473 Si / 1000 Ang^3
#
#
#
# Elastic Constant Matrix: (Units=GPa)
#
#
# Indices 1 2 3 4 5 6 
#
# 1 43.5692 29.9983 23.0227 -0.4392 -0.4561 21.3464
# 2 29.9983 110.1443 44.7501 -13.8258 -21.0561 4.4580
# 3 23.0227 44.7501 153.0642 3.0498 -39.1519 17.4185
# 4 -0.4392 -13.8258 3.0498 61.5956 5.0123 -16.1008
# 5 -0.4561 -21.0561 -39.1519 5.0123 37.9046 -6.3850
# 6 21.3464 4.4580 17.4185 -16.1008 -6.3850 26.2783
#
#
#
# Elastic Compliance Matrix: (Units=1/GPa)
#
#
# Indices 1 2 3 4 5 6 
#
# 1 0.081580 -0.026371 -0.001232 -0.024719 -0.025540 -0.082330
# 2 -0.026371 0.019640 -0.002345 0.011030 0.011635 0.029230
# 3 -0.001232 -0.002345 0.010334 -0.003132 0.008893 -0.005210
# 4 -0.024719 0.011030 -0.003132 0.028452 0.005407 0.039031
# 5 -0.025540 0.011635 0.008893 0.005407 0.045603 0.027271
# 6 -0.082330 0.029230 -0.005210 0.039031 0.027271 0.133967
#
#
# Mechanical properties :
#
#
# Convention : Reuss Voigt Hill
#
# Bulk Modulus (GPa) = 19.35825 55.81332 37.58578
# Shear Modulus (GPa) = 12.60421 39.08949 25.84685
#
# Velocity S-wave (km/s) = 2.22185 3.91280 3.18171
# Velocity P-wave (km/s) = 3.76352 6.50180 5.31213
#
# Compressibility (1/GPa) = 0.05165757
#
# Stress axis : x y z
#
# Youngs Moduli (GPa) = 12.25787 50.91637 96.76531
#
# Poissons Ratio (x) = 1.34273 0.11920
# Poissons Ratio (y) = 0.32326 0.22695
# Poissons Ratio (z) = 0.01510 0.11942
#
# Static dielectric constant tensor:
#      x y z
#    x 2.138320 0.000310 -0.006270 
#    y 0.000310 1.988930 0.008980 
#    z -0.006270 0.008980 2.090290 
# 
# From -- ./inp_files/446135.got.cif
#   From: 2010.05.17/outbox.cif.g08.bks.cpg/sg2_224_cif.got.tgz:446135.got - 2010.06.03 11:33:40.
