data_PCOD9087075
_publ_section_title
;
Structure prediction by ZEFSAII (Michael W. Deem and Ramdas Pophale) SiO2 
 PCOD9087075
Probable space group: P -1
;
_chemical_formula_sum "Si O2"
_cell_formula_units_Z 16
_cell_length_a 6.705046
_cell_length_b 11.409874
_cell_length_c 12.620080
_cell_angle_alpha 71.896419
_cell_angle_beta 45.881001
_cell_angle_gamma 77.507690
_cell_volume 658.804237
_symmetry_space_group_name_H-M "P -1"
_symmetry_group_IT_number 2
_symmetry_cell_setting 'triclinic'
loop_
_space_group_symop_operation_xyz
x,y,z
-x,-y,-z
loop_
_atom_site_type_symbol
_atom_site_label
_atom_site_fract_x
_atom_site_fract_y
_atom_site_fract_z
Si Si1 0.829022 0.532746 0.386836
Si Si2 0.226759 0.657664 0.363153
Si Si3 0.223991 0.112088 0.377295
Si Si4 0.802170 0.510985 0.172399
Si Si5 0.508320 0.068750 0.809993
Si Si6 0.065198 0.035006 0.145145
Si Si7 0.864804 0.241877 0.312531
Si Si8 0.655375 0.874905 0.438913
O O1 0.500000 0.500000 0.500000
O O2 0.892712 0.409669 0.467928
O O3 0.926902 0.564646 0.221886
O O4 0.980440 0.636952 0.373370
O O5 0.502374 0.576504 0.247659
O O6 0.353114 0.795701 0.291694
O O7 0.755360 0.831154 0.529964
O O8 0.122649 0.212279 0.301744
O O9 0.479879 0.031834 0.260623
O O10 0.000000 0.000000 0.500000
O O11 0.789218 0.370609 0.255164
O O12 0.000000 0.500000 0.000000
O O13 0.699460 0.999165 0.845595
O O14 0.207716 0.073883 0.973197
O O15 0.881526 0.911878 0.259633
O O16 0.909754 0.150255 0.222982
O O17 0.590360 0.207118 0.489833
O O18 0.500000 0.000000 0.500000
#
# Coordination Sequence:
#
# PCOD9087075 Si02
#       8
#     2   2   2   2   2   2   2   2
#     4   9  22  43  64  93 125 161 227 273 322 386
#     4  10  22  41  65  92 125 173 218 266 325 389
#     4  11  20  38  62  94 119 163 206 258 318 386
#     4  11  24  42  64  93 132 173 221 274 324 380
#     4  10  20  36  61  86 126 158 201 253 320 379
#     4   9  19  35  56  90 119 158 193 251 312 371
#     4  10  22  38  63  88 125 165 212 258 314 384
#     4  10  19  36  61  91 126 154 209 249 312 388
#
# _framework density 24.286425000000001
#
# number of rings (size 3 to 8) (size 9 to 14) (size 15 to 20)
#    0.000    2.000    3.750    0.750    1.750    4.500 
#    0.000   12.500    0.000    1.500    0.000    0.000 
#    0.000    0.000    0.000    0.000    0.000    0.000 
#
# Total GULP energy -89149.387667 kJ/mol
# GULP energy per Si atom -5571.836729 kJ/mol
# Density = 2.423115 g / cm^3
# Si number density = 24.286425 Si / 1000 Ang^3
#
#
#
# Elastic Constant Matrix: (Units=GPa)
#
#
# Indices 1 2 3 4 5 6 
#
# 1 125.4666 39.3992 46.8244 8.3776 17.3343 11.3287
# 2 39.3992 137.9508 38.4564 7.3522 0.9255 9.7901
# 3 46.8244 38.4564 140.7415 17.3448 17.5133 16.6215
# 4 8.3776 7.3522 17.3448 34.0974 0.5402 -1.8008
# 5 17.3343 0.9255 17.5133 0.5402 30.3862 4.9799
# 6 11.3287 9.7901 16.6215 -1.8008 4.9799 28.6009
#
#
#
# Elastic Compliance Matrix: (Units=1/GPa)
#
#
# Indices 1 2 3 4 5 6 
#
# 1 0.010186 -0.002177 -0.001949 -0.001050 -0.004363 -0.001463
# 2 -0.002177 0.008441 -0.001601 -0.000585 0.002166 -0.001510
# 3 -0.001949 -0.001601 0.009630 -0.004222 -0.003675 -0.003902
# 4 -0.001050 -0.000585 -0.004222 0.032086 0.001694 0.004795
# 5 -0.004363 0.002166 -0.003675 0.001694 0.037975 -0.003383
# 6 -0.001463 -0.001510 -0.003902 0.004795 -0.003383 0.039219
#
#
# Mechanical properties :
#
#
# Convention : Reuss Voigt Hill
#
# Bulk Modulus (GPa) = 59.51429 72.61321 66.06375
# Shear Modulus (GPa) = 32.34322 37.24881 34.79601
#
# Velocity S-wave (km/s) = 3.65326 3.92053 3.78926
# Velocity P-wave (km/s) = 6.50795 7.10336 6.81216
#
# Compressibility (1/GPa) = 0.01680269
#
# Stress axis : x y z
#
# Youngs Moduli (GPa) = 98.17219 118.47143 103.84596
#
# Poissons Ratio (x) = 0.25789 0.20240
# Poissons Ratio (y) = 0.21370 0.16628
# Poissons Ratio (z) = 0.19134 0.18970
#
# Static dielectric constant tensor:
#      x y z
#    x 2.096800 0.049350 0.013710 
#    y 0.049350 2.124720 0.063480 
#    z 0.013710 0.063480 2.039900 
# 
# From -- ./inp_files/567352.got.cif
#   From: 2010.05.17/outbox.cif.g08.bks.cpg/sg2_284_cif.got.tgz:567352.got - 2010.06.03 11:33:40.
