data_PCOD9087781
_publ_section_title
;
Structure prediction by ZEFSAII (Michael W. Deem and Ramdas Pophale) SiO2 
 PCOD9087781
Probable space group: P -1
;
_chemical_formula_sum "Si O2"
_cell_formula_units_Z 10
_cell_length_a 11.683635
_cell_length_b 11.514727
_cell_length_c 5.000865
_cell_angle_alpha 57.950724
_cell_angle_beta 125.700314
_cell_angle_gamma 137.523326
_cell_volume 362.731110
_symmetry_space_group_name_H-M "P -1"
_symmetry_group_IT_number 2
_symmetry_cell_setting 'triclinic'
loop_
_space_group_symop_operation_xyz
x,y,z
-x,-y,-z
loop_
_atom_site_type_symbol
_atom_site_label
_atom_site_fract_x
_atom_site_fract_y
_atom_site_fract_z
Si Si1 0.736581 0.596121 0.104966
Si Si2 0.106035 0.088391 0.754331
Si Si3 0.449197 0.245658 0.353222
Si Si4 0.754854 0.063602 0.196462
Si Si5 0.905871 0.297127 0.643764
O O1 0.804726 0.705722 0.341257
O O2 0.633623 0.394265 0.276925
O O3 0.915008 0.683778 0.072277
O O4 0.610894 0.639257 0.760325
O O5 0.099892 0.979171 0.607496
O O6 0.298590 0.123746 0.072612
O O7 0.000000 0.000000 0.000000
O O8 0.421654 0.118287 0.703701
O O9 0.829391 0.198327 0.380416
O O10 0.764921 0.175762 0.830301
O O11 0.000000 0.500000 0.500000
#
# Coordination Sequence:
#
# PCOD9087781 Si02
#       5
#     2   2   2   2   2
#     4   9  21  42  63 103 134 170 208 274 338 384
#     4  10  19  36  68 100 134 160 214 274 331 389
#     4   9  21  41  65 102 132 166 210 280 339 387
#     4  12  23  42  68  96 128 173 224 272 326 389
#     4  12  26  44  65  94 132 179 226 265 318 399
#
# _framework density 27.568629999999999
#
# number of rings (size 3 to 8) (size 9 to 14) (size 15 to 20)
#    1.200    0.400    4.000    0.600    2.800    3.200 
#    3.600    2.000    0.000    0.000    0.000    0.000 
#    0.000    0.000    0.000    0.000    0.000    0.000 
#
# Total GULP energy -55820.184861 kJ/mol
# GULP energy per Si atom -5582.018486 kJ/mol
# Density = 2.750588 g / cm^3
# Si number density = 27.568630 Si / 1000 Ang^3
#
#
#
# Elastic Constant Matrix: (Units=GPa)
#
#
# Indices 1 2 3 4 5 6 
#
# 1 58.9565 29.2874 23.3158 -7.3864 -21.9695 10.1575
# 2 29.2874 184.0987 81.4728 -28.8799 -32.9275 -1.4138
# 3 23.3158 81.4728 152.7690 -18.7612 -38.5911 -25.1956
# 4 -7.3864 -28.8799 -18.7612 61.1110 -0.4668 -4.1484
# 5 -21.9695 -32.9275 -38.5911 -0.4668 37.2788 -7.6374
# 6 10.1575 -1.4138 -25.1956 -4.1484 -7.6374 44.2749
#
#
#
# Elastic Compliance Matrix: (Units=1/GPa)
#
#
# Indices 1 2 3 4 5 6 
#
# 1 0.022716 -0.001172 -0.000225 0.001993 0.011487 -0.003208
# 2 -0.001172 0.007923 -0.002970 0.002690 0.003191 -0.000366
# 3 -0.000225 -0.002970 0.013824 0.003634 0.013759 0.010537
# 4 0.001993 0.002690 0.003634 0.019396 0.008578 0.004993
# 5 0.011487 0.003191 0.013759 0.008578 0.053919 0.015401
# 6 -0.003208 -0.000366 0.010537 0.004993 0.015401 0.032432
#
#
# Mechanical properties :
#
#
# Convention : Reuss Voigt Hill
#
# Bulk Modulus (GPa) = 27.98843 73.77514 50.88178
# Shear Modulus (GPa) = 29.26509 45.98283 37.62396
#
# Velocity S-wave (km/s) = 3.26166 4.08847 3.69824
# Velocity P-wave (km/s) = 4.93547 7.00758 6.06073
#
# Compressibility (1/GPa) = 0.03572905
#
# Stress axis : x y z
#
# Youngs Moduli (GPa) = 44.02263 126.21861 72.33845
#
# Poissons Ratio (x) = 0.14790 0.01625
# Poissons Ratio (y) = 0.05158 0.21486
# Poissons Ratio (z) = 0.00989 0.37490
#
# Static dielectric constant tensor:
#      x y z
#    x 2.330020 -0.079490 0.076220 
#    y -0.079490 2.202650 0.073990 
#    z 0.076220 0.073990 2.195450 
# 
# From -- ./inp_files/93245.got.cif
#   From: 2010.05.17/outbox.cif.g08.bks.cpg/sg2_47_cif.got.tgz:93245.got - 2010.06.03 11:33:40.
