data_PCOD9087016
_publ_section_title
;
Structure prediction by ZEFSAII (Michael W. Deem and Ramdas Pophale) SiO2 
 PCOD9087016
Probable space group: P -1
;
_chemical_formula_sum "Si O2"
_cell_formula_units_Z 16
_cell_length_a 15.527474
_cell_length_b 10.362212
_cell_length_c 8.718530
_cell_angle_alpha 66.395871
_cell_angle_beta 33.217062
_cell_angle_gamma 74.518873
_cell_volume 697.673764
_symmetry_space_group_name_H-M "P -1"
_symmetry_group_IT_number 2
_symmetry_cell_setting 'triclinic'
loop_
_space_group_symop_operation_xyz
x,y,z
-x,-y,-z
loop_
_atom_site_type_symbol
_atom_site_label
_atom_site_fract_x
_atom_site_fract_y
_atom_site_fract_z
Si Si1 0.917180 0.634488 0.509759
Si Si2 0.788249 0.007212 0.470925
Si Si3 0.083187 0.917585 0.210082
Si Si4 0.514676 0.659690 0.546981
Si Si5 0.672245 0.919128 0.014869
Si Si6 0.545695 0.844007 0.724765
Si Si7 0.537621 0.591884 0.053646
Si Si8 0.204526 0.747239 0.860306
O O1 0.729045 0.609879 0.783175
O O2 0.000000 0.500000 0.500000
O O3 0.971100 0.767399 0.481411
O O4 0.020132 0.681402 0.180346
O O5 0.760309 0.163270 0.387463
O O6 0.725297 0.898727 0.481650
O O7 0.693777 0.948359 0.789805
O O8 0.970729 0.004056 0.238099
O O9 0.167363 0.009255 0.176159
O O10 0.213325 0.860880 0.933885
O O11 0.531470 0.757695 0.629297
O O12 0.335227 0.649305 0.755251
O O13 0.622600 0.756498 0.217541
O O14 0.539880 0.503590 0.644125
O O15 0.541513 0.017099 0.216752
O O16 0.482061 0.739159 0.010608
O O17 0.500000 0.500000 0.000000
#
# Coordination Sequence:
#
# PCOD9087016 Si02
#       8
#     2   2   2   2   2   2   2   2
#     4  10  19  36  61  89 111 151 199 244 295 345
#     4  12  23  37  58  91 121 155 200 249 293 349
#     4  10  22  39  61  86 117 157 197 247 294 348
#     4  11  21  38  63  91 118 156 199 244 299 353
#     4  12  24  38  61  87 127 158 196 244 301 349
#     4  11  20  38  59  87 118 152 202 245 289 347
#     4  10  21  36  61  93 118 148 197 256 291 346
#     4  10  20  35  63  88 114 153 200 243 294 342
#
# _framework density 22.933356
#
# number of rings (size 3 to 8) (size 9 to 14) (size 15 to 20)
#    0.750    0.500    5.000    2.250    1.750    2.000 
#    0.000    0.625    2.750    0.750    0.000    0.000 
#    0.000    0.000    0.000    0.000    0.000    0.000 
#
# Total GULP energy -89258.724550 kJ/mol
# GULP energy per Si atom -5578.670284 kJ/mol
# Density = 2.288116 g / cm^3
# Si number density = 22.933356 Si / 1000 Ang^3
#
#
#
# Elastic Constant Matrix: (Units=GPa)
#
#
# Indices 1 2 3 4 5 6 
#
# 1 101.1010 28.3691 39.0983 -10.1203 -13.1512 -5.1951
# 2 28.3691 43.5212 14.9944 -15.3986 5.4432 3.6243
# 3 39.0983 14.9944 125.8846 -21.5661 17.0100 2.4239
# 4 -10.1203 -15.3986 -21.5661 37.7486 -9.3367 9.9184
# 5 -13.1512 5.4432 17.0100 -9.3367 50.1141 -16.5371
# 6 -5.1951 3.6243 2.4239 9.9184 -16.5371 28.7605
#
#
#
# Elastic Compliance Matrix: (Units=1/GPa)
#
#
# Indices 1 2 3 4 5 6 
#
# 1 0.018557 -0.014581 -0.007036 -0.005812 0.012747 0.015116
# 2 -0.014581 0.040747 0.005101 0.018066 -0.014044 -0.022504
# 3 -0.007036 0.005101 0.012228 0.007838 -0.008583 -0.010582
# 4 -0.005812 0.018066 0.007838 0.041011 -0.005541 -0.021316
# 5 0.012747 -0.014044 -0.008583 -0.005541 0.035691 0.027229
# 6 0.015116 -0.022504 -0.010582 -0.021316 0.027229 0.064236
#
#
# Mechanical properties :
#
#
# Convention : Reuss Voigt Hill
#
# Bulk Modulus (GPa) = 25.97400 48.38116 37.17758
# Shear Modulus (GPa) = 19.35479 35.86096 27.60787
#
# Velocity S-wave (km/s) = 2.90825 3.95866 3.47339
# Velocity P-wave (km/s) = 4.75685 6.48358 5.68615
#
# Compressibility (1/GPa) = 0.03850004
#
# Stress axis : x y z
#
# Youngs Moduli (GPa) = 53.88892 24.54153 81.78201
#
# Poissons Ratio (x) = 0.35785 0.57540
# Poissons Ratio (y) = 0.78577 -0.41720
# Poissons Ratio (z) = 0.37915 -0.12519
#
# Static dielectric constant tensor:
#      x y z
#    x 1.850900 -0.016710 0.015190 
#    y -0.016710 1.900000 -0.013300 
#    z 0.015190 -0.013300 1.971450 
# 
# From -- ./inp_files/304712.got.cif
#   From: 2010.05.17/outbox.cif.g08.bks.cpg/sg2_153_cif.got.tgz:304712.got - 2010.06.03 11:33:40.
