data_PCOD9087279
_publ_section_title
;
Structure prediction by ZEFSAII (Michael W. Deem and Ramdas Pophale) SiO2 
 PCOD9087279
Probable space group: P -1
;
_chemical_formula_sum "Si O2"
_cell_formula_units_Z 16
_cell_length_a 16.220064
_cell_length_b 12.041569
_cell_length_c 13.319961
_cell_angle_alpha 85.995738
_cell_angle_beta 54.644520
_cell_angle_gamma 39.163893
_cell_volume 907.926404
_symmetry_space_group_name_H-M "P -1"
_symmetry_group_IT_number 2
_symmetry_cell_setting 'triclinic'
loop_
_space_group_symop_operation_xyz
x,y,z
-x,-y,-z
loop_
_atom_site_type_symbol
_atom_site_label
_atom_site_fract_x
_atom_site_fract_y
_atom_site_fract_z
Si Si1 0.066261 0.198762 0.744612
Si Si2 0.603730 0.311239 0.518691
Si Si3 0.825309 0.941602 0.703135
Si Si4 0.382985 0.023606 0.009496
Si Si5 0.369643 0.413777 0.849957
Si Si6 0.124111 0.434380 0.008943
Si Si7 0.807091 0.436965 0.709186
Si Si8 0.935006 0.070759 0.659367
O O1 0.976011 0.310886 0.688424
O O2 0.859110 0.332872 0.936744
O O3 0.062839 0.314739 0.803708
O O4 0.300025 0.894434 0.592527
O O5 0.500000 0.500000 0.500000
O O6 0.425558 0.445686 0.721658
O O7 0.832221 0.133738 0.426957
O O8 0.048318 0.704504 0.487401
O O9 0.595824 0.177995 0.777793
O O10 0.840332 0.042019 0.747861
O O11 0.795617 0.868808 0.803168
O O12 0.579286 0.740310 0.852566
O O13 0.261110 0.208564 0.993003
O O14 0.500000 0.000000 0.000000
O O15 0.303239 0.356837 0.858734
O O16 0.000000 0.500000 0.000000
O O17 0.767377 0.345485 0.768323
O O18 0.000000 0.000000 0.500000
#
# Coordination Sequence:
#
# PCOD9087279 Si02
#       8
#     2   2   2   2   2   2   2   2
#     4   9  19  39  61  82 116 156 198 233 299 351
#     4  11  22  39  63  86 118 156 197 238 293 365
#     4  11  20  37  62  92 120 151 196 249 297 342
#     4  12  21  38  61  90 113 156 208 242 282 356
#     4  10  19  38  64  77 121 159 186 236 316 330
#     4  10  23  43  58  82 125 156 197 249 288 348
#     4  10  19  36  62  93 114 151 200 243 295 348
#     4   9  19  37  58  88 121 146 188 250 288 347
#
# _framework density 17.622574
#
# number of rings (size 3 to 8) (size 9 to 14) (size 15 to 20)
#    0.750    1.000    7.500    0.000    0.000    2.500 
#    6.750    0.625    0.000    0.000    0.000    0.000 
#    0.000    0.000    0.000    0.000    0.000    0.000 
#
# Total GULP energy -89112.938506 kJ/mol
# GULP energy per Si atom -5569.558657 kJ/mol
# Density = 1.758246 g / cm^3
# Si number density = 17.622574 Si / 1000 Ang^3
#
#
#
# Elastic Constant Matrix: (Units=GPa)
#
#
# Indices 1 2 3 4 5 6 
#
# 1 119.4945 34.0981 2.9892 -4.6789 3.1516 7.9138
# 2 34.0981 109.5693 12.4543 -9.6599 1.2933 -1.4145
# 3 2.9892 12.4543 57.8969 -3.0269 0.7661 9.0466
# 4 -4.6789 -9.6599 -3.0269 27.7090 14.8765 -0.4453
# 5 3.1516 1.2933 0.7661 14.8765 29.6067 -1.5127
# 6 7.9138 -1.4145 9.0466 -0.4453 -1.5127 23.6440
#
#
#
# Elastic Compliance Matrix: (Units=1/GPa)
#
#
# Indices 1 2 3 4 5 6 
#
# 1 0.009556 -0.002950 0.000846 0.001656 -0.001936 -0.003791
# 2 -0.002950 0.010725 -0.002296 0.004126 -0.002043 0.002454
# 3 0.000846 -0.002296 0.019099 0.002434 -0.002106 -0.007817
# 4 0.001656 0.004126 0.002434 0.052478 -0.026889 -0.001971
# 5 -0.001936 -0.002043 -0.002106 -0.026889 0.047836 0.003886
# 6 -0.003791 0.002454 -0.007817 -0.001971 0.003886 0.046912
#
#
# Mechanical properties :
#
#
# Convention : Reuss Voigt Hill
#
# Bulk Modulus (GPa) = 32.70054 42.89377 37.79716
# Shear Modulus (GPa) = 24.31915 32.01987 28.16951
#
# Velocity S-wave (km/s) = 3.71887 4.26723 4.00245
# Velocity P-wave (km/s) = 6.08574 6.97654 6.54631
#
# Compressibility (1/GPa) = 0.03058054
#
# Stress axis : x y z
#
# Youngs Moduli (GPa) = 104.64341 93.23784 52.35944
#
# Poissons Ratio (x) = 0.27507 -0.04429
# Poissons Ratio (y) = 0.30871 0.12019
# Poissons Ratio (z) = -0.08851 0.21403
#
# Static dielectric constant tensor:
#      x y z
#    x 1.620750 0.031240 -0.002670 
#    y 0.031240 1.570380 -0.007760 
#    z -0.002670 -0.007760 1.623000 
# 
# From -- ./inp_files/273060.got.cif
#   From: 2010.05.17/outbox.cif.g08.bks.cpg/sg2_137_cif.got.tgz:273060.got - 2010.06.03 11:33:40.
