data_PCOD9087617
_publ_section_title
;
Structure prediction by ZEFSAII (Michael W. Deem and Ramdas Pophale) SiO2 
 PCOD9087617
Probable space group: P -1
;
_chemical_formula_sum "Si O2"
_cell_formula_units_Z 16
_cell_length_a 10.265451
_cell_length_b 14.656761
_cell_length_c 5.617180
_cell_angle_alpha 60.639058
_cell_angle_beta 122.636401
_cell_angle_gamma 98.289370
_cell_volume 611.906938
_symmetry_space_group_name_H-M "P -1"
_symmetry_group_IT_number 2
_symmetry_cell_setting 'triclinic'
loop_
_space_group_symop_operation_xyz
x,y,z
-x,-y,-z
loop_
_atom_site_type_symbol
_atom_site_label
_atom_site_fract_x
_atom_site_fract_y
_atom_site_fract_z
Si Si1 0.155167 0.919865 0.328432
Si Si2 0.552838 0.159978 0.560383
Si Si3 0.932834 0.264186 0.178853
Si Si4 0.672318 0.430927 0.802934
Si Si5 0.401544 0.139698 0.924227
Si Si6 0.787240 0.627178 0.544437
Si Si7 0.134503 0.069452 0.491123
Si Si8 0.468753 0.385817 0.039293
O O1 0.265016 0.871567 0.283685
O O2 0.115236 0.822125 0.573277
O O3 0.231224 0.002252 0.464548
O O4 0.000000 0.000000 0.000000
O O5 0.470825 0.128283 0.273448
O O6 0.493189 0.285995 0.361126
O O7 0.508916 0.114835 0.827259
O O8 0.044652 0.337644 0.321843
O O9 0.043025 0.189107 0.195596
O O10 0.780554 0.347605 0.845130
O O11 0.500000 0.500000 0.500000
O O12 0.769464 0.527118 0.822250
O O13 0.615104 0.354825 0.040594
O O14 0.331100 0.264200 0.666722
O O15 0.249784 0.084207 0.801985
O O16 0.708386 0.595726 0.261584
O O17 0.000000 0.000000 0.500000
O O18 0.500000 0.500000 0.000000
#
# Coordination Sequence:
#
# PCOD9087617 Si02
#       8
#     2   2   2   2   2   2   2   2
#     4  11  25  45  67 101 147 198 255 303 376 438
#     4  11  24  45  74 106 151 193 247 312 373 436
#     4  10  20  42  66  95 145 187 242 300 374 438
#     4  10  19  36  64  98 135 186 235 294 365 446
#     4  10  23  43  73 110 146 193 247 308 370 444
#     4   9  20  38  66 104 143 186 233 301 366 451
#     4   9  22  43  70 101 143 195 242 310 365 442
#     4  10  20  38  62 101 143 184 240 294 362 443
#
# _framework density 26.147769
#
# number of rings (size 3 to 8) (size 9 to 14) (size 15 to 20)
#    0.000    2.000    1.250    1.125    0.000    9.000 
#    4.500    0.625    0.000    0.000    0.000    0.000 
#    0.000    0.000    0.000    0.000    0.000    0.000 
#
# Total GULP energy -89248.559889 kJ/mol
# GULP energy per Si atom -5578.034993 kJ/mol
# Density = 2.608826 g / cm^3
# Si number density = 26.147769 Si / 1000 Ang^3
#
#
#
# Elastic Constant Matrix: (Units=GPa)
#
#
# Indices 1 2 3 4 5 6 
#
# 1 83.4486 35.3845 36.4707 -6.2299 3.4002 -1.6730
# 2 35.3845 154.6287 59.7042 7.4287 12.6482 18.9607
# 3 36.4707 59.7042 133.7751 -11.4239 15.6235 1.6178
# 4 -6.2299 7.4287 -11.4239 48.7132 0.3484 -7.0917
# 5 3.4002 12.6482 15.6235 0.3484 40.0678 -9.2085
# 6 -1.6730 18.9607 1.6178 -7.0917 -9.2085 32.4987
#
#
#
# Elastic Compliance Matrix: (Units=1/GPa)
#
#
# Indices 1 2 3 4 5 6 
#
# 1 0.014587 -0.002963 -0.002690 0.002189 0.001538 0.003527
# 2 -0.002963 0.009822 -0.003434 -0.003741 -0.003186 -0.007431
# 3 -0.002690 -0.003434 0.010245 0.002786 -0.002413 0.001279
# 4 0.002189 -0.003741 0.002786 0.023131 0.001458 0.007617
# 5 0.001538 -0.003186 -0.002413 0.001458 0.029209 0.010653
# 6 0.003527 -0.007431 0.001279 0.007617 0.010653 0.039905
#
#
# Mechanical properties :
#
#
# Convention : Reuss Voigt Hill
#
# Bulk Modulus (GPa) = 60.67197 70.55236 65.61216
# Shear Modulus (GPa) = 33.20827 40.27547 36.74187
#
# Velocity S-wave (km/s) = 3.56760 3.92893 3.75262
# Velocity P-wave (km/s) = 6.34226 6.90092 6.62748
#
# Compressibility (1/GPa) = 0.01648208
#
# Stress axis : x y z
#
# Youngs Moduli (GPa) = 68.55539 101.80834 97.60689
#
# Poissons Ratio (x) = 0.30164 0.26254
# Poissons Ratio (y) = 0.20312 0.33514
# Poissons Ratio (z) = 0.18440 0.34957
#
# Static dielectric constant tensor:
#      x y z
#    x 2.200740 -0.106940 -0.106800 
#    y -0.106940 2.225970 0.144010 
#    z -0.106800 0.144010 2.161460 
# 
# From -- ./inp_files/312570.got.cif
#   From: 2010.05.17/outbox.cif.g08.bks.cpg/sg2_157_cif.got.tgz:312570.got - 2010.06.03 11:33:40.
