data_PCOD9087897
_publ_section_title
;
Structure prediction by ZEFSAII (Michael W. Deem and Ramdas Pophale) SiO2 
 PCOD9087897
Probable space group: P -1
;
_chemical_formula_sum "Si O2"
_cell_formula_units_Z 14
_cell_length_a 16.574904
_cell_length_b 11.010917
_cell_length_c 9.255760
_cell_angle_alpha 137.281760
_cell_angle_beta 41.220895
_cell_angle_gamma 149.710991
_cell_volume 542.661948
_symmetry_space_group_name_H-M "P -1"
_symmetry_group_IT_number 2
_symmetry_cell_setting 'triclinic'
loop_
_space_group_symop_operation_xyz
x,y,z
-x,-y,-z
loop_
_atom_site_type_symbol
_atom_site_label
_atom_site_fract_x
_atom_site_fract_y
_atom_site_fract_z
Si Si1 0.391279 0.926409 0.439278
Si Si2 0.091949 0.396160 0.274645
Si Si3 0.844011 0.986976 0.058104
Si Si4 0.070881 0.855260 0.441797
Si Si5 0.774449 0.729297 0.629466
Si Si6 0.402977 0.442538 0.784378
Si Si7 0.413776 0.125192 0.288494
O O1 0.276515 0.640722 0.299171
O O2 0.272972 0.968112 0.690771
O O3 0.500000 0.000000 0.500000
O O4 0.471939 0.068221 0.298650
O O5 0.000000 0.500000 0.500000
O O6 0.031194 0.249837 0.076612
O O7 0.985574 0.178420 0.347504
O O8 0.755654 0.735137 0.048805
O O9 0.819809 0.908350 0.857078
O O10 0.882253 0.655803 0.445793
O O11 0.151939 0.104641 0.467546
O O12 0.230128 0.878185 0.253540
O O13 0.571245 0.534032 0.718402
O O14 0.369760 0.268639 0.549728
O O15 0.455727 0.681446 0.842766
#
# Coordination Sequence:
#
# PCOD9087897 Si02
#       7
#     2   2   2   2   2   2   2
#     4  10  21  37  59  82 109 153 198 223 271 337
#     4  10  19  37  58  77 112 153 191 224 275 336
#     4  10  20  38  55  90 112 146 185 234 287 321
#     4  10  19  37  56  84 112 153 184 222 291 332
#     4  10  22  33  58  87 120 139 186 239 277 335
#     4   9  17  33  55  81 115 143 178 230 286 323
#     4   9  17  34  57  80 108 150 187 225 276 339
#
# _framework density 25.798750999999999
#
# number of rings (size 3 to 8) (size 9 to 14) (size 15 to 20)
#    0.000    2.286    4.286    0.429    4.000    0.571 
#    0.000    2.857    0.000    5.143    0.000    0.000 
#    0.000    0.000    0.000    0.000    0.000    0.000 
#
# Total GULP energy -78016.349386 kJ/mol
# GULP energy per Si atom -5572.596385 kJ/mol
# Density = 2.574003 g / cm^3
# Si number density = 25.798751 Si / 1000 Ang^3
#
#
#
# Elastic Constant Matrix: (Units=GPa)
#
#
# Indices 1 2 3 4 5 6 
#
# 1 168.0542 57.9784 26.5262 11.6254 33.1721 27.7936
# 2 57.9784 156.1777 60.0001 0.5698 26.5071 11.3827
# 3 26.5262 60.0001 108.9055 5.7445 17.1560 -4.3824
# 4 11.6254 0.5698 5.7445 48.2629 3.5687 8.4729
# 5 33.1721 26.5071 17.1560 3.5687 30.1164 -1.0937
# 6 27.7936 11.3827 -4.3824 8.4729 -1.0937 46.8406
#
#
#
# Elastic Compliance Matrix: (Units=1/GPa)
#
#
# Indices 1 2 3 4 5 6 
#
# 1 0.009105 -0.001426 -0.000229 -0.000593 -0.008761 -0.005175
# 2 -0.001426 0.009547 -0.004356 0.001486 -0.004609 -0.002258
# 3 -0.000229 -0.004356 0.012236 -0.001609 -0.002600 0.002569
# 4 -0.000593 0.001486 -0.001609 0.021956 -0.002493 -0.004190
# 5 -0.008761 -0.004609 -0.002600 -0.002493 0.048966 0.007669
# 6 -0.005175 -0.002258 0.002569 -0.004190 0.007669 0.026146
#
#
# Mechanical properties :
#
#
# Convention : Reuss Voigt Hill
#
# Bulk Modulus (GPa) = 53.00432 80.23854 66.62143
# Shear Modulus (GPa) = 34.18449 44.28617 39.23533
#
# Velocity S-wave (km/s) = 3.64406 4.14768 3.90400
# Velocity P-wave (km/s) = 6.18834 7.35574 6.79715
#
# Compressibility (1/GPa) = 0.01886639
#
# Stress axis : x y z
#
# Youngs Moduli (GPa) = 109.83500 104.74395 81.72847
#
# Poissons Ratio (x) = 0.14934 0.01871
# Poissons Ratio (y) = 0.15660 0.35599
# Poissons Ratio (z) = 0.02515 0.45624
#
# Static dielectric constant tensor:
#      x y z
#    x 2.492080 -0.039250 -0.442770 
#    y -0.039250 2.105390 0.058320 
#    z -0.442770 0.058320 2.315210 
# 
# From -- ./inp_files/207289.got.cif
#   From: 2010.05.17/outbox.cif.g08.bks.cpg/sg2_104_cif.got.tgz:207289.got - 2010.06.03 11:33:40.
