data_PCOD9087955
_publ_section_title
;
Structure prediction by ZEFSAII (Michael W. Deem and Ramdas Pophale) SiO2 
 PCOD9087955
Probable space group: P -1
;
_chemical_formula_sum "Si O2"
_cell_formula_units_Z 16
_cell_length_a 11.811307
_cell_length_b 9.158108
_cell_length_c 20.690578
_cell_angle_alpha 40.445400
_cell_angle_beta 154.923562
_cell_angle_gamma 126.884479
_cell_volume 582.154044
_symmetry_space_group_name_H-M "P -1"
_symmetry_group_IT_number 2
_symmetry_cell_setting 'triclinic'
loop_
_space_group_symop_operation_xyz
x,y,z
-x,-y,-z
loop_
_atom_site_type_symbol
_atom_site_label
_atom_site_fract_x
_atom_site_fract_y
_atom_site_fract_z
Si Si1 0.636721 0.387243 0.862549
Si Si2 0.568461 0.134713 0.550854
Si Si3 0.715486 0.653011 0.553337
Si Si4 0.102001 0.137144 0.768058
Si Si5 0.223529 0.183795 0.673070
Si Si6 0.204318 0.553158 0.743902
Si Si7 0.110500 0.279941 0.046822
Si Si8 0.437314 0.109724 0.161511
O O1 0.325304 0.400201 0.677551
O O2 0.688108 0.568118 0.879607
O O3 0.807531 0.408849 0.878520
O O4 0.774710 0.124911 0.050901
O O5 0.286560 0.267155 0.400166
O O6 0.788673 0.254756 0.596233
O O7 0.500000 0.000000 0.500000
O O8 0.756439 0.956215 0.762101
O O9 0.500000 0.500000 0.500000
O O10 0.015623 0.532404 0.715320
O O11 0.589783 0.885951 0.363637
O O12 0.115909 0.101354 0.710449
O O13 0.278785 0.304323 0.828097
O O14 0.987764 0.263275 0.470013
O O15 0.493365 0.005218 0.834565
O O16 0.426910 0.679198 0.837806
O O17 0.136211 0.215341 0.006498
#
# Coordination Sequence:
#
# PCOD9087955 Si02
#       8
#     2   2   2   2   2   2   2   2
#     4  10  22  42  63  87 120 167 207 253 300 369
#     4  10  22  33  62  93 121 154 205 257 303 358
#     4  10  19  37  57  87 125 155 196 247 308 358
#     4  11  23  39  59  93 122 163 208 251 305 364
#     4  11  23  37  64  89 123 159 210 245 308 370
#     4  11  23  40  63  92 129 162 198 259 313 358
#     4   9  21  42  63  83 127 162 202 253 312 358
#     4  10  23  39  63  92 124 163 199 260 311 358
#
# _framework density 27.484134999999998
#
# number of rings (size 3 to 8) (size 9 to 14) (size 15 to 20)
#    0.000    1.750    1.250    3.000    7.000    0.500 
#    0.000    2.500    2.750    0.000    0.000    0.000 
#    0.000    0.000    0.000    0.000    0.000    0.000 
#
# Total GULP energy -89593.086446 kJ/mol
# GULP energy per Si atom -5599.567903 kJ/mol
# Density = 2.742158 g / cm^3
# Si number density = 27.484135 Si / 1000 Ang^3
#
#
#
# Elastic Constant Matrix: (Units=GPa)
#
#
# Indices 1 2 3 4 5 6 
#
# 1 256.7851 61.6124 41.0023 -9.9949 -9.3917 -25.9531
# 2 61.6124 117.0493 -4.0441 4.9901 -7.1551 22.6299
# 3 41.0023 -4.0441 63.3564 -5.5020 -11.0853 5.0363
# 4 -9.9949 4.9901 -5.5020 39.6025 5.3554 0.8065
# 5 -9.3917 -7.1551 -11.0853 5.3554 48.9299 -6.1069
# 6 -25.9531 22.6299 5.0363 0.8065 -6.1069 44.2824
#
#
#
# Elastic Compliance Matrix: (Units=1/GPa)
#
#
# Indices 1 2 3 4 5 6 
#
# 1 0.006732 -0.005159 -0.005106 0.001479 0.000112 0.007151
# 2 -0.005159 0.013597 0.005024 -0.002254 0.001091 -0.010352
# 3 -0.005106 0.005024 0.020657 0.000635 0.003436 -0.007448
# 4 0.001479 -0.002254 0.000635 0.026332 -0.002646 0.001102
# 5 0.000112 0.001091 0.003436 -0.002646 0.021960 0.002194
# 6 0.007151 -0.010352 -0.007448 0.001102 0.002194 0.033193
#
#
# Mechanical properties :
#
#
# Convention : Reuss Voigt Hill
#
# Bulk Modulus (GPa) = 32.78196 70.48134 51.63165
# Shear Modulus (GPa) = 34.93570 49.13763 42.03667
#
# Velocity S-wave (km/s) = 3.56915 4.23289 3.91511
# Velocity P-wave (km/s) = 5.37946 7.04201 6.26612
#
# Compressibility (1/GPa) = 0.03050458
#
# Stress axis : x y z
#
# Youngs Moduli (GPa) = 148.54856 73.54805 48.40872
#
# Poissons Ratio (x) = 0.37941 0.24719
# Poissons Ratio (y) = 0.76631 -0.24323
# Poissons Ratio (z) = 0.75855 -0.36954
#
# Static dielectric constant tensor:
#      x y z
#    x 2.152040 0.004000 0.077310 
#    y 0.004000 2.107570 -0.026480 
#    z 0.077310 -0.026480 2.225330 
# 
# From -- ./inp_files/342714.got.cif
#   From: 2010.05.17/outbox.cif.g08.bks.cpg/sg2_172_cif.got.tgz:342714.got - 2010.06.03 11:33:40.
