data_PCOD9087408
_publ_section_title
;
Structure prediction by ZEFSAII (Michael W. Deem and Ramdas Pophale) SiO2 
 PCOD9087408
Probable space group: P -1
;
_chemical_formula_sum "Si O2"
_cell_formula_units_Z 16
_cell_length_a 13.882643
_cell_length_b 8.749516
_cell_length_c 14.212788
_cell_angle_alpha 97.456390
_cell_angle_beta 62.580966
_cell_angle_gamma 149.242021
_cell_volume 635.140372
_symmetry_space_group_name_H-M "P -1"
_symmetry_group_IT_number 2
_symmetry_cell_setting 'triclinic'
loop_
_space_group_symop_operation_xyz
x,y,z
-x,-y,-z
loop_
_atom_site_type_symbol
_atom_site_label
_atom_site_fract_x
_atom_site_fract_y
_atom_site_fract_z
Si Si1 0.536281 0.487561 0.586860
Si Si2 0.214233 0.788976 0.013632
Si Si3 0.799010 0.536275 0.895268
Si Si4 0.528678 0.816137 0.258595
Si Si5 0.064847 0.009298 0.345559
Si Si6 0.186159 0.103944 0.094024
Si Si7 0.733678 0.002127 0.635542
Si Si8 0.124737 0.509666 0.341348
O O1 0.500000 0.500000 0.500000
O O2 0.401985 0.166976 0.670660
O O3 0.498859 0.588055 0.678819
O O4 0.839952 0.825206 0.474924
O O5 0.496525 0.154757 0.969734
O O6 0.264651 0.856795 0.883448
O O7 0.110929 0.831346 0.079356
O O8 0.129700 0.511731 0.070469
O O9 0.858560 0.785873 0.926651
O O10 0.917174 0.642038 0.746678
O O11 0.352043 0.454093 0.261523
O O12 0.314445 0.671918 0.343136
O O13 0.029929 0.933022 0.246541
O O14 0.078529 0.865695 0.379668
O O15 0.500000 0.500000 0.000000
O O16 0.715518 0.127498 0.718569
O O17 0.862872 0.207869 0.492237
#
# Coordination Sequence:
#
# PCOD9087408 Si02
#       8
#     2   2   2   2   2   2   2   2
#     4  11  22  36  52  74 103 143 181 213 259 313
#     4   9  17  27  44  75 109 136 159 209 265 314
#     4   9  16  26  41  75 115 130 156 207 268 316
#     4  10  17  34  52  74 107 132 172 218 260 308
#     4  11  17  33  53  75 106 132 174 216 263 305
#     4  10  16  27  48  80 108 133 163 214 270 314
#     4  10  19  29  54  79 100 136 169 221 269 312
#     4  10  16  30  50  81 109 127 169 216 273 312
#
# _framework density 25.191282000000001
#
# number of rings (size 3 to 8) (size 9 to 14) (size 15 to 20)
#    0.000    2.000    6.250    1.500    0.000    1.000 
#    0.000    0.625    0.000    0.750    0.000    3.500 
#    0.000    3.125    0.000    0.000    0.000    0.000 
#
# Total GULP energy -89071.996296 kJ/mol
# GULP energy per Si atom -5566.999768 kJ/mol
# Density = 2.513395 g / cm^3
# Si number density = 25.191282 Si / 1000 Ang^3
#
#
#
# Elastic Constant Matrix: (Units=GPa)
#
#
# Indices 1 2 3 4 5 6 
#
# 1 188.1834 70.1000 36.2019 8.4475 37.9594 -35.7783
# 2 70.1000 56.0430 15.0795 8.7681 -6.0927 -30.8975
# 3 36.2019 15.0795 81.2511 -12.9615 15.6307 -19.1957
# 4 8.4475 8.7681 -12.9615 27.1882 -7.1060 -2.8683
# 5 37.9594 -6.0927 15.6307 -7.1060 39.8684 2.8712
# 6 -35.7783 -30.8975 -19.1957 -2.8683 2.8712 48.0302
#
#
#
# Elastic Compliance Matrix: (Units=1/GPa)
#
#
# Indices 1 2 3 4 5 6 
#
# 1 0.021583 -0.030335 -0.000210 -0.003961 -0.025649 -0.002224
# 2 -0.030335 0.072585 -0.003204 -0.003121 0.039214 0.020285
# 3 -0.000210 -0.003204 0.016632 0.008080 -0.005749 0.005256
# 4 -0.003961 -0.003121 0.008080 0.045043 0.008121 0.000475
# 5 -0.025649 0.039214 -0.005749 0.008121 0.059142 0.000772
# 6 -0.002224 0.020285 0.005256 0.000475 0.000772 0.034295
#
#
# Mechanical properties :
#
#
# Convention : Reuss Voigt Hill
#
# Bulk Modulus (GPa) = 23.09390 63.13781 43.11586
# Shear Modulus (GPa) = 15.09597 36.62377 25.85987
#
# Velocity S-wave (km/s) = 2.45062 3.81705 3.20744
# Velocity P-wave (km/s) = 4.14665 6.67415 5.55603
#
# Compressibility (1/GPa) = 0.04330148
#
# Stress axis : x y z
#
# Youngs Moduli (GPa) = 46.33186 13.77696 60.12406
#
# Poissons Ratio (x) = 0.41793 0.01261
# Poissons Ratio (y) = 1.40550 0.19267
# Poissons Ratio (z) = 0.00971 0.04415
#
# Static dielectric constant tensor:
#      x y z
#    x 2.036530 -0.012440 0.017930 
#    y -0.012440 2.191500 -0.074940 
#    z 0.017930 -0.074940 2.047680 
# 
# From -- ./inp_files/514296.got.cif
#   From: 2010.05.17/outbox.cif.g08.bks.cpg/sg2_258_cif.got.tgz:514296.got - 2010.06.03 11:33:40.
