data_PCOD9087545
_publ_section_title
;
Structure prediction by ZEFSAII (Michael W. Deem and Ramdas Pophale) SiO2 
 PCOD9087545
Probable space group: P -1
;
_chemical_formula_sum "Si O2"
_cell_formula_units_Z 13
_cell_length_a 7.788777
_cell_length_b 9.100380
_cell_length_c 11.080060
_cell_angle_alpha 82.195107
_cell_angle_beta 60.137269
_cell_angle_gamma 52.720213
_cell_volume 526.054303
_symmetry_space_group_name_H-M "P -1"
_symmetry_group_IT_number 2
_symmetry_cell_setting 'triclinic'
loop_
_space_group_symop_operation_xyz
x,y,z
-x,-y,-z
loop_
_atom_site_type_symbol
_atom_site_label
_atom_site_fract_x
_atom_site_fract_y
_atom_site_fract_z
Si Si1 0.135370 0.560062 0.029703
Si Si2 0.689392 0.819625 0.583133
Si Si3 0.319084 0.035225 0.882094
Si Si4 0.135153 0.953448 0.586630
Si Si5 0.500000 0.500000 0.500000
Si Si6 0.384839 0.824316 0.124264
Si Si7 0.927315 0.497039 0.335998
O O1 0.976929 0.782794 0.038032
O O2 0.075283 0.532771 0.189462
O O3 0.432641 0.404834 0.916311
O O4 0.000000 0.500000 0.000000
O O5 0.790138 0.651484 0.473271
O O6 0.886001 0.706062 0.639831
O O7 0.420772 0.927812 0.731155
O O8 0.713929 0.964886 0.493309
O O9 0.479987 0.111623 0.846919
O O10 0.378506 0.897457 0.985279
O O11 0.315604 0.729325 0.566208
O O12 0.000000 0.000000 0.500000
O O13 0.898690 0.074670 0.746248
O O14 0.700053 0.513803 0.352676
#
# Coordination Sequence:
#
# PCOD9087545 Si02
#       7
#     2   2   2   2   1   2   2
#     4  10  22  35  65  95 124 176 224 263 325 399
#     4  11  23  45  70  98 140 176 214 281 342 383
#     4  10  19  36  64  90 128 178 217 268 329 388
#     4  12  24  40  65 100 137 173 219 277 331 390
#     4  12  26  40  68 100 128 168 232 270 320 400
#     4  10  21  37  59  95 134 169 218 270 325 397
#     4  11  24  43  71 100 134 176 226 273 332 400
#
# _framework density 24.712275999999999
#
# number of rings (size 3 to 8) (size 9 to 14) (size 15 to 20)
#    0.000    1.231    4.615    0.923    6.462    2.462 
#    0.000    0.769    3.385    1.846    0.000    0.000 
#    0.000    0.000    0.000    0.000    0.000    0.000 
#
# Total GULP energy -72508.307081 kJ/mol
# GULP energy per Si atom -5577.562083 kJ/mol
# Density = 2.465603 g / cm^3
# Si number density = 24.712276 Si / 1000 Ang^3
#
#
#
# Elastic Constant Matrix: (Units=GPa)
#
#
# Indices 1 2 3 4 5 6 
#
# 1 44.3119 15.2916 19.9152 3.7356 -6.9019 -10.0862
# 2 15.2916 179.3887 44.5420 47.8548 -5.0591 -22.5709
# 3 19.9152 44.5420 110.4416 30.9268 3.9584 -21.1100
# 4 3.7356 47.8548 30.9268 46.9393 -10.2642 -12.5548
# 5 -6.9019 -5.0591 3.9584 -10.2642 35.9354 4.4499
# 6 -10.0862 -22.5709 -21.1100 -12.5548 4.4499 15.8292
#
#
#
# Elastic Compliance Matrix: (Units=1/GPa)
#
#
# Indices 1 2 3 4 5 6 
#
# 1 0.028487 -0.001237 -0.003901 0.006844 0.005827 0.014975
# 2 -0.001237 0.008278 0.000119 -0.007238 -0.001891 0.005966
# 3 -0.003901 0.000119 0.014385 -0.007148 -0.005953 0.012873
# 4 0.006844 -0.007238 -0.007148 0.038356 0.010557 0.011962
# 5 0.005827 -0.001891 -0.005953 0.010557 0.033333 -0.007920
# 6 0.014975 0.005966 0.012873 0.011962 -0.007920 0.110106
#
#
# Mechanical properties :
#
#
# Convention : Reuss Voigt Hill
#
# Bulk Modulus (GPa) = 24.32280 54.84888 39.58584
# Shear Modulus (GPa) = 19.47903 36.70034 28.08969
#
# Velocity S-wave (km/s) = 2.81059 3.85789 3.37511
# Velocity P-wave (km/s) = 4.51623 6.48749 5.58945
#
# Compressibility (1/GPa) = 0.04111369
#
# Stress axis : x y z
#
# Youngs Moduli (GPa) = 35.10415 120.79539 69.51480
#
# Poissons Ratio (x) = 0.14940 0.27117
# Poissons Ratio (y) = 0.04342 -0.00829
# Poissons Ratio (z) = 0.13694 -0.01441
#
# Static dielectric constant tensor:
#      x y z
#    x 2.123390 -0.007850 0.030880 
#    y -0.007850 1.930160 0.035720 
#    z 0.030880 0.035720 1.900390 
# 
# From -- ./inp_files/250593.got.cif
#   From: 2010.05.17/outbox.cif.g08.bks.cpg/sg2_126_cif.got.tgz:250593.got - 2010.06.03 11:33:40.
