data_PCOD9087510
_publ_section_title
;
Structure prediction by ZEFSAII (Michael W. Deem and Ramdas Pophale) SiO2 
 PCOD9087510
Probable space group: P -1
;
_chemical_formula_sum "Si O2"
_cell_formula_units_Z 16
_cell_length_a 23.078785
_cell_length_b 8.396326
_cell_length_c 20.769538
_cell_angle_alpha 146.789933
_cell_angle_beta 161.153139
_cell_angle_gamma 33.063096
_cell_volume 687.322158
_symmetry_space_group_name_H-M "P -1"
_symmetry_group_IT_number 2
_symmetry_cell_setting 'triclinic'
loop_
_space_group_symop_operation_xyz
x,y,z
-x,-y,-z
loop_
_atom_site_type_symbol
_atom_site_label
_atom_site_fract_x
_atom_site_fract_y
_atom_site_fract_z
Si Si1 0.954988 0.750222 0.677930
Si Si2 0.510375 0.236016 0.034919
Si Si3 0.661196 0.849729 0.949792
Si Si4 0.642500 0.116377 0.878168
Si Si5 0.356287 0.110715 0.328406
Si Si6 0.898965 0.739007 0.422411
Si Si7 0.255309 0.778522 0.486055
Si Si8 0.068966 0.755733 0.935305
O O1 0.999789 0.400732 0.583814
O O2 0.148225 0.842441 0.897212
O O3 0.928169 0.769474 0.732830
O O4 0.803591 0.980132 0.552807
O O5 0.309852 0.293993 0.810433
O O6 0.654502 0.088951 0.081257
O O7 0.508389 0.558122 0.170821
O O8 0.500000 0.000000 0.000000
O O9 0.470339 0.743459 0.718933
O O10 0.838463 0.571803 0.050966
O O11 0.649707 0.986774 0.913455
O O12 0.587109 0.909636 0.694310
O O13 0.241963 0.450651 0.339698
O O14 0.500000 0.000000 0.500000
O O15 0.239280 0.866375 0.123168
O O16 0.000000 0.500000 0.500000
O O17 0.871301 0.069164 0.534871
O O18 0.000000 0.000000 0.000000
#
# Coordination Sequence:
#
# PCOD9087510 Si02
#       8
#     2   2   2   2   2   2   2   2
#     4   9  20  40  61  86 113 156 198 236 299 354
#     4  10  19  36  64  87 116 154 195 241 290 348
#     4  11  22  39  60  92 118 152 199 246 296 344
#     4  10  23  36  62  90 121 151 197 247 293 350
#     4  11  23  41  57  86 119 157 204 236 298 359
#     4   8  16  33  57  86 108 143 187 232 283 344
#     4  10  21  35  65  84 117 157 192 239 296 353
#     4  11  25  40  60  83 119 156 201 248 290 347
#
# _framework density 23.278749999999999
#
# number of rings (size 3 to 8) (size 9 to 14) (size 15 to 20)
#    0.000    2.000    1.250    2.625    5.250    2.500 
#    0.000    0.000    0.000    0.750    0.000    0.000 
#    0.000    0.000    0.000    0.000    0.000    0.000 
#
# Total GULP energy -89298.661765 kJ/mol
# GULP energy per Si atom -5581.166360 kJ/mol
# Density = 2.322577 g / cm^3
# Si number density = 23.278750 Si / 1000 Ang^3
#
#
#
# Elastic Constant Matrix: (Units=GPa)
#
#
# Indices 1 2 3 4 5 6 
#
# 1 99.3883 44.2826 14.8284 4.8481 -38.2005 -13.2487
# 2 44.2826 158.1568 24.4397 6.7012 -26.0306 -21.7117
# 3 14.8284 24.4397 68.5742 1.7429 -17.5701 -5.3807
# 4 4.8481 6.7012 1.7429 34.8341 -3.3194 -7.2256
# 5 -38.2005 -26.0306 -17.5701 -3.3194 38.2072 14.5485
# 6 -13.2487 -21.7117 -5.3807 -7.2256 14.5485 32.8150
#
#
#
# Elastic Compliance Matrix: (Units=1/GPa)
#
#
# Indices 1 2 3 4 5 6 
#
# 1 0.017217 -0.002513 0.001347 -0.000819 0.016869 -0.002150
# 2 -0.002513 0.007919 -0.001822 -0.000279 0.000660 0.003572
# 3 0.001347 -0.001822 0.017005 -0.000229 0.008560 -0.001719
# 4 -0.000819 -0.000279 -0.000229 0.030145 -0.000976 0.006518
# 5 0.016869 0.000660 0.008560 -0.000976 0.053091 -0.015102
# 6 -0.002150 0.003572 -0.001719 0.006518 -0.015102 0.039818
#
#
# Mechanical properties :
#
#
# Convention : Reuss Voigt Hill
#
# Bulk Modulus (GPa) = 27.65131 54.80231 41.22681
# Shear Modulus (GPa) = 27.28852 37.34250 32.31551
#
# Velocity S-wave (km/s) = 3.42753 4.00952 3.72989
# Velocity P-wave (km/s) = 5.25053 6.71028 6.02478
#
# Compressibility (1/GPa) = 0.03616466
#
# Stress axis : x y z
#
# Youngs Moduli (GPa) = 58.08121 126.28080 58.80591
#
# Poissons Ratio (x) = 0.31732 -0.07920
# Poissons Ratio (y) = 0.14595 0.10716
# Poissons Ratio (z) = -0.07823 0.23012
#
# Static dielectric constant tensor:
#      x y z
#    x 19.162530 -1.043950 9.145910 
#    y -1.043950 1.906520 -0.497370 
#    z 9.145910 -0.497370 6.832410 
# 
# From -- ./inp_files/217842.got.cif
#   From: 2010.05.17/outbox.cif.g08.bks.cpg/sg2_109_cif.got.tgz:217842.got - 2010.06.03 11:33:40.
