data_PCOD9087809
_publ_section_title
;
Structure prediction by ZEFSAII (Michael W. Deem and Ramdas Pophale) SiO2 
 PCOD9087809
Probable space group: P -1
;
_chemical_formula_sum "Si O2"
_cell_formula_units_Z 16
_cell_length_a 7.997218
_cell_length_b 5.761205
_cell_length_c 17.220797
_cell_angle_alpha 100.798274
_cell_angle_beta 93.000673
_cell_angle_gamma 58.121031
_cell_volume 660.785002
_symmetry_space_group_name_H-M "P -1"
_symmetry_group_IT_number 2
_symmetry_cell_setting 'triclinic'
loop_
_space_group_symop_operation_xyz
x,y,z
-x,-y,-z
loop_
_atom_site_type_symbol
_atom_site_label
_atom_site_fract_x
_atom_site_fract_y
_atom_site_fract_z
Si Si1 0.916889 0.173079 0.744994
Si Si2 0.715579 0.753219 0.470626
Si Si3 0.449967 0.236657 0.206672
Si Si4 0.738410 0.356419 0.005241
Si Si5 0.290508 0.153355 0.049623
Si Si6 0.732460 0.780840 0.295003
Si Si7 0.200239 0.716369 0.826393
Si Si8 0.014056 0.836491 0.567343
O O1 0.073843 0.268392 0.746869
O O2 0.700562 0.439137 0.761042
O O3 0.991692 0.968143 0.807406
O O4 0.954208 0.998924 0.656331
O O5 0.761516 0.806623 0.387925
O O6 0.767701 0.438343 0.444390
O O7 0.855407 0.748651 0.541285
O O8 0.500000 0.000000 0.500000
O O9 0.339700 0.139483 0.140958
O O10 0.640199 0.192698 0.162889
O O11 0.539172 0.053290 0.274230
O O12 0.788999 0.404901 0.096516
O O13 0.500000 0.500000 0.000000
O O14 0.801053 0.524200 0.959698
O O15 0.808350 0.028901 0.979108
O O16 0.500000 0.000000 0.000000
O O17 0.723678 0.515978 0.253405
O O18 0.000000 0.000000 0.500000
#
# Coordination Sequence:
#
# PCOD9087809 Si02
#       8
#     2   2   2   2   2   2   2   2
#     4  11  26  44  63 100 134 175 222 278 349 406
#     4  11  26  42  69 100 126 177 229 269 338 416
#     4  11  25  40  70  95 131 178 227 276 346 417
#     4  10  19  36  69  93 136 179 232 288 353 407
#     4  10  19  39  65 100 131 182 234 287 350 414
#     4  11  24  43  64  97 134 171 221 283 339 405
#     4  11  23  43  67  94 134 178 221 283 338 413
#     4  11  24  46  65  90 140 171 212 284 334 396
#
# _framework density 24.213622000000001
#
# number of rings (size 3 to 8) (size 9 to 14) (size 15 to 20)
#    0.000    1.250    5.000    1.500    5.250    1.500 
#    0.000    1.250    0.000    0.000    0.000    0.000 
#    0.000    0.000    0.000    0.000    0.000    0.000 
#
# Total GULP energy -89464.977812 kJ/mol
# GULP energy per Si atom -5591.561113 kJ/mol
# Density = 2.415851 g / cm^3
# Si number density = 24.213622 Si / 1000 Ang^3
#
#
#
# Elastic Constant Matrix: (Units=GPa)
#
#
# Indices 1 2 3 4 5 6 
#
# 1 64.9294 22.9316 13.6584 3.7448 7.7032 6.3383
# 2 22.9316 152.3978 30.9932 -10.9766 1.6387 -16.5965
# 3 13.6584 30.9932 109.6219 -10.1178 20.0911 -0.7038
# 4 3.7448 -10.9766 -10.1178 47.0092 6.1308 -0.0585
# 5 7.7032 1.6387 20.0911 6.1308 32.0601 9.0063
# 6 6.3383 -16.5965 -0.7038 -0.0585 9.0063 37.4864
#
#
#
# Elastic Compliance Matrix: (Units=1/GPa)
#
#
# Indices 1 2 3 4 5 6 
#
# 1 0.017398 -0.002916 -0.001236 -0.002106 -0.001777 -0.003832
# 2 -0.002916 0.007900 -0.001663 0.001739 -0.000114 0.003989
# 3 -0.001236 -0.001663 0.011499 0.003215 -0.007885 0.001588
# 4 -0.002106 0.001739 0.003215 0.023440 -0.006889 0.002878
# 5 -0.001777 -0.000114 -0.007885 -0.006889 0.040597 -0.009662
# 6 -0.003832 0.003989 0.001588 0.002878 -0.009662 0.031446
#
#
# Mechanical properties :
#
#
# Convention : Reuss Voigt Hill
#
# Bulk Modulus (GPa) = 39.73888 51.34617 45.54253
# Shear Modulus (GPa) = 32.83003 40.60222 36.71613
#
# Velocity S-wave (km/s) = 3.68618 4.09936 3.89825
# Velocity P-wave (km/s) = 5.87917 6.60741 6.25390
#
# Compressibility (1/GPa) = 0.02516427
#
# Stress axis : x y z
#
# Youngs Moduli (GPa) = 57.47842 126.58600 86.96755
#
# Poissons Ratio (x) = 0.36917 0.10753
# Poissons Ratio (y) = 0.16763 0.14464
# Poissons Ratio (z) = 0.07107 0.21053
#
# Static dielectric constant tensor:
#      x y z
#    x 1.977390 0.067780 0.008260 
#    y 0.067780 2.040170 0.015000 
#    z 0.008260 0.015000 1.890300 
# 
# From -- ./inp_files/106312.got.cif
#   From: 2010.05.17/outbox.cif.g08.bks.cpg/sg2_54_cif.got.tgz:106312.got - 2010.06.03 11:33:40.
