data_PCOD9087878
_publ_section_title
;
Structure prediction by ZEFSAII (Michael W. Deem and Ramdas Pophale) SiO2 
 PCOD9087878
Probable space group: P -1
;
_chemical_formula_sum "Si O2"
_cell_formula_units_Z 16
_cell_length_a 9.597805
_cell_length_b 8.707150
_cell_length_c 14.406409
_cell_angle_alpha 101.435365
_cell_angle_beta 135.629889
_cell_angle_gamma 93.851070
_cell_volume 785.932769
_symmetry_space_group_name_H-M "P -1"
_symmetry_group_IT_number 2
_symmetry_cell_setting 'triclinic'
loop_
_space_group_symop_operation_xyz
x,y,z
-x,-y,-z
loop_
_atom_site_type_symbol
_atom_site_label
_atom_site_fract_x
_atom_site_fract_y
_atom_site_fract_z
Si Si1 0.259969 0.943157 0.845627
Si Si2 0.101556 0.621440 0.852246
Si Si3 0.528106 0.298507 0.811122
Si Si4 0.263780 0.738341 0.650980
Si Si5 0.079337 0.085280 0.921482
Si Si6 0.175027 0.426688 0.115841
Si Si7 0.655929 0.983939 0.800227
Si Si8 0.147592 0.414509 0.682215
O O1 0.136767 0.775542 0.819478
O O2 0.253648 0.890620 0.729810
O O3 0.157524 0.075886 0.853564
O O4 0.500000 0.000000 0.000000
O O5 0.094867 0.467526 0.765310
O O6 0.898660 0.605169 0.817174
O O7 0.303825 0.652922 0.019004
O O8 0.608845 0.436220 0.786196
O O9 0.548028 0.127378 0.762008
O O10 0.307612 0.308573 0.742850
O O11 0.255068 0.585714 0.696852
O O12 0.064684 0.678140 0.483205
O O13 0.478871 0.809842 0.705167
O O14 0.831457 0.007220 0.807791
O O15 0.147647 0.264025 0.022708
O O16 0.203323 0.992102 0.035760
O O17 0.000000 0.500000 0.000000
#
# Coordination Sequence:
#
# PCOD9087878 Si02
#       8
#     2   2   2   2   2   2   2   2
#     4  11  20  34  60  90 113 143 197 242 282 343
#     4  10  19  37  55  90 115 148 194 237 281 349
#     4  11  20  37  58  91 116 150 191 245 286 334
#     4  10  22  42  56  86 116 157 197 234 280 352
#     4  11  19  35  58  87 114 153 178 245 296 329
#     4  10  20  35  55  86 121 143 185 239 287 342
#     4  11  20  35  59  85 119 144 194 233 293 339
#     4  10  23  38  62  79 121 161 189 234 292 333
#
# _framework density 20.357975
#
# number of rings (size 3 to 8) (size 9 to 14) (size 15 to 20)
#    0.000    1.500    5.000    1.875    1.750    0.500 
#    4.500    1.250    0.000    6.750    0.000    0.000 
#    0.000    0.000    0.000    0.000    0.000    0.000 
#
# Total GULP energy -89303.864587 kJ/mol
# GULP energy per Si atom -5581.491537 kJ/mol
# Density = 2.031164 g / cm^3
# Si number density = 20.357975 Si / 1000 Ang^3
#
#
#
# Elastic Constant Matrix: (Units=GPa)
#
#
# Indices 1 2 3 4 5 6 
#
# 1 109.6952 39.3155 22.9914 16.8938 11.2690 -10.4116
# 2 39.3155 70.5404 11.4276 12.0266 8.0906 -12.0840
# 3 22.9914 11.4276 49.5916 11.8280 6.7503 -7.1887
# 4 16.8938 12.0266 11.8280 19.3452 5.2277 3.6108
# 5 11.2690 8.0906 6.7503 5.2277 16.6551 4.1188
# 6 -10.4116 -12.0840 -7.1887 3.6108 4.1188 41.6221
#
#
#
# Elastic Compliance Matrix: (Units=1/GPa)
#
#
# Indices 1 2 3 4 5 6 
#
# 1 0.012984 -0.004937 -0.002560 -0.006046 -0.004019 0.002295
# 2 -0.004937 0.019838 0.001391 -0.008463 -0.005703 0.006063
# 3 -0.002560 0.001391 0.026165 -0.013969 -0.006686 0.006156
# 4 -0.006046 -0.008463 -0.013969 0.074841 -0.006605 -0.012221
# 5 -0.004019 -0.005703 -0.006686 -0.006605 0.072900 -0.010457
# 6 0.002295 0.006063 0.006156 -0.012221 -0.010457 0.029518
#
#
# Mechanical properties :
#
#
# Convention : Reuss Voigt Hill
#
# Bulk Modulus (GPa) = 21.37867 41.92181 31.65024
# Shear Modulus (GPa) = 18.93576 25.93067 22.43322
#
# Velocity S-wave (km/s) = 3.05313 3.57281 3.32315
# Velocity P-wave (km/s) = 4.79092 6.13653 5.50500
#
# Compressibility (1/GPa) = 0.04677560
#
# Stress axis : x y z
#
# Youngs Moduli (GPa) = 77.01758 50.40775 38.21855
#
# Poissons Ratio (x) = 0.24886 0.09785
# Poissons Ratio (y) = 0.38023 -0.05317
# Poissons Ratio (z) = 0.19718 -0.07013
#
# Static dielectric constant tensor:
#      x y z
#    x 1.795430 0.014020 -0.008970 
#    y 0.014020 1.808140 0.010010 
#    z -0.008970 0.010010 1.671320 
# 
# From -- ./inp_files/395437.got.cif
#   From: 2010.05.17/outbox.cif.g08.bks.cpg/sg2_198_cif.got.tgz:395437.got - 2010.06.03 11:33:40.
