data_PCOD9087199
_publ_section_title
;
Structure prediction by ZEFSAII (Michael W. Deem and Ramdas Pophale) SiO2 
 PCOD9087199
Probable space group: P -1
;
_chemical_formula_sum "Si O2"
_cell_formula_units_Z 16
_cell_length_a 6.325033
_cell_length_b 17.555895
_cell_length_c 10.304508
_cell_angle_alpha 56.778446
_cell_angle_beta 128.688868
_cell_angle_gamma 125.151759
_cell_volume 697.852244
_symmetry_space_group_name_H-M "P -1"
_symmetry_group_IT_number 2
_symmetry_cell_setting 'triclinic'
loop_
_space_group_symop_operation_xyz
x,y,z
-x,-y,-z
loop_
_atom_site_type_symbol
_atom_site_label
_atom_site_fract_x
_atom_site_fract_y
_atom_site_fract_z
Si Si1 0.090470 0.583081 0.063158
Si Si2 0.598381 0.941511 0.272210
Si Si3 0.903131 0.412273 0.645424
Si Si4 0.594377 0.899814 0.889809
Si Si5 0.737474 0.912171 0.644963
Si Si6 0.946580 0.760148 0.784469
Si Si7 0.236449 0.273912 0.815387
Si Si8 0.308722 0.245909 0.583290
O O1 0.044107 0.547116 0.226383
O O2 0.427833 0.653186 0.114635
O O3 0.903943 0.651141 0.903249
O O4 0.000000 0.500000 0.000000
O O5 0.592731 0.919495 0.445242
O O6 0.559106 0.840992 0.277390
O O7 0.614975 0.997523 0.885594
O O8 0.931438 0.011239 0.306160
O O9 0.057653 0.333150 0.757071
O O10 0.000000 0.500000 0.500000
O O11 0.565121 0.347967 0.561978
O O12 0.601812 0.924576 0.716862
O O13 0.276889 0.826586 0.875472
O O14 0.790189 0.833636 0.045754
O O15 0.747289 0.803657 0.748557
O O16 0.895272 0.775453 0.599386
O O17 0.159936 0.255686 0.650787
#
# Coordination Sequence:
#
# PCOD9087199 Si02
#       8
#     2   2   2   2   2   2   2   2
#     4  10  23  42  66  90 119 155 204 259 307 361
#     4   9  19  34  56  90 118 162 198 242 298 357
#     4  11  26  44  63  89 124 162 203 253 309 367
#     4  10  19  36  62  88 122 157 201 250 293 355
#     4   9  17  33  57  86 126 153 197 249 295 348
#     4   9  20  37  60  91 119 159 201 248 300 355
#     4  10  24  42  60  88 124 162 195 250 315 361
#     4  10  23  41  61  87 129 161 199 249 306 361
#
# _framework density 22.927492000000001
#
# number of rings (size 3 to 8) (size 9 to 14) (size 15 to 20)
#    0.000    2.250    0.000    1.875    3.500    6.000 
#    4.500    1.250    0.000    0.000    0.000    0.000 
#    0.000    0.000    0.000    0.000    0.000    0.000 
#
# Total GULP energy -89401.086468 kJ/mol
# GULP energy per Si atom -5587.567904 kJ/mol
# Density = 2.287531 g / cm^3
# Si number density = 22.927492 Si / 1000 Ang^3
#
#
#
# Elastic Constant Matrix: (Units=GPa)
#
#
# Indices 1 2 3 4 5 6 
#
# 1 41.6948 20.9222 7.3241 1.0991 -6.9246 -15.5659
# 2 20.9222 118.1347 34.9335 -6.5030 -6.1371 -17.1334
# 3 7.3241 34.9335 56.1280 -1.9504 -2.4037 0.8894
# 4 1.0991 -6.5030 -1.9504 33.4264 -8.7641 -6.4813
# 5 -6.9246 -6.1371 -2.4037 -8.7641 24.8712 -2.0005
# 6 -15.5659 -17.1334 0.8894 -6.4813 -2.0005 22.1032
#
#
#
# Elastic Compliance Matrix: (Units=1/GPa)
#
#
# Indices 1 2 3 4 5 6 
#
# 1 0.039118 0.000582 -0.004962 0.009100 0.016364 0.032349
# 2 0.000582 0.013386 -0.008147 0.006296 0.005983 0.013502
# 3 -0.004962 -0.008147 0.023474 -0.003222 -0.003223 -0.011991
# 4 0.009100 0.006296 -0.003222 0.040840 0.020196 0.025222
# 5 0.016364 0.005983 -0.003223 0.020196 0.055233 0.027212
# 6 0.032349 0.013502 -0.011991 0.025222 0.027212 0.088831
#
#
# Mechanical properties :
#
#
# Convention : Reuss Voigt Hill
#
# Bulk Modulus (GPa) = 19.63665 38.03522 28.83594
# Shear Modulus (GPa) = 16.50645 26.26534 21.38590
#
# Velocity S-wave (km/s) = 2.68608 3.38832 3.05743
# Velocity P-wave (km/s) = 4.26654 5.65093 5.00681
#
# Compressibility (1/GPa) = 0.05092518
#
# Stress axis : x y z
#
# Youngs Moduli (GPa) = 25.56370 74.70227 42.59979
#
# Poissons Ratio (x) = -0.04349 0.21140
# Poissons Ratio (y) = -0.01488 0.34704
# Poissons Ratio (z) = 0.12686 0.60856
#
# Static dielectric constant tensor:
#      x y z
#    x 1.857110 -0.020790 0.036030 
#    y -0.020790 1.823490 -0.024690 
#    z 0.036030 -0.024690 1.881560 
# 
# From -- ./inp_files/99692.got.cif
#   From: 2010.05.17/outbox.cif.g08.bks.cpg/sg2_50_cif.got.tgz:99692.got - 2010.06.03 11:33:40.
