data_PCOD9087983
_publ_section_title
;
Structure prediction by ZEFSAII (Michael W. Deem and Ramdas Pophale) SiO2 
 PCOD9087983
Probable space group: P -1
;
_chemical_formula_sum "Si O2"
_cell_formula_units_Z 16
_cell_length_a 12.503233
_cell_length_b 8.498307
_cell_length_c 13.440634
_cell_angle_alpha 48.615869
_cell_angle_beta 116.338991
_cell_angle_gamma 140.861120
_cell_volume 669.120232
_symmetry_space_group_name_H-M "P -1"
_symmetry_group_IT_number 2
_symmetry_cell_setting 'triclinic'
loop_
_space_group_symop_operation_xyz
x,y,z
-x,-y,-z
loop_
_atom_site_type_symbol
_atom_site_label
_atom_site_fract_x
_atom_site_fract_y
_atom_site_fract_z
Si Si1 0.227743 0.027401 0.100103
Si Si2 0.418077 0.713715 0.866254
Si Si3 0.785040 0.132987 0.223194
Si Si4 0.044821 0.844410 0.901152
Si Si5 0.191552 0.120918 0.256885
Si Si6 0.489717 0.575851 0.617760
Si Si7 0.270618 0.550652 0.662299
Si Si8 0.835508 0.138320 0.456139
O O1 0.380585 0.059367 0.124183
O O2 0.158074 0.937509 0.221740
O O3 0.320672 0.372822 0.990998
O O4 0.084803 0.838111 0.034493
O O5 0.397636 0.721298 0.736975
O O6 0.316235 0.777170 0.846143
O O7 0.889596 0.233235 0.122664
O O8 0.640650 0.772160 0.309949
O O9 0.896177 0.232198 0.328596
O O10 0.155581 0.200363 0.781708
O O11 0.859022 0.704505 0.859965
O O12 0.391393 0.341191 0.273648
O O13 0.098602 0.935107 0.400253
O O14 0.378900 0.639605 0.572029
O O15 0.635991 0.813205 0.500361
O O16 0.174043 0.647988 0.585018
#
# Coordination Sequence:
#
# PCOD9087983 Si02
#       8
#     2   2   2   2   2   2   2   2
#     4  10  19  37  58  79 103 138 179 227 256 305
#     4   9  18  33  60  81 101 134 182 222 264 302
#     4  10  20  36  55  82 107 137 176 216 269 317
#     4  10  22  35  54  77 111 145 174 213 262 319
#     4  10  21  35  55  78 109 143 176 214 265 311
#     4   9  18  32  54  81 107 137 172 221 263 306
#     4   9  16  34  56  80 103 136 183 222 259 304
#     4   9  19  32  59  77 108 137 176 222 263 308
#
# _framework density 23.911995000000001
#
# number of rings (size 3 to 8) (size 9 to 14) (size 15 to 20)
#    0.750    1.750    1.250    1.125    1.750    1.500 
#    0.000    0.625    8.250    0.000    0.000    0.000 
#    0.000    0.000    0.000    0.000    0.000    0.000 
#
# Total GULP energy -89313.052781 kJ/mol
# GULP energy per Si atom -5582.065799 kJ/mol
# Density = 2.385757 g / cm^3
# Si number density = 23.911995 Si / 1000 Ang^3
#
#
#
# Elastic Constant Matrix: (Units=GPa)
#
#
# Indices 1 2 3 4 5 6 
#
# 1 127.0587 29.9782 44.9348 19.9521 -2.5365 -24.3240
# 2 29.9782 67.3370 26.5120 7.0066 -1.7050 -14.9474
# 3 44.9348 26.5120 108.5556 21.0382 -16.2106 -10.1146
# 4 19.9521 7.0066 21.0382 37.8506 -1.2650 -6.0227
# 5 -2.5365 -1.7050 -16.2106 -1.2650 37.7754 -1.1258
# 6 -24.3240 -14.9474 -10.1146 -6.0227 -1.1258 27.0088
#
#
#
# Elastic Compliance Matrix: (Units=1/GPa)
#
#
# Indices 1 2 3 4 5 6 
#
# 1 0.011206 -0.001906 -0.003045 -0.002722 -0.000515 0.007268
# 2 -0.001906 0.018552 -0.003215 0.000528 -0.000431 0.007446
# 3 -0.003045 -0.003215 0.012900 -0.004894 0.005005 -0.000573
# 4 -0.002722 0.000528 -0.004894 0.030892 -0.001140 0.002849
# 5 -0.000515 -0.000431 0.005005 -0.001140 0.028591 0.002110
# 6 0.007268 0.007446 -0.000573 0.002849 0.002110 0.048200
#
#
# Mechanical properties :
#
#
# Convention : Reuss Voigt Hill
#
# Bulk Modulus (GPa) = 37.98549 56.20014 47.09282
# Shear Modulus (GPa) = 28.49857 33.96205 31.23031
#
# Velocity S-wave (km/s) = 3.45601 3.77277 3.61786
# Velocity P-wave (km/s) = 5.64317 6.52168 6.09826
#
# Compressibility (1/GPa) = 0.02632584
#
# Stress axis : x y z
#
# Youngs Moduli (GPa) = 89.24150 53.90222 77.52057
#
# Poissons Ratio (x) = 0.10275 0.23604
# Poissons Ratio (y) = 0.17012 0.24920
# Poissons Ratio (z) = 0.27173 0.17327
#
# Static dielectric constant tensor:
#      x y z
#    x 1.908270 0.026080 -0.015530 
#    y 0.026080 1.921880 -0.024010 
#    z -0.015530 -0.024010 1.949260 
# 
# From -- ./inp_files/271205.got.cif
#   From: 2010.05.17/outbox.cif.g08.bks.cpg/sg2_136_cif.got.tgz:271205.got - 2010.06.03 11:33:40.
