data_PCOD9087160
_publ_section_title
;
Structure prediction by ZEFSAII (Michael W. Deem and Ramdas Pophale) SiO2 
 PCOD9087160
Probable space group: P -1
;
_chemical_formula_sum "Si O2"
_cell_formula_units_Z 16
_cell_length_a 17.263234
_cell_length_b 7.065222
_cell_length_c 7.771277
_cell_angle_alpha 91.885381
_cell_angle_beta 49.970221
_cell_angle_gamma 72.528168
_cell_volume 658.317590
_symmetry_space_group_name_H-M "P -1"
_symmetry_group_IT_number 2
_symmetry_cell_setting 'triclinic'
loop_
_space_group_symop_operation_xyz
x,y,z
-x,-y,-z
loop_
_atom_site_type_symbol
_atom_site_label
_atom_site_fract_x
_atom_site_fract_y
_atom_site_fract_z
Si Si1 0.577690 0.306104 0.765146
Si Si2 0.859431 0.742035 0.850038
Si Si3 0.092037 0.702161 0.388100
Si Si4 0.732889 0.150167 0.823254
Si Si5 0.971715 0.149047 0.879704
Si Si6 0.875578 0.684140 0.218582
Si Si7 0.585227 0.559079 0.271110
Si Si8 0.267358 0.510965 0.638653
O O1 0.654184 0.134277 0.784152
O O2 0.493220 0.274129 0.751092
O O3 0.662499 0.379436 0.546605
O O4 0.500000 0.500000 0.000000
O O5 0.854864 0.531379 0.776979
O O6 0.988346 0.704962 0.643149
O O7 0.783522 0.941882 0.855737
O O8 0.836865 0.778744 0.087085
O O9 0.174945 0.771858 0.375568
O O10 0.054995 0.859814 0.282347
O O11 0.663252 0.346895 0.053859
O O12 0.851060 0.324702 0.115120
O O13 0.084338 0.187248 0.706752
O O14 0.000000 0.000000 0.000000
O O15 0.778587 0.622362 0.419116
O O16 0.000000 0.500000 0.000000
O O17 0.500000 0.500000 0.500000
O O18 0.657753 0.613875 0.309288
#
# Coordination Sequence:
#
# PCOD9087160 Si02
#       8
#     2   2   2   2   2   2   2   2
#     4   9  21  36  62  90 111 151 208 259 301 362
#     4  11  23  37  56  87 129 159 200 238 293 377
#     4  11  23  38  55  87 128 167 187 244 298 358
#     4  11  21  37  62  87 114 161 200 242 313 356
#     4  11  22  35  57  92 124 158 204 235 291 378
#     4  10  20  36  55  84 120 157 196 237 291 360
#     4   9  18  38  61  86 111 148 204 256 305 347
#     4  10  19  36  62  85 115 159 189 249 310 344
#
# _framework density 24.304379999999998
#
# number of rings (size 3 to 8) (size 9 to 14) (size 15 to 20)
#    0.000    1.750    3.750    1.125    5.250    0.000 
#    0.000    0.000    0.000   24.000    0.000    0.000 
#    0.000    0.000    0.000    0.000    0.000    0.000 
#
# Total GULP energy -89307.066137 kJ/mol
# GULP energy per Si atom -5581.691634 kJ/mol
# Density = 2.424906 g / cm^3
# Si number density = 24.304380 Si / 1000 Ang^3
#
#
#
# Elastic Constant Matrix: (Units=GPa)
#
#
# Indices 1 2 3 4 5 6 
#
# 1 149.2388 51.4946 3.7642 8.2023 -15.6778 -28.3338
# 2 51.4946 91.9956 2.1783 -3.0583 -5.3360 -26.0994
# 3 3.7642 2.1783 70.3652 1.1440 -11.9433 4.7516
# 4 8.2023 -3.0583 1.1440 19.8988 -5.2702 5.0439
# 5 -15.6778 -5.3360 -11.9433 -5.2702 33.1576 1.0093
# 6 -28.3338 -26.0994 4.7516 5.0439 1.0093 45.7204
#
#
#
# Elastic Compliance Matrix: (Units=1/GPa)
#
#
# Indices 1 2 3 4 5 6 
#
# 1 0.009455 -0.004159 -0.000075 -0.004768 0.002896 0.003955
# 2 -0.004159 0.014950 -0.000587 0.002729 0.000488 0.005706
# 3 -0.000075 -0.000587 0.015322 0.001115 0.005634 -0.002221
# 4 -0.004768 0.002729 0.001115 0.056662 0.007834 -0.007937
# 5 0.002896 0.000488 0.005634 0.007834 0.034886 -0.000147
# 6 0.003955 0.005706 -0.002221 -0.007937 -0.000147 0.028690
#
#
# Mechanical properties :
#
#
# Convention : Reuss Voigt Hill
#
# Bulk Modulus (GPa) = 33.24034 47.38597 40.31315
# Shear Modulus (GPa) = 27.83434 36.69952 32.26693
#
# Velocity S-wave (km/s) = 3.38781 3.89008 3.64760
# Velocity P-wave (km/s) = 5.38604 6.30208 5.86198
#
# Compressibility (1/GPa) = 0.03008393
#
# Stress axis : x y z
#
# Youngs Moduli (GPa) = 105.76675 66.89058 65.26614
#
# Poissons Ratio (x) = 0.27820 0.00490
# Poissons Ratio (y) = 0.43989 0.03832
# Poissons Ratio (z) = 0.00794 0.03928
#
# Static dielectric constant tensor:
#      x y z
#    x 1.995070 0.054260 0.033250 
#    y 0.054260 2.059990 0.048550 
#    z 0.033250 0.048550 1.974880 
# 
# From -- ./inp_files/326035.got.cif
#   From: 2010.05.17/outbox.cif.g08.bks.cpg/sg2_164_cif.got.tgz:326035.got - 2010.06.03 11:33:40.
