data_PCOD9087885
_publ_section_title
;
Structure prediction by ZEFSAII (Michael W. Deem and Ramdas Pophale) SiO2 
 PCOD9087885
Probable space group: P -1
;
_chemical_formula_sum "Si O2"
_cell_formula_units_Z 14
_cell_length_a 8.716109
_cell_length_b 15.966860
_cell_length_c 10.789314
_cell_angle_alpha 131.431814
_cell_angle_beta 40.524989
_cell_angle_gamma 138.882100
_cell_volume 627.511414
_symmetry_space_group_name_H-M "P -1"
_symmetry_group_IT_number 2
_symmetry_cell_setting 'triclinic'
loop_
_space_group_symop_operation_xyz
x,y,z
-x,-y,-z
loop_
_atom_site_type_symbol
_atom_site_label
_atom_site_fract_x
_atom_site_fract_y
_atom_site_fract_z
Si Si1 0.851636 0.398050 0.102110
Si Si2 0.906044 0.091584 0.586354
Si Si3 0.281447 0.327802 0.760935
Si Si4 0.622464 0.256841 0.645917
Si Si5 0.788430 0.540544 0.505744
Si Si6 0.996313 0.834672 0.678360
Si Si7 0.478878 0.162394 0.924316
O O1 0.745581 0.459585 0.328207
O O2 0.084004 0.371160 0.987578
O O3 0.000000 0.500000 0.000000
O O4 0.625124 0.266404 0.047027
O O5 0.108845 0.233893 0.660960
O O6 0.946003 0.094598 0.418289
O O7 0.600694 0.067648 0.772713
O O8 0.000000 0.000000 0.500000
O O9 0.372653 0.251745 0.722893
O O10 0.553438 0.450880 0.658175
O O11 0.575469 0.229186 0.794795
O O12 0.889475 0.400842 0.600942
O O13 0.726267 0.160242 0.441002
O O14 0.806942 0.678786 0.616657
O O15 0.837584 0.881322 0.908160
#
# Coordination Sequence:
#
# PCOD9087885 Si02
#       7
#     2   2   2   2   2   2   2
#     4  11  19  32  50  79 109 147 185 212 261 317
#     4  10  22  40  59  81 104 139 190 232 269 316
#     4  11  22  35  56  81 113 145 180 225 270 321
#     4   9  21  35  51  84 115 146 174 216 274 328
#     4  10  20  33  55  82 114 144 178 214 268 325
#     4   9  20  37  57  79 112 144 179 223 270 321
#     4  10  19  37  56  79 112 145 179 225 269 322
#
# _framework density 22.310351000000001
#
# number of rings (size 3 to 8) (size 9 to 14) (size 15 to 20)
#    0.857    1.143    1.429    3.000    0.000    4.000 
#    0.000    2.857    0.000    1.714    0.000    0.000 
#    0.000    0.000    0.000    0.000    0.000    0.000 
#
# Total GULP energy -78109.311487 kJ/mol
# GULP energy per Si atom -5579.236535 kJ/mol
# Density = 2.225957 g / cm^3
# Si number density = 22.310351 Si / 1000 Ang^3
#
#
#
# Elastic Constant Matrix: (Units=GPa)
#
#
# Indices 1 2 3 4 5 6 
#
# 1 94.8416 21.9762 52.5388 10.1858 -29.6069 -7.6711
# 2 21.9762 46.5918 41.2622 24.1935 0.0967 -11.2959
# 3 52.5388 41.2622 161.2085 6.4858 -33.9196 -7.9475
# 4 10.1858 24.1935 6.4858 13.2194 -5.9385 2.9370
# 5 -29.6069 0.0967 -33.9196 -5.9385 33.8467 19.9677
# 6 -7.6711 -11.2959 -7.9475 2.9370 19.9677 34.6344
#
#
#
# Elastic Compliance Matrix: (Units=1/GPa)
#
#
# Indices 1 2 3 4 5 6 
#
# 1 0.015554 0.003470 -0.003961 -0.013623 0.006654 0.000987
# 2 0.003470 -0.016869 0.007189 0.045859 0.034017 -0.026584
# 3 -0.003961 0.007189 0.005645 -0.016601 -0.004851 0.006967
# 4 -0.013623 0.045859 -0.016601 -0.026456 -0.059776 0.044836
# 5 0.006654 0.034017 -0.004851 -0.059776 0.015413 0.007638
# 6 0.000987 -0.026584 0.006967 0.044836 0.007638 0.013814
#
#
# Mechanical properties :
#
#
# Convention : Reuss Voigt Hill
#
# Bulk Modulus (GPa) = 56.41329 59.35515 57.88422
# Shear Modulus (GPa) = -12940.23769 28.79775 -6455.71997
#
# Velocity S-wave (km/s) = -76.24104 3.59664 -53.85054
# Velocity P-wave (km/s) = 87.89153 6.62645 61.97181
#
# Compressibility (1/GPa) = 0.01772632
#
# Stress axis : x y z
#
# Youngs Moduli (GPa) = 64.29264 -59.28090 177.15858
#
# Poissons Ratio (x) = 0.20572 0.70164
# Poissons Ratio (y) = -0.22312 -1.27351
# Poissons Ratio (z) = 0.25463 0.42614
#
# Static dielectric constant tensor:
#      x y z
#    x 1.848660 0.061240 -0.053390 
#    y 0.061240 1.844150 0.023660 
#    z -0.053390 0.023660 1.833570 
# 
# From -- ./inp_files/399528.got.cif
#   From: 2010.05.17/outbox.cif.g08.bks.cpg/sg2_200_cif.got.tgz:399528.got - 2010.06.03 11:33:40.
