data_PCOD9087107
_publ_section_title
;
Structure prediction by ZEFSAII (Michael W. Deem and Ramdas Pophale) SiO2 
 PCOD9087107
Probable space group: P -1
;
_chemical_formula_sum "Si O2"
_cell_formula_units_Z 14
_cell_length_a 15.151668
_cell_length_b 5.184720
_cell_length_c 9.398309
_cell_angle_alpha 71.823225
_cell_angle_beta 56.926209
_cell_angle_gamma 87.719151
_cell_volume 579.860297
_symmetry_space_group_name_H-M "P -1"
_symmetry_group_IT_number 2
_symmetry_cell_setting 'triclinic'
loop_
_space_group_symop_operation_xyz
x,y,z
-x,-y,-z
loop_
_atom_site_type_symbol
_atom_site_label
_atom_site_fract_x
_atom_site_fract_y
_atom_site_fract_z
Si Si1 0.184623 0.874142 0.425858
Si Si2 0.805035 0.085715 0.916324
Si Si3 0.397569 0.625669 0.882396
Si Si4 0.584963 0.884396 0.847751
Si Si5 0.840530 0.724346 0.370785
Si Si6 0.085596 0.748968 0.938991
Si Si7 0.724654 0.536385 0.244762
O O1 0.159264 0.912496 0.277016
O O2 0.129520 0.573876 0.575112
O O3 0.313269 0.891215 0.313267
O O4 0.167184 0.123066 0.499925
O O5 0.692636 0.196747 0.019317
O O6 0.890863 0.260597 0.913013
O O7 0.785904 0.781108 0.050154
O O8 0.517048 0.767693 0.790675
O O9 0.379630 0.561636 0.741595
O O10 0.378511 0.357594 0.047862
O O11 0.500000 0.000000 0.000000
O O12 0.734165 0.656647 0.375133
O O13 0.918999 0.945998 0.170096
O O14 0.201017 0.697799 0.781923
O O15 0.000000 0.500000 0.000000
#
# Coordination Sequence:
#
# PCOD9087107 Si02
#       7
#     2   2   2   2   2   2   2
#     4  12  23  42  63 101 134 175 209 273 336 373
#     4  10  21  37  70  94 127 173 222 264 320 392
#     4  10  19  36  61  96 125 166 234 268 300 370
#     4  11  21  34  62  98 129 172 227 272 302 384
#     4  11  25  42  66  94 141 170 205 272 346 382
#     4  10  23  46  73  97 123 172 224 266 318 408
#     4  10  20  43  67  92 128 174 219 262 325 398
#
# _framework density 24.143743000000001
#
# number of rings (size 3 to 8) (size 9 to 14) (size 15 to 20)
#    0.000    1.429    4.286    0.857    4.000    2.286 
#    0.000    2.857    0.000    0.000    0.000    0.000 
#    0.000    0.000    0.000    0.000    0.000    0.000 
#
# Total GULP energy -78254.453487 kJ/mol
# GULP energy per Si atom -5589.603821 kJ/mol
# Density = 2.408879 g / cm^3
# Si number density = 24.143743 Si / 1000 Ang^3
#
#
#
# Elastic Constant Matrix: (Units=GPa)
#
#
# Indices 1 2 3 4 5 6 
#
# 1 92.1627 26.3236 10.8663 10.6409 18.4162 25.7818
# 2 26.3236 100.5857 27.7262 5.3336 25.4411 19.7481
# 3 10.8663 27.7262 80.0877 13.7158 22.1103 15.0279
# 4 10.6409 5.3336 13.7158 49.0319 16.9873 16.0122
# 5 18.4162 25.4411 22.1103 16.9873 45.4922 8.8651
# 6 25.7818 19.7481 15.0279 16.0122 8.8651 50.5159
#
#
#
# Elastic Compliance Matrix: (Units=1/GPa)
#
#
# Indices 1 2 3 4 5 6 
#
# 1 0.013652 -0.001652 0.000890 0.000301 -0.003982 -0.005983
# 2 -0.001652 0.013046 -0.002541 0.002744 -0.005762 -0.003359
# 3 0.000890 -0.002541 0.015488 -0.001521 -0.005384 -0.002641
# 4 0.000301 0.002744 -0.001521 0.026069 -0.009205 -0.007422
# 5 -0.003982 -0.005762 -0.005384 -0.009205 0.032257 0.003143
# 6 -0.005983 -0.003359 -0.002641 -0.007422 0.003143 0.026749
#
#
# Mechanical properties :
#
#
# Convention : Reuss Voigt Hill
#
# Bulk Modulus (GPa) = 28.10642 44.74090 36.42366
# Shear Modulus (GPa) = 34.31043 42.86933 38.58988
#
# Velocity S-wave (km/s) = 3.77382 4.21834 4.00226
# Velocity P-wave (km/s) = 5.53675 6.50363 6.03957
#
# Compressibility (1/GPa) = 0.03557906
#
# Stress axis : x y z
#
# Youngs Moduli (GPa) = 73.24953 76.65173 64.56696
#
# Poissons Ratio (x) = 0.12665 -0.05747
# Poissons Ratio (y) = 0.12103 0.16407
# Poissons Ratio (z) = -0.06520 0.19478
#
# Static dielectric constant tensor:
#      x y z
#    x 2.012390 -0.055770 0.011150 
#    y -0.055770 2.065140 0.025770 
#    z 0.011150 0.025770 1.943210 
# 
# From -- ./inp_files/34784.got.cif
#   From: 2010.05.17/outbox.cif.g08.bks.cpg/sg2_18_cif.got.tgz:34784.got - 2010.06.03 11:33:40.
