data_PCOD9087971
_publ_section_title
;
Structure prediction by ZEFSAII (Michael W. Deem and Ramdas Pophale) SiO2 
 PCOD9087971
Probable space group: P -1
;
_chemical_formula_sum "Si O2"
_cell_formula_units_Z 16
_cell_length_a 8.175818
_cell_length_b 13.485081
_cell_length_c 13.974030
_cell_angle_alpha 106.438063
_cell_angle_beta 105.499123
_cell_angle_gamma 26.851259
_cell_volume 667.047974
_symmetry_space_group_name_H-M "P -1"
_symmetry_group_IT_number 2
_symmetry_cell_setting 'triclinic'
loop_
_space_group_symop_operation_xyz
x,y,z
-x,-y,-z
loop_
_atom_site_type_symbol
_atom_site_label
_atom_site_fract_x
_atom_site_fract_y
_atom_site_fract_z
Si Si1 0.345955 0.417965 0.466094
Si Si2 0.244288 0.030825 0.307999
Si Si3 0.137118 0.844187 0.902399
Si Si4 0.669635 0.394191 0.857929
Si Si5 0.431569 0.525585 0.361331
Si Si6 0.742600 0.753110 0.625503
Si Si7 0.075621 0.534968 0.108441
Si Si8 0.675932 0.624876 0.234251
O O1 0.239909 0.533229 0.383557
O O2 0.615152 0.348172 0.546685
O O3 0.482436 0.230869 0.410153
O O4 0.996797 0.607648 0.532116
O O5 0.438690 0.037312 0.341629
O O6 0.143667 0.046172 0.189150
O O7 0.855907 0.263141 0.357166
O O8 0.457212 0.818649 0.324140
O O9 0.323749 0.639735 0.918123
O O10 0.491993 0.701022 0.866962
O O11 0.000000 0.000000 0.000000
O O12 0.651483 0.407251 0.742436
O O13 0.982356 0.314283 0.895968
O O14 0.595882 0.312564 0.840291
O O15 0.014914 0.599059 0.717243
O O16 0.863260 0.600422 0.181092
O O17 0.000000 0.500000 0.000000
#
# Coordination Sequence:
#
# PCOD9087971 Si02
#       8
#     2   2   2   2   2   2   2   2
#     4   9  17  31  65  81 118 159 196 250 297 354
#     4  10  21  37  59  85 121 160 196 244 300 351
#     4   9  18  40  61  82 122 153 194 251 287 353
#     4   9  20  38  61  83 122 159 195 237 303 352
#     4   9  16  37  57  85 115 163 196 236 305 352
#     4  10  19  37  57  91 115 158 202 244 303 348
#     4  10  22  38  62  92 119 153 202 249 296 354
#     4  12  21  40  65  83 125 163 194 248 302 352
#
# _framework density 23.986281999999999
#
# number of rings (size 3 to 8) (size 9 to 14) (size 15 to 20)
#    0.750    1.500    3.750    1.500    0.000    0.500 
#    2.250    6.875    0.000    0.000    0.000    0.000 
#    0.000    0.000    0.000    0.000    0.000    0.000 
#
# Total GULP energy -89128.116095 kJ/mol
# GULP energy per Si atom -5570.507256 kJ/mol
# Density = 2.393169 g / cm^3
# Si number density = 23.986282 Si / 1000 Ang^3
#
#
#
# Elastic Constant Matrix: (Units=GPa)
#
#
# Indices 1 2 3 4 5 6 
#
# 1 160.9920 30.5270 39.0554 23.3356 36.6229 18.7513
# 2 30.5270 51.6981 15.6867 7.9419 4.2521 16.0049
# 3 39.0554 15.6867 96.7760 18.2867 35.5094 8.0384
# 4 23.3356 7.9419 18.2867 16.8667 11.0438 12.9411
# 5 36.6229 4.2521 35.5094 11.0438 45.9607 19.4785
# 6 18.7513 16.0049 8.0384 12.9411 19.4785 29.1069
#
#
#
# Elastic Compliance Matrix: (Units=1/GPa)
#
#
# Indices 1 2 3 4 5 6 
#
# 1 0.010111 -0.006695 0.002638 -0.014481 -0.010072 0.009618
# 2 -0.006695 0.031609 -0.009851 0.015659 0.018977 -0.030008
# 3 0.002638 -0.009851 0.022105 -0.027352 -0.022110 0.024569
# 4 -0.014481 0.015659 -0.027352 0.138428 0.028668 -0.072458
# 5 -0.010072 0.018977 -0.022110 0.028668 0.059615 -0.050481
# 6 0.009618 -0.030008 0.024569 -0.072458 -0.050481 0.103873
#
#
# Mechanical properties :
#
#
# Convention : Reuss Voigt Hill
#
# Bulk Modulus (GPa) = 27.77085 53.33382 40.55234
# Shear Modulus (GPa) = 12.32856 33.33333 22.83095
#
# Velocity S-wave (km/s) = 2.26958 3.73189 3.08853
# Velocity P-wave (km/s) = 4.29778 6.39161 5.44627
#
# Compressibility (1/GPa) = 0.03600898
#
# Stress axis : x y z
#
# Youngs Moduli (GPa) = 98.90133 31.63614 45.23766
#
# Poissons Ratio (x) = 0.21182 -0.11933
# Poissons Ratio (y) = 0.66218 0.44563
# Poissons Ratio (z) = -0.26088 0.31165
#
# Static dielectric constant tensor:
#      x y z
#    x 2.052470 0.003980 0.024610 
#    y 0.003980 2.036270 -0.022000 
#    z 0.024610 -0.022000 1.947100 
# 
# From -- ./inp_files/504161.got.cif
#   From: 2010.05.17/outbox.cif.g08.bks.cpg/sg2_253_cif.got.tgz:504161.got - 2010.06.03 11:33:40.
