data_PCOD9087007
_publ_section_title
;
Structure prediction by ZEFSAII (Michael W. Deem and Ramdas Pophale) SiO2 
 PCOD9087007
Probable space group: P -1
;
_chemical_formula_sum "Si O2"
_cell_formula_units_Z 14
_cell_length_a 8.320547
_cell_length_b 10.167287
_cell_length_c 12.294447
_cell_angle_alpha 54.325253
_cell_angle_beta 50.223729
_cell_angle_gamma 45.524240
_cell_volume 552.837103
_symmetry_space_group_name_H-M "P -1"
_symmetry_group_IT_number 2
_symmetry_cell_setting 'triclinic'
loop_
_space_group_symop_operation_xyz
x,y,z
-x,-y,-z
loop_
_atom_site_type_symbol
_atom_site_label
_atom_site_fract_x
_atom_site_fract_y
_atom_site_fract_z
Si Si1 0.125522 0.126610 0.118816
Si Si2 0.004488 0.818689 0.321324
Si Si3 0.743018 0.770775 0.756230
Si Si4 0.464495 0.507237 0.383321
Si Si5 0.827313 0.624050 0.188757
Si Si6 0.531041 0.854372 0.416300
Si Si7 0.259457 0.852975 0.016672
O O1 0.191049 0.167766 0.187700
O O2 0.967947 0.026621 0.250790
O O3 0.322866 0.956958 0.035472
O O4 0.051486 0.303023 0.985490
O O5 0.186610 0.669895 0.401303
O O6 0.180008 0.729619 0.179458
O O7 0.746882 0.844812 0.396966
O O8 0.966263 0.557717 0.747759
O O9 0.691317 0.933009 0.613407
O O10 0.489706 0.771695 0.877927
O O11 0.500000 0.500000 0.500000
O O12 0.654611 0.563843 0.229758
O O13 0.520456 0.298675 0.435640
O O14 0.652406 0.780314 0.278340
O O15 0.000000 0.000000 0.000000
#
# Coordination Sequence:
#
# PCOD9087007 Si02
#       7
#     2   2   2   2   2   2   2
#     4  10  20  35  62  89 123 153 197 248 308 362
#     4  10  20  38  66  88 118 164 200 243 309 360
#     4  12  21  37  64  89 125 158 199 254 302 361
#     4  10  22  38  63  88 118 164 209 248 294 354
#     4  11  23  38  60  96 119 157 208 248 304 360
#     4  11  22  42  61  83 126 164 202 249 296 357
#     4  10  19  36  61  88 120 157 187 239 313 360
#
# _framework density 25.323915
#
# number of rings (size 3 to 8) (size 9 to 14) (size 15 to 20)
#    0.857    0.571    2.857    3.857    0.000    0.571 
#    0.000    9.286    0.000    5.143    0.000    0.000 
#    0.000    0.000    0.000    0.000    0.000    0.000 
#
# Total GULP energy -78183.178758 kJ/mol
# GULP energy per Si atom -5584.512768 kJ/mol
# Density = 2.526628 g / cm^3
# Si number density = 25.323915 Si / 1000 Ang^3
#
#
#
# Elastic Constant Matrix: (Units=GPa)
#
#
# Indices 1 2 3 4 5 6 
#
# 1 94.2146 37.4055 48.5301 -29.0511 -0.4569 -14.7801
# 2 37.4055 128.0193 59.3958 -27.8814 -6.4429 -28.8938
# 3 48.5301 59.3958 88.5187 -34.8008 3.0122 4.6785
# 4 -29.0511 -27.8814 -34.8008 44.6922 -0.6305 7.9212
# 5 -0.4569 -6.4429 3.0122 -0.6305 35.5619 -8.4105
# 6 -14.7801 -28.8938 4.6785 7.9212 -8.4105 34.3786
#
#
#
# Elastic Compliance Matrix: (Units=1/GPa)
#
#
# Indices 1 2 3 4 5 6 
#
# 1 0.018871 0.005310 -0.014223 0.001828 0.006129 0.015590
# 2 0.005310 0.022079 -0.021177 -0.003993 0.012332 0.027658
# 3 -0.014223 -0.021177 0.042585 0.017143 -0.016222 -0.037627
# 4 0.001828 -0.003993 0.017143 0.036944 -0.004957 -0.014628
# 5 0.006129 0.012332 -0.016222 -0.004957 0.037771 0.025590
# 6 0.015590 0.027658 -0.037627 -0.014628 0.025590 0.073787
#
#
# Mechanical properties :
#
#
# Convention : Reuss Voigt Hill
#
# Bulk Modulus (GPa) = 42.81796 66.82392 54.82094
# Shear Modulus (GPa) = 16.66651 33.95463 25.31057
#
# Velocity S-wave (km/s) = 2.56819 3.66568 3.16487
# Velocity P-wave (km/s) = 5.07336 6.66043 5.92031
#
# Compressibility (1/GPa) = 0.02335469
#
# Stress axis : x y z
#
# Youngs Moduli (GPa) = 52.99102 45.29279 23.48227
#
# Poissons Ratio (x) = -0.24051 0.33399
# Poissons Ratio (y) = -0.28139 0.49729
# Poissons Ratio (z) = 0.75370 0.95917
#
# Static dielectric constant tensor:
#      x y z
#    x 2.016830 0.037340 -0.026040 
#    y 0.037340 2.054960 0.031280 
#    z -0.026040 0.031280 2.119280 
# 
# From -- ./inp_files/499982.got.cif
#   From: 2010.05.17/outbox.cif.g08.bks.cpg/sg2_250_cif.got.tgz:499982.got - 2010.06.03 11:33:40.
