data_PCOD9087438
_publ_section_title
;
Structure prediction by ZEFSAII (Michael W. Deem and Ramdas Pophale) SiO2 
 PCOD9087438
Probable space group: P -1
;
_chemical_formula_sum "Si O2"
_cell_formula_units_Z 14
_cell_length_a 11.705510
_cell_length_b 11.375995
_cell_length_c 8.576589
_cell_angle_alpha 140.394661
_cell_angle_beta 96.637615
_cell_angle_gamma 103.567882
_cell_volume 621.585854
_symmetry_space_group_name_H-M "P -1"
_symmetry_group_IT_number 2
_symmetry_cell_setting 'triclinic'
loop_
_space_group_symop_operation_xyz
x,y,z
-x,-y,-z
loop_
_atom_site_type_symbol
_atom_site_label
_atom_site_fract_x
_atom_site_fract_y
_atom_site_fract_z
Si Si1 0.894908 0.704812 0.745922
Si Si2 0.994583 0.776462 0.314592
Si Si3 0.706281 0.224001 0.178941
Si Si4 0.510688 0.368010 0.218340
Si Si5 0.772639 0.959105 0.150979
Si Si6 0.146303 0.838419 0.110284
Si Si7 0.766447 0.683812 0.380925
O O1 0.811133 0.452185 0.504215
O O2 0.867617 0.730963 0.589747
O O3 0.837692 0.826558 0.959647
O O4 0.046570 0.795701 0.906725
O O5 0.045795 0.708869 0.102460
O O6 0.842126 0.632526 0.203851
O O7 0.112920 0.850209 0.534876
O O8 0.000000 0.000000 0.500000
O O9 0.569960 0.225704 0.150162
O O10 0.717945 0.045644 0.093462
O O11 0.751832 0.223999 0.007587
O O12 0.500000 0.500000 0.500000
O O13 0.621340 0.522254 0.266038
O O14 0.364858 0.216727 0.967310
O O15 0.222736 0.089466 0.421138
#
# Coordination Sequence:
#
# PCOD9087438 Si02
#       7
#     2   2   2   2   2   2   2
#     4  11  20  37  65  95 127 155 209 261 320 353
#     4  10  22  38  66  90 129 174 204 248 320 367
#     4  11  23  37  65 100 121 161 214 261 311 369
#     4  11  22  40  63  95 127 161 208 263 319 368
#     4  12  21  42  67  92 132 162 205 265 309 371
#     4  11  20  39  62  94 131 162 210 259 305 376
#     4  10  19  36  63  93 121 165 203 253 316 363
#
# _framework density 22.523036000000001
#
# number of rings (size 3 to 8) (size 9 to 14) (size 15 to 20)
#    0.000    1.143    7.143    2.143    0.000    1.143 
#    0.000   10.000    0.000    0.000    0.000    0.000 
#    0.000    0.000    0.000    0.000    0.000    0.000 
#
# Total GULP energy -78175.906811 kJ/mol
# GULP energy per Si atom -5583.993344 kJ/mol
# Density = 2.247177 g / cm^3
# Si number density = 22.523036 Si / 1000 Ang^3
#
#
#
# Elastic Constant Matrix: (Units=GPa)
#
#
# Indices 1 2 3 4 5 6 
#
# 1 147.6990 33.0861 29.6786 1.2153 -14.3188 30.8651
# 2 33.0861 69.2939 7.5271 4.5534 -4.6988 32.6950
# 3 29.6786 7.5271 48.0101 6.4716 -10.6183 13.6913
# 4 1.2153 4.5534 6.4716 26.6940 11.2274 3.7809
# 5 -14.3188 -4.6988 -10.6183 11.2274 39.0094 5.6149
# 6 30.8651 32.6950 13.6913 3.7809 5.6149 37.9764
#
#
#
# Elastic Compliance Matrix: (Units=1/GPa)
#
#
# Indices 1 2 3 4 5 6 
#
# 1 0.009181 -0.001014 -0.003091 -0.000028 0.003272 -0.005955
# 2 -0.001014 0.027982 0.007279 -0.007297 0.010935 -0.026780
# 3 -0.003091 0.007279 0.030788 -0.012183 0.013889 -0.015695
# 4 -0.000028 -0.007297 -0.012183 0.048606 -0.019452 0.008735
# 5 0.003272 0.010935 0.013889 -0.019452 0.040575 -0.021143
# 6 -0.005955 -0.026780 -0.015695 0.008735 -0.021143 0.062143
#
#
# Mechanical properties :
#
#
# Convention : Reuss Voigt Hill
#
# Bulk Modulus (GPa) = 13.45917 45.06518 29.26217
# Shear Modulus (GPa) = 21.03562 33.71670 27.37616
#
# Velocity S-wave (km/s) = 3.05939 3.87329 3.49015
# Velocity P-wave (km/s) = 4.29750 6.32891 5.40942
#
# Compressibility (1/GPa) = 0.07429880
#
# Stress axis : x y z
#
# Youngs Moduli (GPa) = 108.92538 35.73761 32.48006
#
# Poissons Ratio (x) = 0.03625 0.10038
# Poissons Ratio (y) = 0.11049 -0.23643
# Poissons Ratio (z) = 0.33664 -0.26014
#
# Static dielectric constant tensor:
#      x y z
#    x 1.822520 0.040410 -0.007320 
#    y 0.040410 1.954480 0.031620 
#    z -0.007320 0.031620 1.858900 
# 
# From -- ./inp_files/255977.got.cif
#   From: 2010.05.17/outbox.cif.g08.bks.cpg/sg2_128_cif.got.tgz:255977.got - 2010.06.03 11:33:40.
