data_PCOD9087407
_publ_section_title
;
Structure prediction by ZEFSAII (Michael W. Deem and Ramdas Pophale) SiO2 
 PCOD9087407
Probable space group: P -1
;
_chemical_formula_sum "Si O2"
_cell_formula_units_Z 16
_cell_length_a 10.638679
_cell_length_b 12.263544
_cell_length_c 5.324778
_cell_angle_alpha 77.124537
_cell_angle_beta 90.171991
_cell_angle_gamma 82.897848
_cell_volume 671.713722
_symmetry_space_group_name_H-M "P -1"
_symmetry_group_IT_number 2
_symmetry_cell_setting 'triclinic'
loop_
_space_group_symop_operation_xyz
x,y,z
-x,-y,-z
loop_
_atom_site_type_symbol
_atom_site_label
_atom_site_fract_x
_atom_site_fract_y
_atom_site_fract_z
Si Si1 0.512350 0.686797 0.490289
Si Si2 0.793078 0.852255 0.117119
Si Si3 0.613396 0.489667 0.205347
Si Si4 0.741810 0.660831 0.891355
Si Si5 0.926586 0.263750 0.704385
Si Si6 0.971957 0.378033 0.155204
Si Si7 0.086802 0.976344 0.262682
Si Si8 0.456777 0.066701 0.715061
O O1 0.569632 0.587606 0.354123
O O2 0.389031 0.634524 0.621267
O O3 0.624278 0.688653 0.693373
O O4 0.487281 0.814012 0.335226
O O5 0.926759 0.794938 0.252803
O O6 0.696732 0.914437 0.283104
O O7 0.724238 0.749254 0.070763
O O8 0.815265 0.935401 0.842955
O O9 0.500000 0.500000 0.000000
O O10 0.733745 0.532860 0.052399
O O11 0.879903 0.676558 0.784789
O O12 0.913146 0.357329 0.437185
O O13 0.857887 0.155558 0.686663
O O14 0.908018 0.316491 0.956165
O O15 0.000000 0.500000 0.000000
O O16 0.000000 0.000000 0.500000
O O17 0.000000 0.000000 0.000000
O O18 0.500000 0.000000 0.500000
O O19 0.500000 0.000000 0.000000
#
# Coordination Sequence:
#
# PCOD9087407 Si02
#       8
#     2   2   2   2   2   2   2   2
#     4  10  20  39  61  89 120 159 217 257 312 371
#     4  10  21  40  64  91 122 164 219 258 305 381
#     4   9  19  35  64  90 114 154 211 270 305 356
#     4  10  19  36  63  91 116 158 212 261 305 368
#     4  10  21  40  63  89 119 163 207 259 304 374
#     4  11  23  38  60  91 128 159 200 255 320 369
#     4  10  20  36  62  95 119 152 203 262 306 359
#     4  12  26  40  60  90 132 170 204 260 319 376
#
# _framework density 23.819672000000001
#
# number of rings (size 3 to 8) (size 9 to 14) (size 15 to 20)
#    0.000    1.750    1.250    4.125    3.500    4.000 
#    0.000    2.500    0.000    0.000    0.000    0.000 
#    0.000    0.000    0.000    0.000    0.000    0.000 
#
# Total GULP energy -89314.051424 kJ/mol
# GULP energy per Si atom -5582.128214 kJ/mol
# Density = 2.376546 g / cm^3
# Si number density = 23.819672 Si / 1000 Ang^3
#
#
#
# Elastic Constant Matrix: (Units=GPa)
#
#
# Indices 1 2 3 4 5 6 
#
# 1 48.7913 17.1856 26.9975 5.5248 -8.7175 10.2803
# 2 17.1856 129.6593 47.5270 -36.4553 -2.5876 26.0612
# 3 26.9975 47.5270 131.5685 -24.6093 -6.6585 12.1632
# 4 5.5248 -36.4553 -24.6093 48.5490 1.6916 -15.8442
# 5 -8.7175 -2.5876 -6.6585 1.6916 31.7880 -7.4693
# 6 10.2803 26.0612 12.1632 -15.8442 -7.4693 35.1836
#
#
#
# Elastic Compliance Matrix: (Units=1/GPa)
#
#
# Indices 1 2 3 4 5 6 
#
# 1 0.028789 -0.003137 -0.005908 -0.011454 0.005104 -0.008121
# 2 -0.003137 0.011566 -0.001969 0.006694 -0.001702 -0.004316
# 3 -0.005908 -0.001969 0.010314 0.005061 0.000586 0.002023
# 4 -0.011454 0.006694 0.005061 0.033264 -0.000607 0.011490
# 5 0.005104 -0.001702 0.000586 -0.000607 0.034426 0.006602
# 6 -0.008121 -0.004316 0.002023 0.011490 0.006602 0.039869
#
#
# Mechanical properties :
#
#
# Convention : Reuss Voigt Hill
#
# Bulk Modulus (GPa) = 34.91500 54.82658 44.87079
# Shear Modulus (GPa) = 26.34322 37.65805 32.00063
#
# Velocity S-wave (km/s) = 3.32918 3.98045 3.66929
# Velocity P-wave (km/s) = 5.42843 6.64775 6.06879
#
# Compressibility (1/GPa) = 0.02864099
#
# Stress axis : x y z
#
# Youngs Moduli (GPa) = 34.73530 86.46102 96.95966
#
# Poissons Ratio (x) = 0.27120 0.57282
# Poissons Ratio (y) = 0.10895 0.19095
# Poissons Ratio (z) = 0.20521 0.17027
#
# Static dielectric constant tensor:
#      x y z
#    x 2.041270 -0.017420 -0.069630 
#    y -0.017420 1.863770 -0.053010 
#    z -0.069630 -0.053010 1.938930 
# 
# From -- ./inp_files/66206.got.cif
#   From: 2010.05.17/outbox.cif.g08.bks.cpg/sg2_34_cif.got.tgz:66206.got - 2010.06.03 11:33:40.
