data_PCOD9087168
_publ_section_title
;
Structure prediction by ZEFSAII (Michael W. Deem and Ramdas Pophale) SiO2 
 PCOD9087168
Probable space group: P -1
;
_chemical_formula_sum "Si O2"
_cell_formula_units_Z 16
_cell_length_a 11.352529
_cell_length_b 20.725146
_cell_length_c 8.222217
_cell_angle_alpha 61.410343
_cell_angle_beta 58.466092
_cell_angle_gamma 25.034818
_cell_volume 697.693649
_symmetry_space_group_name_H-M "P -1"
_symmetry_group_IT_number 2
_symmetry_cell_setting 'triclinic'
loop_
_space_group_symop_operation_xyz
x,y,z
-x,-y,-z
loop_
_atom_site_type_symbol
_atom_site_label
_atom_site_fract_x
_atom_site_fract_y
_atom_site_fract_z
Si Si1 0.685377 0.678145 0.461000
Si Si2 0.799138 0.201623 0.218771
Si Si3 0.177917 0.649247 0.975063
Si Si4 0.224423 0.421145 0.801529
Si Si5 0.262459 0.252792 0.356995
Si Si6 0.800324 0.026990 0.044786
Si Si7 0.050379 0.210175 0.688768
Si Si8 0.499134 0.394302 0.867670
O O1 0.422821 0.743646 0.590317
O O2 0.709098 0.674801 0.255295
O O3 0.624823 0.770099 0.522628
O O4 0.000000 0.500000 0.500000
O O5 0.859986 0.252460 0.191786
O O6 0.627750 0.297771 0.055715
O O7 0.095172 0.028660 0.150471
O O8 0.202470 0.571425 0.924333
O O9 0.500000 0.500000 0.000000
O O10 0.971375 0.744290 0.167240
O O11 0.476532 0.343650 0.808336
O O12 0.053213 0.565798 0.656623
O O13 0.000000 0.500000 0.000000
O O14 0.224174 0.183411 0.481222
O O15 0.474187 0.186815 0.146883
O O16 0.853773 0.919242 0.208829
O O17 0.000000 0.000000 0.000000
O O18 0.719249 0.354702 0.700631
#
# Coordination Sequence:
#
# PCOD9087168 Si02
#       8
#     2   2   2   2   2   2   2   2
#     4  10  21  32  55  82 113 143 194 231 280 334
#     4   9  17  35  58  84 104 149 192 232 272 343
#     4   7  15  27  54  78 111 139 178 224 282 330
#     4  11  25  35  54  86 122 152 182 236 292 341
#     4  11  22  37  59  84 117 151 195 235 275 339
#     4  10  19  36  62  86 111 145 197 241 280 323
#     4   9  20  33  60  89 109 149 191 241 273 337
#     4   9  18  34  55  82 120 146 178 229 301 339
#
# _framework density 22.932699
#
# number of rings (size 3 to 8) (size 9 to 14) (size 15 to 20)
#    0.000    3.000    1.250    1.875   14.000    0.500 
#    0.000    0.000    0.000    9.750    0.000    0.000 
#    0.000    0.000    0.000    0.000    0.000    0.000 
#
# Total GULP energy -89085.347729 kJ/mol
# GULP energy per Si atom -5567.834233 kJ/mol
# Density = 2.288050 g / cm^3
# Si number density = 22.932699 Si / 1000 Ang^3
#
#
#
# Elastic Constant Matrix: (Units=GPa)
#
#
# Indices 1 2 3 4 5 6 
#
# 1 54.5128 8.6827 33.5701 8.2704 1.5669 4.2018
# 2 8.6827 69.8345 7.6621 12.4968 -1.0484 10.1678
# 3 33.5701 7.6621 92.7625 22.5074 -22.1292 -5.3526
# 4 8.2704 12.4968 22.5074 26.6623 -1.4835 -3.0258
# 5 1.5669 -1.0484 -22.1292 -1.4835 43.8351 6.7283
# 6 4.2018 10.1678 -5.3526 -3.0258 6.7283 19.5249
#
#
#
# Elastic Compliance Matrix: (Units=1/GPa)
#
#
# Indices 1 2 3 4 5 6 
#
# 1 0.025929 -0.001443 -0.011238 0.001148 -0.005711 -0.005763
# 2 -0.001443 0.017822 0.001534 -0.010310 0.002598 -0.011043
# 3 -0.011238 0.001534 0.020592 -0.013869 0.010114 0.001630
# 4 0.001148 -0.010310 -0.013869 0.054680 -0.007329 0.012319
# 5 -0.005711 0.002598 0.010114 -0.007329 0.029252 -0.008568
# 6 -0.005763 -0.011043 0.001630 0.012319 -0.008568 0.063516
#
#
# Mechanical properties :
#
#
# Convention : Reuss Voigt Hill
#
# Bulk Modulus (GPa) = 23.78084 35.21551 29.49818
# Shear Modulus (GPa) = 20.15299 29.15079 24.65189
#
# Velocity S-wave (km/s) = 2.96765 3.56918 3.28223
# Velocity P-wave (km/s) = 4.70478 5.68988 5.22062
#
# Compressibility (1/GPa) = 0.04205065
#
# Stress axis : x y z
#
# Youngs Moduli (GPa) = 38.56709 56.10897 48.56163
#
# Poissons Ratio (x) = 0.08096 0.54573
# Poissons Ratio (y) = 0.05565 -0.07450
# Poissons Ratio (z) = 0.43341 -0.08608
#
# Static dielectric constant tensor:
#      x y z
#    x 1.900160 0.020630 0.013400 
#    y 0.020630 2.043260 0.030990 
#    z 0.013400 0.030990 1.914430 
# 
# From -- ./inp_files/281820.got.cif
#   From: 2010.05.17/outbox.cif.g08.bks.cpg/sg2_141_cif.got.tgz:281820.got - 2010.06.03 11:33:40.
