data_PCOD9087521
_publ_section_title
;
Structure prediction by ZEFSAII (Michael W. Deem and Ramdas Pophale) SiO2 
 PCOD9087521
Probable space group: P -1
;
_chemical_formula_sum "Si O2"
_cell_formula_units_Z 14
_cell_length_a 13.513808
_cell_length_b 10.856703
_cell_length_c 13.740688
_cell_angle_alpha 91.004892
_cell_angle_beta 64.568233
_cell_angle_gamma 34.309474
_cell_volume 699.953931
_symmetry_space_group_name_H-M "P -1"
_symmetry_group_IT_number 2
_symmetry_cell_setting 'triclinic'
loop_
_space_group_symop_operation_xyz
x,y,z
-x,-y,-z
loop_
_atom_site_type_symbol
_atom_site_label
_atom_site_fract_x
_atom_site_fract_y
_atom_site_fract_z
Si Si1 0.217545 0.343692 0.674335
Si Si2 0.790307 0.151097 0.822758
Si Si3 0.246422 0.569618 0.773289
Si Si4 0.833971 0.690107 0.672891
Si Si5 0.433712 0.314633 0.885024
Si Si6 0.056188 0.612397 0.217984
Si Si7 0.268125 0.829233 0.552104
O O1 0.254439 0.422776 0.725761
O O2 0.019048 0.578554 0.669052
O O3 0.069338 0.377216 0.784155
O O4 0.500000 0.000000 0.500000
O O5 0.683403 0.152052 0.799385
O O6 0.500000 0.500000 0.000000
O O7 0.002848 0.888768 0.816884
O O8 0.972465 0.060593 0.681529
O O9 0.214677 0.597955 0.902937
O O10 0.557914 0.306190 0.617430
O O11 0.815341 0.580905 0.739507
O O12 0.000000 0.500000 0.500000
O O13 0.551530 0.063629 0.788258
O O14 0.286726 0.437020 0.051062
O O15 0.811268 0.963687 0.353206
O O16 0.500000 0.500000 0.500000
#
# Coordination Sequence:
#
# PCOD9087521 Si02
#       7
#     2   2   2   2   2   2   2
#     4  10  19  36  64  88 128 161 207 262 322 373
#     4  11  23  43  67  89 130 174 213 270 317 366
#     4  11  23  42  66  95 130 165 216 265 320 386
#     4  10  21  38  65  92 126 167 206 259 323 381
#     4  12  23  41  67  96 129 167 214 266 326 380
#     4  10  21  37  64  93 130 165 208 268 316 379
#     4  10  21  40  65  89 126 171 216 266 310 372
#
# _framework density 20.001318000000001
#
# number of rings (size 3 to 8) (size 9 to 14) (size 15 to 20)
#    0.857    0.571    4.286    2.143    0.000    1.714 
#    0.000    1.429    0.000    0.000    0.000    0.000 
#    0.000    0.000    0.000    0.000    0.000    0.000 
#
# Total GULP energy -77942.131582 kJ/mol
# GULP energy per Si atom -5567.295113 kJ/mol
# Density = 1.995579 g / cm^3
# Si number density = 20.001318 Si / 1000 Ang^3
#
#
#
# Elastic Constant Matrix: (Units=GPa)
#
#
# Indices 1 2 3 4 5 6 
#
# 1 78.1205 34.1164 35.3322 -10.3944 -20.1845 10.2548
# 2 34.1164 92.0442 27.4162 -4.1369 7.5386 -0.6157
# 3 35.3322 27.4162 90.2392 -9.0451 -11.6755 0.9840
# 4 -10.3944 -4.1369 -9.0451 38.3152 2.2260 7.2250
# 5 -20.1845 7.5386 -11.6755 2.2260 34.9459 3.8327
# 6 10.2548 -0.6157 0.9840 7.2250 3.8327 28.9301
#
#
#
# Elastic Compliance Matrix: (Units=1/GPa)
#
#
# Indices 1 2 3 4 5 6 
#
# 1 0.025598 -0.009353 -0.004279 0.006405 0.016380 -0.012897
# 2 -0.009353 0.015945 -0.002763 -0.001926 -0.010256 0.005589
# 3 -0.004279 -0.002763 0.014113 0.001677 0.002711 0.000200
# 4 0.006405 -0.001926 0.001677 0.029743 0.003912 -0.010315
# 5 0.016380 -0.010256 0.002711 0.003912 0.042339 -0.012703
# 6 -0.012897 0.005589 0.000200 -0.010315 -0.012703 0.043509
#
#
# Mechanical properties :
#
#
# Convention : Reuss Voigt Hill
#
# Bulk Modulus (GPa) = 43.73428 50.45928 47.09678
# Shear Modulus (GPa) = 23.62290 31.34085 27.48188
#
# Velocity S-wave (km/s) = 3.44039 3.96275 3.71078
# Velocity P-wave (km/s) = 6.13962 6.79858 6.47748
#
# Compressibility (1/GPa) = 0.02286536
#
# Stress axis : x y z
#
# Youngs Moduli (GPa) = 39.06529 62.71568 70.85546
#
# Poissons Ratio (x) = 0.58661 0.30319
# Poissons Ratio (y) = 0.36539 0.19578
# Poissons Ratio (z) = 0.16716 0.17329
#
# Static dielectric constant tensor:
#      x y z
#    x 1.693410 -0.096280 -0.097140 
#    y -0.096280 1.386340 -0.181570 
#    z -0.097140 -0.181570 1.612430 
# 
# From -- ./inp_files/452259.got.cif
#   From: 2010.05.17/outbox.cif.g08.bks.cpg/sg2_227_cif.got.tgz:452259.got - 2010.06.03 11:33:40.
