data_PCOD9087070
_publ_section_title
;
Structure prediction by ZEFSAII (Michael W. Deem and Ramdas Pophale) SiO2 
 PCOD9087070
Probable space group: P -1
;
_chemical_formula_sum "Si O2"
_cell_formula_units_Z 15
_cell_length_a 11.877835
_cell_length_b 7.459371
_cell_length_c 8.087271
_cell_angle_alpha 115.605765
_cell_angle_beta 65.675164
_cell_angle_gamma 105.405749
_cell_volume 585.447682
_symmetry_space_group_name_H-M "P -1"
_symmetry_group_IT_number 2
_symmetry_cell_setting 'triclinic'
loop_
_space_group_symop_operation_xyz
x,y,z
-x,-y,-z
loop_
_atom_site_type_symbol
_atom_site_label
_atom_site_fract_x
_atom_site_fract_y
_atom_site_fract_z
Si Si1 0.862844 0.485299 0.698014
Si Si2 0.549689 0.615833 0.679102
Si Si3 0.346859 0.767373 0.406627
Si Si4 0.300898 0.493061 0.868581
Si Si5 0.390562 0.085737 0.788668
Si Si6 0.000000 0.000000 0.500000
Si Si7 0.237876 0.123854 0.227529
Si Si8 0.075586 0.420672 0.767241
O O1 0.798751 0.284610 0.568318
O O2 0.838447 0.691662 0.708989
O O3 0.004885 0.490601 0.675035
O O4 0.783260 0.476862 0.911851
O O5 0.500000 0.500000 0.500000
O O6 0.612689 0.455520 0.686727
O O7 0.420944 0.653811 0.856829
O O8 0.655001 0.796986 0.676859
O O9 0.460049 0.870369 0.267321
O O10 0.361494 0.891951 0.615816
O O11 0.348214 0.275508 0.786508
O O12 0.217410 0.497232 0.756377
O O13 0.312314 0.068404 0.997407
O O14 0.869285 0.026120 0.690583
O O15 0.929760 0.816084 0.354999
O O16 0.000000 0.500000 0.000000
#
# Coordination Sequence:
#
# PCOD9087070 Si02
#       8
#     2   2   2   2   2   1   2   2
#     4   9  19  39  64  91 124 170 218 266 323 399
#     4  10  19  36  61  91 123 166 210 267 332 394
#     4   9  18  34  63  96 127 166 211 269 327 395
#     4   9  18  36  65  92 128 165 212 268 328 390
#     4   9  18  36  61  95 130 165 214 267 329 391
#     4  12  26  44  62  92 132 178 222 276 324 382
#     4  10  22  42  64  93 129 172 220 268 332 389
#     4  10  23  43  65  95 130 176 219 270 330 390
#
# _framework density 25.621420000000001
#
# number of rings (size 3 to 8) (size 9 to 14) (size 15 to 20)
#    0.000    2.400    0.000    1.600    1.867    3.733 
#   12.000    6.667    0.000    0.000    0.000    0.000 
#    0.000    0.000    0.000    0.000    0.000    0.000 
#
# Total GULP energy -83616.734268 kJ/mol
# GULP energy per Si atom -5574.448951 kJ/mol
# Density = 2.556310 g / cm^3
# Si number density = 25.621420 Si / 1000 Ang^3
#
#
#
# Elastic Constant Matrix: (Units=GPa)
#
#
# Indices 1 2 3 4 5 6 
#
# 1 144.3799 64.3262 31.1493 -13.6659 6.7735 22.9754
# 2 64.3262 62.8546 18.0348 -4.6835 -14.6869 11.5536
# 3 31.1493 18.0348 128.6938 -0.6301 -16.7640 15.9722
# 4 -13.6659 -4.6835 -0.6301 40.9069 12.7442 -10.7220
# 5 6.7735 -14.6869 -16.7640 12.7442 41.6914 -0.7059
# 6 22.9754 11.5536 15.9722 -10.7220 -0.7059 57.4286
#
#
#
# Elastic Compliance Matrix: (Units=1/GPa)
#
#
# Indices 1 2 3 4 5 6 
#
# 1 0.018029 -0.019952 -0.003169 0.007646 -0.013587 -0.001057
# 2 -0.019952 0.040359 0.002146 -0.009152 0.021083 -0.002184
# 3 -0.003169 0.002146 0.009270 -0.003100 0.005908 -0.002248
# 4 0.007646 -0.009152 -0.003100 0.032147 -0.015447 0.005457
# 5 -0.013587 0.021083 0.005908 -0.015447 0.040670 -0.002833
# 6 -0.001057 -0.002184 -0.002248 0.005457 -0.002833 0.019884
#
#
# Mechanical properties :
#
#
# Convention : Reuss Voigt Hill
#
# Bulk Modulus (GPa) = 38.89929 62.54986 50.72457
# Shear Modulus (GPa) = 23.71039 42.83324 33.27182
#
# Velocity S-wave (km/s) = 3.04536 4.09317 3.60751
# Velocity P-wave (km/s) = 5.25175 6.84141 6.09860
#
# Compressibility (1/GPa) = 0.02570741
#
# Stress axis : x y z
#
# Youngs Moduli (GPa) = 55.46770 24.77759 107.87384
#
# Poissons Ratio (x) = 0.49437 0.34184
# Poissons Ratio (y) = 1.10670 -0.23149
# Poissons Ratio (z) = 0.17577 -0.05317
#
# Static dielectric constant tensor:
#      x y z
#    x 2.059220 -0.052700 -0.010150 
#    y -0.052700 2.062610 -0.022000 
#    z -0.010150 -0.022000 2.079380 
# 
# From -- ./inp_files/245363.got.cif
#   From: 2010.05.17/outbox.cif.g08.bks.cpg/sg2_123_cif.got.tgz:245363.got - 2010.06.03 11:33:40.
