data_PCOD9087535
_publ_section_title
;
Structure prediction by ZEFSAII (Michael W. Deem and Ramdas Pophale) SiO2 
 PCOD9087535
Probable space group: P -1
;
_chemical_formula_sum "Si O2"
_cell_formula_units_Z 12
_cell_length_a 15.575652
_cell_length_b 7.658703
_cell_length_c 11.925771
_cell_angle_alpha 61.169367
_cell_angle_beta 31.025006
_cell_angle_gamma 50.330574
_cell_volume 556.817199
_symmetry_space_group_name_H-M "P -1"
_symmetry_group_IT_number 2
_symmetry_cell_setting 'triclinic'
loop_
_space_group_symop_operation_xyz
x,y,z
-x,-y,-z
loop_
_atom_site_type_symbol
_atom_site_label
_atom_site_fract_x
_atom_site_fract_y
_atom_site_fract_z
Si Si1 0.492650 0.423258 0.783563
Si Si2 0.191752 0.614378 0.238732
Si Si3 0.101844 0.343567 0.610950
Si Si4 0.775800 0.083261 0.726101
Si Si5 0.487433 0.905266 0.663484
Si Si6 0.247960 0.276367 0.991739
O O1 0.694011 0.212290 0.661155
O O2 0.482961 0.667873 0.722470
O O3 0.686038 0.834218 0.529694
O O4 0.358208 0.426554 0.034801
O O5 0.017637 0.744031 0.304089
O O6 0.287339 0.744540 0.151590
O O7 0.127839 0.508709 0.442668
O O8 0.963428 0.502474 0.818048
O O9 0.000000 0.000000 0.500000
O O10 0.730623 0.888107 0.875480
O O11 0.601864 0.630062 0.199147
O O12 0.500000 0.000000 0.500000
O O13 0.307705 0.107544 0.870347
#
# Coordination Sequence:
#
# PCOD9087535 Si02
#       6
#     2   2   2   2   2   2
#     4  11  23  40  61  95 130 158 209 259 301 383
#     4  10  19  36  64  89 132 153 187 259 317 364
#     4  10  22  41  61  99 129 154 207 256 305 387
#     4  12  20  34  63 100 127 163 191 248 332 379
#     4  12  26  45  65  85 123 176 215 258 305 352
#     4  11  24  40  65  93 126 164 205 255 320 367
#
# _framework density 21.551058000000001
#
# number of rings (size 3 to 8) (size 9 to 14) (size 15 to 20)
#    0.000    1.000    5.000    2.000    2.333    1.333 
#    0.000    3.333    0.000    0.000    0.000    0.000 
#    0.000    0.000    0.000    0.000    0.000    0.000 
#
# Total GULP energy -66893.268916 kJ/mol
# GULP energy per Si atom -5574.439076 kJ/mol
# Density = 2.150201 g / cm^3
# Si number density = 21.551058 Si / 1000 Ang^3
#
#
#
# Elastic Constant Matrix: (Units=GPa)
#
#
# Indices 1 2 3 4 5 6 
#
# 1 54.9057 15.2200 13.7334 -11.4728 -9.2460 3.2829
# 2 15.2200 56.2597 30.1563 3.9057 2.5257 13.1274
# 3 13.7334 30.1563 77.0446 3.8107 8.7253 -8.1384
# 4 -11.4728 3.9057 3.8107 26.9325 2.4445 -3.7075
# 5 -9.2460 2.5257 8.7253 2.4445 31.1966 -5.1482
# 6 3.2829 13.1274 -8.1384 -3.7075 -5.1482 22.3467
#
#
#
# Elastic Compliance Matrix: (Units=1/GPa)
#
#
# Indices 1 2 3 4 5 6 
#
# 1 0.024472 -0.007142 -0.002710 0.011568 0.008249 0.003433
# 2 -0.007142 0.034340 -0.014014 -0.009311 -0.004679 -0.026850
# 3 -0.002710 -0.014014 0.020917 0.000338 -0.002968 0.015621
# 4 0.011568 -0.009311 0.000338 0.044768 0.002545 0.011907
# 5 0.008249 -0.004679 -0.002968 0.002545 0.037063 0.009416
# 6 0.003433 -0.026850 0.015621 0.011907 0.009416 0.069851
#
#
# Mechanical properties :
#
#
# Convention : Reuss Voigt Hill
#
# Bulk Modulus (GPa) = 31.25341 34.04772 32.65056
# Shear Modulus (GPa) = 17.25268 24.70184 20.97726
#
# Velocity S-wave (km/s) = 2.83247 3.38923 3.12328
# Velocity P-wave (km/s) = 5.02301 5.58111 5.30940
#
# Compressibility (1/GPa) = 0.03199651
#
# Stress axis : x y z
#
# Youngs Moduli (GPa) = 40.86334 29.12052 47.80726
#
# Poissons Ratio (x) = 0.20798 0.12958
# Poissons Ratio (y) = 0.29184 0.66997
# Poissons Ratio (z) = 0.11076 0.40809
#
# Static dielectric constant tensor:
#      x y z
#    x 1.902060 0.074680 -0.023600 
#    y 0.074680 1.949010 0.143650 
#    z -0.023600 0.143650 1.890740 
# 
# From -- ./inp_files/460471.got.cif
#   From: 2010.05.17/outbox.cif.g08.bks.cpg/sg2_231_cif.got.tgz:460471.got - 2010.06.03 11:33:40.
