data_PCOD9087376
_publ_section_title
;
Structure prediction by ZEFSAII (Michael W. Deem and Ramdas Pophale) SiO2 
 PCOD9087376
Probable space group: P -1
;
_chemical_formula_sum "Si O2"
_cell_formula_units_Z 14
_cell_length_a 18.538505
_cell_length_b 9.636416
_cell_length_c 9.274799
_cell_angle_alpha 46.555227
_cell_angle_beta 125.194056
_cell_angle_gamma 140.640570
_cell_volume 759.303832
_symmetry_space_group_name_H-M "P -1"
_symmetry_group_IT_number 2
_symmetry_cell_setting 'triclinic'
loop_
_space_group_symop_operation_xyz
x,y,z
-x,-y,-z
loop_
_atom_site_type_symbol
_atom_site_label
_atom_site_fract_x
_atom_site_fract_y
_atom_site_fract_z
Si Si1 0.918766 0.255346 0.485846
Si Si2 0.546478 0.089487 0.328510
Si Si3 0.684793 0.044482 0.887954
Si Si4 0.303680 0.038753 0.364329
Si Si5 0.704423 0.672470 0.073915
Si Si6 0.022517 0.004946 0.852700
Si Si7 0.096271 0.548318 0.972395
O O1 0.899216 0.326796 0.259434
O O2 0.000000 0.500000 0.500000
O O3 0.980293 0.136143 0.629693
O O4 0.803146 0.081998 0.568970
O O5 0.642004 0.386351 0.224921
O O6 0.500000 0.000000 0.500000
O O7 0.433929 0.013567 0.174321
O O8 0.602317 0.961999 0.447552
O O9 0.720681 0.106845 0.713060
O O10 0.784233 0.265166 0.941709
O O11 0.670596 0.793728 0.061610
O O12 0.333075 0.284910 0.153228
O O13 0.841776 0.843304 0.117100
O O14 0.000000 0.000000 0.000000
O O15 0.946056 0.722481 0.917029
O O16 0.000000 0.500000 0.000000
#
# Coordination Sequence:
#
# PCOD9087376 Si02
#       7
#     2   2   2   2   2   2   2
#     4  12  22  38  63  90 124 169 213 247 307 387
#     4  10  20  35  64  91 116 165 215 253 304 367
#     4   9  20  40  57  90 126 159 196 273 306 348
#     4   9  20  37  60  88 116 162 213 248 298 368
#     4  10  19  36  63  88 124 152 215 250 305 361
#     4  12  22  40  67  93 122 171 204 254 317 377
#     4  12  24  43  60  94 138 156 204 269 315 367
#
# _framework density 18.437940999999999
#
# number of rings (size 3 to 8) (size 9 to 14) (size 15 to 20)
#    0.857    0.571    4.286    2.143    0.000    1.714 
#    5.143    0.714    0.000    1.714    0.000    0.000 
#    0.000    0.000    0.000    0.000    0.000    0.000 
#
# Total GULP energy -77999.879679 kJ/mol
# GULP energy per Si atom -5571.419977 kJ/mol
# Density = 1.839598 g / cm^3
# Si number density = 18.437941 Si / 1000 Ang^3
#
#
#
# Elastic Constant Matrix: (Units=GPa)
#
#
# Indices 1 2 3 4 5 6 
#
# 1 57.8284 6.7719 34.4466 3.3357 22.8528 9.4485
# 2 6.7719 64.7090 39.0081 5.5694 5.1477 4.8091
# 3 34.4466 39.0081 103.0805 -13.7748 14.7820 5.7008
# 4 3.3357 5.5694 -13.7748 31.4831 1.1136 3.1845
# 5 22.8528 5.1477 14.7820 1.1136 38.6772 6.0165
# 6 9.4485 4.8091 5.7008 3.1845 6.0165 29.7266
#
#
#
# Elastic Compliance Matrix: (Units=1/GPa)
#
#
# Indices 1 2 3 4 5 6 
#
# 1 0.029515 0.005547 -0.010891 -0.007937 -0.013056 -0.004697
# 2 0.005547 0.022836 -0.011444 -0.009386 -0.001365 -0.001981
# 3 -0.010891 -0.011444 0.019154 0.011514 0.000251 0.000355
# 4 -0.007937 -0.009386 0.011514 0.039533 0.000799 -0.002564
# 5 -0.013056 -0.001365 0.000251 0.000799 0.034045 -0.002654
# 6 -0.004697 -0.001981 0.000355 -0.002564 -0.002654 0.036197
#
#
# Mechanical properties :
#
#
# Convention : Reuss Voigt Hill
#
# Bulk Modulus (GPa) = 26.36472 42.89678 34.63075
# Shear Modulus (GPa) = 21.97807 29.67013 25.82410
#
# Velocity S-wave (km/s) = 3.45628 4.01582 3.74651
# Velocity P-wave (km/s) = 5.50073 6.69466 6.12685
#
# Compressibility (1/GPa) = 0.03792947
#
# Stress axis : x y z
#
# Youngs Moduli (GPa) = 33.88100 43.79082 52.20724
#
# Poissons Ratio (x) = -0.24292 0.56858
# Poissons Ratio (y) = -0.18795 0.59748
# Poissons Ratio (z) = 0.36899 0.50116
#
# Static dielectric constant tensor:
#      x y z
#    x 1.647740 0.030470 0.037300 
#    y 0.030470 1.567140 0.021730 
#    z 0.037300 0.021730 1.665100 
# 
# From -- ./inp_files/327189.got.cif
#   From: 2010.05.17/outbox.cif.g08.bks.cpg/sg2_164_cif.got.tgz:327189.got - 2010.06.03 11:33:40.
