data_PCOD9087948
_publ_section_title
;
Structure prediction by ZEFSAII (Michael W. Deem and Ramdas Pophale) SiO2 
 PCOD9087948
Probable space group: P -1
;
_chemical_formula_sum "Si O2"
_cell_formula_units_Z 16
_cell_length_a 11.930640
_cell_length_b 12.164099
_cell_length_c 12.676863
_cell_angle_alpha 142.637210
_cell_angle_beta 129.179536
_cell_angle_gamma 46.264735
_cell_volume 792.360752
_symmetry_space_group_name_H-M "P -1"
_symmetry_group_IT_number 2
_symmetry_cell_setting 'triclinic'
loop_
_space_group_symop_operation_xyz
x,y,z
-x,-y,-z
loop_
_atom_site_type_symbol
_atom_site_label
_atom_site_fract_x
_atom_site_fract_y
_atom_site_fract_z
Si Si1 0.567293 0.521807 0.442180
Si Si2 0.726634 0.102940 0.471512
Si Si3 0.089256 0.476652 0.336358
Si Si4 0.919370 0.895966 0.635674
Si Si5 0.267181 0.896382 0.878736
Si Si6 0.850828 0.944683 0.861282
Si Si7 0.888482 0.388044 0.770219
Si Si8 0.226531 0.201281 0.915339
O O1 0.500000 0.500000 0.500000
O O2 0.440791 0.721514 0.468711
O O3 0.731384 0.544257 0.567808
O O4 0.613435 0.317267 0.251375
O O5 0.821682 0.227019 0.572232
O O6 0.823932 0.000239 0.554612
O O7 0.711624 0.943616 0.259303
O O8 0.088966 0.276513 0.226863
O O9 0.047226 0.534336 0.233349
O O10 0.976753 0.661178 0.477798
O O11 0.814836 0.961671 0.729111
O O12 0.086086 0.920939 0.765766
O O13 0.289285 0.066515 0.952912
O O14 0.278016 0.926031 0.032267
O O15 0.000000 0.000000 0.000000
O O16 0.036383 0.275973 0.847725
O O17 0.761885 0.586806 0.901545
#
# Coordination Sequence:
#
# PCOD9087948 Si02
#       8
#     2   2   2   2   2   2   2   2
#     4  11  22  35  59  88 123 160 194 233 308 367
#     4  12  21  39  56  91 124 160 189 245 301 368
#     4  11  20  38  59  90 119 154 201 247 290 363
#     4  10  21  37  64  82 114 160 200 244 300 343
#     4  10  19  37  57  86 119 150 198 252 288 351
#     4  10  22  39  62  88 113 155 207 256 290 337
#     4  11  21  32  59  93 124 151 193 252 309 349
#     4  11  20  32  57  91 122 150 194 252 305 346
#
# _framework density 20.192822
#
# number of rings (size 3 to 8) (size 9 to 14) (size 15 to 20)
#    0.000    1.250    6.250    1.500    0.000    0.000 
#    2.250    3.125    0.000    0.000    0.000    0.000 
#    0.000    0.000    0.000    0.000    0.000    0.000 
#
# Total GULP energy -89300.627276 kJ/mol
# GULP energy per Si atom -5581.289205 kJ/mol
# Density = 2.014686 g / cm^3
# Si number density = 20.192822 Si / 1000 Ang^3
#
#
#
# Elastic Constant Matrix: (Units=GPa)
#
#
# Indices 1 2 3 4 5 6 
#
# 1 58.5364 42.0284 32.6349 4.4426 -20.3982 10.1594
# 2 42.0284 78.5010 34.9835 23.5750 -18.2504 -0.4838
# 3 32.6349 34.9835 84.9136 22.3635 -32.3175 6.8022
# 4 4.4426 23.5750 22.3635 36.0865 3.9719 -1.8193
# 5 -20.3982 -18.2504 -32.3175 3.9719 38.8652 3.7938
# 6 10.1594 -0.4838 6.8022 -1.8193 3.7938 33.8905
#
#
#
# Elastic Compliance Matrix: (Units=1/GPa)
#
#
# Indices 1 2 3 4 5 6 
#
# 1 0.037136 -0.019181 -0.006648 0.011045 0.004804 -0.010017
# 2 -0.019181 0.029311 0.003153 -0.019435 0.007953 0.003602
# 3 -0.006648 0.003153 0.029295 -0.022594 0.025432 -0.007902
# 4 0.011045 -0.019435 -0.022594 0.056560 -0.028598 0.007184
# 5 0.004804 0.007953 0.025432 -0.028598 0.057461 -0.014399
# 6 -0.010017 0.003602 -0.007902 0.007184 -0.014399 0.036144
#
#
# Mechanical properties :
#
#
# Convention : Reuss Voigt Hill
#
# Bulk Modulus (GPa) = 19.84542 49.02715 34.43628
# Shear Modulus (GPa) = 16.23076 29.25538 22.74307
#
# Velocity S-wave (km/s) = 2.83819 3.81044 3.35967
# Velocity P-wave (km/s) = 4.53759 6.60995 5.66927
#
# Compressibility (1/GPa) = 0.05038947
#
# Stress axis : x y z
#
# Youngs Moduli (GPa) = 26.92794 34.11722 34.13513
#
# Poissons Ratio (x) = 0.65442 0.22693
# Poissons Ratio (y) = 0.51651 -0.10763
# Poissons Ratio (z) = 0.17902 -0.10758
#
# Static dielectric constant tensor:
#      x y z
#    x 1.766360 0.076290 -0.039790 
#    y 0.076290 1.876990 -0.074010 
#    z -0.039790 -0.074010 1.823590 
# 
# From -- ./inp_files/171433.got.cif
#   From: 2010.05.17/outbox.cif.g08.bks.cpg/sg2_86_cif.got.tgz:171433.got - 2010.06.03 11:33:40.
