data_PCOD9087760
_publ_section_title
;
Structure prediction by ZEFSAII (Michael W. Deem and Ramdas Pophale) SiO2 
 PCOD9087760
Probable space group: P -1
;
_chemical_formula_sum "Si O2"
_cell_formula_units_Z 12
_cell_length_a 12.709447
_cell_length_b 15.055558
_cell_length_c 5.282653
_cell_angle_alpha 117.346531
_cell_angle_beta 107.857457
_cell_angle_gamma 29.497654
_cell_volume 431.945891
_symmetry_space_group_name_H-M "P -1"
_symmetry_group_IT_number 2
_symmetry_cell_setting 'triclinic'
loop_
_space_group_symop_operation_xyz
x,y,z
-x,-y,-z
loop_
_atom_site_type_symbol
_atom_site_label
_atom_site_fract_x
_atom_site_fract_y
_atom_site_fract_z
Si Si1 0.020048 0.081083 0.800257
Si Si2 0.376417 0.562103 0.739867
Si Si3 0.381962 0.333456 0.629132
Si Si4 0.760783 0.648930 0.958874
Si Si5 0.716872 0.944025 0.850792
Si Si6 0.147329 0.141239 0.662060
O O1 0.961289 0.213521 0.723165
O O2 0.000000 0.000000 0.500000
O O3 0.858754 0.203620 0.079637
O O4 0.231258 0.977024 0.938822
O O5 0.500000 0.500000 0.500000
O O6 0.368502 0.450179 0.632963
O O7 0.500000 0.500000 0.000000
O O8 0.277365 0.408727 0.929727
O O9 0.634462 0.098847 0.536831
O O10 0.271653 0.348581 0.358427
O O11 0.533325 0.885295 0.161896
O O12 0.000000 0.500000 0.000000
O O13 0.873696 0.793986 0.539862
O O14 0.792237 0.837005 0.028713
#
# Coordination Sequence:
#
# PCOD9087760 Si02
#       6
#     2   2   2   2   2   2
#     4  10  22  38  61  84 119 169 216 245 298 374
#     4  12  27  41  59  89 132 172 206 251 318 365
#     4  10  20  39  57  91 126 153 202 266 304 367
#     4  10  19  36  67  92 115 156 208 263 313 363
#     4   8  18  33  55  83 115 146 200 250 298 351
#     4   8  17  33  55  77 110 154 196 246 290 351
#
# _framework density 27.781257
#
# number of rings (size 3 to 8) (size 9 to 14) (size 15 to 20)
#    1.000    1.333    0.000    2.500    2.333    3.333 
#    0.000    0.000    0.000    2.000    0.000    0.000 
#    0.000    0.000    0.000    0.000    0.000    0.000 
#
# Total GULP energy -66978.078303 kJ/mol
# GULP energy per Si atom -5581.506525 kJ/mol
# Density = 2.771803 g / cm^3
# Si number density = 27.781257 Si / 1000 Ang^3
#
#
#
# Elastic Constant Matrix: (Units=GPa)
#
#
# Indices 1 2 3 4 5 6 
#
# 1 133.0626 21.3203 56.6057 -6.2024 -27.2784 -18.0936
# 2 21.3203 97.9228 15.9915 6.4920 4.6726 -18.9060
# 3 56.6057 15.9915 160.6751 -29.7222 -28.8299 3.8322
# 4 -6.2024 6.4920 -29.7222 40.4636 10.0805 3.7642
# 5 -27.2784 4.6726 -28.8299 10.0805 69.0800 -8.0968
# 6 -18.0936 -18.9060 3.8322 3.7642 -8.0968 41.6372
#
#
#
# Elastic Compliance Matrix: (Units=1/GPa)
#
#
# Indices 1 2 3 4 5 6 
#
# 1 0.010533 -0.000672 -0.003538 -0.002316 0.003714 0.005530
# 2 -0.000672 0.012027 -0.001915 -0.003788 -0.000674 0.005557
# 3 -0.003538 -0.001915 0.009169 0.006542 0.001181 -0.003612
# 4 -0.002316 -0.003788 0.006542 0.031220 -0.003280 -0.006789
# 5 0.003714 -0.000674 0.001181 -0.003280 0.017535 0.004906
# 6 0.005530 0.005557 -0.003612 -0.006789 0.004906 0.030843
#
#
# Mechanical properties :
#
#
# Convention : Reuss Voigt Hill
#
# Bulk Modulus (GPa) = 51.33170 64.38839 57.86005
# Shear Modulus (GPa) = 38.44099 50.08567 44.26333
#
# Velocity S-wave (km/s) = 3.72385 4.25061 3.99592
# Velocity P-wave (km/s) = 6.08331 6.87877 6.49323
#
# Compressibility (1/GPa) = 0.01948114
#
# Stress axis : x y z
#
# Youngs Moduli (GPa) = 94.93655 83.14498 109.06521
#
# Poissons Ratio (x) = 0.05585 0.38586
# Poissons Ratio (y) = 0.06377 0.20881
# Poissons Ratio (z) = 0.33587 0.15918
#
# Static dielectric constant tensor:
#      x y z
#    x 2.259450 -0.011250 0.000080 
#    y -0.011250 2.816300 0.306550 
#    z 0.000080 0.306550 2.468820 
# 
# From -- ./inp_files/73630.got.cif
#   From: 2010.05.17/outbox.cif.g08.bks.cpg/sg2_37_cif.got.tgz:73630.got - 2010.06.03 11:33:40.
