data_PCOD9087394
_publ_section_title
;
Structure prediction by ZEFSAII (Michael W. Deem and Ramdas Pophale) SiO2 
 PCOD9087394
Probable space group: P -1
;
_chemical_formula_sum "Si O2"
_cell_formula_units_Z 16
_cell_length_a 13.186759
_cell_length_b 8.644014
_cell_length_c 15.741730
_cell_angle_alpha 140.213202
_cell_angle_beta 134.084630
_cell_angle_gamma 67.050418
_cell_volume 782.882716
_symmetry_space_group_name_H-M "P -1"
_symmetry_group_IT_number 2
_symmetry_cell_setting 'triclinic'
loop_
_space_group_symop_operation_xyz
x,y,z
-x,-y,-z
loop_
_atom_site_type_symbol
_atom_site_label
_atom_site_fract_x
_atom_site_fract_y
_atom_site_fract_z
Si Si1 0.778144 0.710862 0.052327
Si Si2 0.541687 0.912901 0.079467
Si Si3 0.666195 0.588078 0.667889
Si Si4 0.957144 0.572211 0.413717
Si Si5 0.871084 0.037051 0.600958
Si Si6 0.339043 0.786636 0.333543
Si Si7 0.752441 0.072147 0.030293
Si Si8 0.227664 0.726755 0.519895
O O1 0.655734 0.753349 0.064640
O O2 0.951811 0.802947 0.220887
O O3 0.770017 0.900727 0.049449
O O4 0.722068 0.417714 0.864195
O O5 0.623892 0.148805 0.287472
O O6 0.381007 0.807405 0.983676
O O7 0.500000 0.000000 0.000000
O O8 0.500000 0.500000 0.500000
O O9 0.658722 0.401853 0.665663
O O10 0.767681 0.534919 0.629524
O O11 0.721119 0.877523 0.852709
O O12 0.892973 0.319283 0.214773
O O13 0.000000 0.500000 0.500000
O O14 0.100718 0.728836 0.512332
O O15 0.856995 0.747012 0.450713
O O16 0.782005 0.079578 0.650034
O O17 0.795836 0.120569 0.511258
O O18 0.500000 0.000000 0.500000
#
# Coordination Sequence:
#
# PCOD9087394 Si02
#       8
#     2   2   2   2   2   2   2   2
#     4  10  20  40  63  88 128 168 205 248 322 376
#     4  10  19  36  63  90 119 165 209 247 315 369
#     4  10  21  42  64  86 129 165 204 255 317 368
#     4  12  23  40  65  95 126 159 218 258 303 378
#     4  11  23  42  63  90 133 166 202 260 322 372
#     4  10  24  41  63  94 123 165 213 258 307 373
#     4  10  21  38  62  95 122 163 213 260 302 369
#     4  11  23  41  64  91 126 171 203 260 322 368
#
# _framework density 20.437289
#
# number of rings (size 3 to 8) (size 9 to 14) (size 15 to 20)
#    0.000    1.500    3.750    1.500    1.750    1.500 
#    2.250    0.625    0.000    0.000    0.000    0.000 
#    0.000    0.000    0.000    0.000    0.000    0.000 
#
# Total GULP energy -89162.366494 kJ/mol
# GULP energy per Si atom -5572.647906 kJ/mol
# Density = 2.039077 g / cm^3
# Si number density = 20.437289 Si / 1000 Ang^3
#
#
#
# Elastic Constant Matrix: (Units=GPa)
#
#
# Indices 1 2 3 4 5 6 
#
# 1 93.6790 19.7625 23.5821 6.5667 -17.0193 -22.0156
# 2 19.7625 31.7103 30.7794 3.9329 -9.9348 -18.9457
# 3 23.5821 30.7794 136.1108 1.6721 -11.9500 -7.4338
# 4 6.5667 3.9329 1.6721 26.7656 -0.1482 -2.5122
# 5 -17.0193 -9.9348 -11.9500 -0.1482 33.2510 2.3765
# 6 -22.0156 -18.9457 -7.4338 -2.5122 2.3765 21.8896
#
#
#
# Elastic Compliance Matrix: (Units=1/GPa)
#
#
# Indices 1 2 3 4 5 6 
#
# 1 0.016392 0.008274 -0.002772 -0.003004 0.008319 0.021459
# 2 0.008274 0.107193 -0.018564 -0.007916 0.023024 0.091386
# 3 -0.002772 -0.018564 0.011033 0.001324 -0.001940 -0.014746
# 4 -0.003004 -0.007916 0.001324 0.038725 -0.002921 -0.004662
# 5 0.008319 0.023024 -0.001940 -0.002921 0.038851 0.023082
# 6 0.021459 0.091386 -0.014746 -0.004662 0.023082 0.138314
#
#
# Mechanical properties :
#
#
# Convention : Reuss Voigt Hill
#
# Bulk Modulus (GPa) = 9.21699 45.52757 27.37228
# Shear Modulus (GPa) = 12.11253 28.87297 20.49275
#
# Velocity S-wave (km/s) = 2.43712 3.76275 3.17000
# Velocity P-wave (km/s) = 3.52691 6.41894 5.17889
#
# Compressibility (1/GPa) = 0.10849529
#
# Stress axis : x y z
#
# Youngs Moduli (GPa) = 61.00551 9.32900 90.63576
#
# Poissons Ratio (x) = -0.07719 0.25123
# Poissons Ratio (y) = -0.50478 1.68254
# Poissons Ratio (z) = 0.16910 0.17318
#
# Static dielectric constant tensor:
#      x y z
#    x 1.751540 -0.039880 -0.039000 
#    y -0.039880 1.741810 0.015180 
#    z -0.039000 0.015180 1.706440 
# 
# From -- ./inp_files/389723.got.cif
#   From: 2010.05.17/outbox.cif.g08.bks.cpg/sg2_195_cif.got.tgz:389723.got - 2010.06.03 11:33:40.
