data_PCOD9087525
_publ_section_title
;
Structure prediction by ZEFSAII (Michael W. Deem and Ramdas Pophale) SiO2 
 PCOD9087525
Probable space group: P -1
;
_chemical_formula_sum "Si O2"
_cell_formula_units_Z 14
_cell_length_a 8.183804
_cell_length_b 11.554670
_cell_length_c 8.191785
_cell_angle_alpha 71.865436
_cell_angle_beta 52.352715
_cell_angle_gamma 84.545821
_cell_volume 578.201090
_symmetry_space_group_name_H-M "P -1"
_symmetry_group_IT_number 2
_symmetry_cell_setting 'triclinic'
loop_
_space_group_symop_operation_xyz
x,y,z
-x,-y,-z
loop_
_atom_site_type_symbol
_atom_site_label
_atom_site_fract_x
_atom_site_fract_y
_atom_site_fract_z
Si Si1 0.204718 0.538598 0.134503
Si Si2 0.505579 0.744529 0.399834
Si Si3 0.184513 0.374728 0.498536
Si Si4 0.732757 0.695433 0.999826
Si Si5 0.829178 0.239755 0.136674
Si Si6 0.896902 0.867540 0.538183
Si Si7 0.292563 0.023214 0.709754
O O1 0.294963 0.476488 0.262924
O O2 0.222564 0.435700 0.035379
O O3 0.972101 0.558959 0.324070
O O4 0.278507 0.669726 0.953902
O O5 0.643016 0.677990 0.473637
O O6 0.289937 0.758986 0.615903
O O7 0.630426 0.880805 0.241892
O O8 0.523098 0.686784 0.238086
O O9 0.051082 0.265630 0.517787
O O10 0.751896 0.800310 0.800966
O O11 0.930579 0.727070 0.984557
O O12 0.812941 0.108496 0.117598
O O13 0.827350 0.920627 0.386774
O O14 0.000000 0.000000 0.500000
O O15 0.500000 0.000000 0.500000
#
# Coordination Sequence:
#
# PCOD9087525 Si02
#       7
#     2   2   2   2   2   2   2
#     4  10  21  38  59  84 118 160 197 245 291 349
#     4  10  22  38  60  88 118 156 197 245 301 349
#     4   9  20  38  59  83 120 154 198 247 289 352
#     4  11  22  38  60  87 122 152 201 247 290 350
#     4  11  21  36  61  84 119 156 194 243 296 351
#     4  10  19  36  64  89 115 159 199 241 300 355
#     4   9  20  39  60  87 124 150 196 250 293 353
#
# _framework density 24.213031000000001
#
# number of rings (size 3 to 8) (size 9 to 14) (size 15 to 20)
#    0.000    2.000    2.857    0.429    0.000    2.857 
#    0.000    2.857   22.000    0.000    0.000    0.000 
#    0.000    0.000    0.000    0.000    0.000    0.000 
#
# Total GULP energy -77937.328115 kJ/mol
# GULP energy per Si atom -5566.952008 kJ/mol
# Density = 2.415792 g / cm^3
# Si number density = 24.213031 Si / 1000 Ang^3
#
#
#
# Elastic Constant Matrix: (Units=GPa)
#
#
# Indices 1 2 3 4 5 6 
#
# 1 -1.1689 23.0780 6.2698 -10.3787 -16.2290 13.8554
# 2 23.0780 136.6009 30.1572 -13.8355 16.9955 -1.5349
# 3 6.2698 30.1572 97.9598 6.6014 17.6342 -8.3597
# 4 -10.3787 -13.8355 6.6014 52.9326 -13.6401 8.2097
# 5 -16.2290 16.9955 17.6342 -13.6401 17.5602 3.8089
# 6 13.8554 -1.5349 -8.3597 8.2097 3.8089 20.9224
#
#
#
# Elastic Compliance Matrix: (Units=1/GPa)
#
#
# Indices 1 2 3 4 5 6 
#
# 1 -0.007411 0.002295 0.007753 -0.012648 -0.030744 0.018733
# 2 0.002295 0.007810 -0.003734 0.004380 0.002724 -0.004653
# 3 0.007753 -0.003734 0.011115 -0.001089 -0.001158 -0.000329
# 4 -0.012648 0.004380 -0.001089 0.016792 -0.002243 0.002081
# 5 -0.030744 0.002724 -0.001158 -0.002243 0.021622 0.017040
# 6 0.018733 -0.004653 -0.000329 0.002081 0.017040 0.030998
#
#
# Mechanical properties :
#
#
# Convention : Reuss Voigt Hill
#
# Bulk Modulus (GPa) = 41.42019 39.15577 40.28798
# Shear Modulus (GPa) = 65.49112 29.87549 47.68330
#
# Velocity S-wave (km/s) = 5.20640 3.51644 4.44252
# Velocity P-wave (km/s) = 7.29971 5.71784 6.55666
#
# Compressibility (1/GPa) = 0.02414281
#
# Stress axis : x y z
#
# Youngs Moduli (GPa) = -134.94079 128.04582 89.96656
#
# Poissons Ratio (x) = -0.29384 -0.69752
# Poissons Ratio (y) = 0.30967 0.33591
# Poissons Ratio (z) = 1.04622 0.47809
#
# Static dielectric constant tensor:
#      x y z
#    x 1.942230 0.058030 -0.010450 
#    y 0.058030 2.023390 -0.037070 
#    z -0.010450 -0.037070 1.977710 
# 
# From -- ./inp_files/172407.got.cif
#   From: 2010.05.17/outbox.cif.g08.bks.cpg/sg2_87_cif.got.tgz:172407.got - 2010.06.03 11:33:40.
