data_PCOD9087714
_publ_section_title
;
Structure prediction by ZEFSAII (Michael W. Deem and Ramdas Pophale) SiO2 
 PCOD9087714
Probable space group: P -1
;
_chemical_formula_sum "Si O2"
_cell_formula_units_Z 16
_cell_length_a 12.768152
_cell_length_b 8.883252
_cell_length_c 15.003687
_cell_angle_alpha 54.426722
_cell_angle_beta 125.305903
_cell_angle_gamma 146.292330
_cell_volume 751.308317
_symmetry_space_group_name_H-M "P -1"
_symmetry_group_IT_number 2
_symmetry_cell_setting 'triclinic'
loop_
_space_group_symop_operation_xyz
x,y,z
-x,-y,-z
loop_
_atom_site_type_symbol
_atom_site_label
_atom_site_fract_x
_atom_site_fract_y
_atom_site_fract_z
Si Si1 0.464684 0.172093 0.823846
Si Si2 0.932172 0.235506 0.605593
Si Si3 0.676007 0.400351 0.026285
Si Si4 0.357729 0.762956 0.288072
Si Si5 0.506007 0.692046 0.855450
Si Si6 0.495164 0.790290 0.527674
Si Si7 0.745929 0.708442 0.283417
Si Si8 0.913904 0.215460 0.820031
O O1 0.578750 0.288103 0.747079
O O2 0.281963 0.111301 0.762776
O O3 0.385955 0.881482 0.900434
O O4 0.617427 0.390156 0.901055
O O5 0.936888 0.253438 0.710727
O O6 0.000000 0.500000 0.500000
O O7 0.058159 0.195214 0.652333
O O8 0.714296 0.970097 0.559453
O O9 0.540781 0.358188 0.046065
O O10 0.894929 0.646113 0.083907
O O11 0.377458 0.673040 0.419259
O O12 0.155815 0.657151 0.222114
O O13 0.505382 0.099248 0.249314
O O14 0.343060 0.413797 0.816196
O O15 0.726362 0.889257 0.866325
O O16 0.398479 0.554096 0.632070
O O17 0.500000 0.000000 0.500000
#
# Coordination Sequence:
#
# PCOD9087714 Si02
#       8
#     2   2   2   2   2   2   2   2
#     4  10  25  42  60  88 127 162 198 256 307 350
#     4  12  21  33  64  98 114 162 200 245 302 357
#     4  10  21  45  64  82 119 171 206 242 305 362
#     4   9  19  39  61  87 117 161 200 238 299 368
#     4   9  18  36  63  87 117 153 202 250 292 354
#     4  12  19  38  64  90 123 158 198 248 301 358
#     4  12  22  39  60  96 129 149 203 258 297 357
#     4  10  19  36  66  91 110 157 215 240 292 371
#
# _framework density 21.296185999999999
#
# number of rings (size 3 to 8) (size 9 to 14) (size 15 to 20)
#    0.750    0.750    6.250    0.000    1.750    1.500 
#    2.250    1.250    0.000    0.000    0.000    0.000 
#    0.000    0.000    0.000    0.000    0.000    0.000 
#
# Total GULP energy -89303.930625 kJ/mol
# GULP energy per Si atom -5581.495664 kJ/mol
# Density = 2.124771 g / cm^3
# Si number density = 21.296186 Si / 1000 Ang^3
#
#
#
# Elastic Constant Matrix: (Units=GPa)
#
#
# Indices 1 2 3 4 5 6 
#
# 1 160.7098 21.7567 41.2537 2.0847 17.2435 4.8701
# 2 21.7567 36.7811 1.8341 4.8562 8.6004 13.8533
# 3 41.2537 1.8341 74.5032 7.9162 0.1753 2.7919
# 4 2.0847 4.8562 7.9162 17.3527 8.9278 4.7824
# 5 17.2435 8.6004 0.1753 8.9278 41.8876 7.6966
# 6 4.8701 13.8533 2.7919 4.7824 7.6966 36.8842
#
#
#
# Elastic Compliance Matrix: (Units=1/GPa)
#
#
# Indices 1 2 3 4 5 6 
#
# 1 0.008486 -0.004984 -0.005059 0.004156 -0.003581 0.001343
# 2 -0.004984 0.035692 0.003033 -0.006653 -0.001711 -0.011757
# 3 -0.005059 0.003033 0.017212 -0.009629 0.003678 -0.001293
# 4 0.004156 -0.006653 -0.009629 0.072084 -0.015019 -0.003534
# 5 -0.003581 -0.001711 0.003678 -0.015019 0.029504 -0.003372
# 6 0.001343 -0.011757 -0.001293 -0.003534 -0.003372 0.032610
#
#
# Mechanical properties :
#
#
# Convention : Reuss Voigt Hill
#
# Bulk Modulus (GPa) = 21.11166 44.63148 32.87157
# Shear Modulus (GPa) = 22.18295 33.03486 27.60891
#
# Velocity S-wave (km/s) = 3.23095 3.94281 3.60450
# Velocity P-wave (km/s) = 4.88401 6.45993 5.72644
#
# Compressibility (1/GPa) = 0.04736718
#
# Stress axis : x y z
#
# Youngs Moduli (GPa) = 117.84803 28.01780 58.09931
#
# Poissons Ratio (x) = 0.13965 0.29394
# Poissons Ratio (y) = 0.58738 -0.17619
# Poissons Ratio (z) = 0.59623 -0.08497
#
# Static dielectric constant tensor:
#      x y z
#    x 1.837480 -0.041100 0.060720 
#    y -0.041100 1.787100 -0.039320 
#    z 0.060720 -0.039320 1.786930 
# 
# From -- ./inp_files/515238.got.cif
#   From: 2010.05.17/outbox.cif.g08.bks.cpg/sg2_258_cif.got.tgz:515238.got - 2010.06.03 11:33:40.
