data_PCOD9087286
_publ_section_title
;
Structure prediction by ZEFSAII (Michael W. Deem and Ramdas Pophale) SiO2 
 PCOD9087286
Probable space group: P -1
;
_chemical_formula_sum "Si O2"
_cell_formula_units_Z 16
_cell_length_a 13.619884
_cell_length_b 8.970605
_cell_length_c 11.824049
_cell_angle_alpha 139.810085
_cell_angle_beta 58.056469
_cell_angle_gamma 97.901935
_cell_volume 690.930879
_symmetry_space_group_name_H-M "P -1"
_symmetry_group_IT_number 2
_symmetry_cell_setting 'triclinic'
loop_
_space_group_symop_operation_xyz
x,y,z
-x,-y,-z
loop_
_atom_site_type_symbol
_atom_site_label
_atom_site_fract_x
_atom_site_fract_y
_atom_site_fract_z
Si Si1 0.666713 0.069173 0.870785
Si Si2 0.054493 0.461660 0.569495
Si Si3 0.631405 0.067111 0.328266
Si Si4 0.824690 0.517001 0.173451
Si Si5 0.394055 0.366344 0.790309
Si Si6 0.524214 0.785235 0.716394
Si Si7 0.998236 0.736744 0.303342
Si Si8 0.196242 0.734997 0.738898
O O1 0.809712 0.819704 0.662902
O O2 0.575386 0.997992 0.806960
O O3 0.669606 0.324069 0.970262
O O4 0.586023 0.149090 0.083680
O O5 0.963020 0.444985 0.713733
O O6 0.090339 0.691414 0.708559
O O7 0.000000 0.500000 0.500000
O O8 0.548316 0.238017 0.586936
O O9 0.543979 0.211572 0.356201
O O10 0.773009 0.044965 0.203202
O O11 0.632875 0.792116 0.188178
O O12 0.678997 0.665780 0.295443
O O13 0.869134 0.710936 0.321919
O O14 0.833771 0.297804 0.131009
O O15 0.912037 0.378434 0.929315
O O16 0.659154 0.524547 0.515382
O O17 0.000000 0.000000 0.500000
#
# Coordination Sequence:
#
# PCOD9087286 Si02
#       8
#     2   2   2   2   2   2   2   2
#     4  10  21  37  63  91 125 168 210 264 325 387
#     4  10  23  41  66  96 128 168 225 276 323 382
#     4  11  22  35  60  94 131 164 202 260 322 396
#     4  10  21  39  64  91 127 173 219 265 326 391
#     4  11  22  37  58  93 132 164 206 257 327 391
#     4  10  19  36  62  93 125 166 209 259 323 393
#     4  10  22  41  65  92 123 172 225 271 322 383
#     4  10  19  39  66  94 127 175 213 262 331 398
#
# _framework density 23.157164999999999
#
# number of rings (size 3 to 8) (size 9 to 14) (size 15 to 20)
#    0.000    1.750    2.500    1.875    0.000    2.500 
#    0.000    0.000    0.000    9.750    0.000    0.000 
#    0.000    0.000    0.000    0.000    0.000    0.000 
#
# Total GULP energy -89340.285989 kJ/mol
# GULP energy per Si atom -5583.767874 kJ/mol
# Density = 2.310446 g / cm^3
# Si number density = 23.157165 Si / 1000 Ang^3
#
#
#
# Elastic Constant Matrix: (Units=GPa)
#
#
# Indices 1 2 3 4 5 6 
#
# 1 73.4057 47.1536 17.1857 -5.6583 19.8732 12.5571
# 2 47.1536 138.0320 41.0245 -8.7909 0.0172 30.6837
# 3 17.1857 41.0245 84.1977 -10.7250 0.5599 9.1978
# 4 -5.6583 -8.7909 -10.7250 51.2817 4.6240 5.4869
# 5 19.8732 0.0172 0.5599 4.6240 30.2241 0.5461
# 6 12.5571 30.6837 9.1978 5.4869 0.5461 36.8758
#
#
#
# Elastic Compliance Matrix: (Units=1/GPa)
#
#
# Indices 1 2 3 4 5 6 
#
# 1 0.023084 -0.007085 -0.000576 0.002830 -0.015560 -0.002012
# 2 -0.007085 0.012437 -0.003741 0.000914 0.004711 -0.007209
# 3 -0.000576 -0.003741 0.014180 0.002343 -0.000230 -0.000573
# 4 0.002830 0.000914 0.002343 0.021500 -0.005096 -0.005433
# 5 -0.015560 0.004711 -0.000230 -0.005096 0.044071 0.001541
# 6 -0.002012 -0.007209 -0.000573 -0.005433 0.001541 0.034730
#
#
# Mechanical properties :
#
#
# Convention : Reuss Voigt Hill
#
# Bulk Modulus (GPa) = 37.17895 56.26254 46.72074
# Shear Modulus (GPa) = 27.50708 36.36109 31.93409
#
# Velocity S-wave (km/s) = 3.45025 3.96686 3.71754
# Velocity P-wave (km/s) = 5.65351 6.73275 6.21660
#
# Compressibility (1/GPa) = 0.02689694
#
# Stress axis : x y z
#
# Youngs Moduli (GPa) = 43.31974 80.40477 70.52357
#
# Poissons Ratio (x) = 0.56969 0.04060
# Poissons Ratio (y) = 0.30693 0.26383
# Poissons Ratio (z) = 0.02494 0.30080
#
# Static dielectric constant tensor:
#      x y z
#    x 1.889090 0.079110 -0.015770 
#    y 0.079110 1.911620 0.001760 
#    z -0.015770 0.001760 1.976550 
# 
# From -- ./inp_files/448319.got.cif
#   From: 2010.05.17/outbox.cif.g08.bks.cpg/sg2_225_cif.got.tgz:448319.got - 2010.06.03 11:33:40.
