data_PCOD9087440
_publ_section_title
;
Structure prediction by ZEFSAII (Michael W. Deem and Ramdas Pophale) SiO2 
 PCOD9087440
Probable space group: P -1
;
_chemical_formula_sum "Si O2"
_cell_formula_units_Z 16
_cell_length_a 16.636360
_cell_length_b 8.878033
_cell_length_c 9.563590
_cell_angle_alpha 100.325043
_cell_angle_beta 41.291078
_cell_angle_gamma 74.491460
_cell_volume 719.991682
_symmetry_space_group_name_H-M "P -1"
_symmetry_group_IT_number 2
_symmetry_cell_setting 'triclinic'
loop_
_space_group_symop_operation_xyz
x,y,z
-x,-y,-z
loop_
_atom_site_type_symbol
_atom_site_label
_atom_site_fract_x
_atom_site_fract_y
_atom_site_fract_z
Si Si1 0.234122 0.683922 0.363789
Si Si2 0.487102 0.831664 0.447497
Si Si3 0.243466 0.581824 0.886785
Si Si4 0.977381 0.345223 0.563924
Si Si5 0.592691 0.314016 0.121114
Si Si6 0.310268 0.032005 0.186189
Si Si7 0.552862 0.761054 0.028181
Si Si8 0.731354 0.253231 0.367041
O O1 0.095047 0.699619 0.474289
O O2 0.200461 0.791791 0.572806
O O3 0.303207 0.737445 0.161988
O O4 0.373298 0.451858 0.160343
O O5 0.602520 0.643524 0.364409
O O6 0.558287 0.758483 0.186632
O O7 0.320941 0.872005 0.649084
O O8 0.500000 0.000000 0.500000
O O9 0.304822 0.690878 0.894124
O O10 0.178790 0.699035 0.845493
O O11 0.133660 0.583052 0.142223
O O12 0.000000 0.500000 0.500000
O O13 0.136367 0.149748 0.380752
O O14 0.436244 0.532007 0.362745
O O15 0.581009 0.141026 0.097811
O O16 0.380457 0.931453 0.227897
O O17 0.341972 0.186697 0.159415
#
# Coordination Sequence:
#
# PCOD9087440 Si02
#       8
#     2   2   2   2   2   2   2   2
#     4  11  20  39  68  91 128 171 213 258 328 377
#     4  11  22  37  63  94 132 171 208 265 324 375
#     4  10  23  38  61  92 129 172 207 255 333 379
#     4  11  22  45  65  89 131 173 213 262 325 389
#     4  10  19  36  63  93 123 167 209 264 313 374
#     4  11  23  34  68  95 123 156 222 277 302 371
#     4  11  21  38  62 102 117 162 222 269 314 367
#     4  11  21  38  62  97 131 166 210 270 315 381
#
# _framework density 22.222480000000001
#
# number of rings (size 3 to 8) (size 9 to 14) (size 15 to 20)
#    0.000    1.250    6.250    2.625    3.500    2.000 
#    0.000    0.625    2.750    2.250    0.000    0.000 
#    0.000    0.000    0.000    0.000    0.000    0.000 
#
# Total GULP energy -89196.166187 kJ/mol
# GULP energy per Si atom -5574.760387 kJ/mol
# Density = 2.217190 g / cm^3
# Si number density = 22.222480 Si / 1000 Ang^3
#
#
#
# Elastic Constant Matrix: (Units=GPa)
#
#
# Indices 1 2 3 4 5 6 
#
# 1 105.2711 46.2102 34.3031 -7.3114 -6.8002 -0.0412
# 2 46.2102 78.8118 18.8853 0.3034 8.1673 1.3993
# 3 34.3031 18.8853 37.4890 -7.8434 1.9973 -5.2305
# 4 -7.3114 0.3034 -7.8434 33.0918 -6.9121 1.7360
# 5 -6.8002 8.1673 1.9973 -6.9121 34.9556 8.5012
# 6 -0.0412 1.3993 -5.2305 1.7360 8.5012 43.7488
#
#
#
# Elastic Compliance Matrix: (Units=1/GPa)
#
#
# Indices 1 2 3 4 5 6 
#
# 1 0.017766 -0.008179 -0.012330 0.002740 0.007275 -0.002718
# 2 -0.008179 0.018754 -0.002355 -0.003981 -0.006768 0.000584
# 3 -0.012330 -0.002355 0.041398 0.005890 -0.004420 0.005638
# 4 0.002740 -0.003981 0.005890 0.034124 0.008398 -0.002152
# 5 0.007275 -0.006768 -0.004420 0.008398 0.035343 -0.007506
# 6 -0.002718 0.000584 0.005638 -0.002152 -0.007506 0.025055
#
#
# Mechanical properties :
#
#
# Convention : Reuss Voigt Hill
#
# Bulk Modulus (GPa) = 31.06455 46.70767 38.88611
# Shear Modulus (GPa) = 21.84384 30.50414 26.17399
#
# Velocity S-wave (km/s) = 3.13862 3.70898 3.43566
# Velocity P-wave (km/s) = 5.20997 6.27741 5.76843
#
# Compressibility (1/GPa) = 0.03219104
#
# Stress axis : x y z
#
# Youngs Moduli (GPa) = 56.28621 53.32061 24.15596
#
# Poissons Ratio (x) = 0.43609 0.29785
# Poissons Ratio (y) = 0.46034 0.05689
# Poissons Ratio (z) = 0.69401 0.12557
#
# Static dielectric constant tensor:
#      x y z
#    x 1.867840 -0.002930 0.009140 
#    y -0.002930 1.895180 -0.039330 
#    z 0.009140 -0.039330 1.855210 
# 
# From -- ./inp_files/298695.got.cif
#   From: 2010.05.17/outbox.cif.g08.bks.cpg/sg2_150_cif.got.tgz:298695.got - 2010.06.03 11:33:40.
