data_PCOD9087703
_publ_section_title
;
Structure prediction by ZEFSAII (Michael W. Deem and Ramdas Pophale) SiO2 
 PCOD9087703
Probable space group: P -1
;
_chemical_formula_sum "Si O2"
_cell_formula_units_Z 16
_cell_length_a 14.808736
_cell_length_b 8.922616
_cell_length_c 9.148926
_cell_angle_alpha 47.587725
_cell_angle_beta 63.334356
_cell_angle_gamma 51.176083
_cell_volume 694.636108
_symmetry_space_group_name_H-M "P -1"
_symmetry_group_IT_number 2
_symmetry_cell_setting 'triclinic'
loop_
_space_group_symop_operation_xyz
x,y,z
-x,-y,-z
loop_
_atom_site_type_symbol
_atom_site_label
_atom_site_fract_x
_atom_site_fract_y
_atom_site_fract_z
Si Si1 0.684501 0.395383 0.118917
Si Si2 0.497812 0.713105 0.583725
Si Si3 0.672646 0.759586 0.654840
Si Si4 0.123651 0.962281 0.988617
Si Si5 0.142776 0.576719 0.443013
Si Si6 0.014938 0.227953 0.336031
Si Si7 0.687490 0.557405 0.319973
Si Si8 0.840122 0.720098 0.024415
O O1 0.556672 0.425479 0.203486
O O2 0.777565 0.161318 0.123788
O O3 0.715085 0.397633 0.264368
O O4 0.684104 0.606481 0.889688
O O5 0.586715 0.729333 0.622524
O O6 0.567759 0.621022 0.442687
O O7 0.389598 0.966106 0.459669
O O8 0.795884 0.649138 0.554490
O O9 0.125369 0.175278 0.930130
O O10 0.152409 0.771832 0.217578
O O11 0.000000 0.000000 0.000000
O O12 0.017022 0.667376 0.545951
O O13 0.221401 0.541955 0.549711
O O14 0.924071 0.437691 0.156625
O O15 0.000000 0.000000 0.500000
O O16 0.134619 0.183021 0.206108
O O17 0.709730 0.766884 0.109932
#
# Coordination Sequence:
#
# PCOD9087703 Si02
#       8
#     2   2   2   2   2   2   2   2
#     4  11  24  41  65  99 133 163 219 275 319 374
#     4  10  21  42  70  89 134 172 216 256 334 386
#     4   9  21  40  64 100 126 168 214 265 319 395
#     4  11  25  42  65  95 133 171 219 268 322 388
#     4   9  20  41  64  88 132 165 212 258 320 390
#     4  10  19  36  66  86 121 164 218 248 311 383
#     4  10  23  43  65  97 131 166 219 272 320 390
#     4  10  23  40  65  91 129 171 212 263 326 380
#
# _framework density 23.033642
#
# number of rings (size 3 to 8) (size 9 to 14) (size 15 to 20)
#    0.000    2.000    1.250    0.750   12.250    0.500 
#    2.250    2.500    0.000    0.000    0.000    0.000 
#    0.000    0.000    0.000    0.000    0.000    0.000 
#
# Total GULP energy -89241.805281 kJ/mol
# GULP energy per Si atom -5577.612830 kJ/mol
# Density = 2.298122 g / cm^3
# Si number density = 23.033642 Si / 1000 Ang^3
#
#
#
# Elastic Constant Matrix: (Units=GPa)
#
#
# Indices 1 2 3 4 5 6 
#
# 1 60.3468 26.5544 18.1118 20.3456 -20.0020 5.2664
# 2 26.5544 104.6009 64.5823 35.0107 -2.9372 -1.3587
# 3 18.1118 64.5823 140.0646 35.7481 -19.0377 -6.0984
# 4 20.3456 35.0107 35.7481 53.0085 -11.3846 -4.9885
# 5 -20.0020 -2.9372 -19.0377 -11.3846 27.3918 4.3444
# 6 5.2664 -1.3587 -6.0984 -4.9885 4.3444 19.1028
#
#
#
# Elastic Compliance Matrix: (Units=1/GPa)
#
#
# Indices 1 2 3 4 5 6 
#
# 1 0.029465 -0.007458 0.003465 -0.005055 0.023270 -0.014160
# 2 -0.007458 0.017582 -0.006995 -0.006281 -0.011352 0.002015
# 3 0.003465 -0.006995 0.011826 -0.002815 0.008898 -0.000436
# 4 -0.005055 -0.006281 -0.002815 0.028419 0.004466 0.006454
# 5 0.023270 -0.011352 0.008898 0.004466 0.063109 -0.017568
# 6 -0.014160 0.002015 -0.000436 0.006454 -0.017568 0.061937
#
#
# Mechanical properties :
#
#
# Convention : Reuss Voigt Hill
#
# Bulk Modulus (GPa) = 27.10179 58.16770 42.63475
# Shear Modulus (GPa) = 20.27479 32.95154 26.61317
#
# Velocity S-wave (km/s) = 2.97008 3.78641 3.40281
# Velocity P-wave (km/s) = 4.85320 6.66514 5.82999
#
# Compressibility (1/GPa) = 0.03689793
#
# Stress axis : x y z
#
# Youngs Moduli (GPa) = 33.93802 56.87698 84.56251
#
# Poissons Ratio (x) = 0.42420 -0.29303
# Poissons Ratio (y) = 0.25312 0.59147
# Poissons Ratio (z) = -0.11760 0.39783
#
# Static dielectric constant tensor:
#      x y z
#    x 1.954320 -0.066190 -0.033900 
#    y -0.066190 1.937450 0.025970 
#    z -0.033900 0.025970 1.955270 
# 
# From -- ./inp_files/327057.got.cif
#   From: 2010.05.17/outbox.cif.g08.bks.cpg/sg2_164_cif.got.tgz:327057.got - 2010.06.03 11:33:40.
