data_PCOD9087873
_publ_section_title
;
Structure prediction by ZEFSAII (Michael W. Deem and Ramdas Pophale) SiO2 
 PCOD9087873
Probable space group: P -1
;
_chemical_formula_sum "Si O2"
_cell_formula_units_Z 16
_cell_length_a 8.649303
_cell_length_b 17.914592
_cell_length_c 7.957763
_cell_angle_alpha 45.491493
_cell_angle_beta 85.522026
_cell_angle_gamma 57.632499
_cell_volume 646.010241
_symmetry_space_group_name_H-M "P -1"
_symmetry_group_IT_number 2
_symmetry_cell_setting 'triclinic'
loop_
_space_group_symop_operation_xyz
x,y,z
-x,-y,-z
loop_
_atom_site_type_symbol
_atom_site_label
_atom_site_fract_x
_atom_site_fract_y
_atom_site_fract_z
Si Si1 0.806045 0.062087 0.538516
Si Si2 0.499772 0.700495 0.046435
Si Si3 0.857375 0.783984 0.602641
Si Si4 0.045272 0.872698 0.298168
Si Si5 0.873987 0.659807 0.144358
Si Si6 0.157280 0.399155 0.303373
Si Si7 0.092202 0.757124 0.133366
Si Si8 0.331531 0.494239 0.974988
O O1 0.605249 0.164337 0.278844
O O2 0.800652 0.157465 0.523628
O O3 0.000000 0.000000 0.500000
O O4 0.885156 0.919716 0.841419
O O5 0.659715 0.694727 0.158912
O O6 0.306777 0.714766 0.108774
O O7 0.634573 0.566161 0.119505
O O8 0.845997 0.910435 0.352041
O O9 0.109353 0.650451 0.785968
O O10 0.803735 0.764045 0.822242
O O11 0.774111 0.748959 0.512967
O O12 0.116500 0.760800 0.324275
O O13 0.000000 0.000000 0.000000
O O14 0.026889 0.498056 0.316124
O O15 0.021035 0.673821 0.213960
O O16 0.344330 0.392593 0.265255
O O17 0.000000 0.500000 0.000000
O O18 0.500000 0.500000 0.000000
#
# Coordination Sequence:
#
# PCOD9087873 Si02
#       8
#     2   2   2   2   2   2   2   2
#     4   9  19  36  58  84 101 139 196 240 276 322
#     4  11  18  34  60  85 115 142 190 245 281 333
#     4  10  17  34  56  82 111 144 191 238 278 322
#     4  10  21  39  58  77 115 157 188 226 283 346
#     4  10  18  35  60  88 114 142 191 240 288 333
#     4   8  15  30  49  83 117 132 179 240 280 322
#     4  10  22  36  54  79 118 159 184 224 288 343
#     4  10  16  27  54  87 111 139 181 243 291 321
#
# _framework density 24.767410000000002
#
# number of rings (size 3 to 8) (size 9 to 14) (size 15 to 20)
#    0.000    2.500    3.750    3.750    0.000    0.500 
#    0.000    2.500    0.000    9.000    0.000    0.000 
#    0.000    0.000    0.000    0.000    0.000    0.000 
#
# Total GULP energy -89157.496057 kJ/mol
# GULP energy per Si atom -5572.343504 kJ/mol
# Density = 2.471104 g / cm^3
# Si number density = 24.767410 Si / 1000 Ang^3
#
#
#
# Elastic Constant Matrix: (Units=GPa)
#
#
# Indices 1 2 3 4 5 6 
#
# 1 208.5920 52.7739 35.8683 2.5655 -18.1084 19.9263
# 2 52.7739 92.4812 8.3474 9.1261 7.2224 21.1927
# 3 35.8683 8.3474 73.4060 0.1900 -14.5367 1.4013
# 4 2.5655 9.1261 0.1900 25.4204 5.4016 -3.6436
# 5 -18.1084 7.2224 -14.5367 5.4016 41.7447 -5.9596
# 6 19.9263 21.1927 1.4013 -3.6436 -5.9596 27.9616
#
#
#
# Elastic Compliance Matrix: (Units=1/GPa)
#
#
# Indices 1 2 3 4 5 6 
#
# 1 0.006348 -0.003251 -0.002238 -0.000166 0.002348 -0.001469
# 2 -0.003251 0.016629 -0.001170 -0.006188 -0.005641 -0.012237
# 3 -0.002238 -0.001170 0.015819 -0.000172 0.005157 0.002766
# 4 -0.000166 -0.006188 -0.000172 0.043688 -0.003315 0.009804
# 5 0.002348 -0.005641 0.005157 -0.003315 0.029340 0.008165
# 6 -0.001469 -0.012237 0.002766 0.009804 0.008165 0.048964
#
#
# Mechanical properties :
#
#
# Convention : Reuss Voigt Hill
#
# Bulk Modulus (GPa) = 39.25127 63.16205 51.20666
# Shear Modulus (GPa) = 27.38260 37.52463 32.45361
#
# Velocity S-wave (km/s) = 3.32865 3.89663 3.62378
# Velocity P-wave (km/s) = 5.53675 6.76775 6.18296
#
# Compressibility (1/GPa) = 0.02547688
#
# Stress axis : x y z
#
# Youngs Moduli (GPa) = 157.54071 60.13611 63.21671
#
# Poissons Ratio (x) = 0.19547 0.14151
# Poissons Ratio (y) = 0.51209 0.07397
# Poissons Ratio (z) = 0.35265 0.07037
#
# Static dielectric constant tensor:
#      x y z
#    x 2.158870 0.015040 -0.138410 
#    y 0.015040 2.035550 -0.042600 
#    z -0.138410 -0.042600 2.200790 
# 
# From -- ./inp_files/214394.got.cif
#   From: 2010.05.17/outbox.cif.g08.bks.cpg/sg2_108_cif.got.tgz:214394.got - 2010.06.03 11:33:40.
