data_PCOD9087071
_publ_section_title
;
Structure prediction by ZEFSAII (Michael W. Deem and Ramdas Pophale) SiO2 
 PCOD9087071
Probable space group: P -1
;
_chemical_formula_sum "Si O2"
_cell_formula_units_Z 14
_cell_length_a 6.945630
_cell_length_b 9.059254
_cell_length_c 13.508257
_cell_angle_alpha 54.802811
_cell_angle_beta 118.024908
_cell_angle_gamma 93.700807
_cell_volume 587.526836
_symmetry_space_group_name_H-M "P -1"
_symmetry_group_IT_number 2
_symmetry_cell_setting 'triclinic'
loop_
_space_group_symop_operation_xyz
x,y,z
-x,-y,-z
loop_
_atom_site_type_symbol
_atom_site_label
_atom_site_fract_x
_atom_site_fract_y
_atom_site_fract_z
Si Si1 0.455631 0.818235 0.611431
Si Si2 0.254376 0.395058 0.055925
Si Si3 0.735620 0.331654 0.631250
Si Si4 0.868214 0.220978 0.174338
Si Si5 0.860985 0.943785 0.898018
Si Si6 0.973845 0.832677 0.429494
Si Si7 0.835688 0.622591 0.652442
O O1 0.579848 0.735015 0.773821
O O2 0.189176 0.854328 0.535954
O O3 0.588034 0.663008 0.625630
O O4 0.500000 0.000000 0.500000
O O5 0.232372 0.236489 0.033412
O O6 0.318186 0.587064 0.973023
O O7 0.000000 0.500000 0.000000
O O8 0.500000 0.500000 0.500000
O O9 0.893214 0.278837 0.591122
O O10 0.892223 0.406949 0.717569
O O11 0.695407 0.141247 0.740337
O O12 0.991527 0.132839 0.136180
O O13 0.017950 0.300731 0.260645
O O14 0.821006 0.038225 0.281221
O O15 0.000000 0.000000 0.000000
O O16 0.845437 0.728886 0.511027
#
# Coordination Sequence:
#
# PCOD9087071 Si02
#       7
#     2   2   2   2   2   2   2
#     4  12  21  37  66  92 121 161 211 250 304 366
#     4  10  19  36  61  91 124 156 206 253 301 365
#     4  11  23  37  61  93 122 160 207 250 306 364
#     4  10  21  38  61  90 124 162 205 248 312 360
#     4  10  20  33  57  92 121 156 205 249 305 367
#     4  11  24  41  61  96 123 164 206 252 309 362
#     4  12  22  39  66  87 133 158 203 260 303 361
#
# _framework density 23.828699
#
# number of rings (size 3 to 8) (size 9 to 14) (size 15 to 20)
#    0.000    1.143    5.714    2.571    2.000    0.000 
#    0.000    0.714    0.000    0.000    0.000   11.000 
#    0.000    0.000    0.000    0.000    0.000    0.000 
#
# Total GULP energy -78005.229905 kJ/mol
# GULP energy per Si atom -5571.802136 kJ/mol
# Density = 2.377446 g / cm^3
# Si number density = 23.828699 Si / 1000 Ang^3
#
#
#
# Elastic Constant Matrix: (Units=GPa)
#
#
# Indices 1 2 3 4 5 6 
#
# 1 70.1141 14.6730 24.9724 -1.9245 1.6132 -16.6913
# 2 14.6730 173.2857 67.8898 -0.9112 -8.0201 -10.0901
# 3 24.9724 67.8898 162.9672 -22.7985 -5.7654 -3.6558
# 4 -1.9245 -0.9112 -22.7985 42.6956 4.3608 -9.7192
# 5 1.6132 -8.0201 -5.7654 4.3608 24.5606 -5.0228
# 6 -16.6913 -10.0901 -3.6558 -9.7192 -5.0228 34.8146
#
#
#
# Elastic Compliance Matrix: (Units=1/GPa)
#
#
# Indices 1 2 3 4 5 6 
#
# 1 0.017091 -0.000111 -0.002182 0.001522 -0.000239 0.008323
# 2 -0.000111 0.007161 -0.003036 -0.001322 0.002206 0.001652
# 3 -0.002182 -0.003036 0.008356 0.004307 0.000392 0.000211
# 4 0.001522 -0.001322 0.004307 0.027912 -0.002802 0.008187
# 5 -0.000239 0.002206 0.000392 -0.002802 0.043274 0.006027
# 6 0.008323 0.001652 0.000211 0.008187 0.006027 0.036370
#
#
# Mechanical properties :
#
#
# Convention : Reuss Voigt Hill
#
# Bulk Modulus (GPa) = 45.55459 69.04857 57.30158
# Shear Modulus (GPa) = 31.61782 40.33628 35.97705
#
# Velocity S-wave (km/s) = 3.64659 4.11878 3.88986
# Velocity P-wave (km/s) = 6.07365 7.18743 6.65388
#
# Compressibility (1/GPa) = 0.02195169
#
# Stress axis : x y z
#
# Youngs Moduli (GPa) = 58.50878 139.64450 119.66873
#
# Poissons Ratio (x) = 0.01549 0.26107
# Poissons Ratio (y) = 0.00649 0.36333
# Poissons Ratio (z) = 0.12764 0.42397
#
# Static dielectric constant tensor:
#      x y z
#    x 2.092500 0.032790 0.089860 
#    y 0.032790 1.970160 0.001600 
#    z 0.089860 0.001600 2.211480 
# 
# From -- ./inp_files/492329.got.cif
#   From: 2010.05.17/outbox.cif.g08.bks.cpg/sg2_247_cif.got.tgz:492329.got - 2010.06.03 11:33:40.
