data_PCOD9087819
_publ_section_title
;
Structure prediction by ZEFSAII (Michael W. Deem and Ramdas Pophale) SiO2 
 PCOD9087819
Probable space group: P -1
;
_chemical_formula_sum "Si O2"
_cell_formula_units_Z 16
_cell_length_a 10.369844
_cell_length_b 16.132446
_cell_length_c 14.507241
_cell_angle_alpha 63.971287
_cell_angle_beta 90.445160
_cell_angle_gamma 146.764331
_cell_volume 817.536259
_symmetry_space_group_name_H-M "P -1"
_symmetry_group_IT_number 2
_symmetry_cell_setting 'triclinic'
loop_
_space_group_symop_operation_xyz
x,y,z
-x,-y,-z
loop_
_atom_site_type_symbol
_atom_site_label
_atom_site_fract_x
_atom_site_fract_y
_atom_site_fract_z
Si Si1 0.037784 0.047669 0.343465
Si Si2 0.318574 0.870150 0.839499
Si Si3 0.208108 0.849590 0.137664
Si Si4 0.192074 0.276484 0.405553
Si Si5 0.510063 0.927089 0.611468
Si Si6 0.100984 0.222031 0.104264
Si Si7 0.777567 0.454946 0.191352
Si Si8 0.084653 0.164300 0.918203
O O1 0.054176 0.140115 0.374935
O O2 0.969763 0.047175 0.245331
O O3 0.418049 0.254454 0.247456
O O4 0.783257 0.797490 0.493628
O O5 0.381523 0.872421 0.737891
O O6 0.135756 0.847746 0.839832
O O7 0.678539 0.107470 0.781791
O O8 0.056238 0.642706 0.018593
O O9 0.878831 0.587818 0.212405
O O10 0.174871 0.938186 0.086193
O O11 0.500000 0.000000 0.000000
O O12 0.539490 0.562803 0.252609
O O13 0.898937 0.147486 0.507636
O O14 0.277990 0.684480 0.703878
O O15 0.500000 0.000000 0.500000
O O16 0.500000 0.500000 0.000000
O O17 0.084643 0.197426 0.007614
O O18 0.000000 0.000000 0.000000
#
# Coordination Sequence:
#
# PCOD9087819 Si02
#       8
#     2   2   2   2   2   2   2   2
#     4  10  19  36  70  92 120 163 222 265 312 380
#     4  11  22  40  65  95 129 171 216 259 325 389
#     4  10  20  43  63  91 130 168 213 258 329 390
#     4  10  21  40  61  90 129 170 207 256 337 376
#     4  11  25  38  59  99 134 162 211 273 324 377
#     4  12  20  40  67  98 121 162 229 277 309 378
#     4  10  19  40  69  88 122 173 214 264 318 378
#     4  12  25  42  70  98 127 169 219 276 322 380
#
# _framework density 19.571000000000002
#
# number of rings (size 3 to 8) (size 9 to 14) (size 15 to 20)
#    0.000    1.250    6.250    1.125    0.000    4.000 
#    0.000    3.125    0.000    0.000    0.000    0.000 
#    0.000    0.000    0.000    0.000    0.000    0.000 
#
# Total GULP energy -89287.220945 kJ/mol
# GULP energy per Si atom -5580.451309 kJ/mol
# Density = 1.952646 g / cm^3
# Si number density = 19.571000 Si / 1000 Ang^3
#
#
#
# Elastic Constant Matrix: (Units=GPa)
#
#
# Indices 1 2 3 4 5 6 
#
# 1 138.3449 38.8192 55.4353 -9.3107 9.5027 3.1332
# 2 38.8192 47.3568 23.2260 6.2318 8.9012 4.4023
# 3 55.4353 23.2260 126.4674 -5.9300 10.4961 -1.7750
# 4 -9.3107 6.2318 -5.9300 24.6988 -3.5149 5.4074
# 5 9.5027 8.9012 10.4961 -3.5149 45.1670 5.9993
# 6 3.1332 4.4023 -1.7750 5.4074 5.9993 28.7287
#
#
#
# Elastic Compliance Matrix: (Units=1/GPa)
#
#
# Indices 1 2 3 4 5 6 
#
# 1 0.011269 -0.008471 -0.003178 0.006029 0.000693 -0.001407
# 2 -0.008471 0.031785 -0.002313 -0.012281 -0.004797 -0.000776
# 3 -0.003178 -0.002313 0.009909 0.001294 -0.001254 0.001332
# 4 0.006029 -0.012281 0.001294 0.049010 0.005880 -0.009148
# 5 0.000693 -0.004797 -0.001254 0.005880 0.024436 -0.005628
# 6 -0.001407 -0.000776 0.001332 -0.009148 -0.005628 0.038060
#
#
# Mechanical properties :
#
#
# Convention : Reuss Voigt Hill
#
# Bulk Modulus (GPa) = 39.94051 60.79225 50.36638
# Shear Modulus (GPa) = 24.90799 32.69813 28.80306
#
# Velocity S-wave (km/s) = 3.57136 4.09191 3.84046
# Velocity P-wave (km/s) = 6.12033 7.31128 6.74215
#
# Compressibility (1/GPa) = 0.02503724
#
# Stress axis : x y z
#
# Youngs Moduli (GPa) = 88.73918 31.46176 100.92274
#
# Poissons Ratio (x) = 0.26653 0.32077
# Poissons Ratio (y) = 0.75175 0.23339
# Poissons Ratio (z) = 0.28205 0.07276
#
# Static dielectric constant tensor:
#      x y z
#    x 1.716280 -0.000140 -0.018270 
#    y -0.000140 1.721370 -0.013710 
#    z -0.018270 -0.013710 1.774580 
# 
# From -- ./inp_files/392533.got.cif
#   From: 2010.05.17/outbox.cif.g08.bks.cpg/sg2_197_cif.got.tgz:392533.got - 2010.06.03 11:33:40.
