data_PCOD9087794
_publ_section_title
;
Structure prediction by ZEFSAII (Michael W. Deem and Ramdas Pophale) SiO2 
 PCOD9087794
Probable space group: P -1
;
_chemical_formula_sum "Si O2"
_cell_formula_units_Z 16
_cell_length_a 18.423371
_cell_length_b 19.231539
_cell_length_c 5.731800
_cell_angle_alpha 76.235140
_cell_angle_beta 70.112494
_cell_angle_gamma 20.660416
_cell_volume 653.741217
_symmetry_space_group_name_H-M "P -1"
_symmetry_group_IT_number 2
_symmetry_cell_setting 'triclinic'
loop_
_space_group_symop_operation_xyz
x,y,z
-x,-y,-z
loop_
_atom_site_type_symbol
_atom_site_label
_atom_site_fract_x
_atom_site_fract_y
_atom_site_fract_z
Si Si1 0.874486 0.415289 0.826201
Si Si2 0.637169 0.332700 0.158502
Si Si3 0.748583 0.746344 0.103271
Si Si4 0.105877 0.130352 0.171081
Si Si5 0.975651 0.960358 0.752181
Si Si6 0.541366 0.779766 0.240211
Si Si7 0.358443 0.443408 0.421173
Si Si8 0.847996 0.702249 0.527936
O O1 0.688865 0.526813 0.823963
O O2 0.996657 0.363666 0.561475
O O3 0.746124 0.577814 0.016453
O O4 0.054735 0.208603 0.913102
O O5 0.481938 0.408225 0.382804
O O6 0.500000 0.500000 0.000000
O O7 0.808596 0.135759 0.984663
O O8 0.782923 0.255073 0.228574
O O9 0.712334 0.809564 0.830071
O O10 0.602755 0.802470 0.261850
O O11 0.740692 0.800518 0.306076
O O12 0.000000 0.500000 0.000000
O O13 0.885285 0.340960 0.382492
O O14 0.113076 0.038337 0.235422
O O15 0.323215 0.972743 0.172326
O O16 0.000000 0.000000 0.500000
O O17 0.520755 0.732348 0.481520
O O18 0.000000 0.500000 0.500000
#
# Coordination Sequence:
#
# PCOD9087794 Si02
#       8
#     2   2   2   2   2   2   2   2
#     4  11  23  41  67  92 135 177 222 288 342 413
#     4  11  24  42  70 100 130 175 222 274 336 408
#     4  10  19  37  66  99 128 182 237 289 350 422
#     4  11  26  42  61 101 133 172 226 279 341 413
#     4  11  24  44  68  97 137 171 221 276 336 409
#     4  11  23  41  67  92 133 178 225 281 350 409
#     4  11  24  41  65  95 132 176 224 275 343 410
#     4  10  19  36  68  95 133 179 238 287 354 418
#
# _framework density 24.474516000000001
#
# number of rings (size 3 to 8) (size 9 to 14) (size 15 to 20)
#    0.000    1.250    2.500    4.500    1.750    8.000 
#    0.000    1.250    0.000    0.000    0.000    0.000 
#    0.000    0.000    0.000    0.000    0.000    0.000 
#
# Total GULP energy -89574.634482 kJ/mol
# GULP energy per Si atom -5598.414655 kJ/mol
# Density = 2.441881 g / cm^3
# Si number density = 24.474516 Si / 1000 Ang^3
#
#
#
# Elastic Constant Matrix: (Units=GPa)
#
#
# Indices 1 2 3 4 5 6 
#
# 1 94.1210 20.6087 12.7490 11.3746 -7.4525 -14.1112
# 2 20.6087 99.7270 27.8628 -10.3381 -6.9175 -12.8410
# 3 12.7490 27.8628 91.3843 -6.3980 -4.7121 -1.3461
# 4 11.3746 -10.3381 -6.3980 38.5563 -0.5271 0.6657
# 5 -7.4525 -6.9175 -4.7121 -0.5271 43.9674 -0.5677
# 6 -14.1112 -12.8410 -1.3461 0.6657 -0.5677 41.3752
#
#
#
# Elastic Compliance Matrix: (Units=1/GPa)
#
#
# Indices 1 2 3 4 5 6 
#
# 1 0.012480 -0.002104 -0.001276 -0.004498 0.001641 0.003657
# 2 -0.002104 0.012128 -0.003061 0.003332 0.001301 0.002911
# 3 -0.001276 -0.003061 0.012183 0.001603 0.000614 -0.001006
# 4 -0.004498 0.003332 0.001603 0.028442 0.000263 -0.000902
# 5 0.001641 0.001301 0.000614 0.000263 0.023313 0.001299
# 6 0.003657 0.002911 -0.001006 -0.000902 0.001299 0.026319
#
#
# Mechanical properties :
#
#
# Convention : Reuss Voigt Hill
#
# Bulk Modulus (GPa) = 41.82560 45.29706 43.56133
# Shear Modulus (GPa) = 36.84150 39.71392 38.27771
#
# Velocity S-wave (km/s) = 3.88403 4.03260 3.95901
# Velocity P-wave (km/s) = 6.10252 6.34275 6.22380
#
# Compressibility (1/GPa) = 0.02390880
#
# Stress axis : x y z
#
# Youngs Moduli (GPa) = 80.12843 82.45457 82.08047
#
# Poissons Ratio (x) = 0.17350 0.10473
# Poissons Ratio (y) = 0.16860 0.25124
# Poissons Ratio (z) = 0.10224 0.25239
#
# Static dielectric constant tensor:
#      x y z
#    x 1.954550 -0.045430 0.084110 
#    y -0.045430 1.961890 -0.024440 
#    z 0.084110 -0.024440 2.043920 
# 
# From -- ./inp_files/112348.got.cif
#   From: 2010.05.17/outbox.cif.g08.bks.cpg/sg2_57_cif.got.tgz:112348.got - 2010.06.03 11:33:40.
