data_PCOD9087405
_publ_section_title
;
Structure prediction by ZEFSAII (Michael W. Deem and Ramdas Pophale) SiO2 
 PCOD9087405
Probable space group: P -1
;
_chemical_formula_sum "Si O2"
_cell_formula_units_Z 16
_cell_length_a 8.287831
_cell_length_b 14.875380
_cell_length_c 22.351410
_cell_angle_alpha 25.161962
_cell_angle_beta 35.755393
_cell_angle_gamma 42.022111
_cell_volume 684.216654
_symmetry_space_group_name_H-M "P -1"
_symmetry_group_IT_number 2
_symmetry_cell_setting 'triclinic'
loop_
_space_group_symop_operation_xyz
x,y,z
-x,-y,-z
loop_
_atom_site_type_symbol
_atom_site_label
_atom_site_fract_x
_atom_site_fract_y
_atom_site_fract_z
Si Si1 0.502474 0.585292 0.881968
Si Si2 0.966665 0.741479 0.384433
Si Si3 0.786850 0.392476 0.494153
Si Si4 0.425047 0.858006 0.945790
Si Si5 0.100205 0.343870 0.011565
Si Si6 0.970260 0.851666 0.184683
Si Si7 0.175954 0.140879 0.452722
Si Si8 0.436713 0.712542 0.642787
O O1 0.578584 0.379411 0.940454
O O2 0.729235 0.758593 0.697739
O O3 0.500000 0.500000 0.000000
O O4 0.199301 0.701255 0.896770
O O5 0.002467 0.874602 0.232801
O O6 0.663708 0.757761 0.496468
O O7 0.000000 0.500000 0.500000
O O8 0.186409 0.739864 0.373382
O O9 0.500000 0.500000 0.500000
O O10 0.967682 0.599808 0.323725
O O11 0.893931 0.245075 0.497467
O O12 0.725832 0.839195 0.897351
O O13 0.222752 0.914154 0.028968
O O14 0.304870 0.022083 0.833112
O O15 0.304963 0.482297 0.825511
O O16 0.000000 0.500000 0.000000
O O17 0.403934 0.229677 0.378299
O O18 0.195145 0.890214 0.601025
#
# Coordination Sequence:
#
# PCOD9087405 Si02
#       8
#     2   2   2   2   2   2   2   2
#     4  11  23  40  60  86 124 160 193 253 309 358
#     4   9  19  36  60  85 119 153 200 247 295 351
#     4  10  20  38  58  86 120 157 190 247 303 359
#     4  10  20  39  63  81 117 158 203 244 298 366
#     4  10  19  38  62  84 115 160 204 235 299 368
#     4  10  20  38  60  86 114 157 202 246 297 357
#     4  10  20  38  60  86 125 155 193 249 312 349
#     4  10  19  36  63  91 113 158 203 245 300 365
#
# _framework density 23.384405999999998
#
# number of rings (size 3 to 8) (size 9 to 14) (size 15 to 20)
#    0.000    2.000    3.750    1.500    1.750    2.000 
#    9.000    0.625    0.000    3.000    0.000    0.000 
#    0.000    0.000    0.000    0.000    0.000    0.000 
#
# Total GULP energy -89229.548459 kJ/mol
# GULP energy per Si atom -5576.846779 kJ/mol
# Density = 2.333118 g / cm^3
# Si number density = 23.384406 Si / 1000 Ang^3
#
#
#
# Elastic Constant Matrix: (Units=GPa)
#
#
# Indices 1 2 3 4 5 6 
#
# 1 75.9627 48.5536 44.3022 15.8917 34.4415 -35.5769
# 2 48.5536 125.7221 36.3850 -6.5861 20.6470 -35.1798
# 3 44.3022 36.3850 90.5412 -4.9772 38.8161 0.8077
# 4 15.8917 -6.5861 -4.9772 49.9707 9.0310 6.3095
# 5 34.4415 20.6470 38.8161 9.0310 33.7380 -9.0371
# 6 -35.5769 -35.1798 0.8077 6.3095 -9.0371 36.2006
#
#
#
# Elastic Compliance Matrix: (Units=1/GPa)
#
#
# Indices 1 2 3 4 5 6 
#
# 1 0.178228 0.013245 -0.104414 -0.093839 0.011326 0.209542
# 2 0.013245 0.014434 -0.015748 -0.008873 0.006313 0.030518
# 3 -0.104414 -0.015748 0.094648 0.067687 -0.049399 -0.144160
# 4 -0.093839 -0.008873 0.067687 0.076422 -0.030104 -0.123189
# 5 0.011326 0.006313 -0.049399 -0.030104 0.091554 0.046470
# 6 0.209542 0.030518 -0.144160 -0.123189 0.046470 0.299501
#
#
# Mechanical properties :
#
#
# Convention : Reuss Voigt Hill
#
# Bulk Modulus (GPa) = 13.60964 61.18973 37.39969
# Shear Modulus (GPa) = 5.03468 34.84753 19.94110
#
# Velocity S-wave (km/s) = 1.46890 3.86450 2.92336
# Velocity P-wave (km/s) = 2.95119 6.79237 5.23668
#
# Compressibility (1/GPa) = 0.07347735
#
# Stress axis : x y z
#
# Youngs Moduli (GPa) = 5.61079 69.27863 10.56548
#
# Poissons Ratio (x) = -0.91762 1.10318
# Poissons Ratio (y) = -0.07432 0.16639
# Poissons Ratio (z) = 0.58584 1.09100
#
# Static dielectric constant tensor:
#      x y z
#    x 1.994470 0.030400 0.034300 
#    y 0.030400 1.880570 -0.000800 
#    z 0.034300 -0.000800 1.868390 
# 
# From -- ./inp_files/513945.got.cif
#   From: 2010.05.17/outbox.cif.g08.bks.cpg/sg2_257_cif.got.tgz:513945.got - 2010.06.03 11:33:40.
