data_PCOD9087758
_publ_section_title
;
Structure prediction by ZEFSAII (Michael W. Deem and Ramdas Pophale) SiO2 
 PCOD9087758
Probable space group: P -1
;
_chemical_formula_sum "Si O2"
_cell_formula_units_Z 16
_cell_length_a 5.342400
_cell_length_b 17.484337
_cell_length_c 9.355050
_cell_angle_alpha 50.902532
_cell_angle_beta 68.692969
_cell_angle_gamma 79.884195
_cell_volume 630.076575
_symmetry_space_group_name_H-M "P -1"
_symmetry_group_IT_number 2
_symmetry_cell_setting 'triclinic'
loop_
_space_group_symop_operation_xyz
x,y,z
-x,-y,-z
loop_
_atom_site_type_symbol
_atom_site_label
_atom_site_fract_x
_atom_site_fract_y
_atom_site_fract_z
Si Si1 0.275568 0.361877 0.330109
Si Si2 0.905742 0.493244 0.364610
Si Si3 0.993814 0.891435 0.563644
Si Si4 0.620150 0.185084 0.968435
Si Si5 0.971274 0.829785 0.351893
Si Si6 0.324246 0.017500 0.875954
Si Si7 0.417891 0.764660 0.785334
Si Si8 0.609658 0.660143 0.330631
O O1 0.049610 0.275349 0.441125
O O2 0.509942 0.329450 0.215051
O O3 0.314358 0.339806 0.517569
O O4 0.141275 0.465733 0.240515
O O5 0.770146 0.595957 0.259513
O O6 0.677977 0.402895 0.523648
O O7 0.000000 0.500000 0.500000
O O8 0.191436 0.825305 0.687388
O O9 0.089886 0.901385 0.367222
O O10 0.693627 0.835421 0.677714
O O11 0.000000 0.000000 0.500000
O O12 0.393113 0.231633 0.865173
O O13 0.860881 0.186605 0.803674
O O14 0.593088 0.068448 0.146671
O O15 0.676624 0.255415 0.008494
O O16 0.687392 0.873873 0.316800
O O17 0.500000 0.000000 0.000000
O O18 0.000000 0.000000 0.000000
#
# Coordination Sequence:
#
# PCOD9087758 Si02
#       8
#     2   2   2   2   2   2   2   2
#     4  10  20  38  63  90 124 164 212 261 311 377
#     4   9  19  36  63  96 116 152 213 264 308 376
#     4  11  24  45  63  89 127 177 226 265 307 371
#     4  11  22  39  60  93 127 164 206 264 318 375
#     4  10  21  39  66  89 123 175 220 254 309 374
#     4  10  22  36  56  88 125 159 204 257 308 354
#     4  11  26  39  62  94 131 168 208 267 326 369
#     4  10  19  36  67  91 120 159 211 259 315 381
#
# _framework density 25.393737000000002
#
# number of rings (size 3 to 8) (size 9 to 14) (size 15 to 20)
#    0.000    1.750    1.250    2.625    1.750    9.000 
#    0.000    0.625    0.000    6.750    0.000    0.000 
#    0.000    0.000    0.000    0.000    0.000    0.000 
#
# Total GULP energy -89209.212961 kJ/mol
# GULP energy per Si atom -5575.575810 kJ/mol
# Density = 2.533594 g / cm^3
# Si number density = 25.393737 Si / 1000 Ang^3
#
#
#
# Elastic Constant Matrix: (Units=GPa)
#
#
# Indices 1 2 3 4 5 6 
#
# 1 106.6330 34.3182 14.6798 5.1590 19.8648 -4.8940
# 2 34.3182 218.7860 41.5635 32.3965 13.0550 -42.8890
# 3 14.6798 41.5635 66.1916 31.6828 12.1524 -14.2606
# 4 5.1590 32.3965 31.6828 52.3572 6.7113 4.0827
# 5 19.8648 13.0550 12.1524 6.7113 32.7155 -8.0352
# 6 -4.8940 -42.8890 -14.2606 4.0827 -8.0352 48.0918
#
#
#
# Elastic Compliance Matrix: (Units=1/GPa)
#
#
# Indices 1 2 3 4 5 6 
#
# 1 0.011170 -0.001780 -0.001577 0.001946 -0.006415 -0.002156
# 2 -0.001780 0.006749 -0.000699 -0.004188 0.001019 0.006156
# 3 -0.001577 -0.000699 0.025174 -0.014804 -0.003262 0.007393
# 4 0.001946 -0.004188 -0.014804 0.031747 -0.003267 -0.011168
# 5 -0.006415 0.001019 -0.003262 -0.003267 0.037363 0.005809
# 6 -0.002156 0.006156 0.007393 -0.011168 0.005809 0.030175
#
#
# Mechanical properties :
#
#
# Convention : Reuss Voigt Hill
#
# Bulk Modulus (GPa) = 28.58866 63.63706 46.11286
# Shear Modulus (GPa) = 30.83534 46.70283 38.76909
#
# Velocity S-wave (km/s) = 3.48845 4.29318 3.91156
# Velocity P-wave (km/s) = 5.24483 7.04910 6.21281
#
# Compressibility (1/GPa) = 0.03497891
#
# Stress axis : x y z
#
# Youngs Moduli (GPa) = 89.52529 148.17249 39.72373
#
# Poissons Ratio (x) = 0.26381 0.06266
# Poissons Ratio (y) = 0.15939 0.02777
# Poissons Ratio (z) = 0.14122 0.10358
#
# Static dielectric constant tensor:
#      x y z
#    x 2.207510 0.023880 -0.128570 
#    y 0.023880 2.177940 -0.026270 
#    z -0.128570 -0.026270 2.237120 
# 
# From -- ./inp_files/116048.got.cif
#   From: 2010.05.17/outbox.cif.g08.bks.cpg/sg2_59_cif.got.tgz:116048.got - 2010.06.03 11:33:40.
