data_PCOD9087790
_publ_section_title
;
Structure prediction by ZEFSAII (Michael W. Deem and Ramdas Pophale) SiO2 
 PCOD9087790
Probable space group: P -1
;
_chemical_formula_sum "Si O2"
_cell_formula_units_Z 14
_cell_length_a 9.343928
_cell_length_b 16.298226
_cell_length_c 13.964438
_cell_angle_alpha 25.812945
_cell_angle_beta 38.357872
_cell_angle_gamma 49.926338
_cell_volume 559.256924
_symmetry_space_group_name_H-M "P -1"
_symmetry_group_IT_number 2
_symmetry_cell_setting 'triclinic'
loop_
_space_group_symop_operation_xyz
x,y,z
-x,-y,-z
loop_
_atom_site_type_symbol
_atom_site_label
_atom_site_fract_x
_atom_site_fract_y
_atom_site_fract_z
Si Si1 0.076373 0.355413 0.209325
Si Si2 0.237344 0.529440 0.607820
Si Si3 0.659405 0.922575 0.713599
Si Si4 0.811712 0.166807 0.185045
Si Si5 0.473616 0.705504 0.566371
Si Si6 0.757672 0.427086 0.647338
Si Si7 0.323618 0.232223 0.395875
O O1 0.125412 0.192199 0.280922
O O2 0.195717 0.324712 0.282417
O O3 0.823920 0.370091 0.368541
O O4 0.224143 0.557788 0.877808
O O5 0.500000 0.500000 0.500000
O O6 0.201924 0.637085 0.414477
O O7 0.049136 0.323343 0.914313
O O8 0.724670 0.046056 0.453528
O O9 0.581111 0.086599 0.646992
O O10 0.430420 0.744890 0.022606
O O11 0.590067 0.259739 0.183843
O O12 0.811453 0.995416 0.291137
O O13 0.628595 0.605906 0.519903
O O14 0.626903 0.709577 0.581229
O O15 0.000000 0.500000 0.500000
#
# Coordination Sequence:
#
# PCOD9087790 Si02
#       7
#     2   2   2   2   2   2   2
#     4  10  19  36  68  92 123 179 226 261 313 406
#     4  12  26  45  63  97 143 178 210 273 339 393
#     4   9  20  41  64  98 122 170 229 267 321 385
#     4   9  19  35  67  94 126 172 225 264 315 399
#     4  10  19  37  64  95 133 164 217 277 327 381
#     4  11  26  40  66 102 141 167 212 278 346 378
#     4   9  16  30  65  99 116 156 236 271 304 366
#
# _framework density 25.033217
#
# number of rings (size 3 to 8) (size 9 to 14) (size 15 to 20)
#    0.000    2.000    2.857    2.143   10.000    0.571 
#    5.143    6.429    0.000    0.000    0.000    0.000 
#    0.000    0.000    0.000    0.000    0.000    0.000 
#
# Total GULP energy -78168.917927 kJ/mol
# GULP energy per Si atom -5583.494138 kJ/mol
# Density = 2.497624 g / cm^3
# Si number density = 25.033217 Si / 1000 Ang^3
#
#
#
# Elastic Constant Matrix: (Units=GPa)
#
#
# Indices 1 2 3 4 5 6 
#
# 1 93.7451 32.8347 30.7049 10.5775 -4.8665 -1.4945
# 2 32.8347 171.8933 55.0471 -3.8291 -17.3544 -9.3322
# 3 30.7049 55.0471 110.6924 8.5552 -16.7549 -4.6248
# 4 10.5775 -3.8291 8.5552 43.1363 4.0192 -5.9418
# 5 -4.8665 -17.3544 -16.7549 4.0192 38.1741 9.7719
# 6 -1.4945 -9.3322 -4.6248 -5.9418 9.7719 53.3322
#
#
#
# Elastic Compliance Matrix: (Units=1/GPa)
#
#
# Indices 1 2 3 4 5 6 
#
# 1 0.012345 -0.001669 -0.002370 -0.002792 0.000197 -0.000499
# 2 -0.001669 0.007345 -0.003074 0.001668 0.001370 0.000907
# 3 -0.002370 -0.003074 0.011993 -0.002520 0.003976 -0.000574
# 4 -0.002792 0.001668 -0.002520 0.025414 -0.004305 0.003615
# 5 0.000197 0.001370 0.003976 -0.004305 0.030442 -0.005467
# 6 -0.000499 0.000907 -0.000574 0.003615 -0.005467 0.020250
#
#
# Mechanical properties :
#
#
# Convention : Reuss Voigt Hill
#
# Bulk Modulus (GPa) = 57.27777 68.16716 62.72246
# Shear Modulus (GPa) = 39.11371 44.11145 41.61258
#
# Velocity S-wave (km/s) = 3.95710 4.20231 4.08155
# Velocity P-wave (km/s) = 6.61880 7.12992 6.87911
#
# Compressibility (1/GPa) = 0.01745878
#
# Stress axis : x y z
#
# Youngs Moduli (GPa) = 81.00303 136.14177 83.38480
#
# Poissons Ratio (x) = 0.22717 0.19761
# Poissons Ratio (y) = 0.13517 0.25629
# Poissons Ratio (z) = 0.19197 0.41845
#
# Static dielectric constant tensor:
#      x y z
#    x 2.079260 -0.014170 -0.020640 
#    y -0.014170 2.129060 -0.049760 
#    z -0.020640 -0.049760 1.907670 
# 
# From -- ./inp_files/570661.got.cif
#   From: 2010.05.17/outbox.cif.g08.bks.cpg/sg2_286_cif.got.tgz:570661.got - 2010.06.03 11:33:40.
