data_PCOD9087945
_publ_section_title
;
Structure prediction by ZEFSAII (Michael W. Deem and Ramdas Pophale) SiO2 
 PCOD9087945
Probable space group: P -1
;
_chemical_formula_sum "Si O2"
_cell_formula_units_Z 16
_cell_length_a 6.265803
_cell_length_b 20.546557
_cell_length_c 19.808103
_cell_angle_alpha 158.810210
_cell_angle_beta 102.992693
_cell_angle_gamma 68.191759
_cell_volume 797.676341
_symmetry_space_group_name_H-M "P -1"
_symmetry_group_IT_number 2
_symmetry_cell_setting 'triclinic'
loop_
_space_group_symop_operation_xyz
x,y,z
-x,-y,-z
loop_
_atom_site_type_symbol
_atom_site_label
_atom_site_fract_x
_atom_site_fract_y
_atom_site_fract_z
Si Si1 0.115576 0.286390 0.007179
Si Si2 0.577241 0.619660 0.283809
Si Si3 0.785511 0.527069 0.932328
Si Si4 0.274154 0.616221 0.648308
Si Si5 0.439899 0.841562 0.620725
Si Si6 0.898366 0.692941 0.595249
Si Si7 0.338157 0.241258 0.721202
Si Si8 0.343992 0.471335 0.307481
O O1 0.157053 0.325482 0.969611
O O2 0.273617 0.362449 0.138101
O O3 0.829003 0.427135 0.136177
O O4 0.201496 0.055725 0.809126
O O5 0.357084 0.562133 0.209201
O O6 0.532390 0.788929 0.499603
O O7 0.600536 0.685581 0.273796
O O8 0.039396 0.337389 0.791406
O O9 0.625594 0.652828 0.106531
O O10 0.500000 0.500000 0.500000
O O11 0.191091 0.456661 0.519456
O O12 0.406889 0.673687 0.773694
O O13 0.037549 0.763598 0.729360
O O14 0.655327 0.846500 0.686731
O O15 0.384452 0.659974 0.466226
O O16 0.110518 0.564616 0.431968
O O17 0.500000 0.000000 0.500000
#
# Coordination Sequence:
#
# PCOD9087945 Si02
#       8
#     2   2   2   2   2   2   2   2
#     4  11  23  38  58  88 121 156 199 245 292 351
#     4  11  22  39  59  86 121 156 196 244 295 350
#     4  10  22  40  59  84 121 152 194 245 292 349
#     4   8  16  31  60  87 114 161 194 243 301 337
#     4  11  22  36  59  87 118 160 199 242 299 350
#     4   9  17  34  58  85 120 156 197 244 297 346
#     4  10  22  39  61  87 115 153 197 242 292 351
#     4  10  19  37  57  85 121 154 200 246 292 351
#
# _framework density 20.058261000000002
#
# number of rings (size 3 to 8) (size 9 to 14) (size 15 to 20)
#    0.000    2.000    2.500    1.125    0.000    2.500 
#    0.000    0.625    0.000   25.500    0.000    0.000 
#    0.000    0.000    0.000    0.000    0.000    0.000 
#
# Total GULP energy -89177.483059 kJ/mol
# GULP energy per Si atom -5573.592691 kJ/mol
# Density = 2.001261 g / cm^3
# Si number density = 20.058261 Si / 1000 Ang^3
#
#
#
# Elastic Constant Matrix: (Units=GPa)
#
#
# Indices 1 2 3 4 5 6 
#
# 1 45.4186 9.8562 1.7111 -0.1958 -5.0876 -3.7449
# 2 9.8562 89.3288 26.0327 -10.7646 1.8147 -14.5034
# 3 1.7111 26.0327 70.2486 7.0951 -6.1904 -8.4506
# 4 -0.1958 -10.7646 7.0951 11.7030 1.7217 -6.1954
# 5 -5.0876 1.8147 -6.1904 1.7217 9.9482 -4.6246
# 6 -3.7449 -14.5034 -8.4506 -6.1954 -4.6246 39.6378
#
#
#
# Elastic Compliance Matrix: (Units=1/GPa)
#
#
# Indices 1 2 3 4 5 6 
#
# 1 0.025182 -0.004873 0.003926 -0.007934 0.018686 0.002373
# 2 -0.004873 0.020304 -0.010959 0.031568 -0.014836 0.007836
# 3 0.003926 -0.010959 0.022947 -0.027489 0.022869 -0.000375
# 4 -0.007934 0.031568 -0.027489 0.149589 -0.041918 0.023431
# 5 0.018686 -0.014836 0.022869 -0.041918 0.139344 0.010918
# 6 0.002373 0.007836 -0.000375 0.023431 0.010918 0.033176
#
#
# Mechanical properties :
#
#
# Convention : Reuss Voigt Hill
#
# Bulk Modulus (GPa) = 22.41094 31.13289 26.77191
# Shear Modulus (GPa) = 11.64887 23.41752 17.53320
#
# Velocity S-wave (km/s) = 2.41249 3.42054 2.95975
# Velocity P-wave (km/s) = 4.35400 5.58167 5.00562
#
# Compressibility (1/GPa) = 0.04462106
#
# Stress axis : x y z
#
# Youngs Moduli (GPa) = 39.71155 49.25236 43.57851
#
# Poissons Ratio (x) = 0.24000 -0.17108
# Poissons Ratio (y) = 0.19351 0.47756
# Poissons Ratio (z) = -0.15590 0.53974
#
# Static dielectric constant tensor:
#      x y z
#    x 1.710230 -0.007690 0.004990 
#    y -0.007690 1.769630 -0.014230 
#    z 0.004990 -0.014230 1.655420 
# 
# From -- ./inp_files/10807.got.cif
#   From: 2010.05.17/outbox.cif.g08.bks.cpg/sg2_6_cif.got.tgz:10807.got - 2010.06.03 11:33:40.
