data_PCOD9087301
_publ_section_title
;
Structure prediction by ZEFSAII (Michael W. Deem and Ramdas Pophale) SiO2 
 PCOD9087301
Probable space group: P -1
;
_chemical_formula_sum "Si O2"
_cell_formula_units_Z 12
_cell_length_a 14.948337
_cell_length_b 13.594646
_cell_length_c 5.099332
_cell_angle_alpha 90.402657
_cell_angle_beta 80.021746
_cell_angle_gamma 151.241256
_cell_volume 467.519281
_symmetry_space_group_name_H-M "P -1"
_symmetry_group_IT_number 2
_symmetry_cell_setting 'triclinic'
loop_
_space_group_symop_operation_xyz
x,y,z
-x,-y,-z
loop_
_atom_site_type_symbol
_atom_site_label
_atom_site_fract_x
_atom_site_fract_y
_atom_site_fract_z
Si Si1 0.317714 0.182360 0.636411
Si Si2 0.436184 0.094206 0.450008
Si Si3 0.941515 0.712180 0.788403
Si Si4 0.926720 0.268953 0.743637
Si Si5 0.691628 0.196461 0.095043
Si Si6 0.650327 0.595317 0.120048
O O1 0.416146 0.169919 0.646993
O O2 0.507664 0.410920 0.404393
O O3 0.236302 0.197268 0.842018
O O4 0.116087 0.952342 0.597404
O O5 0.651442 0.265595 0.240905
O O6 0.290542 0.968733 0.272305
O O7 0.341350 0.912816 0.655682
O O8 0.926164 0.614439 0.570204
O O9 0.015652 0.738162 0.028491
O O10 0.763767 0.614118 0.933623
O O11 0.885143 0.342561 0.848397
O O12 0.500000 0.000000 0.000000
O O13 0.500000 0.500000 0.000000
#
# Coordination Sequence:
#
# PCOD9087301 Si02
#       6
#     2   2   2   2   2   2
#     4  10  23  43  63  92 128 170 215 262 317 378
#     4   9  18  34  60  95 127 165 211 259 312 379
#     4  11  24  41  68  91 130 171 211 264 319 376
#     4  10  19  36  62  96 124 166 212 255 313 380
#     4   9  16  30  59  98 127 157 211 258 310 381
#     4  11  27  42  63  95 127 169 220 266 318 379
#
# _framework density 25.667393000000001
#
# number of rings (size 3 to 8) (size 9 to 14) (size 15 to 20)
#    0.000    2.000    3.333    0.500    9.333    0.667 
#    0.000    0.000    0.000    2.000    0.000    0.000 
#    0.000    0.000    0.000    0.000    0.000    0.000 
#
# Total GULP energy -66838.291923 kJ/mol
# GULP energy per Si atom -5569.857660 kJ/mol
# Density = 2.560897 g / cm^3
# Si number density = 25.667393 Si / 1000 Ang^3
#
#
#
# Elastic Constant Matrix: (Units=GPa)
#
#
# Indices 1 2 3 4 5 6 
#
# 1 200.6181 38.0334 100.2722 -5.3695 -33.0562 31.9627
# 2 38.0334 58.8028 23.1107 12.5299 -9.4738 -11.6030
# 3 100.2722 23.1107 133.2688 23.2225 -51.0186 8.3980
# 4 -5.3695 12.5299 23.2225 22.0558 28.9133 4.0608
# 5 -33.0562 -9.4738 -51.0186 28.9133 42.4662 -20.7542
# 6 31.9627 -11.6030 8.3980 4.0608 -20.7542 27.8226
#
#
#
# Elastic Compliance Matrix: (Units=1/GPa)
#
#
# Indices 1 2 3 4 5 6 
#
# 1 0.007100 -0.001958 -0.000623 -0.006755 0.008071 -0.001779
# 2 -0.001958 0.018535 -0.007028 0.008119 -0.009484 0.003841
# 3 -0.000623 -0.007028 0.005434 0.009545 -0.007222 -0.010635
# 4 -0.006755 0.008119 0.009545 -0.000032 0.019017 0.022456
# 5 0.008071 -0.009484 -0.007222 0.019017 -0.001046 -0.014603
# 6 -0.001779 0.003841 -0.010635 0.022456 -0.014603 0.028627
#
#
# Mechanical properties :
#
#
# Convention : Reuss Voigt Hill
#
# Bulk Modulus (GPa) = 84.40208 79.50249 81.95229
# Shear Modulus (GPa) = 61.13488 33.88715 47.51101
#
# Velocity S-wave (km/s) = 4.88567 3.63745 4.30702
# Velocity P-wave (km/s) = 8.04865 6.97731 7.53205
#
# Compressibility (1/GPa) = 0.01184805
#
# Stress axis : x y z
#
# Youngs Moduli (GPa) = 140.84744 53.95270 184.03678
#
# Poissons Ratio (x) = 0.10566 0.11474
# Poissons Ratio (y) = 0.27583 1.29347
# Poissons Ratio (z) = 0.08782 0.37920
#
# Static dielectric constant tensor:
#      x y z
#    x 2.000020 0.085250 -0.084950 
#    y 0.085250 1.781270 -0.032720 
#    z -0.084950 -0.032720 2.110950 
# 
# From -- ./inp_files/95948.got.cif
#   From: 2010.05.17/outbox.cif.g08.bks.cpg/sg2_48_cif.got.tgz:95948.got - 2010.06.03 11:33:40.
