data_PCOD9087254
_publ_section_title
;
Structure prediction by ZEFSAII (Michael W. Deem and Ramdas Pophale) SiO2 
 PCOD9087254
Probable space group: P -1
;
_chemical_formula_sum "Si O2"
_cell_formula_units_Z 14
_cell_length_a 14.510902
_cell_length_b 22.960324
_cell_length_c 10.591911
_cell_angle_alpha 155.932533
_cell_angle_beta 149.054593
_cell_angle_gamma 22.835341
_cell_volume 555.595238
_symmetry_space_group_name_H-M "P -1"
_symmetry_group_IT_number 2
_symmetry_cell_setting 'triclinic'
loop_
_space_group_symop_operation_xyz
x,y,z
-x,-y,-z
loop_
_atom_site_type_symbol
_atom_site_label
_atom_site_fract_x
_atom_site_fract_y
_atom_site_fract_z
Si Si1 0.607071 0.087850 0.893361
Si Si2 0.705177 0.048257 0.455454
Si Si3 0.403784 0.223419 0.684240
Si Si4 0.171234 0.636749 0.280933
Si Si5 0.256561 0.636865 0.906965
Si Si6 0.320959 0.473895 0.395801
Si Si7 0.839955 0.956335 0.171005
O O1 0.623666 0.145476 0.885895
O O2 0.671926 0.886884 0.561878
O O3 0.350533 0.291039 0.034496
O O4 0.743032 0.052177 0.111599
O O5 0.654823 0.041237 0.235415
O O6 0.938039 0.834863 0.344805
O O7 0.496188 0.130588 0.472127
O O8 0.749680 0.195129 0.815052
O O9 0.224115 0.449063 0.920165
O O10 0.163094 0.627248 0.404393
O O11 0.414594 0.594325 0.447693
O O12 0.250681 0.540690 0.587977
O O13 0.500000 0.500000 0.000000
O O14 0.031058 0.731967 0.922146
O O15 0.000000 0.000000 0.500000
#
# Coordination Sequence:
#
# PCOD9087254 Si02
#       7
#     2   2   2   2   2   2   2
#     4  10  22  44  62  93 128 167 210 253 315 373
#     4  11  22  39  65  90 123 170 206 260 308 378
#     4  10  23  43  67  89 132 168 202 262 310 373
#     4  10  21  38  61  96 124 153 219 257 307 370
#     4  11  21  36  62  93 126 163 207 262 319 361
#     4  10  19  36  62  91 124 164 203 268 305 362
#     4  10  22  38  61  92 124 161 210 257 304 373
#
# _framework density 25.198201000000001
#
# number of rings (size 3 to 8) (size 9 to 14) (size 15 to 20)
#    0.000    1.714    1.429    4.286    2.000    1.143 
#    2.571    2.857    0.000    0.000    0.000    0.000 
#    0.000    0.000    0.000    0.000    0.000    0.000 
#
# Total GULP energy -78136.946927 kJ/mol
# GULP energy per Si atom -5581.210495 kJ/mol
# Density = 2.514085 g / cm^3
# Si number density = 25.198201 Si / 1000 Ang^3
#
#
#
# Elastic Constant Matrix: (Units=GPa)
#
#
# Indices 1 2 3 4 5 6 
#
# 1 68.0679 13.2606 38.4957 3.3877 -32.1324 -1.5930
# 2 13.2606 118.9081 30.5252 23.9440 -4.6500 24.4820
# 3 38.4957 30.5252 151.6489 25.7351 -30.5173 15.8973
# 4 3.3877 23.9440 25.7351 46.3829 11.7343 -3.0308
# 5 -32.1324 -4.6500 -30.5173 11.7343 59.7376 -2.4894
# 6 -1.5930 24.4820 15.8973 -3.0308 -2.4894 23.2637
#
#
#
# Elastic Compliance Matrix: (Units=1/GPa)
#
#
# Indices 1 2 3 4 5 6 
#
# 1 0.022484 -0.002780 -0.003945 -0.000065 0.010218 0.008246
# 2 -0.002780 0.013654 0.001555 -0.009169 0.001469 -0.016660
# 3 -0.003945 0.001555 0.010635 -0.008226 0.004642 -0.009749
# 4 -0.000065 -0.009169 -0.008226 0.034868 -0.011024 0.018629
# 5 0.010218 0.001469 0.004642 -0.011024 0.026779 -0.002588
# 6 0.008246 -0.016660 -0.009749 0.018629 -0.002588 0.069895
#
#
# Mechanical properties :
#
#
# Convention : Reuss Voigt Hill
#
# Bulk Modulus (GPa) = 27.44714 55.90979 41.67847
# Shear Modulus (GPa) = 24.90054 42.96639 33.93346
#
# Velocity S-wave (km/s) = 3.14695 4.13381 3.67367
# Velocity P-wave (km/s) = 4.91127 6.70975 5.87968
#
# Compressibility (1/GPa) = 0.03643367
#
# Stress axis : x y z
#
# Youngs Moduli (GPa) = 44.47642 73.23610 94.03221
#
# Poissons Ratio (x) = 0.20358 0.37096
# Poissons Ratio (y) = 0.12363 -0.14624
# Poissons Ratio (z) = 0.17546 -0.11389
#
# Static dielectric constant tensor:
#      x y z
#    x 2.136900 -0.066040 0.068420 
#    y -0.066040 2.029210 -0.076420 
#    z 0.068420 -0.076420 2.148680 
# 
# From -- ./inp_files/319160.got.cif
#   From: 2010.05.17/outbox.cif.g08.bks.cpg/sg2_160_cif.got.tgz:319160.got - 2010.06.03 11:33:40.
