data_PCOD9087076
_publ_section_title
;
Structure prediction by ZEFSAII (Michael W. Deem and Ramdas Pophale) SiO2 
 PCOD9087076
Probable space group: P -1
;
_chemical_formula_sum "Si O2"
_cell_formula_units_Z 16
_cell_length_a 11.621564
_cell_length_b 10.199240
_cell_length_c 10.088877
_cell_angle_alpha 133.886546
_cell_angle_beta 60.055837
_cell_angle_gamma 107.998003
_cell_volume 745.499434
_symmetry_space_group_name_H-M "P -1"
_symmetry_group_IT_number 2
_symmetry_cell_setting 'triclinic'
loop_
_space_group_symop_operation_xyz
x,y,z
-x,-y,-z
loop_
_atom_site_type_symbol
_atom_site_label
_atom_site_fract_x
_atom_site_fract_y
_atom_site_fract_z
Si Si1 0.819075 0.240464 0.429445
Si Si2 0.609699 0.979466 0.035016
Si Si3 0.529416 0.115851 0.439012
Si Si4 0.940186 0.942634 0.351697
Si Si5 0.618023 0.554195 0.140421
Si Si6 0.146513 0.768999 0.891607
Si Si7 0.332834 0.390920 0.147517
Si Si8 0.852260 0.555689 0.172041
O O1 0.677498 0.172672 0.418082
O O2 0.898162 0.214738 0.226033
O O3 0.777385 0.447241 0.642863
O O4 0.872151 0.116760 0.434880
O O5 0.522357 0.999793 0.231986
O O6 0.716615 0.133309 0.087905
O O7 0.686924 0.783501 0.872298
O O8 0.500000 0.000000 0.000000
O O9 0.432045 0.292965 0.619165
O O10 0.500000 0.000000 0.500000
O O11 0.846638 0.775280 0.321213
O O12 0.000000 0.000000 0.500000
O O13 0.043923 0.859080 0.121763
O O14 0.485914 0.445364 0.121220
O O15 0.749412 0.465109 0.068084
O O16 0.664527 0.637845 0.033016
O O17 0.166479 0.551974 0.756351
O O18 0.000000 0.500000 0.000000
#
# Coordination Sequence:
#
# PCOD9087076 Si02
#       8
#     2   2   2   2   2   2   2   2
#     4  10  23  41  64  90 135 169 213 273 329 393
#     4  11  23  39  64  99 137 166 213 274 330 388
#     4  10  19  36  61  92 120 172 215 254 326 380
#     4  11  25  44  68  97 122 174 231 272 318 393
#     4  10  20  38  63  94 129 167 220 269 311 385
#     4  10  24  44  63  94 134 171 216 262 348 386
#     4  10  22  37  65  99 129 169 221 265 327 376
#     4  10  23  42  67  92 131 171 219 267 335 386
#
# _framework density 21.462121
#
# number of rings (size 3 to 8) (size 9 to 14) (size 15 to 20)
#    0.000    1.750    1.250    1.875    5.250    4.000 
#    0.000    5.000    0.000    0.000    0.000    0.000 
#    0.000    0.000    0.000    0.000    0.000    0.000 
#
# Total GULP energy -89151.543138 kJ/mol
# GULP energy per Si atom -5571.971446 kJ/mol
# Density = 2.141327 g / cm^3
# Si number density = 21.462121 Si / 1000 Ang^3
#
#
#
# Elastic Constant Matrix: (Units=GPa)
#
#
# Indices 1 2 3 4 5 6 
#
# 1 74.0650 32.5114 28.9499 1.7098 2.8599 -27.3877
# 2 32.5114 147.2046 37.6210 7.2213 9.8690 -19.4921
# 3 28.9499 37.6210 103.2039 0.7456 10.4193 -19.7914
# 4 1.7098 7.2213 0.7456 23.3102 -1.4543 -0.5534
# 5 2.8599 9.8690 10.4193 -1.4543 21.9656 -7.6080
# 6 -27.3877 -19.4921 -19.7914 -0.5534 -7.6080 33.2283
#
#
#
# Elastic Compliance Matrix: (Units=1/GPa)
#
#
# Indices 1 2 3 4 5 6 
#
# 1 0.021103 -0.002250 -0.002593 -0.000090 0.004908 0.015652
# 2 -0.002250 0.008208 -0.001870 -0.002425 -0.002219 0.001298
# 3 -0.002593 -0.001870 0.012049 0.000246 -0.003426 0.003162
# 4 -0.000090 -0.002425 0.000246 0.043906 0.003994 0.000295
# 5 0.004908 -0.002219 -0.003426 0.003994 0.052178 0.012717
# 6 0.015652 0.001298 0.003162 0.000295 0.012717 0.048557
#
#
# Mechanical properties :
#
#
# Convention : Reuss Voigt Hill
#
# Bulk Modulus (GPa) = 35.79959 58.07089 46.93524
# Shear Modulus (GPa) = 23.95343 30.72690 27.34017
#
# Velocity S-wave (km/s) = 3.34440 3.78786 3.57302
# Velocity P-wave (km/s) = 5.62405 6.80049 6.24006
#
# Compressibility (1/GPa) = 0.02793328
#
# Stress axis : x y z
#
# Youngs Moduli (GPa) = 47.38631 121.83480 82.99308
#
# Poissons Ratio (x) = 0.27417 0.21518
# Poissons Ratio (y) = 0.10663 0.15523
# Poissons Ratio (z) = 0.12286 0.22788
#
# Static dielectric constant tensor:
#      x y z
#    x 1.750490 0.015260 -0.084960 
#    y 0.015260 1.827280 0.126040 
#    z -0.084960 0.126040 1.712430 
# 
# From -- ./inp_files/245346.got.cif
#   From: 2010.05.17/outbox.cif.g08.bks.cpg/sg2_123_cif.got.tgz:245346.got - 2010.06.03 11:33:40.
