data_PCOD9087495
_publ_section_title
;
Structure prediction by ZEFSAII (Michael W. Deem and Ramdas Pophale) SiO2 
 PCOD9087495
Probable space group: P -1
;
_chemical_formula_sum "Si O2"
_cell_formula_units_Z 16
_cell_length_a 22.630977
_cell_length_b 12.501578
_cell_length_c 8.988696
_cell_angle_alpha 34.646397
_cell_angle_beta 149.241469
_cell_angle_gamma 147.072050
_cell_volume 658.284697
_symmetry_space_group_name_H-M "P -1"
_symmetry_group_IT_number 2
_symmetry_cell_setting 'triclinic'
loop_
_space_group_symop_operation_xyz
x,y,z
-x,-y,-z
loop_
_atom_site_type_symbol
_atom_site_label
_atom_site_fract_x
_atom_site_fract_y
_atom_site_fract_z
Si Si1 0.883659 0.484982 0.866875
Si Si2 0.793655 0.775655 0.792812
Si Si3 0.416557 0.116852 0.741886
Si Si4 0.068028 0.106079 0.326965
Si Si5 0.661920 0.820691 0.020912
Si Si6 0.205193 0.291852 0.798342
Si Si7 0.362756 0.882516 0.182094
Si Si8 0.573141 0.452147 0.466078
O O1 0.933442 0.680095 0.864500
O O2 0.786203 0.518868 0.502814
O O3 0.793821 0.265022 0.003322
O O4 0.000000 0.500000 0.000000
O O5 0.735486 0.936429 0.533537
O O6 0.916345 0.889258 0.822029
O O7 0.698142 0.598233 0.672104
O O8 0.794949 0.665911 0.076059
O O9 0.475596 0.329525 0.528895
O O10 0.500000 0.000000 0.000000
O O11 0.421757 0.082219 0.969171
O O12 0.195473 0.108202 0.676223
O O13 0.936538 0.902609 0.316231
O O14 0.687895 0.771976 0.965043
O O15 0.568576 0.616442 0.148315
O O16 0.625027 0.009365 0.754023
O O17 0.412832 0.721753 0.409666
#
# Coordination Sequence:
#
# PCOD9087495 Si02
#       8
#     2   2   2   2   2   2   2   2
#     4  11  21  36  61  90 123 162 208 240 283 370
#     4  11  21  39  62  90 126 153 196 264 302 356
#     4  10  22  37  68  90 112 157 211 258 291 361
#     4  10  19  38  59  87 119 169 201 231 292 371
#     4  10  19  36  64  84 121 163 201 244 286 370
#     4  11  22  37  59  92 128 161 192 246 318 349
#     4  11  18  36  63  90 112 150 216 244 282 351
#     4  10  20  39  63  89 112 157 215 242 303 353
#
# _framework density 24.305593999999999
#
# number of rings (size 3 to 8) (size 9 to 14) (size 15 to 20)
#    0.000    1.500    6.250    3.750    0.000    0.000 
#    0.000    6.250    0.000    2.250    0.000    0.000 
#    0.000    0.000    0.000    0.000    0.000    0.000 
#
# Total GULP energy -89139.586025 kJ/mol
# GULP energy per Si atom -5571.224127 kJ/mol
# Density = 2.425027 g / cm^3
# Si number density = 24.305594 Si / 1000 Ang^3
#
#
#
# Elastic Constant Matrix: (Units=GPa)
#
#
# Indices 1 2 3 4 5 6 
#
# 1 194.8328 49.3778 38.7422 -17.1019 4.4762 2.9112
# 2 49.3778 86.8466 23.4464 -12.1495 -4.1018 -5.1047
# 3 38.7422 23.4464 43.3241 -5.9959 0.6110 -11.5839
# 4 -17.1019 -12.1495 -5.9959 26.2630 -4.7472 -4.3224
# 5 4.4762 -4.1018 0.6110 -4.7472 59.2680 -1.7259
# 6 2.9112 -5.1047 -11.5839 -4.3224 -1.7259 52.8722
#
#
#
# Elastic Compliance Matrix: (Units=1/GPa)
#
#
# Indices 1 2 3 4 5 6 
#
# 1 0.006960 -0.002447 -0.005056 0.001887 -0.000538 -0.001591
# 2 -0.002447 0.015069 -0.005102 0.004666 0.001680 0.000908
# 3 -0.005056 -0.005102 0.032707 0.003026 0.000144 0.007204
# 4 0.001887 0.004666 0.003026 0.043611 0.003779 0.004698
# 5 -0.000538 0.001680 0.000144 0.003779 0.017363 0.001099
# 6 -0.001591 0.000908 0.007204 0.004698 0.001099 0.021087
#
#
# Mechanical properties :
#
#
# Convention : Reuss Voigt Hill
#
# Bulk Modulus (GPa) = 33.86869 60.90401 47.38635
# Shear Modulus (GPa) = 29.09544 41.90978 35.50261
#
# Velocity S-wave (km/s) = 3.46362 4.15696 3.82603
# Velocity P-wave (km/s) = 5.47360 6.93919 6.24951
#
# Compressibility (1/GPa) = 0.02952580
#
# Stress axis : x y z
#
# Youngs Moduli (GPa) = 143.67969 66.36257 30.57433
#
# Poissons Ratio (x) = 0.16240 0.15459
# Poissons Ratio (y) = 0.35160 0.15599
# Poissons Ratio (z) = 0.72646 0.33857
#
# Static dielectric constant tensor:
#      x y z
#    x 1.947270 -0.006980 0.034290 
#    y -0.006980 1.990410 0.026440 
#    z 0.034290 0.026440 2.032090 
# 
# From -- ./inp_files/344999.got.cif
#   From: 2010.05.17/outbox.cif.g08.bks.cpg/sg2_173_cif.got.tgz:344999.got - 2010.06.03 11:33:40.
