data_PCOD9087797
_publ_section_title
;
Structure prediction by ZEFSAII (Michael W. Deem and Ramdas Pophale) SiO2 
 PCOD9087797
Probable space group: P -1
;
_chemical_formula_sum "Si O2"
_cell_formula_units_Z 16
_cell_length_a 20.307767
_cell_length_b 9.052403
_cell_length_c 10.086049
_cell_angle_alpha 121.174605
_cell_angle_beta 119.572027
_cell_angle_gamma 31.844222
_cell_volume 831.045253
_symmetry_space_group_name_H-M "P -1"
_symmetry_group_IT_number 2
_symmetry_cell_setting 'triclinic'
loop_
_space_group_symop_operation_xyz
x,y,z
-x,-y,-z
loop_
_atom_site_type_symbol
_atom_site_label
_atom_site_fract_x
_atom_site_fract_y
_atom_site_fract_z
Si Si1 0.888839 0.840257 0.527750
Si Si2 0.249054 0.951182 0.244328
Si Si3 0.944652 0.119400 0.648367
Si Si4 0.517738 0.606516 0.945450
Si Si5 0.696978 0.749566 0.604954
Si Si6 0.910683 0.827850 0.052524
Si Si7 0.574561 0.723942 0.289096
Si Si8 0.718176 0.126492 0.233895
O O1 0.000000 0.500000 0.500000
O O2 0.786716 0.014385 0.624082
O O3 0.945677 0.928934 0.624032
O O4 0.817221 0.941530 0.364674
O O5 0.380693 0.639206 0.174747
O O6 0.251683 0.151648 0.314955
O O7 0.141663 0.064760 0.097590
O O8 0.802383 0.445002 0.640292
O O9 0.021955 0.122931 0.806000
O O10 0.000000 0.000000 0.500000
O O11 0.379873 0.853206 0.858345
O O12 0.500000 0.500000 0.000000
O O13 0.565949 0.685938 0.109351
O O14 0.659222 0.731624 0.418832
O O15 0.567596 0.990371 0.670354
O O16 0.793453 0.002238 0.113487
O O17 0.000000 0.500000 0.000000
O O18 0.635275 0.453202 0.306046
#
# Coordination Sequence:
#
# PCOD9087797 Si02
#       8
#     2   2   2   2   2   2   2   2
#     4  12  27  45  62  98 139 176 218 272 332 393
#     4  12  23  40  66  99 133 169 214 275 335 378
#     4  12  24  42  68  94 128 179 224 265 322 397
#     4  10  19  38  65  97 127 166 214 269 323 385
#     4  11  20  37  66 101 123 168 224 269 321 392
#     4  12  22  37  70  99 124 171 228 269 318 393
#     4  10  19  36  68  97 125 160 225 278 309 379
#     4  11  20  41  65  94 130 173 215 267 326 391
#
# _framework density 19.252862
#
# number of rings (size 3 to 8) (size 9 to 14) (size 15 to 20)
#    0.000    0.750    8.750    1.500    0.000    1.000 
#    0.000    0.000    0.000    1.500    0.000    0.000 
#    0.000    0.000    0.000    0.000    0.000    0.000 
#
# Total GULP energy -89356.463280 kJ/mol
# GULP energy per Si atom -5584.778955 kJ/mol
# Density = 1.920904 g / cm^3
# Si number density = 19.252862 Si / 1000 Ang^3
#
#
#
# Elastic Constant Matrix: (Units=GPa)
#
#
# Indices 1 2 3 4 5 6 
#
# 1 65.0421 25.8254 22.1630 12.0979 14.8615 2.0346
# 2 25.8254 105.2907 13.9530 9.6604 11.6831 -7.0183
# 3 22.1630 13.9530 94.4226 2.2141 30.5102 5.2839
# 4 12.0979 9.6604 2.2141 31.1909 -8.5976 2.1351
# 5 14.8615 11.6831 30.5102 -8.5976 46.7971 3.4890
# 6 2.0346 -7.0183 5.2839 2.1351 3.4890 21.3181
#
#
#
# Elastic Compliance Matrix: (Units=1/GPa)
#
#
# Indices 1 2 3 4 5 6 
#
# 1 0.020288 -0.003362 -0.002223 -0.008161 -0.005597 -0.000759
# 2 -0.003362 0.011249 -0.000254 -0.003186 -0.002520 0.004819
# 3 -0.002223 -0.000254 0.014127 -0.002356 -0.008747 -0.001705
# 4 -0.008161 -0.003186 -0.002356 0.040295 0.012759 -0.005810
# 5 -0.005597 -0.002520 -0.008747 0.012759 0.032170 -0.004670
# 6 -0.000759 0.004819 -0.001705 -0.005810 -0.004670 0.050336
#
#
# Mechanical properties :
#
#
# Convention : Reuss Voigt Hill
#
# Bulk Modulus (GPa) = 29.42426 43.18204 36.30315
# Shear Modulus (GPa) = 26.11360 33.38215 29.74787
#
# Velocity S-wave (km/s) = 3.68686 4.16851 3.93506
# Velocity P-wave (km/s) = 5.78275 6.75619 6.28834
#
# Compressibility (1/GPa) = 0.03398556
#
# Stress axis : x y z
#
# Youngs Moduli (GPa) = 49.29136 88.89689 70.78694
#
# Poissons Ratio (x) = 0.29890 0.15734
# Poissons Ratio (y) = 0.16573 0.01797
# Poissons Ratio (z) = 0.10956 0.02256
#
# Static dielectric constant tensor:
#      x y z
#    x 1.665980 -0.019960 0.040980 
#    y -0.019960 1.690150 0.008400 
#    z 0.040980 0.008400 1.702520 
# 
# From -- ./inp_files/343786.got.cif
#   From: 2010.05.17/outbox.cif.g08.bks.cpg/sg2_172_cif.got.tgz:343786.got - 2010.06.03 11:33:40.
