data_PCOD9087850
_publ_section_title
;
Structure prediction by ZEFSAII (Michael W. Deem and Ramdas Pophale) SiO2 
 PCOD9087850
Probable space group: P -1
;
_chemical_formula_sum "Si O2"
_cell_formula_units_Z 12
_cell_length_a 10.860663
_cell_length_b 18.356465
_cell_length_c 9.914490
_cell_angle_alpha 35.483680
_cell_angle_beta 141.227314
_cell_angle_gamma 151.413983
_cell_volume 533.918004
_symmetry_space_group_name_H-M "P -1"
_symmetry_group_IT_number 2
_symmetry_cell_setting 'triclinic'
loop_
_space_group_symop_operation_xyz
x,y,z
-x,-y,-z
loop_
_atom_site_type_symbol
_atom_site_label
_atom_site_fract_x
_atom_site_fract_y
_atom_site_fract_z
Si Si1 0.884338 0.788039 0.575955
Si Si2 0.587336 0.432731 0.285931
Si Si3 0.647061 0.929801 0.061347
Si Si4 0.170184 0.694085 0.807007
Si Si5 0.173072 0.784626 0.057353
Si Si6 0.856752 0.391268 0.385795
O O1 0.610217 0.646959 0.635754
O O2 0.852320 0.906299 0.296155
O O3 0.984188 0.729612 0.640665
O O4 0.087499 0.856242 0.769904
O O5 0.619710 0.317169 0.400417
O O6 0.881609 0.565058 0.400163
O O7 0.500000 0.500000 0.000000
O O8 0.784195 0.123055 0.906213
O O9 0.451277 0.825882 0.925158
O O10 0.441630 0.842293 0.142544
O O11 0.220772 0.702254 0.679591
O O12 0.000000 0.500000 0.000000
O O13 0.967858 0.582436 0.171205
#
# Coordination Sequence:
#
# PCOD9087850 Si02
#       6
#     2   2   2   2   2   2
#     4  11  20  35  60  89 110 148 193 230 275 335
#     4  11  21  36  56  85 111 152 188 231 271 337
#     4  10  21  34  59  84 118 147 181 236 285 330
#     4  11  20  37  54  88 118 142 183 238 288 325
#     4  10  19  37  54  87 115 146 188 231 279 335
#     4  11  22  37  58  86 115 145 187 233 283 332
#
# _framework density 22.475359999999998
#
# number of rings (size 3 to 8) (size 9 to 14) (size 15 to 20)
#    0.000    1.333    6.667    0.500    0.000    4.000 
#    0.000    0.000    0.000    5.000    0.000    2.333 
#    0.000    0.000    0.000    0.000    0.000    0.000 
#
# Total GULP energy -66915.024127 kJ/mol
# GULP energy per Si atom -5576.252011 kJ/mol
# Density = 2.242420 g / cm^3
# Si number density = 22.475360 Si / 1000 Ang^3
#
#
#
# Elastic Constant Matrix: (Units=GPa)
#
#
# Indices 1 2 3 4 5 6 
#
# 1 111.7683 49.3868 19.9258 6.1104 4.6918 -27.8530
# 2 49.3868 104.3492 53.1922 10.1320 6.9484 -41.1675
# 3 19.9258 53.1922 129.2940 17.8105 23.4804 -11.9285
# 4 6.1104 10.1320 17.8105 27.6481 -2.9846 -4.2696
# 5 4.6918 6.9484 23.4804 -2.9846 34.1596 7.6924
# 6 -27.8530 -41.1675 -11.9285 -4.2696 7.6924 46.1898
#
#
#
# Elastic Compliance Matrix: (Units=1/GPa)
#
#
# Indices 1 2 3 4 5 6 
#
# 1 0.011784 -0.004235 0.000880 -0.001280 -0.002336 0.003829
# 2 -0.004235 0.020681 -0.005806 -0.000946 -0.003049 0.014799
# 3 0.000880 -0.005806 0.012288 -0.006952 -0.007811 -0.000812
# 4 -0.001280 -0.000946 -0.006952 0.042096 0.009056 -0.001028
# 5 -0.002336 -0.003049 -0.007811 0.009056 0.039035 -0.011808
# 6 0.003829 0.014799 -0.000812 -0.001028 -0.011808 0.038811
#
#
# Mechanical properties :
#
#
# Convention : Reuss Voigt Hill
#
# Bulk Modulus (GPa) = 37.83428 65.60234 51.71831
# Shear Modulus (GPa) = 26.06523 36.45995 31.26259
#
# Velocity S-wave (km/s) = 3.40917 4.03205 3.73362
# Velocity P-wave (km/s) = 5.68918 7.13642 6.45350
#
# Compressibility (1/GPa) = 0.02643106
#
# Stress axis : x y z
#
# Youngs Moduli (GPa) = 84.86170 48.35404 81.37719
#
# Poissons Ratio (x) = 0.20480 -0.07163
# Poissons Ratio (y) = 0.35942 0.47247
# Poissons Ratio (z) = -0.07470 0.28074
#
# Static dielectric constant tensor:
#      x y z
#    x 1.885420 0.037870 -0.041920 
#    y 0.037870 1.879150 -0.019000 
#    z -0.041920 -0.019000 1.926550 
# 
# From -- ./inp_files/420613.got.cif
#   From: 2010.05.17/outbox.cif.g08.bks.cpg/sg2_211_cif.got.tgz:420613.got - 2010.06.03 11:33:40.
