data_PCOD9087547
_publ_section_title
;
Structure prediction by ZEFSAII (Michael W. Deem and Ramdas Pophale) SiO2 
 PCOD9087547
Probable space group: P -1
;
_chemical_formula_sum "Si O2"
_cell_formula_units_Z 14
_cell_length_a 8.309880
_cell_length_b 15.725578
_cell_length_c 10.255349
_cell_angle_alpha 128.743638
_cell_angle_beta 133.187138
_cell_angle_gamma 38.049129
_cell_volume 590.874523
_symmetry_space_group_name_H-M "P -1"
_symmetry_group_IT_number 2
_symmetry_cell_setting 'triclinic'
loop_
_space_group_symop_operation_xyz
x,y,z
-x,-y,-z
loop_
_atom_site_type_symbol
_atom_site_label
_atom_site_fract_x
_atom_site_fract_y
_atom_site_fract_z
Si Si1 0.451591 0.399756 0.706627
Si Si2 0.713265 0.763972 0.432150
Si Si3 0.203613 0.041915 0.918584
Si Si4 0.239071 0.689327 0.922414
Si Si5 0.228252 0.348719 0.916155
Si Si6 0.007990 0.194764 0.698499
Si Si7 0.107728 0.065234 0.347634
O O1 0.332781 0.314538 0.562124
O O2 0.237104 0.567507 0.749746
O O3 0.684220 0.338082 0.662845
O O4 0.616439 0.360405 0.899276
O O5 0.854001 0.659127 0.285898
O O6 0.402146 0.905162 0.344923
O O7 0.873378 0.826076 0.613229
O O8 0.033777 0.105762 0.748638
O O9 0.055461 0.161152 0.061122
O O10 0.500000 0.000000 0.000000
O O11 0.150928 0.934073 0.826942
O O12 0.468123 0.687189 0.964531
O O13 0.208882 0.237779 0.869966
O O14 0.000000 0.500000 0.000000
O O15 0.085367 0.111643 0.529041
#
# Coordination Sequence:
#
# PCOD9087547 Si02
#       7
#     2   2   2   2   2   2   2
#     4   9  15  28  49  79 100 124 170 225 257 293
#     4   9  18  28  50  77 106 132 160 223 265 292
#     4  11  22  36  52  74 110 144 169 204 259 318
#     4   9  17  30  48  73 108 131 167 212 266 296
#     4  10  16  27  49  83 108 124 164 227 268 289
#     4  10  19  29  53  85  99 131 177 217 253 304
#     4  10  18  33  51  77 107 131 174 213 260 301
#
# _framework density 23.693695000000002
#
# number of rings (size 3 to 8) (size 9 to 14) (size 15 to 20)
#    0.000    2.286    5.714    0.429    2.000    0.000 
#    0.000    0.714    0.000    1.714    0.000    0.000 
#    0.000    0.000    0.000    0.000    0.000    0.000 
#
# Total GULP energy -78177.374792 kJ/mol
# GULP energy per Si atom -5584.098199 kJ/mol
# Density = 2.363977 g / cm^3
# Si number density = 23.693695 Si / 1000 Ang^3
#
#
#
# Elastic Constant Matrix: (Units=GPa)
#
#
# Indices 1 2 3 4 5 6 
#
# 1 89.7289 46.4172 39.6191 13.2972 18.9384 -25.8272
# 2 46.4172 109.7295 84.5915 20.2726 11.5121 -43.6394
# 3 39.6191 84.5915 141.2762 16.9685 51.4936 -17.4540
# 4 13.2972 20.2726 16.9685 38.6844 -4.2003 1.5865
# 5 18.9384 11.5121 51.4936 -4.2003 60.7634 0.7969
# 6 -25.8272 -43.6394 -17.4540 1.5865 0.7969 41.5972
#
#
#
# Elastic Compliance Matrix: (Units=1/GPa)
#
#
# Indices 1 2 3 4 5 6 
#
# 1 0.016602 -0.002843 0.000819 -0.005535 -0.005817 0.007992
# 2 -0.002843 0.042085 -0.023143 -0.011044 0.011331 0.032879
# 3 0.000819 -0.023143 0.025587 -0.000751 -0.017440 -0.012672
# 4 -0.005535 -0.011044 -0.000751 0.035333 0.007117 -0.016822
# 5 -0.005817 0.011331 -0.017440 0.007117 0.031394 0.000084
# 6 0.007992 0.032879 -0.012672 -0.016822 0.000084 0.058818
#
#
# Mechanical properties :
#
#
# Convention : Reuss Voigt Hill
#
# Bulk Modulus (GPa) = 29.46351 75.77670 52.62011
# Shear Modulus (GPa) = 18.41842 39.54946 28.98394
#
# Velocity S-wave (km/s) = 2.79113 4.09001 3.50133
# Velocity P-wave (km/s) = 4.78010 7.37262 6.21309
#
# Compressibility (1/GPa) = 0.03394028
#
# Stress axis : x y z
#
# Youngs Moduli (GPa) = 60.23288 23.76152 39.08172
#
# Poissons Ratio (x) = 0.06756 -0.03201
# Poissons Ratio (y) = 0.17125 0.90447
# Poissons Ratio (z) = -0.04933 0.54991
#
# Static dielectric constant tensor:
#      x y z
#    x 1.907060 0.070390 0.024790 
#    y 0.070390 1.970240 -0.049610 
#    z 0.024790 -0.049610 1.927960 
# 
# From -- ./inp_files/563255.got.cif
#   From: 2010.05.17/outbox.cif.g08.bks.cpg/sg2_282_cif.got.tgz:563255.got - 2010.06.03 11:33:40.
