data_PCOD9087540
_publ_section_title
;
Structure prediction by ZEFSAII (Michael W. Deem and Ramdas Pophale) SiO2 
 PCOD9087540
Probable space group: P -1
;
_chemical_formula_sum "Si O2"
_cell_formula_units_Z 12
_cell_length_a 10.869014
_cell_length_b 8.050239
_cell_length_c 14.663128
_cell_angle_alpha 97.599173
_cell_angle_beta 152.279202
_cell_angle_gamma 99.838365
_cell_volume 462.034605
_symmetry_space_group_name_H-M "P -1"
_symmetry_group_IT_number 2
_symmetry_cell_setting 'triclinic'
loop_
_space_group_symop_operation_xyz
x,y,z
-x,-y,-z
loop_
_atom_site_type_symbol
_atom_site_label
_atom_site_fract_x
_atom_site_fract_y
_atom_site_fract_z
Si Si1 0.901930 0.784358 0.759172
Si Si2 0.961221 0.509581 0.276861
Si Si3 0.167579 0.907233 0.513779
Si Si4 0.699852 0.500482 0.769763
Si Si5 0.424061 0.346083 0.762006
Si Si6 0.603366 0.863473 0.014309
O O1 0.837055 0.707962 0.814557
O O2 0.553125 0.706743 0.476729
O O3 0.935960 0.620518 0.714478
O O4 0.218426 0.024542 0.956561
O O5 0.235407 0.757787 0.499670
O O6 0.699324 0.487677 0.030404
O O7 0.732098 0.377439 0.205900
O O8 0.951926 0.784842 0.454778
O O9 0.899466 0.899664 0.272881
O O10 0.445744 0.154883 0.737887
O O11 0.503470 0.473480 0.731093
O O12 0.000000 0.500000 0.000000
O O13 0.500000 0.000000 0.000000
#
# Coordination Sequence:
#
# PCOD9087540 Si02
#       6
#     2   2   2   2   2   2
#     4  10  21  37  64  92 121 165 208 254 307 363
#     4  10  20  38  66  93 125 158 197 260 320 360
#     4  10  20  36  65  93 124 161 199 259 316 364
#     4  11  21  38  64  87 120 173 212 246 302 375
#     4  10  19  36  64  90 117 164 209 238 308 374
#     4   9  17  32  58  91 119 156 199 246 310 362
#
# _framework density 25.972079999999998
#
# number of rings (size 3 to 8) (size 9 to 14) (size 15 to 20)
#    0.000    2.000    3.333    2.000    0.000    0.000 
#    0.000    1.667   14.667    5.000    0.000    0.000 
#    0.000    0.000    0.000    0.000    0.000    0.000 
#
# Total GULP energy -67126.355724 kJ/mol
# GULP energy per Si atom -5593.862977 kJ/mol
# Density = 2.591297 g / cm^3
# Si number density = 25.972080 Si / 1000 Ang^3
#
#
#
# Elastic Constant Matrix: (Units=GPa)
#
#
# Indices 1 2 3 4 5 6 
#
# 1 88.9540 71.2867 21.7886 13.3299 3.6049 45.4107
# 2 71.2867 104.3250 33.6616 3.4465 -19.4056 27.3256
# 3 21.7886 33.6616 84.3788 -1.3980 -12.1954 1.1403
# 4 13.3299 3.4465 -1.3980 46.9091 -5.8373 -4.3219
# 5 3.6049 -19.4056 -12.1954 -5.8373 33.0984 9.2042
# 6 45.4107 27.3256 1.1403 -4.3219 9.2042 79.0527
#
#
#
# Elastic Compliance Matrix: (Units=1/GPa)
#
#
# Indices 1 2 3 4 5 6 
#
# 1 0.049406 -0.032782 -0.003283 -0.016160 -0.024480 -0.015035
# 2 -0.032782 0.035786 -0.002182 0.010039 0.024348 0.004207
# 3 -0.003283 -0.002182 0.014173 0.002219 0.004114 0.002078
# 4 -0.016160 0.010039 0.002219 0.027230 0.011620 0.005917
# 5 -0.024480 0.024348 0.004114 0.011620 0.050629 0.000327
# 6 -0.015035 0.004207 0.002078 0.005917 0.000327 0.020088
#
#
# Mechanical properties :
#
#
# Convention : Reuss Voigt Hill
#
# Bulk Modulus (GPa) = 43.72528 59.01462 51.36995
# Shear Modulus (GPa) = 17.76649 41.87344 29.81996
#
# Velocity S-wave (km/s) = 2.61829 4.01964 3.39212
# Velocity P-wave (km/s) = 5.10026 6.65695 5.92991
#
# Compressibility (1/GPa) = 0.02287007
#
# Stress axis : x y z
#
# Youngs Moduli (GPa) = 20.24036 27.94411 70.55768
#
# Poissons Ratio (x) = 0.91608 0.23161
# Poissons Ratio (y) = 0.66353 0.15398
# Poissons Ratio (z) = 0.06644 0.06098
#
# Static dielectric constant tensor:
#      x y z
#    x 2.060090 -0.008400 0.053090 
#    y -0.008400 2.068650 -0.070720 
#    z 0.053090 -0.070720 2.090070 
# 
# From -- ./inp_files/171913.got.cif
#   From: 2010.05.17/outbox.cif.g08.bks.cpg/sg2_86_cif.got.tgz:171913.got - 2010.06.03 11:33:40.
