data_PCOD9087138
_publ_section_title
;
Structure prediction by ZEFSAII (Michael W. Deem and Ramdas Pophale) SiO2 
 PCOD9087138
Probable space group: P -1
;
_chemical_formula_sum "Si O2"
_cell_formula_units_Z 12
_cell_length_a 21.308324
_cell_length_b 11.925760
_cell_length_c 7.357839
_cell_angle_alpha 132.179460
_cell_angle_beta 35.698436
_cell_angle_gamma 153.862148
_cell_volume 468.418393
_symmetry_space_group_name_H-M "P -1"
_symmetry_group_IT_number 2
_symmetry_cell_setting 'triclinic'
loop_
_space_group_symop_operation_xyz
x,y,z
-x,-y,-z
loop_
_atom_site_type_symbol
_atom_site_label
_atom_site_fract_x
_atom_site_fract_y
_atom_site_fract_z
Si Si1 0.982259 0.160583 0.262017
Si Si2 0.247958 0.659202 0.714084
Si Si3 0.071257 0.910137 0.254504
Si Si4 0.402234 0.145039 0.854906
Si Si5 0.426335 0.283504 0.317229
Si Si6 0.324281 0.709964 0.173017
O O1 0.958666 0.144589 0.518300
O O2 0.791425 0.994043 0.435997
O O3 0.159711 0.475476 0.165774
O O4 0.000000 0.000000 0.000000
O O5 0.408209 0.729766 0.488098
O O6 0.058929 0.350860 0.838117
O O7 0.282036 0.868289 0.929446
O O8 0.264096 0.705985 0.506675
O O9 0.000000 0.000000 0.500000
O O10 0.280718 0.089539 0.928819
O O11 0.436253 0.311596 0.107279
O O12 0.500000 0.500000 0.500000
O O13 0.579215 0.334191 0.047351
O O14 0.500000 0.000000 0.000000
#
# Coordination Sequence:
#
# PCOD9087138 Si02
#       6
#     2   2   2   2   2   2
#     4  10  20  39  60  83 119 159 190 236 299 351
#     4   9  19  39  59  80 120 154 189 240 297 350
#     4  10  21  37  59  90 115 147 195 247 293 349
#     4   9  19  37  59  83 114 154 191 237 298 345
#     4  10  19  36  62  83 116 160 193 239 296 350
#     4  10  21  38  59  88 117 151 201 244 289 348
#
# _framework density 25.618124999999999
#
# number of rings (size 3 to 8) (size 9 to 14) (size 15 to 20)
#    0.000    2.333    1.667    0.500    0.000    1.333 
#   12.000    0.000    0.000    0.000    0.000    0.000 
#    0.000    0.000    0.000    0.000    0.000    0.000 
#
# Total GULP energy -66972.346616 kJ/mol
# GULP energy per Si atom -5581.028885 kJ/mol
# Density = 2.555982 g / cm^3
# Si number density = 25.618125 Si / 1000 Ang^3
#
#
#
# Elastic Constant Matrix: (Units=GPa)
#
#
# Indices 1 2 3 4 5 6 
#
# 1 70.7840 36.5991 29.4403 -11.1759 -18.5145 31.0107
# 2 36.5991 177.4058 39.1506 -14.6327 -5.6286 44.9292
# 3 29.4403 39.1506 74.8181 6.7653 -16.6455 13.0316
# 4 -11.1759 -14.6327 6.7653 36.2887 11.0276 -4.3578
# 5 -18.5145 -5.6286 -16.6455 11.0276 40.2886 -11.8134
# 6 31.0107 44.9292 13.0316 -4.3578 -11.8134 41.0212
#
#
#
# Elastic Compliance Matrix: (Units=1/GPa)
#
#
# Indices 1 2 3 4 5 6 
#
# 1 0.026096 0.001603 -0.008413 0.007691 0.001484 -0.017567
# 2 0.001603 0.009483 -0.005279 0.005461 -0.004755 -0.010711
# 3 -0.008413 -0.005279 0.021220 -0.010610 0.009088 0.006891
# 4 0.007691 0.005461 -0.010610 0.036954 -0.012583 -0.008123
# 5 0.001484 -0.004755 0.009088 -0.012583 0.034948 0.009926
# 6 -0.017567 -0.010711 0.006891 -0.008123 0.009926 0.049195
#
#
# Mechanical properties :
#
#
# Convention : Reuss Voigt Hill
#
# Bulk Modulus (GPa) = 30.65497 59.26533 44.96015
# Shear Modulus (GPa) = 23.47983 38.04086 30.76034
#
# Velocity S-wave (km/s) = 3.03071 3.85765 3.46891
# Velocity P-wave (km/s) = 4.92332 6.55944 5.79937
#
# Compressibility (1/GPa) = 0.03262114
#
# Stress axis : x y z
#
# Youngs Moduli (GPa) = 38.31943 105.44952 47.12578
#
# Poissons Ratio (x) = -0.16907 0.39648
# Poissons Ratio (y) = -0.06144 0.24879
# Poissons Ratio (z) = 0.32239 0.55670
#
# Static dielectric constant tensor:
#      x y z
#    x 1.875990 0.005810 -0.058540 
#    y 0.005810 2.286890 -0.162270 
#    z -0.058540 -0.162270 1.994860 
# 
# From -- ./inp_files/155080.got.cif
#   From: 2010.05.17/outbox.cif.g08.bks.cpg/sg2_78_cif.got.tgz:155080.got - 2010.06.03 11:33:40.
