data_PCOD9087217
_publ_section_title
;
Structure prediction by ZEFSAII (Michael W. Deem and Ramdas Pophale) SiO2 
 PCOD9087217
Probable space group: P -1
;
_chemical_formula_sum "Si O2"
_cell_formula_units_Z 16
_cell_length_a 11.889486
_cell_length_b 14.364711
_cell_length_c 13.369772
_cell_angle_alpha 46.542787
_cell_angle_beta 65.742654
_cell_angle_gamma 31.065877
_cell_volume 752.161195
_symmetry_space_group_name_H-M "P -1"
_symmetry_group_IT_number 2
_symmetry_cell_setting 'triclinic'
loop_
_space_group_symop_operation_xyz
x,y,z
-x,-y,-z
loop_
_atom_site_type_symbol
_atom_site_label
_atom_site_fract_x
_atom_site_fract_y
_atom_site_fract_z
Si Si1 0.817120 0.133300 0.822866
Si Si2 0.079028 0.287385 0.665961
Si Si3 0.557025 0.908615 0.692111
Si Si4 0.209737 0.641378 0.152138
Si Si5 0.353402 0.932242 0.564905
Si Si6 0.854115 0.331618 0.531669
Si Si7 0.898787 0.623822 0.056833
Si Si8 0.501595 0.799938 0.181049
O O1 0.787449 0.254568 0.838443
O O2 0.799792 0.236200 0.654769
O O3 0.610421 0.210905 0.838546
O O4 0.081584 0.824630 0.969505
O O5 0.000000 0.500000 0.500000
O O6 0.956442 0.332659 0.773722
O O7 0.977740 0.284737 0.618660
O O8 0.377222 0.027572 0.759721
O O9 0.410202 0.978877 0.600724
O O10 0.837719 0.606867 0.811467
O O11 0.567018 0.053650 0.569255
O O12 0.482032 0.338575 0.270485
O O13 0.068854 0.150023 0.504768
O O14 0.625082 0.620056 0.364296
O O15 0.717483 0.682720 0.130971
O O16 0.000000 0.500000 0.000000
O O17 0.726584 0.904591 0.919457
#
# Coordination Sequence:
#
# PCOD9087217 Si02
#       8
#     2   2   2   2   2   2   2   2
#     4  10  23  41  60  86 119 170 204 248 307 358
#     4  10  20  32  63  91 119 157 192 255 307 358
#     4  10  20  36  57  93 125 150 199 247 314 366
#     4  10  21  38  61  92 121 154 210 252 301 366
#     4  10  19  36  62  89 121 155 199 255 302 363
#     4  10  22  40  59  87 120 167 205 245 307 363
#     4  11  26  41  64  97 122 160 202 254 311 375
#     4  11  24  45  65  85 132 162 200 259 308 364
#
# _framework density 21.272036
#
# number of rings (size 3 to 8) (size 9 to 14) (size 15 to 20)
#    0.000    1.750    2.500    1.125    3.500    1.500 
#    2.250    0.625    0.000    0.000    0.000    0.000 
#    0.000    0.000    0.000    0.000    0.000    0.000 
#
# Total GULP energy -89238.163207 kJ/mol
# GULP energy per Si atom -5577.385200 kJ/mol
# Density = 2.122362 g / cm^3
# Si number density = 21.272036 Si / 1000 Ang^3
#
#
#
# Elastic Constant Matrix: (Units=GPa)
#
#
# Indices 1 2 3 4 5 6 
#
# 1 56.7551 26.7180 23.2154 0.0393 -10.6607 -22.4495
# 2 26.7180 64.7617 25.8074 -10.6278 -6.3660 -16.7430
# 3 23.2154 25.8074 128.6271 -13.6768 -15.0100 -19.7469
# 4 0.0393 -10.6278 -13.6768 31.2443 0.2250 9.2096
# 5 -10.6607 -6.3660 -15.0100 0.2250 28.0028 -5.2712
# 6 -22.4495 -16.7430 -19.7469 9.2096 -5.2712 24.0922
#
#
#
# Elastic Compliance Matrix: (Units=1/GPa)
#
#
# Indices 1 2 3 4 5 6 
#
# 1 0.045313 -0.006254 0.002486 -0.016686 0.027127 0.052228
# 2 -0.006254 0.021366 -0.001246 0.004680 0.003066 0.006882
# 3 0.002486 -0.001246 0.010403 0.000657 0.008411 0.011566
# 4 -0.016686 0.004680 0.000657 0.043010 -0.011045 -0.030616
# 5 0.027127 0.003066 0.008411 -0.011045 0.061100 0.051893
# 6 0.052228 0.006882 0.011566 -0.030616 0.051893 0.127495
#
#
# Mechanical properties :
#
#
# Convention : Reuss Voigt Hill
#
# Bulk Modulus (GPa) = 14.91351 44.62507 29.76929
# Shear Modulus (GPa) = 14.65987 28.29472 21.47730
#
# Velocity S-wave (km/s) = 2.62804 3.65106 3.18095
# Velocity P-wave (km/s) = 4.02925 6.22876 5.24559
#
# Compressibility (1/GPa) = 0.06705331
#
# Stress axis : x y z
#
# Youngs Moduli (GPa) = 22.06883 46.80226 96.12829
#
# Poissons Ratio (x) = 0.29270 -0.23896
# Poissons Ratio (y) = 0.13802 0.11980
# Poissons Ratio (z) = -0.05486 0.05833
#
# Static dielectric constant tensor:
#      x y z
#    x 1.762130 0.010120 0.016130 
#    y 0.010120 1.835360 0.040020 
#    z 0.016130 0.040020 1.823470 
# 
# From -- ./inp_files/522275.got.cif
#   From: 2010.05.17/outbox.cif.g08.bks.cpg/sg2_262_cif.got.tgz:522275.got - 2010.06.03 11:33:40.
