data_PCOD9087078
_publ_section_title
;
Structure prediction by ZEFSAII (Michael W. Deem and Ramdas Pophale) SiO2 
 PCOD9087078
Probable space group: P -1
;
_chemical_formula_sum "Si O2"
_cell_formula_units_Z 16
_cell_length_a 8.501157
_cell_length_b 17.459973
_cell_length_c 11.896777
_cell_angle_alpha 54.996588
_cell_angle_beta 128.517658
_cell_angle_gamma 148.990662
_cell_volume 708.289457
_symmetry_space_group_name_H-M "P -1"
_symmetry_group_IT_number 2
_symmetry_cell_setting 'triclinic'
loop_
_space_group_symop_operation_xyz
x,y,z
-x,-y,-z
loop_
_atom_site_type_symbol
_atom_site_label
_atom_site_fract_x
_atom_site_fract_y
_atom_site_fract_z
Si Si1 0.023734 0.110550 0.972389
Si Si2 0.211478 0.782129 0.285032
Si Si3 0.225962 0.804816 0.630212
Si Si4 0.250939 0.025230 0.461413
Si Si5 0.225881 0.618963 0.900599
Si Si6 0.323716 0.093731 0.800876
Si Si7 0.720652 0.559103 0.416805
Si Si8 0.361389 0.602643 0.301329
O O1 0.400596 0.272376 0.022343
O O2 0.819859 0.025037 0.068488
O O3 0.867941 0.136637 0.807970
O O4 0.000000 0.000000 0.000000
O O5 0.356199 0.820286 0.194437
O O6 0.891754 0.614585 0.326912
O O7 0.486069 0.850178 0.436246
O O8 0.155576 0.884593 0.566839
O O9 0.223924 0.730903 0.792896
O O10 0.981047 0.687831 0.518943
O O11 0.571434 0.920461 0.626128
O O12 0.959926 0.989441 0.344279
O O13 0.012652 0.510172 0.790067
O O14 0.000000 0.500000 0.000000
O O15 0.417216 0.230551 0.773596
O O16 0.464910 0.550303 0.316695
O O17 0.595986 0.417842 0.534622
#
# Coordination Sequence:
#
# PCOD9087078 Si02
#       8
#     2   2   2   2   2   2   2   2
#     4  12  25  43  65  90 121 162 210 256 303 363
#     4  11  24  38  62  92 126 164 203 251 310 370
#     4   9  17  32  61  90 115 152 203 259 294 346
#     4  10  19  36  61  92 122 155 202 255 305 354
#     4  11  21  36  60  90 122 153 202 255 306 354
#     4  12  23  41  62  92 127 162 202 252 313 368
#     4   9  18  37  60  87 121 153 205 250 303 350
#     4  10  21  37  63  90 118 162 201 256 298 361
#
# _framework density 22.589635999999999
#
# number of rings (size 3 to 8) (size 9 to 14) (size 15 to 20)
#    0.000    1.500    2.500    3.750    1.750    0.500 
#    0.000    0.625    0.000    0.000    0.000    0.000 
#    0.000    0.000    0.000    0.000    0.000    0.000 
#
# Total GULP energy -89310.836990 kJ/mol
# GULP energy per Si atom -5581.927312 kJ/mol
# Density = 2.253822 g / cm^3
# Si number density = 22.589636 Si / 1000 Ang^3
#
#
#
# Elastic Constant Matrix: (Units=GPa)
#
#
# Indices 1 2 3 4 5 6 
#
# 1 55.1952 11.6232 13.4550 -7.9787 -12.4131 32.0195
# 2 11.6232 98.2150 26.8207 -10.8335 -6.4807 30.9207
# 3 13.4550 26.8207 81.8733 -24.6615 -2.0284 15.3622
# 4 -7.9787 -10.8335 -24.6615 48.4601 11.1518 -4.7264
# 5 -12.4131 -6.4807 -2.0284 11.1518 23.8088 -10.6835
# 6 32.0195 30.9207 15.3622 -4.7264 -10.6835 32.8370
#
#
#
# Elastic Compliance Matrix: (Units=1/GPa)
#
#
# Indices 1 2 3 4 5 6 
#
# 1 0.054191 0.015026 0.000467 0.006106 -0.000282 -0.066422
# 2 0.015026 0.019302 -0.001698 0.003512 -0.003336 -0.032612
# 3 0.000467 -0.001698 0.016594 0.008865 -0.006270 -0.007384
# 4 0.006106 0.003512 0.008865 0.029020 -0.015035 -0.014122
# 5 -0.000282 -0.003336 -0.006270 -0.015035 0.057766 0.022979
# 6 -0.066422 -0.032612 -0.007384 -0.014122 0.022979 0.134828
#
#
# Mechanical properties :
#
#
# Convention : Reuss Voigt Hill
#
# Bulk Modulus (GPa) = 8.49791 37.67568 23.08679
# Shear Modulus (GPa) = 15.46379 33.24683 24.35531
#
# Velocity S-wave (km/s) = 2.61923 3.84053 3.28710
# Velocity P-wave (km/s) = 3.59405 6.03165 4.96477
#
# Compressibility (1/GPa) = 0.11767596
#
# Stress axis : x y z
#
# Youngs Moduli (GPa) = 18.45326 51.80896 60.26356
#
# Poissons Ratio (x) = -0.77846 -0.02816
# Poissons Ratio (y) = -0.27727 0.10233
# Poissons Ratio (z) = -0.00862 0.08797
#
# Static dielectric constant tensor:
#      x y z
#    x 1.877510 0.027850 -0.020270 
#    y 0.027850 1.895100 0.000990 
#    z -0.020270 0.000990 1.892980 
# 
# From -- ./inp_files/404793.got.cif
#   From: 2010.05.17/outbox.cif.g08.bks.cpg/sg2_203_cif.got.tgz:404793.got - 2010.06.03 11:33:40.
