data_PCOD9087155
_publ_section_title
;
Structure prediction by ZEFSAII (Michael W. Deem and Ramdas Pophale) SiO2 
 PCOD9087155
Probable space group: P -1
;
_chemical_formula_sum "Si O2"
_cell_formula_units_Z 16
_cell_length_a 14.678336
_cell_length_b 16.782835
_cell_length_c 10.316077
_cell_angle_alpha 33.848133
_cell_angle_beta 122.306114
_cell_angle_gamma 141.506816
_cell_volume 830.620600
_symmetry_space_group_name_H-M "P -1"
_symmetry_group_IT_number 2
_symmetry_cell_setting 'triclinic'
loop_
_space_group_symop_operation_xyz
x,y,z
-x,-y,-z
loop_
_atom_site_type_symbol
_atom_site_label
_atom_site_fract_x
_atom_site_fract_y
_atom_site_fract_z
Si Si1 0.187710 0.016828 0.813755
Si Si2 0.881303 0.013272 0.916342
Si Si3 0.695539 0.665747 0.752422
Si Si4 0.044648 0.476437 0.425469
Si Si5 0.632878 0.107770 0.853495
Si Si6 0.879629 0.580959 0.070500
Si Si7 0.361467 0.237026 0.158134
Si Si8 0.546408 0.133021 0.484438
O O1 0.255061 0.174136 0.535003
O O2 0.195649 0.091004 0.861963
O O3 0.283984 0.963424 0.968821
O O4 0.008148 0.799651 0.946425
O O5 0.759613 0.904537 0.855253
O O6 0.966290 0.248127 0.665861
O O7 0.000000 0.000000 0.000000
O O8 0.716123 0.747039 0.805183
O O9 0.800638 0.625281 0.858105
O O10 0.512307 0.453868 0.911549
O O11 0.230291 0.648253 0.340387
O O12 0.000000 0.500000 0.500000
O O13 0.977684 0.526293 0.200896
O O14 0.558080 0.048372 0.735000
O O15 0.500000 0.000000 0.000000
O O16 0.719458 0.366013 0.297066
O O17 0.427515 0.151305 0.381723
O O18 0.500000 0.000000 0.500000
#
# Coordination Sequence:
#
# PCOD9087155 Si02
#       8
#     2   2   2   2   2   2   2   2
#     4  11  21  39  62  90 124 166 213 257 313 377
#     4  12  24  40  66  96 123 161 214 267 309 370
#     4  10  22  39  60  87 126 168 202 254 323 381
#     4  11  20  41  67  89 122 171 216 249 308 387
#     4  11  22  37  64  94 121 161 215 260 305 369
#     4  10  19  36  62  85 111 165 214 240 301 379
#     4  10  23  38  58  89 124 159 210 259 312 378
#     4  11  20  36  59  84 119 160 205 255 318 366
#
# _framework density 19.262706000000001
#
# number of rings (size 3 to 8) (size 9 to 14) (size 15 to 20)
#    0.000    1.250    3.750    3.375    0.000    2.500 
#    0.000    3.750    0.000    6.750    0.000    0.000 
#    0.000    0.000    0.000    0.000    0.000    0.000 
#
# Total GULP energy -89137.116436 kJ/mol
# GULP energy per Si atom -5571.069777 kJ/mol
# Density = 1.921886 g / cm^3
# Si number density = 19.262706 Si / 1000 Ang^3
#
#
#
# Elastic Constant Matrix: (Units=GPa)
#
#
# Indices 1 2 3 4 5 6 
#
# 1 83.4191 54.7288 36.1115 -0.1818 -2.3246 8.3750
# 2 54.7288 122.8188 72.0002 4.7471 -7.8047 8.0685
# 3 36.1115 72.0002 127.7849 10.4471 -0.8923 -3.8145
# 4 -0.1818 4.7471 10.4471 20.3060 -2.7686 7.0190
# 5 -2.3246 -7.8047 -0.8923 -2.7686 27.3142 -0.2979
# 6 8.3750 8.0685 -3.8145 7.0190 -0.2979 26.5005
#
#
#
# Elastic Compliance Matrix: (Units=1/GPa)
#
#
# Indices 1 2 3 4 5 6 
#
# 1 0.017622 -0.006705 -0.001699 0.004283 -0.000091 -0.004908
# 2 -0.006705 0.015860 -0.007303 0.001985 0.003877 -0.004243
# 3 -0.001699 -0.007303 0.013239 -0.007777 -0.002514 0.006698
# 4 0.004283 0.001985 -0.007777 0.060276 0.006580 -0.018968
# 5 -0.000091 0.003877 -0.002514 0.006580 0.038265 -0.002826
# 6 -0.004908 -0.004243 0.006698 -0.018968 -0.002826 0.046534
#
#
# Mechanical properties :
#
#
# Convention : Reuss Voigt Hill
#
# Bulk Modulus (GPa) = 65.33604 73.30044 69.31824
# Shear Modulus (GPa) = 21.89980 26.23630 24.06805
#
# Velocity S-wave (km/s) = 3.37546 3.69457 3.53861
# Velocity P-wave (km/s) = 7.01311 7.50569 7.26358
#
# Compressibility (1/GPa) = 0.01530549
#
# Stress axis : x y z
#
# Youngs Moduli (GPa) = 56.74775 63.05288 75.53479
#
# Poissons Ratio (x) = 0.42279 0.12834
# Poissons Ratio (y) = 0.38051 0.55164
# Poissons Ratio (z) = 0.09642 0.46048
#
# Static dielectric constant tensor:
#      x y z
#    x 1.678930 -0.002180 0.019030 
#    y -0.002180 1.683960 -0.013270 
#    z 0.019030 -0.013270 1.700550 
# 
# From -- ./inp_files/312406.got.cif
#   From: 2010.05.17/outbox.cif.g08.bks.cpg/sg2_157_cif.got.tgz:312406.got - 2010.06.03 11:33:40.
