data_PCOD9087908
_publ_section_title
;
Structure prediction by ZEFSAII (Michael W. Deem and Ramdas Pophale) SiO2 
 PCOD9087908
Probable space group: P -1
;
_chemical_formula_sum "Si O2"
_cell_formula_units_Z 14
_cell_length_a 8.834977
_cell_length_b 19.631263
_cell_length_c 12.810441
_cell_angle_alpha 151.677641
_cell_angle_beta 45.678264
_cell_angle_gamma 135.049383
_cell_volume 725.498763
_symmetry_space_group_name_H-M "P -1"
_symmetry_group_IT_number 2
_symmetry_cell_setting 'triclinic'
loop_
_space_group_symop_operation_xyz
x,y,z
-x,-y,-z
loop_
_atom_site_type_symbol
_atom_site_label
_atom_site_fract_x
_atom_site_fract_y
_atom_site_fract_z
Si Si1 0.848967 0.427371 0.069511
Si Si2 0.061666 0.799554 0.131800
Si Si3 0.287155 0.016032 0.477955
Si Si4 0.653384 0.712999 0.921332
Si Si5 0.931149 0.662317 0.519929
Si Si6 0.086329 0.441307 0.275553
Si Si7 0.225821 0.934784 0.624799
O O1 0.607501 0.329508 0.022673
O O2 0.816112 0.552746 0.334944
O O3 0.979139 0.327459 0.932788
O O4 0.000000 0.500000 0.000000
O O5 0.860095 0.869869 0.308819
O O6 0.258320 0.926931 0.261742
O O7 0.083544 0.706513 0.892213
O O8 0.538700 0.086713 0.483493
O O9 0.192158 0.914430 0.488758
O O10 0.767344 0.674992 0.709335
O O11 0.712283 0.618044 0.861032
O O12 0.751087 0.890039 0.131429
O O13 0.104629 0.578013 0.371209
O O14 0.046011 0.821198 0.627345
O O15 0.000000 0.500000 0.500000
#
# Coordination Sequence:
#
# PCOD9087908 Si02
#       7
#     2   2   2   2   2   2   2
#     4  11  23  38  61  90 119 155 203 249 298 354
#     4  10  19  37  56  88 117 157 192 248 297 350
#     4  10  21  34  61  87 122 152 196 248 301 344
#     4  11  21  41  62  85 121 161 198 243 299 357
#     4  10  23  38  62  88 121 155 201 247 299 356
#     4   9  20  38  61  83 117 161 201 238 298 357
#     4  11  21  38  62  91 117 157 202 244 298 354
#
# _framework density 19.297070000000001
#
# number of rings (size 3 to 8) (size 9 to 14) (size 15 to 20)
#    0.000    1.714    2.857    1.714    2.000    1.143 
#    0.000    2.857    0.000    2.571    0.000    0.000 
#    0.000    0.000    0.000    0.000    0.000    0.000 
#
# Total GULP energy -77985.639903 kJ/mol
# GULP energy per Si atom -5570.402850 kJ/mol
# Density = 1.925315 g / cm^3
# Si number density = 19.297070 Si / 1000 Ang^3
#
#
#
# Elastic Constant Matrix: (Units=GPa)
#
#
# Indices 1 2 3 4 5 6 
#
# 1 101.5441 27.3833 48.8570 2.7667 -7.3284 -18.2110
# 2 27.3833 77.0634 26.2507 6.5750 -6.7852 -6.6797
# 3 48.8570 26.2507 113.8776 8.4958 20.1776 -4.4223
# 4 2.7667 6.5750 8.4958 25.0413 -10.2125 -1.3969
# 5 -7.3284 -6.7852 20.1776 -10.2125 43.7177 0.1198
# 6 -18.2110 -6.6797 -4.4223 -1.3969 0.1198 13.0656
#
#
#
# Elastic Compliance Matrix: (Units=1/GPa)
#
#
# Indices 1 2 3 4 5 6 
#
# 1 0.019232 -0.001518 -0.008940 0.006076 0.008469 0.023576
# 2 -0.001518 0.015400 -0.003229 -0.001166 0.003341 0.004509
# 3 -0.008940 -0.003229 0.015605 -0.008553 -0.011174 -0.009641
# 4 0.006076 -0.001166 -0.008553 0.049713 0.016370 0.010142
# 5 0.008469 0.003341 -0.011174 0.016370 0.033763 0.011171
# 6 0.023576 0.004509 -0.009641 0.010142 0.011171 0.109422
#
#
# Mechanical properties :
#
#
# Convention : Reuss Voigt Hill
#
# Bulk Modulus (GPa) = 43.73585 55.27414 49.50499
# Shear Modulus (GPa) = 17.97729 29.03119 23.50424
#
# Velocity S-wave (km/s) = 3.05554 3.88291 3.49380
# Velocity P-wave (km/s) = 5.92976 6.98632 6.47961
#
# Compressibility (1/GPa) = 0.02286454
#
# Stress axis : x y z
#
# Youngs Moduli (GPa) = 51.99549 64.93500 64.08383
#
# Poissons Ratio (x) = 0.09856 0.57289
# Poissons Ratio (y) = 0.07892 0.20690
# Poissons Ratio (z) = 0.46483 0.20965
#
# Static dielectric constant tensor:
#      x y z
#    x 1.696290 -0.026060 0.028820 
#    y -0.026060 1.626830 0.017870 
#    z 0.028820 0.017870 1.745690 
# 
# From -- ./inp_files/173395.got.cif
#   From: 2010.05.17/outbox.cif.g08.bks.cpg/sg2_87_cif.got.tgz:173395.got - 2010.06.03 11:33:40.
