data_PCOD9087712
_publ_section_title
;
Structure prediction by ZEFSAII (Michael W. Deem and Ramdas Pophale) SiO2 
 PCOD9087712
Probable space group: P -1
;
_chemical_formula_sum "Si O2"
_cell_formula_units_Z 16
_cell_length_a 22.172876
_cell_length_b 10.272229
_cell_length_c 6.039639
_cell_angle_alpha 53.814447
_cell_angle_beta 98.646283
_cell_angle_gamma 136.864749
_cell_volume 653.732569
_symmetry_space_group_name_H-M "P -1"
_symmetry_group_IT_number 2
_symmetry_cell_setting 'triclinic'
loop_
_space_group_symop_operation_xyz
x,y,z
-x,-y,-z
loop_
_atom_site_type_symbol
_atom_site_label
_atom_site_fract_x
_atom_site_fract_y
_atom_site_fract_z
Si Si1 0.625047 0.245929 0.838075
Si Si2 0.615617 0.321042 0.257505
Si Si3 0.066203 0.496453 0.648029
Si Si4 0.095442 0.010452 0.602726
Si Si5 0.378811 0.123491 0.764078
Si Si6 0.797556 0.092650 0.330526
Si Si7 0.097339 0.373019 0.387305
Si Si8 0.428098 0.429392 0.855594
O O1 0.653350 0.380189 0.963133
O O2 0.660300 0.138653 0.002048
O O3 0.659074 0.353970 0.490869
O O4 0.500000 0.000000 0.000000
O O5 0.619075 0.517242 0.112387
O O6 0.500000 0.000000 0.500000
O O7 0.159314 0.787255 0.523603
O O8 0.110898 0.448721 0.571372
O O9 0.000000 0.500000 0.500000
O O10 0.988184 0.236878 0.024605
O O11 0.172109 0.022183 0.611993
O O12 0.025711 0.884729 0.471185
O O13 0.130792 0.264520 0.440549
O O14 0.362281 0.158878 0.962962
O O15 0.496745 0.354727 0.521152
O O16 0.319053 0.112380 0.576207
O O17 0.856018 0.365713 0.962997
O O18 0.500000 0.500000 0.000000
#
# Coordination Sequence:
#
# PCOD9087712 Si02
#       8
#     2   2   2   2   2   2   2   2
#     4  10  19  39  62  89 117 164 215 266 326 394
#     4  10  19  36  66  90 116 155 223 270 320 393
#     4  11  18  37  66  93 125 177 210 254 317 389
#     4  10  20  37  63  91 127 162 214 257 310 386
#     4  11  25  40  61  89 127 166 213 278 336 394
#     4  11  23  41  58  94 135 162 209 271 327 375
#     4  10  20  38  64  90 120 173 212 254 313 387
#     4  11  23  41  64  89 118 170 219 265 334 405
#
# _framework density 24.474841000000001
#
# number of rings (size 3 to 8) (size 9 to 14) (size 15 to 20)
#    0.000    1.500    5.000    2.625    1.750    1.000 
#    2.250    0.000    0.000    0.000    0.000    0.000 
#    0.000    0.000    0.000    0.000    0.000    0.000 
#
# Total GULP energy -89188.946863 kJ/mol
# GULP energy per Si atom -5574.309179 kJ/mol
# Density = 2.441913 g / cm^3
# Si number density = 24.474841 Si / 1000 Ang^3
#
#
#
# Elastic Constant Matrix: (Units=GPa)
#
#
# Indices 1 2 3 4 5 6 
#
# 1 164.7205 71.6859 31.8761 3.0169 20.3047 -45.6738
# 2 71.6859 123.6727 35.6761 19.3886 -10.4677 -51.9481
# 3 31.8761 35.6761 72.4925 8.1423 2.9350 -19.2488
# 4 3.0169 19.3886 8.1423 47.2461 -1.7202 1.3439
# 5 20.3047 -10.4677 2.9350 -1.7202 36.1672 -4.4836
# 6 -45.6738 -51.9481 -19.2488 1.3439 -4.4836 52.1401
#
#
#
# Elastic Compliance Matrix: (Units=1/GPa)
#
#
# Indices 1 2 3 4 5 6 
#
# 1 0.010069 -0.005203 -0.001047 0.001354 -0.006682 0.002640
# 2 -0.005203 0.021085 -0.003307 -0.007818 0.010950 0.016372
# 3 -0.001047 -0.003307 0.016603 -0.001546 -0.001564 0.001823
# 4 0.001354 -0.007818 -0.001546 0.024684 -0.002721 -0.008043
# 5 -0.006682 0.010950 -0.001564 -0.002721 0.035510 0.007602
# 6 0.002640 0.016372 0.001823 -0.008043 0.007602 0.039337
#
#
# Mechanical properties :
#
#
# Convention : Reuss Voigt Hill
#
# Bulk Modulus (GPa) = 34.91305 71.04020 52.97662
# Shear Modulus (GPa) = 28.41706 41.88720 35.15213
#
# Velocity S-wave (km/s) = 3.41115 4.14144 3.79391
# Velocity P-wave (km/s) = 5.45989 7.20816 6.39406
#
# Compressibility (1/GPa) = 0.02864259
#
# Stress axis : x y z
#
# Youngs Moduli (GPa) = 99.31591 47.42685 60.22828
#
# Poissons Ratio (x) = 0.24677 0.06308
# Poissons Ratio (y) = 0.51676 0.19917
# Poissons Ratio (z) = 0.10402 0.15683
#
# Static dielectric constant tensor:
#      x y z
#    x 1.925390 0.040730 -0.037750 
#    y 0.040730 1.977990 0.010170 
#    z -0.037750 0.010170 2.043130 
# 
# From -- ./inp_files/116685.got.cif
#   From: 2010.05.17/outbox.cif.g08.bks.cpg/sg2_59_cif.got.tgz:116685.got - 2010.06.03 11:33:40.
