data_PCOD9087335
_publ_section_title
;
Structure prediction by ZEFSAII (Michael W. Deem and Ramdas Pophale) SiO2 
 PCOD9087335
Probable space group: P -1
;
_chemical_formula_sum "Si O2"
_cell_formula_units_Z 16
_cell_length_a 20.931589
_cell_length_b 18.042460
_cell_length_c 8.845005
_cell_angle_alpha 62.334559
_cell_angle_beta 126.730854
_cell_angle_gamma 160.807541
_cell_volume 813.541453
_symmetry_space_group_name_H-M "P -1"
_symmetry_group_IT_number 2
_symmetry_cell_setting 'triclinic'
loop_
_space_group_symop_operation_xyz
x,y,z
-x,-y,-z
loop_
_atom_site_type_symbol
_atom_site_label
_atom_site_fract_x
_atom_site_fract_y
_atom_site_fract_z
Si Si1 0.954520 0.879502 0.164887
Si Si2 0.550166 0.390739 0.914393
Si Si3 0.524304 0.616992 0.495598
Si Si4 0.312950 0.810879 0.277116
Si Si5 0.466786 0.810362 0.893767
Si Si6 0.979594 0.551941 0.548719
Si Si7 0.751064 0.741924 0.313761
Si Si8 0.493782 0.084681 0.832047
O O1 0.804922 0.769858 0.193499
O O2 0.804492 0.659618 0.084581
O O3 0.206256 0.098738 0.367637
O O4 0.000000 0.000000 0.000000
O O5 0.567187 0.413126 0.735460
O O6 0.391037 0.311913 0.817116
O O7 0.458660 0.211063 0.007237
O O8 0.500000 0.500000 0.500000
O O9 0.385277 0.467345 0.595475
O O10 0.375243 0.802427 0.247658
O O11 0.082040 0.555498 0.279212
O O12 0.500000 0.000000 0.500000
O O13 0.343452 0.932077 0.128568
O O14 0.234471 0.602648 0.665738
O O15 0.417577 0.771021 0.041603
O O16 0.000000 0.500000 0.500000
O O17 0.225884 0.839948 0.643458
O O18 0.000000 0.000000 0.500000
O O19 0.500000 0.000000 0.000000
#
# Coordination Sequence:
#
# PCOD9087335 Si02
#       8
#     2   2   2   2   2   2   2   2
#     4  12  21  38  68  89 112 165 207 242 301 363
#     4  11  23  40  60  90 127 151 201 260 304 349
#     4  10  20  38  61  87 119 150 203 244 296 361
#     4   9  18  36  64  86 117 155 204 236 283 360
#     4  10  23  39  57  91 125 151 198 255 299 344
#     4  11  19  38  65  86 118 160 204 240 287 358
#     4  11  20  39  67  84 116 159 204 245 296 370
#     4  10  19  36  63  85 115 160 200 233 294 354
#
# _framework density 19.667097999999999
#
# number of rings (size 3 to 8) (size 9 to 14) (size 15 to 20)
#    0.000    1.500    8.750    0.375    0.000    3.000 
#    0.000    5.000    0.000    0.000    0.000    0.000 
#    0.000    0.000    0.000    0.000    0.000    0.000 
#
# Total GULP energy -89212.172108 kJ/mol
# GULP energy per Si atom -5575.760757 kJ/mol
# Density = 1.962234 g / cm^3
# Si number density = 19.667098 Si / 1000 Ang^3
#
#
#
# Elastic Constant Matrix: (Units=GPa)
#
#
# Indices 1 2 3 4 5 6 
#
# 1 60.5687 46.8363 41.3682 -17.7906 -13.7861 14.5118
# 2 46.8363 93.3586 38.0408 -8.5988 -2.7380 14.5523
# 3 41.3682 38.0408 84.8107 3.3134 -9.9425 -2.8995
# 4 -17.7906 -8.5988 3.3134 40.3589 5.1348 -8.6749
# 5 -13.7861 -2.7380 -9.9425 5.1348 28.6414 -9.6252
# 6 14.5118 14.5523 -2.8995 -8.6749 -9.6252 35.2644
#
#
#
# Elastic Compliance Matrix: (Units=1/GPa)
#
#
# Indices 1 2 3 4 5 6 
#
# 1 0.048204 -0.014136 -0.016920 0.016494 0.010140 -0.008569
# 2 -0.014136 0.019232 -0.002651 -0.002037 -0.007128 -0.004784
# 3 -0.016920 -0.002651 0.022316 -0.008439 0.003841 0.008864
# 4 0.016494 -0.002037 -0.008439 0.032649 -0.000629 0.001219
# 5 0.010140 -0.007128 0.003841 -0.000629 0.044260 0.011010
# 6 -0.008569 -0.004784 0.008864 0.001219 0.011010 0.037892
#
#
# Mechanical properties :
#
#
# Convention : Reuss Voigt Hill
#
# Bulk Modulus (GPa) = 44.76753 54.58094 49.67424
# Shear Modulus (GPa) = 17.89459 28.35246 23.12353
#
# Velocity S-wave (km/s) = 3.01969 3.80098 3.43264
# Velocity P-wave (km/s) = 5.91355 6.86119 6.40492
#
# Compressibility (1/GPa) = 0.02233762
#
# Stress axis : x y z
#
# Youngs Moduli (GPa) = 20.74529 51.99573 44.81033
#
# Poissons Ratio (x) = 0.73501 0.75821
# Poissons Ratio (y) = 0.29326 0.11879
# Poissons Ratio (z) = 0.35102 0.13784
#
# Static dielectric constant tensor:
#      x y z
#    x 1.708650 0.021330 -0.019360 
#    y 0.021330 1.719280 0.009180 
#    z -0.019360 0.009180 1.748280 
# 
# From -- ./inp_files/348452.got.cif
#   From: 2010.05.17/outbox.cif.g08.bks.cpg/sg2_175_cif.got.tgz:348452.got - 2010.06.03 11:33:40.
