data_PCOD9087318
_publ_section_title
;
Structure prediction by ZEFSAII (Michael W. Deem and Ramdas Pophale) SiO2 
 PCOD9087318
Probable space group: P -1
;
_chemical_formula_sum "Si O2"
_cell_formula_units_Z 12
_cell_length_a 6.620741
_cell_length_b 16.409087
_cell_length_c 7.284093
_cell_angle_alpha 62.582591
_cell_angle_beta 84.347124
_cell_angle_gamma 42.579095
_cell_volume 435.498802
_symmetry_space_group_name_H-M "P -1"
_symmetry_group_IT_number 2
_symmetry_cell_setting 'triclinic'
loop_
_space_group_symop_operation_xyz
x,y,z
-x,-y,-z
loop_
_atom_site_type_symbol
_atom_site_label
_atom_site_fract_x
_atom_site_fract_y
_atom_site_fract_z
Si Si1 0.234215 0.680346 0.698101
Si Si2 0.291190 0.954166 0.207891
Si Si3 0.666864 0.548198 0.485172
Si Si4 0.661039 0.005846 0.247436
Si Si5 0.293754 0.263328 0.302793
Si Si6 0.358152 0.733627 0.974118
O O1 0.573730 0.575842 0.677096
O O2 0.247857 0.688092 0.906318
O O3 0.989724 0.843977 0.465506
O O4 0.064205 0.643187 0.711199
O O5 0.935834 0.089061 0.188696
O O6 0.456133 0.991790 0.209174
O O7 0.504628 0.805707 0.454272
O O8 0.704491 0.048056 0.010408
O O9 0.500000 0.500000 0.500000
O O10 0.000000 0.500000 0.500000
O O11 0.436600 0.684040 0.225315
O O12 0.459306 0.125618 0.302821
O O13 0.340767 0.331849 0.096147
#
# Coordination Sequence:
#
# PCOD9087318 Si02
#       6
#     2   2   2   2   2   2
#     4  11  24  46  74 107 151 199 247 313 381 450
#     4  10  19  36  63 106 155 194 231 290 364 467
#     4  12  33  58  80 108 144 198 272 331 381 432
#     4  10  19  37  66 108 158 198 233 289 370 470
#     4  11  23  38  70 115 154 192 237 293 377 476
#     4  12  25  44  75 106 148 200 251 310 384 446
#
# _framework density 27.554608999999999
#
# number of rings (size 3 to 8) (size 9 to 14) (size 15 to 20)
#    0.000    1.000    5.000    1.500    4.667    3.333 
#    0.000    0.000    0.000    0.000    0.000    0.000 
#    0.000    0.000    0.000    0.000    0.000    0.000 
#
# Total GULP energy -66976.991199 kJ/mol
# GULP energy per Si atom -5581.415933 kJ/mol
# Density = 2.749189 g / cm^3
# Si number density = 27.554609 Si / 1000 Ang^3
#
#
#
# Elastic Constant Matrix: (Units=GPa)
#
#
# Indices 1 2 3 4 5 6 
#
# 1 177.3035 38.5722 14.8340 -2.7877 3.7739 -21.3179
# 2 38.5722 82.6181 30.8108 19.5011 1.3168 -27.1408
# 3 14.8340 30.8108 130.1590 26.2685 5.7268 2.6656
# 4 -2.7877 19.5011 26.2685 38.7618 -3.2092 -4.4664
# 5 3.7739 1.3168 5.7268 -3.2092 44.0992 4.4008
# 6 -21.3179 -27.1408 2.6656 -4.4664 4.4008 54.5148
#
#
#
# Elastic Compliance Matrix: (Units=1/GPa)
#
#
# Indices 1 2 3 4 5 6 
#
# 1 0.006543 -0.002992 -0.000548 0.002471 -0.000352 0.001326
# 2 -0.002992 0.018790 -0.002808 -0.006963 -0.001230 0.007851
# 3 -0.000548 -0.002808 0.009635 -0.005543 -0.001281 -0.002434
# 4 0.002471 -0.006963 -0.005543 0.033525 0.003129 0.000265
# 5 -0.000352 -0.001230 -0.001281 0.003129 0.023368 -0.002318
# 6 0.001326 0.007851 -0.002434 0.000265 -0.002318 0.023099
#
#
# Mechanical properties :
#
#
# Convention : Reuss Voigt Hill
#
# Bulk Modulus (GPa) = 44.90068 62.05718 53.47893
# Shear Modulus (GPa) = 37.01491 47.86605 42.44048
#
# Velocity S-wave (km/s) = 3.66912 4.17242 3.92884
# Velocity P-wave (km/s) = 5.85495 6.76628 6.32704
#
# Compressibility (1/GPa) = 0.02227138
#
# Stress axis : x y z
#
# Youngs Moduli (GPa) = 152.84364 53.21855 103.78905
#
# Poissons Ratio (x) = 0.15924 0.05684
# Poissons Ratio (y) = 0.45734 0.29149
# Poissons Ratio (z) = 0.08371 0.14946
#
# Static dielectric constant tensor:
#      x y z
#    x 2.373370 0.027750 -0.005820 
#    y 0.027750 2.155660 -0.052220 
#    z -0.005820 -0.052220 2.028630 
# 
# From -- ./inp_files/137357.got.cif
#   From: 2010.05.17/outbox.cif.g08.bks.cpg/sg2_69_cif.got.tgz:137357.got - 2010.06.03 11:33:40.
