data_PCOD9087074
_publ_section_title
;
Structure prediction by ZEFSAII (Michael W. Deem and Ramdas Pophale) SiO2 
 PCOD9087074
Probable space group: P -1
;
_chemical_formula_sum "Si O2"
_cell_formula_units_Z 16
_cell_length_a 5.167750
_cell_length_b 9.165102
_cell_length_c 18.929548
_cell_angle_alpha 101.789323
_cell_angle_beta 100.332909
_cell_angle_gamma 79.243026
_cell_volume 852.876033
_symmetry_space_group_name_H-M "P -1"
_symmetry_group_IT_number 2
_symmetry_cell_setting 'triclinic'
loop_
_space_group_symop_operation_xyz
x,y,z
-x,-y,-z
loop_
_atom_site_type_symbol
_atom_site_label
_atom_site_fract_x
_atom_site_fract_y
_atom_site_fract_z
Si Si1 0.433569 0.062780 0.742353
Si Si2 0.791291 0.959702 0.042312
Si Si3 0.470461 0.391175 0.825854
Si Si4 0.710240 0.373948 0.279466
Si Si5 0.488312 0.795026 0.624659
Si Si6 0.988967 0.071620 0.203591
Si Si7 0.978238 0.374112 0.428899
Si Si8 0.042832 0.379516 0.926403
O O1 0.435114 0.239577 0.766469
O O2 0.466301 0.970868 0.660989
O O3 0.159491 0.026919 0.759090
O O4 0.699053 0.990874 0.791874
O O5 0.853786 0.785699 0.052502
O O6 0.837116 0.058301 0.122261
O O7 0.500000 0.000000 0.000000
O O8 0.000000 0.000000 0.000000
O O9 0.419678 0.524218 0.779500
O O10 0.762408 0.376328 0.873029
O O11 0.256791 0.413580 0.881633
O O12 0.508809 0.288908 0.306766
O O13 0.925140 0.240439 0.245459
O O14 0.857181 0.450886 0.357029
O O15 0.742852 0.726562 0.586070
O O16 0.227892 0.740238 0.573088
O O17 0.000000 0.500000 0.500000
O O18 0.000000 0.500000 0.000000
#
# Coordination Sequence:
#
# PCOD9087074 Si02
#       8
#     2   2   2   2   2   2   2   2
#     4  11  18  39  59  82 114 148 194 250 283 345
#     4  12  25  41  62  84 111 156 205 249 299 354
#     4  12  24  41  63  84 121 156 196 250 302 356
#     4   9  24  34  63  92 115 155 203 238 296 344
#     4   9  19  35  58  89 116 150 202 230 286 342
#     4  11  21  39  59  83 115 148 205 247 283 349
#     4  10  19  36  61  91 126 152 192 241 287 347
#     4  12  28  44  56  85 122 160 194 248 318 358
#
# _framework density 18.760054
#
# number of rings (size 3 to 8) (size 9 to 14) (size 15 to 20)
#    0.750    0.500    3.750    2.250    5.250    0.000 
#    0.000    0.000    0.000    1.500    0.000    0.000 
#    0.000    0.000    0.000    0.000    0.000    0.000 
#
# Total GULP energy -89215.572174 kJ/mol
# GULP energy per Si atom -5575.973261 kJ/mol
# Density = 1.871736 g / cm^3
# Si number density = 18.760054 Si / 1000 Ang^3
#
#
#
# Elastic Constant Matrix: (Units=GPa)
#
#
# Indices 1 2 3 4 5 6 
#
# 1 109.1659 12.0665 15.6767 8.9128 10.6212 -11.6306
# 2 12.0665 73.1525 28.7505 5.1140 3.1970 1.5446
# 3 15.6767 28.7505 71.4375 27.6904 6.5338 -0.1671
# 4 8.9128 5.1140 27.6904 36.8431 -0.2391 1.6271
# 5 10.6212 3.1970 6.5338 -0.2391 23.2384 7.3858
# 6 -11.6306 1.5446 -0.1671 1.6271 7.3858 15.6241
#
#
#
# Elastic Compliance Matrix: (Units=1/GPa)
#
#
# Indices 1 2 3 4 5 6 
#
# 1 0.012089 -0.001775 0.000446 -0.003709 -0.009985 0.014286
# 2 -0.001775 0.016963 -0.008479 0.004672 0.002408 -0.004714
# 3 0.000446 -0.008479 0.025200 -0.018256 -0.008676 0.007442
# 4 -0.003709 0.004672 -0.018256 0.041747 0.010689 -0.012818
# 5 -0.009985 0.002408 -0.008676 0.010689 0.061941 -0.038158
# 6 0.014286 -0.004714 0.007442 -0.012818 -0.038158 0.094556
#
#
# Mechanical properties :
#
#
# Convention : Reuss Voigt Hill
#
# Bulk Modulus (GPa) = 28.87301 40.74926 34.81114
# Shear Modulus (GPa) = 17.62676 28.29194 22.95935
#
# Velocity S-wave (km/s) = 3.06860 3.88763 3.50214
# Velocity P-wave (km/s) = 5.28953 6.47457 5.91182
#
# Compressibility (1/GPa) = 0.03463443
#
# Stress axis : x y z
#
# Youngs Moduli (GPa) = 82.72101 58.95103 39.68228
#
# Poissons Ratio (x) = 0.10465 -0.01769
# Poissons Ratio (y) = 0.14685 0.33649
# Poissons Ratio (z) = -0.03688 0.49987
#
# Static dielectric constant tensor:
#      x y z
#    x 1.660440 0.008780 -0.001530 
#    y 0.008780 1.638380 0.023720 
#    z -0.001530 0.023720 1.675450 
# 
# From -- ./inp_files/547314.got.cif
#   From: 2010.05.17/outbox.cif.g08.bks.cpg/sg2_274_cif.got.tgz:547314.got - 2010.06.03 11:33:40.
