data_PCOD9087684
_publ_section_title
;
Structure prediction by ZEFSAII (Michael W. Deem and Ramdas Pophale) SiO2 
 PCOD9087684
Probable space group: P -1
;
_chemical_formula_sum "Si O2"
_cell_formula_units_Z 16
_cell_length_a 17.981799
_cell_length_b 8.417459
_cell_length_c 9.148149
_cell_angle_alpha 115.313610
_cell_angle_beta 111.368682
_cell_angle_gamma 30.962060
_cell_volume 643.964361
_symmetry_space_group_name_H-M "P -1"
_symmetry_group_IT_number 2
_symmetry_cell_setting 'triclinic'
loop_
_space_group_symop_operation_xyz
x,y,z
-x,-y,-z
loop_
_atom_site_type_symbol
_atom_site_label
_atom_site_fract_x
_atom_site_fract_y
_atom_site_fract_z
Si Si1 0.241172 0.801852 0.099003
Si Si2 0.966038 0.746756 0.639210
Si Si3 0.794847 0.490257 0.870987
Si Si4 0.663019 0.712264 0.554311
Si Si5 0.279048 0.840633 0.583218
Si Si6 0.920587 0.136618 0.340493
Si Si7 0.836889 0.816678 0.066195
Si Si8 0.605016 0.188666 0.611455
O O1 0.234288 0.606279 0.061817
O O2 0.362800 0.689455 0.229865
O O3 0.091155 0.147494 0.197896
O O4 0.240452 0.888515 0.971804
O O5 0.000000 0.500000 0.500000
O O6 0.088632 0.660808 0.668650
O O7 0.828915 0.060407 0.566248
O O8 0.693110 0.630304 0.714788
O O9 0.770855 0.740057 0.987700
O O10 0.962727 0.172851 0.804316
O O11 0.817920 0.921415 0.257773
O O12 0.500000 0.000000 0.500000
O O13 0.693498 0.866544 0.618301
O O14 0.240935 0.583969 0.602688
O O15 0.433394 0.476917 0.593901
O O16 0.335011 0.897132 0.542603
O O17 0.000000 0.000000 0.500000
O O18 0.000000 0.500000 0.000000
#
# Coordination Sequence:
#
# PCOD9087684 Si02
#       8
#     2   2   2   2   2   2   2   2
#     4  10  22  44  68  93 135 182 220 285 344 399
#     4  10  19  36  65  94 127 172 230 284 336 396
#     4  10  24  45  66 100 142 180 229 282 344 420
#     4  11  23  37  68 106 136 174 237 290 341 405
#     4  10  24  38  69 101 130 179 235 282 343 413
#     4   9  20  34  62  92 129 170 219 282 342 382
#     4  12  26  44  70 100 141 182 227 279 352 419
#     4  10  22  44  71  94 139 178 233 289 346 402
#
# _framework density 24.846097
#
# number of rings (size 3 to 8) (size 9 to 14) (size 15 to 20)
#    0.000    1.750    1.250    2.250   14.000    2.000 
#    0.000    1.875    0.000    0.000    0.000    0.000 
#    0.000    0.000    0.000    0.000    0.000    0.000 
#
# Total GULP energy -89241.188839 kJ/mol
# GULP energy per Si atom -5577.574302 kJ/mol
# Density = 2.478955 g / cm^3
# Si number density = 24.846097 Si / 1000 Ang^3
#
#
#
# Elastic Constant Matrix: (Units=GPa)
#
#
# Indices 1 2 3 4 5 6 
#
# 1 129.9795 27.1917 36.2111 -7.3461 -8.0719 21.1625
# 2 27.1917 93.0590 22.2804 -12.4408 -1.7088 4.1384
# 3 36.2111 22.2804 97.7277 -2.5862 -13.1104 10.7577
# 4 -7.3461 -12.4408 -2.5862 27.9859 2.6102 4.7241
# 5 -8.0719 -1.7088 -13.1104 2.6102 36.0155 1.3682
# 6 21.1625 4.1384 10.7577 4.7241 1.3682 61.6952
#
#
#
# Elastic Compliance Matrix: (Units=1/GPa)
#
#
# Indices 1 2 3 4 5 6 
#
# 1 0.009407 -0.001739 -0.002588 0.001835 0.001058 -0.002823
# 2 -0.001739 0.012431 -0.002159 0.004995 -0.000939 -0.000223
# 3 -0.002588 -0.002159 0.012315 -0.000670 0.003893 -0.001150
# 4 0.001835 0.004995 -0.000670 0.039228 -0.002294 -0.003801
# 5 0.001058 -0.000939 0.003893 -0.002294 0.029597 -0.001459
# 6 -0.002823 -0.000223 -0.001150 -0.003801 -0.001459 0.017716
#
#
# Mechanical properties :
#
#
# Convention : Reuss Voigt Hill
#
# Bulk Modulus (GPa) = 47.21147 54.68139 50.94643
# Shear Modulus (GPa) = 35.52971 40.81152 38.17062
#
# Velocity S-wave (km/s) = 3.78563 4.05726 3.92380
# Velocity P-wave (km/s) = 6.17663 6.63358 6.40918
#
# Compressibility (1/GPa) = 0.02118129
#
# Stress axis : x y z
#
# Youngs Moduli (GPa) = 106.30015 80.44135 81.20347
#
# Poissons Ratio (x) = 0.13988 0.21016
# Poissons Ratio (y) = 0.18484 0.17533
# Poissons Ratio (z) = 0.27511 0.17369
#
# Static dielectric constant tensor:
#      x y z
#    x 2.183290 0.089240 0.050460 
#    y 0.089240 2.020420 -0.032140 
#    z 0.050460 -0.032140 2.016270 
# 
# From -- ./inp_files/446081.got.cif
#   From: 2010.05.17/outbox.cif.g08.bks.cpg/sg2_224_cif.got.tgz:446081.got - 2010.06.03 11:33:40.
