data_PCOD9087613
_publ_section_title
;
Structure prediction by ZEFSAII (Michael W. Deem and Ramdas Pophale) SiO2 
 PCOD9087613
Probable space group: P -1
;
_chemical_formula_sum "Si O2"
_cell_formula_units_Z 16
_cell_length_a 5.516012
_cell_length_b 25.101452
_cell_length_c 7.648252
_cell_angle_alpha 45.979650
_cell_angle_beta 117.878717
_cell_angle_gamma 130.472265
_cell_volume 579.025268
_symmetry_space_group_name_H-M "P -1"
_symmetry_group_IT_number 2
_symmetry_cell_setting 'triclinic'
loop_
_space_group_symop_operation_xyz
x,y,z
-x,-y,-z
loop_
_atom_site_type_symbol
_atom_site_label
_atom_site_fract_x
_atom_site_fract_y
_atom_site_fract_z
Si Si1 0.233440 0.355498 0.626433
Si Si2 0.515241 0.121303 0.380578
Si Si3 0.165869 0.073889 0.028689
Si Si4 0.132150 0.155318 0.413451
Si Si5 0.134598 0.834742 0.083611
Si Si6 0.692338 0.333277 0.319854
Si Si7 0.790481 0.323290 0.999386
Si Si8 0.475285 0.464848 0.879130
O O1 0.523606 0.351117 0.830407
O O2 0.406408 0.451902 0.390422
O O3 0.086251 0.261365 0.699314
O O4 0.870455 0.342452 0.541329
O O5 0.337921 0.113205 0.520067
O O6 0.813236 0.108514 0.523310
O O7 0.290698 0.060634 0.289634
O O8 0.652769 0.222563 0.139064
O O9 0.503819 0.139114 0.896769
O O10 0.932699 0.106037 0.947936
O O11 0.000000 0.000000 0.000000
O O12 0.355824 0.246648 0.373482
O O13 0.008256 0.165684 0.156640
O O14 0.881990 0.330460 0.218804
O O15 0.667385 0.415924 0.081554
O O16 0.121954 0.390714 0.866595
O O17 0.500000 0.500000 0.000000
#
# Coordination Sequence:
#
# PCOD9087613 Si02
#       8
#     2   2   2   2   2   2   2   2
#     4  12  24  41  64  93 127 176 217 289 322 382
#     4   9  17  34  62  86 123 161 211 254 316 395
#     4  10  19  36  64  97 133 162 207 275 326 403
#     4   9  17  36  60  81 122 161 209 261 304 392
#     4  10  21  38  59  99 128 165 225 256 333 408
#     4  11  23  42  60  86 127 174 227 268 332 381
#     4  11  22  45  60  88 129 170 229 271 327 391
#     4  12  26  43  60  90 131 174 233 275 330 389
#
# _framework density 27.632645
#
# number of rings (size 3 to 8) (size 9 to 14) (size 15 to 20)
#    0.000    1.500    6.250    1.125    0.000    1.500 
#    2.250    0.000    0.000    0.000    0.000   33.250 
#    0.000    0.000    0.000    0.000    0.000    0.000 
#
# Total GULP energy -89311.563940 kJ/mol
# GULP energy per Si atom -5581.972746 kJ/mol
# Density = 2.756975 g / cm^3
# Si number density = 27.632645 Si / 1000 Ang^3
#
#
#
# Elastic Constant Matrix: (Units=GPa)
#
#
# Indices 1 2 3 4 5 6 
#
# 1 149.1348 36.9206 29.2072 -0.0416 23.3999 0.4443
# 2 36.9206 144.1839 43.1352 5.6566 -2.1929 4.9016
# 3 29.2072 43.1352 127.8255 17.8155 27.3914 -4.5890
# 4 -0.0416 5.6566 17.8155 39.1199 -7.4258 -2.9797
# 5 23.3999 -2.1929 27.3914 -7.4258 25.1431 -3.3320
# 6 0.4443 4.9016 -4.5890 -2.9797 -3.3320 48.1534
#
#
#
# Elastic Compliance Matrix: (Units=1/GPa)
#
#
# Indices 1 2 3 4 5 6 
#
# 1 0.008805 -0.002786 0.001601 -0.002443 -0.010976 -0.000556
# 2 -0.002786 0.009158 -0.004846 0.002616 0.009369 -0.000558
# 3 0.001601 -0.004846 0.015107 -0.010260 -0.021427 -0.000199
# 4 -0.002443 0.002616 -0.010260 0.034657 0.024259 0.002602
# 5 -0.010976 0.009369 -0.021427 0.024259 0.081878 0.004272
# 6 -0.000556 -0.000558 -0.000199 0.002602 0.004272 0.021267
#
#
# Mechanical properties :
#
#
# Convention : Reuss Voigt Hill
#
# Bulk Modulus (GPa) = 47.60240 71.07447 59.33844
# Shear Modulus (GPa) = 26.32469 43.27536 34.80003
#
# Velocity S-wave (km/s) = 3.08988 3.96169 3.55263
# Velocity P-wave (km/s) = 5.47668 6.83401 6.19265
#
# Compressibility (1/GPa) = 0.02100734
#
# Stress axis : x y z
#
# Youngs Moduli (GPa) = 113.57623 109.19970 66.19430
#
# Poissons Ratio (x) = 0.30420 -0.10596
# Poissons Ratio (y) = 0.31639 0.32078
# Poissons Ratio (z) = -0.18181 0.52919
#
# Static dielectric constant tensor:
#      x y z
#    x 2.436560 -0.300260 -0.120400 
#    y -0.300260 2.774920 0.245300 
#    z -0.120400 0.245300 2.287740 
# 
# From -- ./inp_files/142568.got.cif
#   From: 2010.05.17/outbox.cif.g08.bks.cpg/sg2_72_cif.got.tgz:142568.got - 2010.06.03 11:33:40.
