data_PCOD9087573
_publ_section_title
;
Structure prediction by ZEFSAII (Michael W. Deem and Ramdas Pophale) SiO2 
 PCOD9087573
Probable space group: P -1
;
_chemical_formula_sum "Si O2"
_cell_formula_units_Z 16
_cell_length_a 12.068106
_cell_length_b 9.204741
_cell_length_c 9.141055
_cell_angle_alpha 97.403109
_cell_angle_beta 83.951921
_cell_angle_gamma 57.098806
_cell_volume 826.488411
_symmetry_space_group_name_H-M "P -1"
_symmetry_group_IT_number 2
_symmetry_cell_setting 'triclinic'
loop_
_space_group_symop_operation_xyz
x,y,z
-x,-y,-z
loop_
_atom_site_type_symbol
_atom_site_label
_atom_site_fract_x
_atom_site_fract_y
_atom_site_fract_z
Si Si1 0.967289 0.699875 0.151765
Si Si2 0.529820 0.822034 0.042629
Si Si3 0.553004 0.517337 0.835632
Si Si4 0.803029 0.544871 0.115246
Si Si5 0.717512 0.309394 0.243169
Si Si6 0.874035 0.990339 0.978676
Si Si7 0.276516 0.880117 0.263154
Si Si8 0.879447 0.014731 0.426909
O O1 0.898310 0.596293 0.181070
O O2 0.942074 0.839798 0.295933
O O3 0.119286 0.564097 0.057311
O O4 0.894870 0.821117 0.032568
O O5 0.661208 0.720213 0.113402
O O6 0.403433 0.864684 0.166237
O O7 0.561799 0.682340 0.889581
O O8 0.500000 0.000000 0.000000
O O9 0.444469 0.562888 0.729226
O O10 0.684071 0.321596 0.761694
O O11 0.500000 0.500000 0.000000
O O12 0.776698 0.421512 0.200488
O O13 0.796336 0.187615 0.355737
O O14 0.749867 0.167600 0.092066
O O15 0.848038 0.002460 0.813627
O O16 0.000000 0.000000 0.000000
O O17 0.229960 0.964486 0.439430
O O18 0.000000 0.000000 0.500000
#
# Coordination Sequence:
#
# PCOD9087573 Si02
#       8
#     2   2   2   2   2   2   2   2
#     4  10  24  39  63  94 127 162 211 263 312 382
#     4  11  22  37  66  97 124 159 213 269 317 358
#     4  10  19  36  64  93 119 155 215 268 296 366
#     4  11  21  40  66  93 121 164 217 263 312 363
#     4  11  20  39  64  90 120 165 210 261 305 368
#     4  11  18  32  64  88 118 160 213 258 303 355
#     4  11  21  40  61  94 127 161 210 264 311 376
#     4  11  27  41  63  93 134 168 206 253 327 381
#
# _framework density 19.359013999999998
#
# number of rings (size 3 to 8) (size 9 to 14) (size 15 to 20)
#    0.000    1.250    6.250    2.250    3.500    0.500 
#    0.000    2.500    0.000    0.000    0.000    0.000 
#    0.000    0.000    0.000    0.000    0.000    0.000 
#
# Total GULP energy -89283.533128 kJ/mol
# GULP energy per Si atom -5580.220821 kJ/mol
# Density = 1.931495 g / cm^3
# Si number density = 19.359014 Si / 1000 Ang^3
#
#
#
# Elastic Constant Matrix: (Units=GPa)
#
#
# Indices 1 2 3 4 5 6 
#
# 1 70.5629 24.9835 29.5665 -7.0671 1.8604 -0.7784
# 2 24.9835 101.3818 36.5926 -5.3043 2.4860 10.2934
# 3 29.5665 36.5926 94.7622 -5.0950 2.8654 -2.9481
# 4 -7.0671 -5.3043 -5.0950 29.9988 -4.2020 2.6673
# 5 1.8604 2.4860 2.8654 -4.2020 23.2399 -2.3802
# 6 -0.7784 10.2934 -2.9481 2.6673 -2.3802 34.7852
#
#
#
# Elastic Compliance Matrix: (Units=1/GPa)
#
#
# Indices 1 2 3 4 5 6 
#
# 1 0.017136 -0.002635 -0.004159 0.002811 -0.000008 0.000594
# 2 -0.002635 0.012484 -0.004043 0.001158 -0.000851 -0.004243
# 3 -0.004159 -0.004043 0.013515 0.000320 -0.000620 0.002182
# 4 0.002811 0.001158 0.000320 0.035287 0.005729 -0.002566
# 5 -0.000008 -0.000851 -0.000620 0.005729 0.044521 0.002806
# 6 0.000594 -0.004243 0.002182 -0.002566 0.002806 0.030590
#
#
# Mechanical properties :
#
#
# Convention : Reuss Voigt Hill
#
# Bulk Modulus (GPa) = 46.59387 49.88799 48.24093
# Shear Modulus (GPa) = 27.41819 29.30906 28.36362
#
# Velocity S-wave (km/s) = 3.76746 3.89520 3.83186
# Velocity P-wave (km/s) = 6.56091 6.78646 6.67464
#
# Compressibility (1/GPa) = 0.02146205
#
# Stress axis : x y z
#
# Youngs Moduli (GPa) = 58.35819 80.09969 73.98955
#
# Poissons Ratio (x) = 0.21103 0.30774
# Poissons Ratio (y) = 0.15375 0.29913
# Poissons Ratio (z) = 0.24272 0.32383
#
# Static dielectric constant tensor:
#      x y z
#    x 1.758000 -0.038280 -0.025520 
#    y -0.038280 1.710260 0.017230 
#    z -0.025520 0.017230 1.676600 
# 
# From -- ./inp_files/238894.got.cif
#   From: 2010.05.17/outbox.cif.g08.bks.cpg/sg2_120_cif.got.tgz:238894.got - 2010.06.03 11:33:40.
