data_PCOD9088858
_publ_section_title
;
Structure prediction by ZEFSAII (Michael W. Deem and Ramdas Pophale) SiO2 
 PCOD9088858
Probable space group: P -1
;
_chemical_formula_sum "Si O2"
_cell_formula_units_Z 16
_cell_length_a 14.300860
_cell_length_b 5.321078
_cell_length_c 23.090844
_cell_angle_alpha 118.779874
_cell_angle_beta 148.570680
_cell_angle_gamma 53.983718
_cell_volume 740.245294
_symmetry_space_group_name_H-M "P -1"
_symmetry_group_IT_number 2
_symmetry_cell_setting 'triclinic'
loop_
_space_group_symop_operation_xyz
x,y,z
-x,-y,-z
loop_
_atom_site_type_symbol
_atom_site_label
_atom_site_fract_x
_atom_site_fract_y
_atom_site_fract_z
Si Si1 0.802612 0.494303 0.470451
Si Si2 0.194385 0.045120 0.665910
Si Si3 0.448172 0.793857 0.401737
Si Si4 0.247079 0.329547 0.261786
Si Si5 0.446170 0.623963 0.841305
Si Si6 0.463826 0.094332 0.714694
Si Si7 0.818712 0.673188 0.105956
Si Si8 0.712803 0.397650 0.128974
O O1 0.859105 0.237931 0.419638
O O2 0.636355 0.554511 0.438868
O O3 0.696513 0.804520 0.410560
O O4 0.007583 0.367180 0.598073
O O5 0.287629 0.936337 0.765514
O O6 0.363102 0.009227 0.705645
O O7 0.334164 0.594945 0.347162
O O8 0.500000 0.000000 0.500000
O O9 0.319839 0.049792 0.315748
O O10 0.016189 0.475017 0.155809
O O11 0.343476 0.173513 0.235346
O O12 0.508807 0.384370 0.794455
O O13 0.339532 0.502342 0.820976
O O14 0.627185 0.673257 0.971601
O O15 0.825150 0.524446 0.156551
O O16 0.803360 0.024865 0.138917
O O17 0.500000 0.500000 0.000000
#
# Coordination Sequence:
#
# PCOD9088858 Si02
#       8
#     2   2   2   2   2   2   2   2
#     4   9  20  38  60  91 127 168 209 269 337 372
#     4  10  19  37  63  91 128 164 215 270 325 384
#     4  11  23  44  67  93 127 169 218 268 315 390
#     4  11  24  45  66  93 133 174 213 262 328 382
#     4  10  23  37  63  99 126 171 220 268 319 387
#     4  10  21  38  64  91 134 169 215 270 325 380
#     4  11  24  43  67  94 135 180 213 261 326 387
#     4  10  22  42  65  89 131 173 214 272 322 369
#
# _framework density 21.614457999999999
#
# number of rings (size 3 to 8) (size 9 to 14) (size 15 to 20)
#    0.000    1.750    1.250    3.000    5.250    1.500 
#    2.250    0.625    0.000    0.000    0.000    0.000 
#    0.000    0.000    0.000    0.000    0.000    0.000 
#
# Total GULP energy -89221.439055 kJ/mol
# GULP energy per Si atom -5576.339941 kJ/mol
# Density = 2.156526 g / cm^3
# Si number density = 21.614458 Si / 1000 Ang^3
#
#
#
# Elastic Constant Matrix: (Units=GPa)
#
#
# Indices 1 2 3 4 5 6 
#
# 1 110.2230 39.7263 54.0363 -29.2463 1.3679 5.8310
# 2 39.7263 101.2855 35.8670 -12.7589 4.8317 -0.2900
# 3 54.0363 35.8670 98.5931 -17.0364 0.2386 -14.5611
# 4 -29.2463 -12.7589 -17.0364 29.4013 0.1291 1.9059
# 5 1.3679 4.8317 0.2386 0.1291 22.7971 -4.6470
# 6 5.8310 -0.2900 -14.5611 1.9059 -4.6470 34.6534
#
#
#
# Elastic Compliance Matrix: (Units=1/GPa)
#
#
# Indices 1 2 3 4 5 6 
#
# 1 0.017283 -0.002521 -0.007471 0.012231 -0.001920 -0.006999
# 2 -0.002521 0.012198 -0.003028 0.001118 -0.002646 -0.001162
# 3 -0.007471 -0.003028 0.016656 0.000339 0.002660 0.008569
# 4 0.012231 0.001118 0.000339 0.047181 -0.002220 -0.004799
# 5 -0.001920 -0.002646 0.002660 -0.002220 0.046100 0.007723
# 6 -0.006999 -0.001162 0.008569 -0.004799 0.007723 0.034925
#
#
# Mechanical properties :
#
#
# Convention : Reuss Voigt Hill
#
# Bulk Modulus (GPa) = 49.75569 63.26231 56.50900
# Shear Modulus (GPa) = 24.14498 29.40183 26.77341
#
# Velocity S-wave (km/s) = 3.34589 3.69221 3.52331
# Velocity P-wave (km/s) = 6.16411 6.89265 6.53853
#
# Compressibility (1/GPa) = 0.02009820
#
# Stress axis : x y z
#
# Youngs Moduli (GPa) = 57.85991 81.98218 60.03710
#
# Poissons Ratio (x) = 0.20667 0.44853
# Poissons Ratio (y) = 0.14586 0.18178
# Poissons Ratio (z) = 0.43226 0.24822
#
# Static dielectric constant tensor:
#      x y z
#    x 1.783740 0.019590 -0.016120 
#    y 0.019590 1.898550 0.086340 
#    z -0.016120 0.086340 1.847250 
# 
# From -- ./inp_files/611207.got.cif
#   From: 2010.05.17/outbox.cif.g08.bks.cpg/sg2_306_cif.got.tgz:611207.got - 2010.06.03 11:33:40.
