data_PCOD9088486
_publ_section_title
;
Structure prediction by ZEFSAII (Michael W. Deem and Ramdas Pophale) SiO2 
 PCOD9088486
Probable space group: P -1
;
_chemical_formula_sum "Si O2"
_cell_formula_units_Z 16
_cell_length_a 21.528848
_cell_length_b 14.962258
_cell_length_c 5.566701
_cell_angle_alpha 125.379882
_cell_angle_beta 133.969639
_cell_angle_gamma 29.658135
_cell_volume 637.099126
_symmetry_space_group_name_H-M "P -1"
_symmetry_group_IT_number 2
_symmetry_cell_setting 'triclinic'
loop_
_space_group_symop_operation_xyz
x,y,z
-x,-y,-z
loop_
_atom_site_type_symbol
_atom_site_label
_atom_site_fract_x
_atom_site_fract_y
_atom_site_fract_z
Si Si1 0.104520 0.650298 0.809352
Si Si2 0.315521 0.253420 0.131015
Si Si3 0.789360 0.901527 0.808857
Si Si4 0.529140 0.124739 0.158608
Si Si5 0.379632 0.396675 0.835522
Si Si6 0.100145 0.312362 0.730978
Si Si7 0.923527 0.976058 0.509584
Si Si8 0.198825 0.702743 0.523407
O O1 0.240856 0.547943 0.864553
O O2 0.059419 0.572402 0.502570
O O3 0.144774 0.641708 0.173546
O O4 0.970379 0.861884 0.694164
O O5 0.374705 0.241415 0.019974
O O6 0.362487 0.295041 0.511696
O O7 0.152010 0.382978 0.931407
O O8 0.398339 0.052862 0.051207
O O9 0.622600 0.060551 0.543125
O O10 0.853604 0.793585 0.560816
O O11 0.845132 0.966251 0.116602
O O12 0.830542 0.792514 0.989908
O O13 0.514738 0.243827 0.131730
O O14 0.352861 0.519778 0.762540
O O15 0.820758 0.184961 0.557249
O O16 0.077343 0.856376 0.629165
#
# Coordination Sequence:
#
# PCOD9088486 Si02
#       8
#     2   2   2   2   2   2   2   2
#     4  10  20  38  59  90 128 157 197 256 310 368
#     4  10  23  39  63  85 116 165 215 247 302 362
#     4  10  21  39  63  95 121 157 209 264 299 361
#     4  10  23  39  62  86 119 163 210 254 300 361
#     4  11  23  37  57  89 125 162 203 253 306 365
#     4  10  22  38  64  92 124 157 210 257 308 360
#     4   9  19  36  64  90 116 160 204 249 310 366
#     4  10  19  37  61  89 123 157 201 250 309 373
#
# _framework density 25.11383
#
# number of rings (size 3 to 8) (size 9 to 14) (size 15 to 20)
#    0.000    2.000    1.250    1.500    8.750    0.500 
#    0.000    3.125    0.000    3.000    0.000    0.000 
#    0.000    0.000    0.000    0.000    0.000    0.000 
#
# Total GULP energy -89255.273265 kJ/mol
# GULP energy per Si atom -5578.454579 kJ/mol
# Density = 2.505667 g / cm^3
# Si number density = 25.113830 Si / 1000 Ang^3
#
#
#
# Elastic Constant Matrix: (Units=GPa)
#
#
# Indices 1 2 3 4 5 6 
#
# 1 49.2500 16.6384 13.2196 0.3465 -13.7788 6.8311
# 2 16.6384 105.6335 44.3553 -22.5064 -21.3061 28.6511
# 3 13.2196 44.3553 106.2974 -11.5701 -22.3461 13.9982
# 4 0.3465 -22.5064 -11.5701 44.9249 11.0784 -18.2887
# 5 -13.7788 -21.3061 -22.3461 11.0784 32.1132 -7.9586
# 6 6.8311 28.6511 13.9982 -18.2887 -7.9586 29.2710
#
#
#
# Elastic Compliance Matrix: (Units=1/GPa)
#
#
# Indices 1 2 3 4 5 6 
#
# 1 0.024380 -0.001624 -0.000243 -0.005411 0.009925 -0.004667
# 2 -0.001624 0.015325 -0.003843 0.001347 0.003616 -0.010959
# 3 -0.000243 -0.003843 0.012332 -0.000533 0.005912 -0.000805
# 4 -0.005411 0.001347 -0.000533 0.032280 -0.008457 0.018068
# 5 0.009925 0.003616 0.005912 -0.008457 0.044356 -0.001907
# 6 -0.004667 -0.010959 -0.000805 0.018068 -0.001907 0.057135
#
#
# Mechanical properties :
#
#
# Convention : Reuss Voigt Hill
#
# Bulk Modulus (GPa) = 24.61873 45.51196 35.06535
# Shear Modulus (GPa) = 23.72308 33.72635 28.72472
#
# Velocity S-wave (km/s) = 3.07681 3.66859 3.38565
# Velocity P-wave (km/s) = 4.73777 6.00886 5.41077
#
# Compressibility (1/GPa) = 0.04061948
#
# Stress axis : x y z
#
# Youngs Moduli (GPa) = 41.01673 65.25412 81.08947
#
# Poissons Ratio (x) = 0.10594 0.01967
# Poissons Ratio (y) = 0.06659 0.31161
# Poissons Ratio (z) = 0.00995 0.25075
#
# Static dielectric constant tensor:
#      x y z
#    x 2.080610 -0.021570 -0.023140 
#    y -0.021570 2.089540 -0.056100 
#    z -0.023140 -0.056100 1.995680 
# 
# From -- ./inp_files/75449.got.cif
#   From: 2010.05.17/outbox.cif.g08.bks.cpg/sg2_38_cif.got.tgz:75449.got - 2010.06.03 11:33:40.
