data_PCOD9088823
_publ_section_title
;
Structure prediction by ZEFSAII (Michael W. Deem and Ramdas Pophale) SiO2 
 PCOD9088823
Probable space group: P -1
;
_chemical_formula_sum "Si O2"
_cell_formula_units_Z 16
_cell_length_a 8.867410
_cell_length_b 16.148829
_cell_length_c 9.627035
_cell_angle_alpha 142.049034
_cell_angle_beta 87.244246
_cell_angle_gamma 88.011981
_cell_volume 840.889494
_symmetry_space_group_name_H-M "P -1"
_symmetry_group_IT_number 2
_symmetry_cell_setting 'triclinic'
loop_
_space_group_symop_operation_xyz
x,y,z
-x,-y,-z
loop_
_atom_site_type_symbol
_atom_site_label
_atom_site_fract_x
_atom_site_fract_y
_atom_site_fract_z
Si Si1 0.811247 0.734710 0.082339
Si Si2 0.095270 0.362440 0.347959
Si Si3 0.920789 0.298973 0.755362
Si Si4 0.926301 0.107830 0.031484
Si Si5 0.338264 0.444533 0.937770
Si Si6 0.202724 0.284830 0.511026
Si Si7 0.825824 0.008590 0.325217
Si Si8 0.323530 0.002837 0.988352
O O1 0.698483 0.643153 0.042094
O O2 0.973023 0.699925 0.110204
O O3 0.777273 0.899454 0.294271
O O4 0.817756 0.693165 0.866196
O O5 0.188838 0.381371 0.506348
O O6 0.000000 0.500000 0.500000
O O7 0.984000 0.250957 0.242579
O O8 0.837473 0.162247 0.574180
O O9 0.046349 0.290949 0.614468
O O10 0.798491 0.431856 0.916581
O O11 0.749153 0.113014 0.075804
O O12 0.000000 0.000000 0.000000
O O13 0.001826 0.051286 0.809815
O O14 0.326378 0.335016 0.672385
O O15 0.500000 0.500000 0.000000
O O16 0.249599 0.139066 0.248891
O O17 0.726381 0.003736 0.180435
O O18 0.500000 0.000000 0.000000
#
# Coordination Sequence:
#
# PCOD9088823 Si02
#       8
#     2   2   2   2   2   2   2   2
#     4  10  21  39  61  90 121 152 203 257 297 352
#     4  11  19  34  64  92 117 149 204 260 296 336
#     4  11  21  39  67  88 117 165 206 240 299 365
#     4   9  16  34  54  86 116 148 196 242 281 353
#     4  11  26  43  59  87 125 167 202 240 305 376
#     4  11  20  41  64  87 119 162 210 242 290 369
#     4  10  19  37  63  90 117 150 205 255 293 350
#     4  11  21  35  61  95 126 159 198 248 307 360
#
# _framework density 19.027470000000001
#
# number of rings (size 3 to 8) (size 9 to 14) (size 15 to 20)
#    0.000    1.500    5.000    4.125    1.750    0.000 
#    0.000    5.000    0.000    0.000    0.000    0.000 
#    0.000    0.000    0.000    0.000    0.000    0.000 
#
# Total GULP energy -89144.326939 kJ/mol
# GULP energy per Si atom -5571.520434 kJ/mol
# Density = 1.898416 g / cm^3
# Si number density = 19.027470 Si / 1000 Ang^3
#
#
#
# Elastic Constant Matrix: (Units=GPa)
#
#
# Indices 1 2 3 4 5 6 
#
# 1 113.1035 35.9595 7.9514 -1.4269 11.5873 20.5522
# 2 35.9595 108.1655 7.0113 8.7862 9.8880 20.6870
# 3 7.9514 7.0113 25.5132 15.9310 9.8687 6.5548
# 4 -1.4269 8.7862 15.9310 32.1707 1.6357 8.9365
# 5 11.5873 9.8880 9.8687 1.6357 21.3277 7.5388
# 6 20.5522 20.6870 6.5548 8.9365 7.5388 23.3977
#
#
#
# Elastic Compliance Matrix: (Units=1/GPa)
#
#
# Indices 1 2 3 4 5 6 
#
# 1 0.011622 -0.002278 -0.003923 0.005621 -0.000685 -0.009022
# 2 -0.002278 0.011650 0.001292 -0.001785 -0.002036 -0.007324
# 3 -0.003923 0.001292 0.074242 -0.037359 -0.032119 0.006123
# 4 0.005621 -0.001785 -0.037359 0.054854 0.017771 -0.019570
# 5 -0.000685 -0.002036 -0.032119 0.017771 0.067793 -0.017231
# 6 -0.009022 -0.007324 0.006123 -0.019570 -0.017231 0.068450
#
#
# Mechanical properties :
#
#
# Convention : Reuss Voigt Hill
#
# Bulk Modulus (GPa) = 11.40317 38.73629 25.06973
# Shear Modulus (GPa) = 15.25961 28.43657 21.84809
#
# Velocity S-wave (km/s) = 2.83499 3.87007 3.39224
# Velocity P-wave (km/s) = 4.08929 6.35391 5.34296
#
# Compressibility (1/GPa) = 0.08769492
#
# Stress axis : x y z
#
# Youngs Moduli (GPa) = 86.04398 85.83323 13.46951
#
# Poissons Ratio (x) = 0.19553 0.05285
# Poissons Ratio (y) = 0.19601 -0.01740
# Poissons Ratio (z) = 0.33759 -0.11088
#
# Static dielectric constant tensor:
#      x y z
#    x 1.702770 0.021420 -0.003800 
#    y 0.021420 1.695040 0.030350 
#    z -0.003800 0.030350 1.655640 
# 
# From -- ./inp_files/209258.got.cif
#   From: 2010.05.17/outbox.cif.g08.bks.cpg/sg2_105_cif.got.tgz:209258.got - 2010.06.03 11:33:40.
