data_PCOD9088263
_publ_section_title
;
Structure prediction by ZEFSAII (Michael W. Deem and Ramdas Pophale) SiO2 
 PCOD9088263
Probable space group: P -1
;
_chemical_formula_sum "Si O2"
_cell_formula_units_Z 14
_cell_length_a 10.605376
_cell_length_b 11.950239
_cell_length_c 9.830245
_cell_angle_alpha 72.732786
_cell_angle_beta 136.902508
_cell_angle_gamma 120.913696
_cell_volume 723.751473
_symmetry_space_group_name_H-M "P -1"
_symmetry_group_IT_number 2
_symmetry_cell_setting 'triclinic'
loop_
_space_group_symop_operation_xyz
x,y,z
-x,-y,-z
loop_
_atom_site_type_symbol
_atom_site_label
_atom_site_fract_x
_atom_site_fract_y
_atom_site_fract_z
Si Si1 0.818792 0.996829 0.758306
Si Si2 0.727574 0.704786 0.340401
Si Si3 0.589277 0.910874 0.032606
Si Si4 0.599639 0.557885 0.911073
Si Si5 0.549850 0.224174 0.304995
Si Si6 0.041261 0.084849 0.361965
Si Si7 0.988258 0.293872 0.694545
O O1 0.594106 0.905361 0.676222
O O2 0.816965 0.936883 0.628887
O O3 0.885016 0.148835 0.729695
O O4 0.000000 0.000000 0.000000
O O5 0.540852 0.558752 0.258130
O O6 0.623922 0.800452 0.184188
O O7 0.883276 0.710064 0.338346
O O8 0.860851 0.767679 0.557758
O O9 0.453709 0.832277 0.827243
O O10 0.500000 0.000000 0.000000
O O11 0.820399 0.020016 0.136871
O O12 0.569736 0.687037 0.818364
O O13 0.500000 0.500000 0.000000
O O14 0.842345 0.603599 0.106573
O O15 0.788554 0.314427 0.498431
O O16 0.000000 0.000000 0.500000
#
# Coordination Sequence:
#
# PCOD9088263 Si02
#       7
#     2   2   2   2   2   2   2
#     4  12  20  40  65  87 128 161 197 261 311 358
#     4  10  20  39  60  86 124 163 196 254 304 352
#     4  11  20  34  57  91 125 148 202 254 302 357
#     4  10  20  40  60  86 127 164 203 256 295 363
#     4  12  23  37  63  96 118 164 209 249 310 361
#     4  10  19  37  60  85 119 158 197 247 309 356
#     4  11  21  38  62  89 125 155 209 252 300 369
#
# _framework density 19.343655999999999
#
# number of rings (size 3 to 8) (size 9 to 14) (size 15 to 20)
#    0.000    1.143    8.571    1.286    2.000    2.286 
#    2.571    0.714    0.000    0.857    0.000    0.000 
#    0.000    0.000    0.000    0.000    0.000    0.000 
#
# Total GULP energy -77998.884064 kJ/mol
# GULP energy per Si atom -5571.348862 kJ/mol
# Density = 1.929963 g / cm^3
# Si number density = 19.343656 Si / 1000 Ang^3
#
#
#
# Elastic Constant Matrix: (Units=GPa)
#
#
# Indices 1 2 3 4 5 6 
#
# 1 37.1089 6.4039 14.9145 -0.0883 8.0498 0.2754
# 2 6.4039 62.0309 19.1578 33.9416 -3.7093 6.4690
# 3 14.9145 19.1578 81.9223 30.9990 13.1709 4.9454
# 4 -0.0883 33.9416 30.9990 40.4269 3.5982 -1.4197
# 5 8.0498 -3.7093 13.1709 3.5982 30.7461 8.7142
# 6 0.2754 6.4690 4.9454 -1.4197 8.7142 19.6586
#
#
#
# Elastic Compliance Matrix: (Units=1/GPa)
#
#
# Indices 1 2 3 4 5 6 
#
# 1 0.036746 -0.015450 -0.010348 0.022757 -0.013968 0.015008
# 2 -0.015450 0.045117 0.008826 -0.047426 0.019448 -0.028896
# 3 -0.010348 0.008826 0.021931 -0.024615 0.000125 -0.010110
# 4 0.022757 -0.047426 -0.024615 0.086743 -0.021902 0.037453
# 5 -0.013968 0.019448 0.000125 -0.021902 0.049468 -0.029745
# 6 0.015008 -0.028896 -0.010110 0.037453 -0.029745 0.078600
#
#
# Mechanical properties :
#
#
# Convention : Reuss Voigt Hill
#
# Bulk Modulus (GPa) = 14.31661 29.11273 21.71467
# Shear Modulus (GPa) = 13.30378 27.53871 20.42124
#
# Velocity S-wave (km/s) = 2.62536 3.77723 3.25269
# Velocity P-wave (km/s) = 4.07520 5.84005 5.03555
#
# Compressibility (1/GPa) = 0.06984892
#
# Stress axis : x y z
#
# Youngs Moduli (GPa) = 27.21400 22.16454 45.59731
#
# Poissons Ratio (x) = 0.34244 0.47185
# Poissons Ratio (y) = 0.42046 -0.40242
# Poissons Ratio (z) = 0.28161 -0.19561
#
# Static dielectric constant tensor:
#      x y z
#    x 1.701030 0.006730 0.025600 
#    y 0.006730 1.679320 -0.000030 
#    z 0.025600 -0.000030 1.761800 
# 
# From -- ./inp_files/272736.got.cif
#   From: 2010.05.17/outbox.cif.g08.bks.cpg/sg2_137_cif.got.tgz:272736.got - 2010.06.03 11:33:40.
