data_PCOD9088429
_publ_section_title
;
Structure prediction by ZEFSAII (Michael W. Deem and Ramdas Pophale) SiO2 
 PCOD9088429
Probable space group: P -1
;
_chemical_formula_sum "Si O2"
_cell_formula_units_Z 16
_cell_length_a 10.145878
_cell_length_b 6.577504
_cell_length_c 13.634448
_cell_angle_alpha 104.829212
_cell_angle_beta 62.250345
_cell_angle_gamma 118.014996
_cell_volume 710.080265
_symmetry_space_group_name_H-M "P -1"
_symmetry_group_IT_number 2
_symmetry_cell_setting 'triclinic'
loop_
_space_group_symop_operation_xyz
x,y,z
-x,-y,-z
loop_
_atom_site_type_symbol
_atom_site_label
_atom_site_fract_x
_atom_site_fract_y
_atom_site_fract_z
Si Si1 0.924155 0.100867 0.680174
Si Si2 0.551583 0.549233 0.211636
Si Si3 0.859010 0.175552 0.932729
Si Si4 0.328827 0.821366 0.355277
Si Si5 0.132338 0.319381 0.008835
Si Si6 0.464386 0.329164 0.401984
Si Si7 0.868304 0.648011 0.538926
Si Si8 0.358462 0.284540 0.073722
O O1 0.932467 0.141604 0.798348
O O2 0.756573 0.115628 0.700640
O O3 0.053251 0.294215 0.588944
O O4 0.948827 0.868013 0.611907
O O5 0.464779 0.725062 0.274687
O O6 0.718147 0.672761 0.109463
O O7 0.591191 0.444673 0.284447
O O8 0.415821 0.338863 0.171476
O O9 0.964945 0.173323 0.991315
O O10 0.676700 0.974244 0.975885
O O11 0.855742 0.422590 0.962309
O O12 0.181503 0.611665 0.436493
O O13 0.419238 0.064262 0.409716
O O14 0.186044 0.283150 0.095949
O O15 0.500000 0.500000 0.500000
O O16 0.304052 0.338949 0.413341
O O17 0.500000 0.500000 0.000000
#
# Coordination Sequence:
#
# PCOD9088429 Si02
#       8
#     2   2   2   2   2   2   2   2
#     4  10  20  36  62  89 121 162 202 257 303 365
#     4  10  22  38  61  89 120 161 213 250 307 368
#     4  11  22  39  63  88 129 162 200 258 317 363
#     4  10  19  37  61  86 120 160 203 252 298 363
#     4  10  24  40  59  91 125 163 208 252 312 368
#     4  10  22  37  60  86 128 157 200 254 303 368
#     4   9  20  36  58  91 121 158 209 249 305 362
#     4  10  21  39  63  87 118 157 207 255 297 360
#
# _framework density 22.532665000000001
#
# number of rings (size 3 to 8) (size 9 to 14) (size 15 to 20)
#    0.000    2.000    0.000    3.750    1.750    6.000 
#    0.000    0.000   16.500    0.000    0.000    0.000 
#    0.000    0.000    0.000    0.000    0.000    0.000 
#
# Total GULP energy -89134.531527 kJ/mol
# GULP energy per Si atom -5570.908220 kJ/mol
# Density = 2.248138 g / cm^3
# Si number density = 22.532665 Si / 1000 Ang^3
#
#
#
# Elastic Constant Matrix: (Units=GPa)
#
#
# Indices 1 2 3 4 5 6 
#
# 1 40.0996 21.5491 15.0537 4.3849 11.1070 2.1428
# 2 21.5491 141.7853 54.7941 8.8800 12.8870 2.0118
# 3 15.0537 54.7941 96.0554 -9.5100 12.3886 4.6163
# 4 4.3849 8.8800 -9.5100 38.6457 8.3208 6.5859
# 5 11.1070 12.8870 12.3886 8.3208 26.1781 2.0131
# 6 2.1428 2.0118 4.6163 6.5859 2.0131 32.8215
#
#
#
# Elastic Compliance Matrix: (Units=1/GPa)
#
#
# Indices 1 2 3 4 5 6 
#
# 1 0.030122 -0.002886 -0.001816 -0.000889 -0.010161 -0.000733
# 2 -0.002886 0.009842 -0.005564 -0.003494 0.000042 0.001066
# 3 -0.001816 -0.005564 0.015446 0.007009 -0.005815 -0.002762
# 4 -0.000889 -0.003494 0.007009 0.031947 -0.010877 -0.006457
# 5 -0.010161 0.000042 -0.005815 -0.010877 0.048648 0.000678
# 6 -0.000733 0.001066 -0.002762 -0.006457 0.000678 0.032093
#
#
# Mechanical properties :
#
#
# Convention : Reuss Voigt Hill
#
# Bulk Modulus (GPa) = 28.67369 51.19267 39.93318
# Shear Modulus (GPa) = 24.96793 31.96529 28.46661
#
# Velocity S-wave (km/s) = 3.33239 3.77054 3.55822
# Velocity P-wave (km/s) = 5.24971 6.45946 5.88575
#
# Compressibility (1/GPa) = 0.03487517
#
# Stress axis : x y z
#
# Youngs Moduli (GPa) = 33.19867 101.60582 64.74104
#
# Poissons Ratio (x) = 0.29328 0.11760
# Poissons Ratio (y) = 0.09583 0.36025
# Poissons Ratio (z) = 0.06030 0.56538
#
# Static dielectric constant tensor:
#      x y z
#    x 1.865510 0.013210 0.014420 
#    y 0.013210 2.021250 -0.026660 
#    z 0.014420 -0.026660 1.962770 
# 
# From -- ./inp_files/510476.got.cif
#   From: 2010.05.17/outbox.cif.g08.bks.cpg/sg2_256_cif.got.tgz:510476.got - 2010.06.03 11:33:40.
