data_PCOD9088111
_publ_section_title
;
Structure prediction by ZEFSAII (Michael W. Deem and Ramdas Pophale) SiO2 
 PCOD9088111
Probable space group: P -1
;
_chemical_formula_sum "Si O2"
_cell_formula_units_Z 16
_cell_length_a 13.091703
_cell_length_b 9.124879
_cell_length_c 16.105733
_cell_angle_alpha 136.082003
_cell_angle_beta 123.326769
_cell_angle_gamma 43.196725
_cell_volume 912.301777
_symmetry_space_group_name_H-M "P -1"
_symmetry_group_IT_number 2
_symmetry_cell_setting 'triclinic'
loop_
_space_group_symop_operation_xyz
x,y,z
-x,-y,-z
loop_
_atom_site_type_symbol
_atom_site_label
_atom_site_fract_x
_atom_site_fract_y
_atom_site_fract_z
Si Si1 0.969183 0.180122 0.944326
Si Si2 0.844992 0.175300 0.553597
Si Si3 0.673875 0.725121 0.615617
Si Si4 0.954742 0.928626 0.253182
Si Si5 0.675783 0.896905 0.368068
Si Si6 0.829646 0.664883 0.182920
Si Si7 0.118257 0.170493 0.164560
Si Si8 0.152736 0.483249 0.562613
O O1 0.008828 0.182068 0.868429
O O2 0.921139 0.986398 0.857933
O O3 0.842401 0.462356 0.039736
O O4 0.106415 0.091417 0.033119
O O5 0.755449 0.664354 0.374262
O O6 0.764351 0.030820 0.464932
O O7 0.000000 0.000000 0.500000
O O8 0.896043 0.204142 0.678658
O O9 0.738337 0.447483 0.571853
O O10 0.496342 0.900678 0.604147
O O11 0.734939 0.856590 0.752922
O O12 0.749904 0.671663 0.537765
O O13 0.848268 0.866902 0.226449
O O14 0.886492 0.230327 0.342211
O O15 0.696596 0.793385 0.241030
O O16 0.980938 0.474666 0.227828
O O17 0.000000 0.500000 0.500000
#
# Coordination Sequence:
#
# PCOD9088111 Si02
#       8
#     2   2   2   2   2   2   2   2
#     4   9  20  35  61  90 107 145 206 255 277 329
#     4  12  20  39  60  89 115 158 195 236 286 351
#     4  12  23  39  57  89 124 153 187 240 305 353
#     4  12  20  33  65  88 113 143 204 249 281 326
#     4  12  24  37  57  88 124 157 186 240 301 350
#     4  10  19  37  59  84 112 150 200 237 284 339
#     4   9  19  37  62  81 116 146 202 242 291 336
#     4  12  23  37  61  85 118 154 200 238 283 352
#
# _framework density 17.538056000000001
#
# number of rings (size 3 to 8) (size 9 to 14) (size 15 to 20)
#    0.750    0.250    5.000    3.375    0.000    0.000 
#    0.000    0.625    0.000    1.500    0.000    0.000 
#    0.000    0.000    0.000    0.000    0.000    0.000 
#
# Total GULP energy -89271.038512 kJ/mol
# GULP energy per Si atom -5579.439907 kJ/mol
# Density = 1.749814 g / cm^3
# Si number density = 17.538056 Si / 1000 Ang^3
#
#
#
# Elastic Constant Matrix: (Units=GPa)
#
#
# Indices 1 2 3 4 5 6 
#
# 1 112.1293 58.4831 40.2502 7.2195 -12.8119 3.8073
# 2 58.4831 90.4834 24.0916 15.9490 -5.2130 11.1697
# 3 40.2502 24.0916 57.6715 5.9365 -4.9115 9.0025
# 4 7.2195 15.9490 5.9365 26.8031 13.0308 2.1846
# 5 -12.8119 -5.2130 -4.9115 13.0308 34.4103 1.6118
# 6 3.8073 11.1697 9.0025 2.1846 1.6118 34.6951
#
#
#
# Elastic Compliance Matrix: (Units=1/GPa)
#
#
# Indices 1 2 3 4 5 6 
#
# 1 0.016770 -0.008972 -0.008228 0.000815 0.003262 0.002980
# 2 -0.008972 0.019498 0.000329 -0.010793 0.003976 -0.004883
# 3 -0.008228 0.000329 0.024392 -0.004037 0.002249 -0.005382
# 4 0.000815 -0.010793 -0.004037 0.055418 -0.022988 0.002011
# 5 0.003262 0.003976 0.002249 -0.022988 0.040028 -0.002634
# 6 0.002980 -0.004883 -0.005382 0.002011 -0.002634 0.031460
#
#
# Mechanical properties :
#
#
# Convention : Reuss Voigt Hill
#
# Bulk Modulus (GPa) = 37.15053 56.21490 46.68272
# Shear Modulus (GPa) = 21.71267 28.34566 25.02917
#
# Velocity S-wave (km/s) = 3.52238 4.02461 3.78184
# Velocity P-wave (km/s) = 6.14587 7.32934 6.76354
#
# Compressibility (1/GPa) = 0.02691751
#
# Stress axis : x y z
#
# Youngs Moduli (GPa) = 59.62853 51.28804 40.99766
#
# Poissons Ratio (x) = 0.46018 0.33732
# Poissons Ratio (y) = 0.53501 -0.01349
# Poissons Ratio (z) = 0.49060 -0.01687
#
# Static dielectric constant tensor:
#      x y z
#    x 1.580550 0.022240 -0.012110 
#    y 0.022240 1.588480 -0.001200 
#    z -0.012110 -0.001200 1.628860 
# 
# From -- ./inp_files/566277.got.cif
#   From: 2010.05.17/outbox.cif.g08.bks.cpg/sg2_284_cif.got.tgz:566277.got - 2010.06.03 11:33:40.
