data_PCOD9088544
_publ_section_title
;
Structure prediction by ZEFSAII (Michael W. Deem and Ramdas Pophale) SiO2 
 PCOD9088544
Probable space group: P -1
;
_chemical_formula_sum "Si O2"
_cell_formula_units_Z 15
_cell_length_a 8.702499
_cell_length_b 8.358778
_cell_length_c 14.989141
_cell_angle_alpha 128.531276
_cell_angle_beta 54.296027
_cell_angle_gamma 106.759073
_cell_volume 687.754859
_symmetry_space_group_name_H-M "P -1"
_symmetry_group_IT_number 2
_symmetry_cell_setting 'triclinic'
loop_
_space_group_symop_operation_xyz
x,y,z
-x,-y,-z
loop_
_atom_site_type_symbol
_atom_site_label
_atom_site_fract_x
_atom_site_fract_y
_atom_site_fract_z
Si Si1 0.812591 0.665689 0.103600
Si Si2 0.290994 0.963114 0.194811
Si Si3 0.090398 0.666391 0.288219
Si Si4 0.296323 0.282562 0.034197
Si Si5 0.500000 0.500000 0.500000
Si Si6 0.895271 0.067409 0.945845
Si Si7 0.255085 0.505498 0.760738
Si Si8 0.139995 0.373512 0.478612
O O1 0.715896 0.623378 0.028713
O O2 0.689804 0.643189 0.224710
O O3 0.893289 0.882372 0.134361
O O4 0.000000 0.500000 0.000000
O O5 0.180027 0.836668 0.260003
O O6 0.506106 0.858976 0.075864
O O7 0.201974 0.954748 0.124343
O O8 0.268425 0.193259 0.319909
O O9 0.932201 0.576306 0.247598
O O10 0.989477 0.723072 0.435718
O O11 0.255348 0.475515 0.180252
O O12 0.133423 0.135272 0.059516
O O13 0.410670 0.496914 0.629303
O O14 0.281069 0.500865 0.530649
O O15 0.793850 0.265356 0.102425
O O16 0.000000 0.500000 0.500000
#
# Coordination Sequence:
#
# PCOD9088544 Si02
#       8
#     2   2   2   2   1   2   2   2
#     4  10  19  37  61  95 134 175 224 278 341 412
#     4  12  25  43  65 106 140 176 237 292 352 422
#     4  11  22  42  68  95 140 195 222 284 358 420
#     4  12  23  37  66 106 135 178 232 293 346 407
#     4  10  24  44  74  98 134 184 238 286 342 428
#     4  11  21  38  65  95 138 174 230 286 343 412
#     4  10  20  41  65  98 140 181 236 282 344 418
#     4  11  26  49  71  99 142 189 235 289 360 425
#
# _framework density 21.810096000000001
#
# number of rings (size 3 to 8) (size 9 to 14) (size 15 to 20)
#    0.000    1.067    4.000    4.000    0.000    2.133 
#    2.400    0.000    0.000    6.400    0.000    0.000 
#    0.000    0.000    0.000    0.000    0.000    0.000 
#
# Total GULP energy -83545.785038 kJ/mol
# GULP energy per Si atom -5569.719003 kJ/mol
# Density = 2.176046 g / cm^3
# Si number density = 21.810096 Si / 1000 Ang^3
#
#
#
# Elastic Constant Matrix: (Units=GPa)
#
#
# Indices 1 2 3 4 5 6 
#
# 1 64.9104 9.7147 15.0089 -3.3168 5.2691 -9.5590
# 2 9.7147 98.7993 27.6206 -25.9681 7.9704 -7.3645
# 3 15.0089 27.6206 97.4419 -31.4779 4.3587 -9.3526
# 4 -3.3168 -25.9681 -31.4779 44.2762 -6.5703 2.9995
# 5 5.2691 7.9704 4.3587 -6.5703 28.6972 -6.0135
# 6 -9.5590 -7.3645 -9.3526 2.9995 -6.0135 26.0125
#
#
#
# Elastic Compliance Matrix: (Units=1/GPa)
#
#
# Indices 1 2 3 4 5 6 
#
# 1 0.016855 -0.000902 -0.002270 -0.001480 -0.001817 0.004873
# 2 -0.000902 0.012364 -0.001195 0.006017 -0.001346 0.001734
# 3 -0.002270 -0.001195 0.014162 0.009185 0.001366 0.003176
# 4 -0.001480 0.006017 0.009185 0.033179 0.005186 0.001835
# 5 -0.001817 -0.001346 0.001366 0.005186 0.038139 0.007661
# 6 0.004873 0.001734 0.003176 0.001835 0.007661 0.043426
#
#
# Mechanical properties :
#
#
# Convention : Reuss Voigt Hill
#
# Bulk Modulus (GPa) = 28.86257 40.64891 34.75574
# Shear Modulus (GPa) = 28.02579 33.71767 30.87173
#
# Velocity S-wave (km/s) = 3.58857 3.93614 3.76637
# Velocity P-wave (km/s) = 5.51659 6.27182 5.90629
#
# Compressibility (1/GPa) = 0.03464695
#
# Stress axis : x y z
#
# Youngs Moduli (GPa) = 59.32911 80.88239 70.61302
#
# Poissons Ratio (x) = 0.07295 0.16026
# Poissons Ratio (y) = 0.05351 0.08441
# Poissons Ratio (z) = 0.13465 0.09668
#
# Static dielectric constant tensor:
#      x y z
#    x 1.805170 0.015370 -0.012900 
#    y 0.015370 1.829560 0.006800 
#    z -0.012900 0.006800 1.785010 
# 
# From -- ./inp_files/376852.got.cif
#   From: 2010.05.17/outbox.cif.g08.bks.cpg/sg2_189_cif.got.tgz:376852.got - 2010.06.03 11:33:40.
