data_PCOD9088662
_publ_section_title
;
Structure prediction by ZEFSAII (Michael W. Deem and Ramdas Pophale) SiO2 
 PCOD9088662
Probable space group: P -1
;
_chemical_formula_sum "Si O2"
_cell_formula_units_Z 16
_cell_length_a 7.845449
_cell_length_b 17.663573
_cell_length_c 17.049162
_cell_angle_alpha 20.641025
_cell_angle_beta 95.686715
_cell_angle_gamma 87.106197
_cell_volume 756.544188
_symmetry_space_group_name_H-M "P -1"
_symmetry_group_IT_number 2
_symmetry_cell_setting 'triclinic'
loop_
_space_group_symop_operation_xyz
x,y,z
-x,-y,-z
loop_
_atom_site_type_symbol
_atom_site_label
_atom_site_fract_x
_atom_site_fract_y
_atom_site_fract_z
Si Si1 0.636322 0.224465 0.023310
Si Si2 0.882297 0.746392 0.214509
Si Si3 0.757613 0.043894 0.621670
Si Si4 0.633999 0.756889 0.782426
Si Si5 0.845188 0.057188 0.046490
Si Si6 0.233056 0.285908 0.927519
Si Si7 0.401681 0.500848 0.106964
Si Si8 0.956700 0.777754 0.474899
O O1 0.694783 0.236685 0.924630
O O2 0.414613 0.327874 0.919731
O O3 0.709538 0.359432 0.957987
O O4 0.738652 0.944401 0.319818
O O5 0.764449 0.730726 0.149921
O O6 0.000000 0.500000 0.500000
O O7 0.774760 0.931348 0.098406
O O8 0.032893 0.828389 0.101986
O O9 0.568744 0.261922 0.376263
O O10 0.922095 0.135796 0.544856
O O11 0.770345 0.828935 0.773420
O O12 0.746917 0.949852 0.799307
O O13 0.711538 0.568446 0.898115
O O14 0.500000 0.000000 0.500000
O O15 0.501834 0.659612 0.919323
O O16 0.971506 0.860499 0.305694
O O17 0.045519 0.498790 0.743398
#
# Coordination Sequence:
#
# PCOD9088662 Si02
#       8
#     2   2   2   2   2   2   2   2
#     4  10  21  40  59  91 121 154 200 254 295 353
#     4  11  20  39  63  82 120 164 197 246 306 358
#     4  11  19  37  62  89 118 165 201 240 301 362
#     4   9  19  34  61  94 120 161 198 239 301 360
#     4   9  22  39  56  86 121 151 196 252 298 346
#     4  12  21  38  64  87 117 164 203 244 302 356
#     4  10  19  37  62  90 126 154 198 251 296 355
#     4  10  21  39  57  87 121 153 197 250 294 353
#
# _framework density 21.148796999999998
#
# number of rings (size 3 to 8) (size 9 to 14) (size 15 to 20)
#    0.750    1.000    5.000    0.000    0.000    0.500 
#    6.750    1.250    0.000   10.500    0.000    0.000 
#    0.000    0.000    0.000    0.000    0.000    0.000 
#
# Total GULP energy -89109.418447 kJ/mol
# GULP energy per Si atom -5569.338653 kJ/mol
# Density = 2.110066 g / cm^3
# Si number density = 21.148797 Si / 1000 Ang^3
#
#
#
# Elastic Constant Matrix: (Units=GPa)
#
#
# Indices 1 2 3 4 5 6 
#
# 1 17.5300 15.3063 5.0894 -4.6847 1.2190 6.4852
# 2 15.3063 160.5713 23.9638 -21.2266 3.0519 17.8687
# 3 5.0894 23.9638 86.8827 13.3341 -6.3500 -11.0796
# 4 -4.6847 -21.2266 13.3341 38.1593 -0.2615 1.9760
# 5 1.2190 3.0519 -6.3500 -0.2615 20.1146 -0.2601
# 6 6.4852 17.8687 -11.0796 1.9760 -0.2601 23.5378
#
#
#
# Elastic Compliance Matrix: (Units=1/GPa)
#
#
# Indices 1 2 3 4 5 6 
#
# 1 0.074363 -0.000773 -0.010079 0.013507 -0.007730 -0.025865
# 2 -0.000773 0.009157 -0.005054 0.007250 -0.002970 -0.009759
# 3 -0.010079 -0.005054 0.017737 -0.011025 0.007040 0.015967
# 4 0.013507 0.007250 -0.011025 0.036623 -0.005150 -0.017546
# 5 -0.007730 -0.002970 0.007040 -0.005150 0.052903 0.008715
# 6 -0.025865 -0.009759 0.015967 -0.017546 0.008715 0.066105
#
#
# Mechanical properties :
#
#
# Convention : Reuss Voigt Hill
#
# Bulk Modulus (GPa) = 14.40042 39.30034 26.85038
# Shear Modulus (GPa) = 16.03346 31.07064 23.55205
#
# Velocity S-wave (km/s) = 2.75640 3.83710 3.34074
# Velocity P-wave (km/s) = 4.11754 6.18500 5.25397
#
# Compressibility (1/GPa) = 0.06944241
#
# Stress axis : x y z
#
# Youngs Moduli (GPa) = 13.44760 109.21082 56.37922
#
# Poissons Ratio (x) = 0.08447 0.56825
# Poissons Ratio (y) = 0.01040 0.28496
# Poissons Ratio (z) = 0.13554 0.55200
#
# Static dielectric constant tensor:
#      x y z
#    x 1.766000 0.024540 -0.015910 
#    y 0.024540 1.849550 -0.026970 
#    z -0.015910 -0.026970 1.780530 
# 
# From -- ./inp_files/112240.got.cif
#   From: 2010.05.17/outbox.cif.g08.bks.cpg/sg2_57_cif.got.tgz:112240.got - 2010.06.03 11:33:40.
