data_PCOD9088222
_publ_section_title
;
Structure prediction by ZEFSAII (Michael W. Deem and Ramdas Pophale) SiO2 
 PCOD9088222
Probable space group: P -1
;
_chemical_formula_sum "Si O2"
_cell_formula_units_Z 14
_cell_length_a 23.714001
_cell_length_b 19.391619
_cell_length_c 6.884118
_cell_angle_alpha 44.030247
_cell_angle_beta 137.402457
_cell_angle_gamma 165.026489
_cell_volume 553.051009
_symmetry_space_group_name_H-M "P -1"
_symmetry_group_IT_number 2
_symmetry_cell_setting 'triclinic'
loop_
_space_group_symop_operation_xyz
x,y,z
-x,-y,-z
loop_
_atom_site_type_symbol
_atom_site_label
_atom_site_fract_x
_atom_site_fract_y
_atom_site_fract_z
Si Si1 0.022435 0.344430 0.645810
Si Si2 0.120177 0.332648 0.273246
Si Si3 0.470736 0.732139 0.865636
Si Si4 0.845240 0.910368 0.686761
Si Si5 0.441990 0.106959 0.628433
Si Si6 0.616092 0.541838 0.511408
Si Si7 0.313270 0.843794 0.478977
O O1 0.978921 0.219025 0.965055
O O2 0.236865 0.534603 0.697252
O O3 0.102438 0.539669 0.538416
O O4 0.788964 0.112408 0.418826
O O5 0.332201 0.643770 0.181925
O O6 0.229351 0.346868 0.469293
O O7 0.981972 0.159987 0.467551
O O8 0.455715 0.621888 0.183810
O O9 0.494813 0.739974 0.683308
O O10 0.680853 0.036945 0.828635
O O11 0.752516 0.769515 0.528004
O O12 0.621962 0.680612 0.713329
O O13 0.000000 0.000000 0.000000
O O14 0.396043 0.960136 0.672768
O O15 0.500000 0.000000 0.500000
#
# Coordination Sequence:
#
# PCOD9088222 Si02
#       7
#     2   2   2   2   2   2   2
#     4  10  19  37  60  82 119 156 189 238 284 331
#     4  11  24  37  59  93 116 147 196 240 283 345
#     4   8  18  35  60  81 115 152 190 231 284 337
#     4  11  24  41  64  84 115 153 192 238 293 348
#     4  10  20  34  58  84 117 154 195 228 285 336
#     4  10  22  42  61  86 118 150 190 240 291 340
#     4   8  17  35  60  83 115 159 190 230 283 336
#
# _framework density 25.314119999999999
#
# number of rings (size 3 to 8) (size 9 to 14) (size 15 to 20)
#    0.857    1.429    0.000    2.571    0.000    5.714 
#    0.000    0.000    0.000    4.286    0.000    0.000 
#    0.000    0.000    0.000    0.000    0.000    0.000 
#
# Total GULP energy -78097.402975 kJ/mol
# GULP energy per Si atom -5578.385927 kJ/mol
# Density = 2.525650 g / cm^3
# Si number density = 25.314120 Si / 1000 Ang^3
#
#
#
# Elastic Constant Matrix: (Units=GPa)
#
#
# Indices 1 2 3 4 5 6 
#
# 1 88.1360 30.8506 -4.8392 15.1712 16.9008 7.9208
# 2 30.8506 122.9134 31.8419 8.9824 11.5901 5.5730
# 3 -4.8392 31.8419 56.1614 -6.2685 -0.7351 3.6970
# 4 15.1712 8.9824 -6.2685 37.3319 0.4908 5.5083
# 5 16.9008 11.5901 -0.7351 0.4908 23.4768 -2.6436
# 6 7.9208 5.5730 3.6970 5.5083 -2.6436 38.5302
#
#
#
# Elastic Compliance Matrix: (Units=1/GPa)
#
#
# Indices 1 2 3 4 5 6 
#
# 1 0.015543 -0.003223 0.002734 -0.004508 -0.009758 -0.003016
# 2 -0.003223 0.011267 -0.006978 -0.002502 -0.003428 -0.000175
# 3 0.002734 -0.006978 0.022695 0.004690 0.001833 -0.002275
# 4 -0.004508 -0.002502 0.004690 0.030442 0.003623 -0.003265
# 5 -0.009758 -0.003428 0.001833 0.003623 0.051898 0.005369
# 6 -0.003016 -0.000175 -0.002275 -0.003265 0.005369 0.027652
#
#
# Mechanical properties :
#
#
# Convention : Reuss Voigt Hill
#
# Bulk Modulus (GPa) = 28.92651 42.54639 35.73645
# Shear Modulus (GPa) = 26.88829 33.82494 30.35662
#
# Velocity S-wave (km/s) = 3.26265 3.65938 3.46670
# Velocity P-wave (km/s) = 5.06409 5.89056 5.49289
#
# Compressibility (1/GPa) = 0.03457037
#
# Stress axis : x y z
#
# Youngs Moduli (GPa) = 64.33905 88.75849 44.06243
#
# Poissons Ratio (x) = 0.28608 -0.12048
# Poissons Ratio (y) = 0.20737 0.30747
# Poissons Ratio (z) = -0.17592 0.61937
#
# Static dielectric constant tensor:
#      x y z
#    x 2.028480 -0.039220 0.021500 
#    y -0.039220 2.115200 0.035730 
#    z 0.021500 0.035730 1.966990 
# 
# From -- ./inp_files/216017.got.cif
#   From: 2010.05.17/outbox.cif.g08.bks.cpg/sg2_109_cif.got.tgz:216017.got - 2010.06.03 11:33:40.
