data_PCOD9088806
_publ_section_title
;
Structure prediction by ZEFSAII (Michael W. Deem and Ramdas Pophale) SiO2 
 PCOD9088806
Probable space group: P -1
;
_chemical_formula_sum "Si O2"
_cell_formula_units_Z 16
_cell_length_a 13.846335
_cell_length_b 10.852462
_cell_length_c 12.938052
_cell_angle_alpha 94.437760
_cell_angle_beta 67.195205
_cell_angle_gamma 151.819475
_cell_volume 672.569590
_symmetry_space_group_name_H-M "P -1"
_symmetry_group_IT_number 2
_symmetry_cell_setting 'triclinic'
loop_
_space_group_symop_operation_xyz
x,y,z
-x,-y,-z
loop_
_atom_site_type_symbol
_atom_site_label
_atom_site_fract_x
_atom_site_fract_y
_atom_site_fract_z
Si Si1 0.782299 0.893999 0.520924
Si Si2 0.591667 0.503287 0.721123
Si Si3 0.196159 0.137782 0.158134
Si Si4 0.538761 0.161345 0.184658
Si Si5 0.422056 0.771810 0.236038
Si Si6 0.954380 0.613333 0.434533
Si Si7 0.645143 0.397319 0.377686
Si Si8 0.355371 0.561841 0.041040
O O1 0.579381 0.565431 0.624643
O O2 0.633478 0.828543 0.505266
O O3 0.077702 0.167105 0.382171
O O4 0.870164 0.069320 0.597057
O O5 0.572589 0.570958 0.831683
O O6 0.448294 0.213656 0.768794
O O7 0.335726 0.163579 0.059507
O O8 0.167706 0.232787 0.109151
O O9 0.895242 0.767784 0.294876
O O10 0.623701 0.312216 0.268839
O O11 0.650723 0.365128 0.056313
O O12 0.611733 0.096341 0.152441
O O13 0.197462 0.792469 0.301952
O O14 0.199365 0.572482 0.403660
O O15 0.306785 0.596331 0.162604
O O16 0.717902 0.378995 0.433678
#
# Coordination Sequence:
#
# PCOD9088806 Si02
#       8
#     2   2   2   2   2   2   2   2
#     4   9  18  33  61  91 124 153 194 248 315 350
#     4   9  17  36  57  88 123 158 193 248 298 359
#     4  10  19  37  63  89 116 157 204 253 307 352
#     4  11  22  40  65  88 120 167 203 243 301 363
#     4  10  22  38  63  89 122 167 202 240 304 360
#     4  10  20  40  64  91 123 156 201 258 298 356
#     4  11  21  36  66  94 120 156 202 253 308 360
#     4  10  21  40  67  85 120 164 203 252 301 360
#
# _framework density 23.789362000000001
#
# number of rings (size 3 to 8) (size 9 to 14) (size 15 to 20)
#    0.000    2.000    2.500    1.500    0.000    1.500 
#    0.000    0.625   11.000    0.000    0.000    0.000 
#    0.000    0.000    0.000    0.000    0.000    0.000 
#
# Total GULP energy -89143.604979 kJ/mol
# GULP energy per Si atom -5571.475311 kJ/mol
# Density = 2.373522 g / cm^3
# Si number density = 23.789362 Si / 1000 Ang^3
#
#
#
# Elastic Constant Matrix: (Units=GPa)
#
#
# Indices 1 2 3 4 5 6 
#
# 1 98.5833 40.9448 27.0919 2.5827 42.0710 -10.4779
# 2 40.9448 50.2531 9.8842 13.4304 17.1203 0.9929
# 3 27.0919 9.8842 67.9647 18.3103 24.7794 4.1479
# 4 2.5827 13.4304 18.3103 26.3287 5.7091 4.0985
# 5 42.0710 17.1203 24.7794 5.7091 36.3694 -10.8530
# 6 -10.4779 0.9929 4.1479 4.0985 -10.8530 38.5845
#
#
#
# Elastic Compliance Matrix: (Units=1/GPa)
#
#
# Indices 1 2 3 4 5 6 
#
# 1 0.028823 -0.018337 -0.003913 0.014435 -0.024196 0.000380
# 2 -0.018337 0.039922 0.008539 -0.023523 -0.001122 -0.004742
# 3 -0.003913 0.008539 0.026274 -0.017539 -0.016714 -0.006945
# 4 0.014435 -0.023523 -0.017539 0.061757 -0.003726 -0.001197
# 5 -0.024196 -0.001122 -0.016714 -0.003726 0.072798 0.016127
# 6 0.000380 -0.004742 -0.006945 -0.001197 0.016127 0.031553
#
#
# Mechanical properties :
#
#
# Convention : Reuss Voigt Hill
#
# Bulk Modulus (GPa) = 14.79319 41.40476 28.09897
# Shear Modulus (GPa) = 16.07298 29.51519 22.79409
#
# Velocity S-wave (km/s) = 2.60212 3.52616 3.09878
# Velocity P-wave (km/s) = 3.90640 5.83275 4.96392
#
# Compressibility (1/GPa) = 0.06759868
#
# Stress axis : x y z
#
# Youngs Moduli (GPa) = 34.69460 25.04853 38.06012
#
# Poissons Ratio (x) = 0.45930 0.14893
# Poissons Ratio (y) = 0.63618 -0.32500
# Poissons Ratio (z) = 0.13576 -0.21389
#
# Static dielectric constant tensor:
#      x y z
#    x 1.963070 -0.035870 0.002080 
#    y -0.035870 1.925810 0.053290 
#    z 0.002080 0.053290 2.030940 
# 
# From -- ./inp_files/531837.got.cif
#   From: 2010.05.17/outbox.cif.g08.bks.cpg/sg2_266_cif.got.tgz:531837.got - 2010.06.03 11:33:40.
