data_PCOD9088726
_publ_section_title
;
Structure prediction by ZEFSAII (Michael W. Deem and Ramdas Pophale) SiO2 
 PCOD9088726
Probable space group: P -1
;
_chemical_formula_sum "Si O2"
_cell_formula_units_Z 16
_cell_length_a 11.037860
_cell_length_b 5.116235
_cell_length_c 14.336695
_cell_angle_alpha 114.916139
_cell_angle_beta 121.536181
_cell_angle_gamma 79.513577
_cell_volume 625.055333
_symmetry_space_group_name_H-M "P -1"
_symmetry_group_IT_number 2
_symmetry_cell_setting 'triclinic'
loop_
_space_group_symop_operation_xyz
x,y,z
-x,-y,-z
loop_
_atom_site_type_symbol
_atom_site_label
_atom_site_fract_x
_atom_site_fract_y
_atom_site_fract_z
Si Si1 0.207125 0.834507 0.495186
Si Si2 0.230974 0.415227 0.041375
Si Si3 0.643778 0.533475 0.342110
Si Si4 0.497717 0.307170 0.877847
Si Si5 0.933447 0.513666 0.279727
Si Si6 0.957597 0.688455 0.893524
Si Si7 0.573992 0.316240 0.580312
Si Si8 0.256950 0.022783 0.828677
O O1 0.282903 0.691105 0.592707
O O2 0.044216 0.717550 0.412167
O O3 0.269912 0.720479 0.404197
O O4 0.251883 0.173536 0.563318
O O5 0.276751 0.129547 0.960601
O O6 0.076820 0.479050 0.947066
O O7 0.342837 0.673245 0.095269
O O8 0.194586 0.389639 0.132128
O O9 0.595864 0.553754 0.218382
O O10 0.487564 0.562929 0.331365
O O11 0.408386 0.025247 0.836471
O O12 0.500000 0.500000 0.000000
O O13 0.020762 0.331386 0.211190
O O14 0.829410 0.726676 0.217597
O O15 0.840102 0.269058 0.259856
O O16 0.000000 0.000000 0.000000
O O17 0.500000 0.500000 0.500000
O O18 0.500000 0.000000 0.500000
#
# Coordination Sequence:
#
# PCOD9088726 Si02
#       8
#     2   2   2   2   2   2   2   2
#     4  10  21  39  62  92 125 169 207 262 325 379
#     4   9  20  40  60  92 131 165 208 262 333 379
#     4  10  21  41  61  91 129 160 217 264 310 386
#     4  10  23  45  68  92 126 176 218 266 323 377
#     4  11  22  39  66  90 131 170 213 265 327 374
#     4  10  19  37  62  98 130 159 210 270 321 396
#     4   8  16  32  54  82 120 154 193 250 305 368
#     4  10  22  42  60  92 128 167 217 270 302 383
#
# _framework density 25.597735
#
# number of rings (size 3 to 8) (size 9 to 14) (size 15 to 20)
#    0.000    2.250    1.250    0.750    1.750    1.000 
#    4.500    9.375    0.000    0.000    0.000    0.000 
#    0.000    0.000    0.000    0.000    0.000    0.000 
#
# Total GULP energy -89336.076486 kJ/mol
# GULP energy per Si atom -5583.504780 kJ/mol
# Density = 2.553947 g / cm^3
# Si number density = 25.597735 Si / 1000 Ang^3
#
#
#
# Elastic Constant Matrix: (Units=GPa)
#
#
# Indices 1 2 3 4 5 6 
#
# 1 155.7562 33.4334 38.8124 5.0644 2.9028 54.5708
# 2 33.4334 136.1186 4.3975 10.2521 5.3991 34.8899
# 3 38.8124 4.3975 87.8691 1.0186 -7.9182 20.1555
# 4 5.0644 10.2521 1.0186 24.6396 20.5329 3.8303
# 5 2.9028 5.3991 -7.9182 20.5329 43.0298 9.8131
# 6 54.5708 34.8899 20.1555 3.8303 9.8131 50.4713
#
#
#
# Elastic Compliance Matrix: (Units=1/GPa)
#
#
# Indices 1 2 3 4 5 6 
#
# 1 0.010952 0.000507 -0.001848 -0.003058 0.003009 -0.011807
# 2 0.000507 0.009535 0.001550 -0.006019 0.003759 -0.008033
# 3 -0.001848 0.001550 0.013998 -0.005182 0.006229 -0.005481
# 4 -0.003058 -0.006019 -0.005182 0.073571 -0.037671 0.011278
# 5 0.003009 0.003759 0.006229 -0.037671 0.044929 -0.014216
# 6 -0.011807 -0.008033 -0.005481 0.011278 -0.014216 0.042229
#
#
# Mechanical properties :
#
#
# Convention : Reuss Voigt Hill
#
# Bulk Modulus (GPa) = 28.65103 59.22561 43.93832
# Shear Modulus (GPa) = 24.22117 43.83486 34.02801
#
# Velocity S-wave (km/s) = 3.07941 4.14267 3.64996
# Velocity P-wave (km/s) = 4.88475 6.78745 5.91313
#
# Compressibility (1/GPa) = 0.03490276
#
# Stress axis : x y z
#
# Youngs Moduli (GPa) = 91.30705 104.87575 71.43926
#
# Poissons Ratio (x) = -0.05317 0.13202
# Poissons Ratio (y) = -0.04629 -0.11072
# Poissons Ratio (z) = 0.16874 -0.16254
#
# Static dielectric constant tensor:
#      x y z
#    x 2.431070 -0.325070 -0.437680 
#    y -0.325070 2.380260 0.501160 
#    z -0.437680 0.501160 2.573800 
# 
# From -- ./inp_files/511101.got.cif
#   From: 2010.05.17/outbox.cif.g08.bks.cpg/sg2_256_cif.got.tgz:511101.got - 2010.06.03 11:33:40.
