data_PCOD9088057
_publ_section_title
;
Structure prediction by ZEFSAII (Michael W. Deem and Ramdas Pophale) SiO2 
 PCOD9088057
Probable space group: P -1
;
_chemical_formula_sum "Si O2"
_cell_formula_units_Z 16
_cell_length_a 12.022628
_cell_length_b 11.338934
_cell_length_c 12.873310
_cell_angle_alpha 43.895838
_cell_angle_beta 57.754181
_cell_angle_gamma 41.747816
_cell_volume 810.169049
_symmetry_space_group_name_H-M "P -1"
_symmetry_group_IT_number 2
_symmetry_cell_setting 'triclinic'
loop_
_space_group_symop_operation_xyz
x,y,z
-x,-y,-z
loop_
_atom_site_type_symbol
_atom_site_label
_atom_site_fract_x
_atom_site_fract_y
_atom_site_fract_z
Si Si1 0.322549 0.767853 0.823728
Si Si2 0.692614 0.515446 0.825216
Si Si3 0.376807 0.541831 0.731773
Si Si4 0.231125 0.294766 0.931159
Si Si5 0.273791 0.884193 0.181359
Si Si6 0.134997 0.367927 0.176400
Si Si7 0.974574 0.118082 0.829266
Si Si8 0.179354 0.946323 0.430348
O O1 0.300549 0.657461 0.807259
O O2 0.316607 0.734650 0.561165
O O3 0.325715 0.651474 0.000478
O O4 0.158090 0.015578 0.759186
O O5 0.504741 0.708047 0.759707
O O6 0.761548 0.589725 0.829508
O O7 0.838588 0.372968 0.757878
O O8 0.319266 0.405315 0.801505
O O9 0.573295 0.361266 0.764377
O O10 0.060410 0.430773 0.863872
O O11 0.193311 0.325607 0.054036
O O12 0.317443 0.044089 0.026913
O O13 0.111339 0.949031 0.161438
O O14 0.233003 0.906439 0.308952
O O15 0.158538 0.158210 0.338608
O O16 0.000000 0.000000 0.000000
O O17 0.000000 0.000000 0.500000
#
# Coordination Sequence:
#
# PCOD9088057 Si02
#       8
#     2   2   2   2   2   2   2   2
#     4  10  20  34  60  89 121 158 202 248 309 357
#     4  10  19  37  58  89 121 155 201 258 297 360
#     4  12  21  39  60  92 126 162 200 249 312 369
#     4  10  20  34  61  91 119 152 199 265 305 354
#     4  11  23  38  59  94 125 154 207 255 304 370
#     4  10  20  37  60  91 119 155 209 249 305 361
#     4  10  20  34  59  90 120 160 200 249 307 356
#     4  11  23  40  62  85 122 169 200 246 310 370
#
# _framework density 19.748964999999998
#
# number of rings (size 3 to 8) (size 9 to 14) (size 15 to 20)
#    0.000    1.500    3.750    3.000    1.750    0.000 
#    0.000    0.625    0.000    1.500    0.000    0.000 
#    0.000    0.000    0.000    0.000    0.000    0.000 
#
# Total GULP energy -89242.545343 kJ/mol
# GULP energy per Si atom -5577.659084 kJ/mol
# Density = 1.970402 g / cm^3
# Si number density = 19.748965 Si / 1000 Ang^3
#
#
#
# Elastic Constant Matrix: (Units=GPa)
#
#
# Indices 1 2 3 4 5 6 
#
# 1 103.2650 41.8829 12.1111 -16.0924 4.6822 -18.5469
# 2 41.8829 127.2729 23.3613 -10.6367 3.8799 -22.0881
# 3 12.1111 23.3613 60.7520 -21.6370 3.1831 -5.6608
# 4 -16.0924 -10.6367 -21.6370 25.0708 -0.2024 4.8989
# 5 4.6822 3.8799 3.1831 -0.2024 22.4787 2.3941
# 6 -18.5469 -22.0881 -5.6608 4.8989 2.3941 20.4615
#
#
#
# Elastic Compliance Matrix: (Units=1/GPa)
#
#
# Indices 1 2 3 4 5 6 
#
# 1 0.013334 -0.002542 0.001956 0.007480 -0.003453 0.008496
# 2 -0.002542 0.010784 -0.003302 -0.001688 -0.001843 0.009044
# 3 0.001956 -0.003302 0.025208 0.021502 -0.003258 0.000415
# 4 0.007480 -0.001688 0.021502 0.063254 -0.003332 -0.003848
# 5 -0.003453 -0.001843 -0.003258 -0.003332 0.047098 -0.010734
# 6 0.008496 0.009044 0.000415 -0.003848 -0.010734 0.068628
#
#
# Mechanical properties :
#
#
# Convention : Reuss Voigt Hill
#
# Bulk Modulus (GPa) = 24.06775 49.55561 36.81168
# Shear Modulus (GPa) = 20.00540 27.86451 23.93496
#
# Velocity S-wave (km/s) = 3.18620 3.76032 3.48510
# Velocity P-wave (km/s) = 5.07436 6.63329 5.90549
#
# Compressibility (1/GPa) = 0.04154938
#
# Stress axis : x y z
#
# Youngs Moduli (GPa) = 74.99858 92.72646 39.67053
#
# Poissons Ratio (x) = 0.23570 -0.07760
# Poissons Ratio (y) = 0.19064 0.13100
# Poissons Ratio (z) = -0.14670 0.30620
#
# Static dielectric constant tensor:
#      x y z
#    x 1.707630 -0.023570 -0.002690 
#    y -0.023570 1.762510 0.005320 
#    z -0.002690 0.005320 1.663410 
# 
# From -- ./inp_files/424938.got.cif
#   From: 2010.05.17/outbox.cif.g08.bks.cpg/sg2_213_cif.got.tgz:424938.got - 2010.06.03 11:33:40.
