data_PCOD9088734
_publ_section_title
;
Structure prediction by ZEFSAII (Michael W. Deem and Ramdas Pophale) SiO2 
 PCOD9088734
Probable space group: P -1
;
_chemical_formula_sum "Si O2"
_cell_formula_units_Z 16
_cell_length_a 16.911363
_cell_length_b 10.145331
_cell_length_c 9.028848
_cell_angle_alpha 130.560647
_cell_angle_beta 48.297221
_cell_angle_gamma 99.670120
_cell_volume 777.183576
_symmetry_space_group_name_H-M "P -1"
_symmetry_group_IT_number 2
_symmetry_cell_setting 'triclinic'
loop_
_space_group_symop_operation_xyz
x,y,z
-x,-y,-z
loop_
_atom_site_type_symbol
_atom_site_label
_atom_site_fract_x
_atom_site_fract_y
_atom_site_fract_z
Si Si1 0.505360 0.992698 0.666401
Si Si2 0.766377 0.805999 0.350428
Si Si3 0.520701 0.598099 0.899852
Si Si4 0.732937 0.193421 0.797050
Si Si5 0.124673 0.494527 0.779589
Si Si6 0.932710 0.219677 0.692263
Si Si7 0.593710 0.313184 0.344955
Si Si8 0.996395 0.504997 0.333613
O O1 0.641102 0.888074 0.483265
O O2 0.452164 0.845559 0.672899
O O3 0.500000 0.000000 0.500000
O O4 0.453279 0.218143 0.959528
O O5 0.768887 0.699650 0.425345
O O6 0.792566 0.981347 0.494199
O O7 0.873477 0.654097 0.004621
O O8 0.608882 0.423556 0.552161
O O9 0.500000 0.500000 0.000000
O O10 0.391483 0.689339 0.046328
O O11 0.828746 0.272394 0.739214
O O12 0.701289 0.195714 0.011314
O O13 0.104376 0.525675 0.653428
O O14 0.125401 0.664206 0.000148
O O15 0.000000 0.500000 0.000000
O O16 0.021968 0.287692 0.555670
O O17 0.000000 0.000000 0.500000
O O18 0.500000 0.500000 0.500000
O O19 0.000000 0.500000 0.500000
#
# Coordination Sequence:
#
# PCOD9088734 Si02
#       8
#     2   2   2   2   2   2   2   2
#     4  11  22  40  64  90 126 175 198 251 323 346
#     4   9  20  38  62  83 122 159 201 242 304 372
#     4  10  21  38  61  88 130 160 204 257 302 364
#     4  10  21  38  60  88 115 159 203 246 304 352
#     4   8  17  34  58  83 112 151 189 236 297 359
#     4  10  19  37  63  82 116 155 191 244 305 358
#     4  10  23  38  62  89 126 154 218 250 294 371
#     4  10  21  39  62  89 118 150 200 251 300 361
#
# _framework density 20.587156
#
# number of rings (size 3 to 8) (size 9 to 14) (size 15 to 20)
#    0.000    2.500    1.250    2.250    7.000    4.500 
#    4.500    3.750    0.000    0.000    0.000    0.000 
#    0.000    0.000    0.000    0.000    0.000    0.000 
#
# Total GULP energy -89068.953670 kJ/mol
# GULP energy per Si atom -5566.809604 kJ/mol
# Density = 2.054030 g / cm^3
# Si number density = 20.587156 Si / 1000 Ang^3
#
#
#
# Elastic Constant Matrix: (Units=GPa)
#
#
# Indices 1 2 3 4 5 6 
#
# 1 107.6376 30.5718 28.0492 4.8850 33.5478 -14.9649
# 2 30.5718 95.3898 36.5463 7.7163 21.7205 -14.0961
# 3 28.0492 36.5463 78.9157 9.9359 27.3756 -5.0984
# 4 4.8850 7.7163 9.9359 28.5989 0.6737 12.3690
# 5 33.5478 21.7205 27.3756 0.6737 32.9725 -2.8640
# 6 -14.9649 -14.0961 -5.0984 12.3690 -2.8640 35.9796
#
#
#
# Elastic Compliance Matrix: (Units=1/GPa)
#
#
# Indices 1 2 3 4 5 6 
#
# 1 0.015117 -0.000315 0.001335 -0.005646 -0.015553 0.007056
# 2 -0.000315 0.014643 -0.003626 -0.005300 -0.005645 0.006465
# 3 0.001335 -0.003626 0.020387 -0.007414 -0.015454 0.003342
# 4 -0.005646 -0.005300 -0.007414 0.048839 0.012546 -0.021267
# 5 -0.015553 -0.005645 -0.015454 0.012546 0.061552 -0.010284
# 6 0.007056 0.006465 0.003342 -0.021267 -0.010284 0.040227
#
#
# Mechanical properties :
#
#
# Convention : Reuss Voigt Hill
#
# Bulk Modulus (GPa) = 22.25495 52.47528 37.36512
# Shear Modulus (GPa) = 22.62898 31.96191 27.29545
#
# Velocity S-wave (km/s) = 3.31898 3.94447 3.64517
# Velocity P-wave (km/s) = 5.05184 6.80366 5.99212
#
# Compressibility (1/GPa) = 0.04493383
#
# Stress axis : x y z
#
# Youngs Moduli (GPa) = 66.15147 68.29217 49.05121
#
# Poissons Ratio (x) = 0.02155 -0.06549
# Poissons Ratio (y) = 0.02087 0.17786
# Poissons Ratio (z) = -0.08832 0.24763
#
# Static dielectric constant tensor:
#      x y z
#    x 1.821320 0.032280 0.023790 
#    y 0.032280 1.737860 0.006550 
#    z 0.023790 0.006550 1.781240 
# 
# From -- ./inp_files/327966.got.cif
#   From: 2010.05.17/outbox.cif.g08.bks.cpg/sg2_164_cif.got.tgz:327966.got - 2010.06.03 11:33:40.
