data_PCOD9088986
_publ_section_title
;
Structure prediction by ZEFSAII (Michael W. Deem and Ramdas Pophale) SiO2 
 PCOD9088986
Probable space group: P -1
;
_chemical_formula_sum "Si O2"
_cell_formula_units_Z 16
_cell_length_a 8.814375
_cell_length_b 11.996763
_cell_length_c 12.064640
_cell_angle_alpha 141.403320
_cell_angle_beta 64.635459
_cell_angle_gamma 106.762869
_cell_volume 716.704524
_symmetry_space_group_name_H-M "P -1"
_symmetry_group_IT_number 2
_symmetry_cell_setting 'triclinic'
loop_
_space_group_symop_operation_xyz
x,y,z
-x,-y,-z
loop_
_atom_site_type_symbol
_atom_site_label
_atom_site_fract_x
_atom_site_fract_y
_atom_site_fract_z
Si Si1 0.556881 0.359187 0.696168
Si Si2 0.533443 0.001994 0.804199
Si Si3 0.413293 0.280527 0.898212
Si Si4 0.775658 0.784071 0.429309
Si Si5 0.183847 0.561455 0.505875
Si Si6 0.484013 0.278864 0.233216
Si Si7 0.183743 0.581623 0.762875
Si Si8 0.936390 0.680229 0.092277
O O1 0.550739 0.258536 0.738976
O O2 0.394817 0.289696 0.629781
O O3 0.719595 0.348138 0.555358
O O4 0.540102 0.565160 0.909382
O O5 0.712647 0.954796 0.653330
O O6 0.494676 0.816958 0.729716
O O7 0.412284 0.096621 0.823394
O O8 0.528524 0.135914 0.012537
O O9 0.233193 0.336919 0.940966
O O10 0.858788 0.621449 0.353623
O O11 0.888835 0.817094 0.312841
O O12 0.303259 0.380541 0.353224
O O13 0.159228 0.658334 0.707333
O O14 0.000000 0.500000 0.500000
O O15 0.617193 0.422858 0.289789
O O16 0.083345 0.706903 0.980646
O O17 0.000000 0.500000 0.000000
#
# Coordination Sequence:
#
# PCOD9088986 Si02
#       8
#     2   2   2   2   2   2   2   2
#     4  10  20  36  61  93 111 155 211 245 288 355
#     4  11  22  38  65  87 126 162 195 245 309 371
#     4  10  20  38  63  88 123 158 199 253 304 352
#     4  10  19  37  64  91 117 160 203 245 300 358
#     4  12  22  36  65  96 119 150 210 262 293 348
#     4  11  23  40  64  91 122 163 202 244 306 368
#     4  11  20  39  65  88 117 161 210 252 290 353
#     4   9  21  36  60  93 121 153 207 259 295 342
#
# _framework density 22.324400000000001
#
# number of rings (size 3 to 8) (size 9 to 14) (size 15 to 20)
#    0.000    1.500    3.750    1.875    0.000    2.000 
#    0.000    1.250   11.000    0.000    0.000    0.000 
#    0.000    0.000    0.000    0.000    0.000    0.000 
#
# Total GULP energy -89140.717840 kJ/mol
# GULP energy per Si atom -5571.294865 kJ/mol
# Density = 2.227359 g / cm^3
# Si number density = 22.324400 Si / 1000 Ang^3
#
#
#
# Elastic Constant Matrix: (Units=GPa)
#
#
# Indices 1 2 3 4 5 6 
#
# 1 66.6006 36.3091 14.1861 -15.4097 -19.8828 -3.8363
# 2 36.3091 107.0038 53.6007 -32.0897 -7.7766 -18.2737
# 3 14.1861 53.6007 113.2265 -52.5049 -10.7580 -4.0767
# 4 -15.4097 -32.0897 -52.5049 50.1898 -0.2889 -2.2727
# 5 -19.8828 -7.7766 -10.7580 -0.2889 24.4926 -4.9883
# 6 -3.8363 -18.2737 -4.0767 -2.2727 -4.9883 18.8345
#
#
#
# Elastic Compliance Matrix: (Units=1/GPa)
#
#
# Indices 1 2 3 4 5 6 
#
# 1 0.029055 -0.005776 0.009703 0.016084 0.028636 0.011939
# 2 -0.005776 0.018559 -0.004035 0.006685 0.003090 0.017581
# 3 0.009703 -0.004035 0.023896 0.026036 0.019763 0.011609
# 4 0.016084 0.006685 0.026036 0.057985 0.033676 0.031313
# 5 0.028636 0.003090 0.019763 0.033676 0.082057 0.038905
# 6 0.011939 0.017581 0.011609 0.031313 0.038905 0.089178
#
#
# Mechanical properties :
#
#
# Convention : Reuss Voigt Hill
#
# Bulk Modulus (GPa) = 14.02687 55.00252 34.51470
# Shear Modulus (GPa) = 15.39828 30.88573 23.14201
#
# Velocity S-wave (km/s) = 2.62916 3.72357 3.22316
# Velocity P-wave (km/s) = 3.93872 6.57100 5.41717
#
# Compressibility (1/GPa) = 0.07129174
#
# Stress axis : x y z
#
# Youngs Moduli (GPa) = 34.41743 53.88318 41.84874
#
# Poissons Ratio (x) = 0.31124 -0.40605
# Poissons Ratio (y) = 0.19880 0.16888
# Poissons Ratio (z) = -0.33395 0.21744
#
# Static dielectric constant tensor:
#      x y z
#    x 1.891170 -0.003110 0.032950 
#    y -0.003110 1.862160 -0.024300 
#    z 0.032950 -0.024300 1.869730 
# 
# From -- ./inp_files/243041.got.cif
#   From: 2010.05.17/outbox.cif.g08.bks.cpg/sg2_122_cif.got.tgz:243041.got - 2010.06.03 11:33:40.
