data_PCOD9088408
_publ_section_title
;
Structure prediction by ZEFSAII (Michael W. Deem and Ramdas Pophale) SiO2 
 PCOD9088408
Probable space group: P -1
;
_chemical_formula_sum "Si O2"
_cell_formula_units_Z 16
_cell_length_a 8.928544
_cell_length_b 10.075683
_cell_length_c 15.086804
_cell_angle_alpha 109.274948
_cell_angle_beta 49.928683
_cell_angle_gamma 75.455992
_cell_volume 751.810976
_symmetry_space_group_name_H-M "P -1"
_symmetry_group_IT_number 2
_symmetry_cell_setting 'triclinic'
loop_
_space_group_symop_operation_xyz
x,y,z
-x,-y,-z
loop_
_atom_site_type_symbol
_atom_site_label
_atom_site_fract_x
_atom_site_fract_y
_atom_site_fract_z
Si Si1 0.574698 0.510596 0.874583
Si Si2 0.572359 0.108753 0.943864
Si Si3 0.657280 0.891748 0.279166
Si Si4 0.178870 0.168801 0.978497
Si Si5 0.862591 0.785604 0.361567
Si Si6 0.383732 0.397357 0.573755
Si Si7 0.098139 0.811453 0.743297
Si Si8 0.668935 0.555665 0.203727
O O1 0.427850 0.494880 0.850764
O O2 0.869651 0.328724 0.717785
O O3 0.500000 0.500000 0.000000
O O4 0.521675 0.702915 0.934110
O O5 0.407906 0.156582 0.929124
O O6 0.880167 0.962017 0.791415
O O7 0.500000 0.000000 0.000000
O O8 0.721253 0.942158 0.175399
O O9 0.846520 0.841847 0.277622
O O10 0.675588 0.716564 0.214512
O O11 0.372386 0.040794 0.457593
O O12 0.051318 0.124326 0.091022
O O13 0.948211 0.374960 0.083956
O O14 0.793498 0.653426 0.354333
O O15 0.205764 0.601305 0.646029
O O16 0.628696 0.241609 0.387927
O O17 0.480852 0.396228 0.634900
#
# Coordination Sequence:
#
# PCOD9088408 Si02
#       8
#     2   2   2   2   2   2   2   2
#     4  12  24  38  61  93 123 153 200 255 302 352
#     4  10  21  39  62  86 119 159 197 243 298 358
#     4  10  20  37  59  84 116 158 198 239 299 363
#     4  10  19  37  61  85 116 156 199 245 296 351
#     4  10  22  38  59  85 119 160 197 243 304 359
#     4   9  19  40  61  83 119 159 198 244 298 355
#     4   9  19  36  62  86 113 155 201 246 292 348
#     4  10  21  35  58  87 120 154 194 247 300 354
#
# _framework density 21.281945
#
# number of rings (size 3 to 8) (size 9 to 14) (size 15 to 20)
#    0.000    2.000    0.000    4.875    0.000    5.500 
#    0.000   13.750    0.000   13.500    0.000    0.000 
#    0.000    0.000    0.000    0.000    0.000    0.000 
#
# Total GULP energy -89232.453483 kJ/mol
# GULP energy per Si atom -5577.028343 kJ/mol
# Density = 2.123351 g / cm^3
# Si number density = 21.281945 Si / 1000 Ang^3
#
#
#
# Elastic Constant Matrix: (Units=GPa)
#
#
# Indices 1 2 3 4 5 6 
#
# 1 67.1020 47.8277 50.5090 6.7571 -2.6103 -28.9010
# 2 47.8277 62.8704 30.0106 6.3564 5.2707 -13.4644
# 3 50.5090 30.0106 98.3432 -9.2567 3.4000 -25.2579
# 4 6.7571 6.3564 -9.2567 36.4809 -6.9258 -4.1431
# 5 -2.6103 5.2707 3.4000 -6.9258 36.5631 9.0168
# 6 -28.9010 -13.4644 -25.2579 -4.1431 9.0168 31.1497
#
#
#
# Elastic Compliance Matrix: (Units=1/GPa)
#
#
# Indices 1 2 3 4 5 6 
#
# 1 0.067493 -0.036397 -0.015847 -0.006034 0.002369 0.032550
# 2 -0.036397 0.040075 0.003347 -0.001928 -0.006032 -0.012244
# 3 -0.015847 0.003347 0.019099 0.007080 -0.003049 0.004055
# 4 -0.006034 -0.001928 0.007080 0.031797 0.004673 0.002186
# 5 0.002369 -0.006032 -0.003049 0.004673 0.032430 -0.011648
# 6 0.032550 -0.012244 0.004055 0.002186 -0.011648 0.063961
#
#
# Mechanical properties :
#
#
# Convention : Reuss Voigt Hill
#
# Bulk Modulus (GPa) = 34.63562 53.89003 44.26283
# Shear Modulus (GPa) = 13.80171 27.50329 20.65250
#
# Velocity S-wave (km/s) = 2.54936 3.59880 3.11854
# Velocity P-wave (km/s) = 4.99756 6.53034 5.81468
#
# Compressibility (1/GPa) = 0.02887201
#
# Stress axis : x y z
#
# Youngs Moduli (GPa) = 14.81644 24.95305 52.35743
#
# Poissons Ratio (x) = 0.90822 0.82972
# Poissons Ratio (y) = 0.53928 -0.17522
# Poissons Ratio (z) = 0.23480 -0.08351
#
# Static dielectric constant tensor:
#      x y z
#    x 1.784580 0.001120 0.007380 
#    y 0.001120 1.853560 -0.051390 
#    z 0.007380 -0.051390 1.831710 
# 
# From -- ./inp_files/500675.got.cif
#   From: 2010.05.17/outbox.cif.g08.bks.cpg/sg2_251_cif.got.tgz:500675.got - 2010.06.03 11:33:40.
