data_PCOD9088028
_publ_section_title
;
Structure prediction by ZEFSAII (Michael W. Deem and Ramdas Pophale) SiO2 
 PCOD9088028
Probable space group: P -1
;
_chemical_formula_sum "Si O2"
_cell_formula_units_Z 16
_cell_length_a 10.942459
_cell_length_b 12.127612
_cell_length_c 5.397812
_cell_angle_alpha 73.813433
_cell_angle_beta 76.131766
_cell_angle_gamma 85.881174
_cell_volume 667.862831
_symmetry_space_group_name_H-M "P -1"
_symmetry_group_IT_number 2
_symmetry_cell_setting 'triclinic'
loop_
_space_group_symop_operation_xyz
x,y,z
-x,-y,-z
loop_
_atom_site_type_symbol
_atom_site_label
_atom_site_fract_x
_atom_site_fract_y
_atom_site_fract_z
Si Si1 0.940844 0.788384 0.154520
Si Si2 0.659440 0.163027 0.685490
Si Si3 0.459508 0.792614 0.785046
Si Si4 0.241422 0.571417 0.542162
Si Si5 0.004903 0.324644 0.299501
Si Si6 0.640043 0.456149 0.001697
Si Si7 0.130619 0.030213 0.287359
Si Si8 0.751074 0.749478 0.629325
O O1 0.801566 0.742819 0.326462
O O2 0.010521 0.758522 0.397584
O O3 0.908333 0.914414 0.991861
O O4 0.015288 0.730197 0.926790
O O5 0.582025 0.141265 0.483703
O O6 0.712482 0.294378 0.568919
O O7 0.774575 0.075242 0.707245
O O8 0.569932 0.148234 0.976834
O O9 0.370932 0.681430 0.900421
O O10 0.603027 0.748650 0.726340
O O11 0.092475 0.573940 0.668608
O O12 0.312439 0.511367 0.771198
O O13 0.278757 0.518215 0.296376
O O14 0.155289 0.339831 0.222446
O O15 0.500000 0.500000 0.000000
O O16 0.200911 0.130298 0.347306
O O17 0.000000 0.000000 0.500000
#
# Coordination Sequence:
#
# PCOD9088028 Si02
#       8
#     2   2   2   2   2   2   2   2
#     4   9  20  34  51  80 105 149 188 221 274 310
#     4  10  23  35  54  82 110 150 188 232 271 323
#     4  10  23  39  58  80 112 147 187 221 281 342
#     4  10  19  37  58  86 113 140 182 227 280 331
#     4   9  18  34  57  80 107 143 186 226 269 323
#     4  10  21  38  62  88 112 140 177 228 283 337
#     4  11  23  38  55  81 114 148 196 240 274 309
#     4   9  22  37  56  78 113 154 190 222 276 321
#
# _framework density 23.957015999999999
#
# number of rings (size 3 to 8) (size 9 to 14) (size 15 to 20)
#    0.750    1.500    0.000    2.625    5.250    3.500 
#    0.000    0.000    0.000    1.500    0.000    0.000 
#    0.000    0.000    0.000    0.000    0.000    0.000 
#
# Total GULP energy -89272.252804 kJ/mol
# GULP energy per Si atom -5579.515800 kJ/mol
# Density = 2.390249 g / cm^3
# Si number density = 23.957016 Si / 1000 Ang^3
#
#
#
# Elastic Constant Matrix: (Units=GPa)
#
#
# Indices 1 2 3 4 5 6 
#
# 1 88.3298 26.3221 53.8362 13.0894 -6.2591 -15.2908
# 2 26.3221 41.6744 32.6504 16.6967 10.4247 -8.8975
# 3 53.8362 32.6504 166.7959 30.8589 15.8472 -6.1584
# 4 13.0894 16.6967 30.8589 35.3068 -7.3115 -11.4570
# 5 -6.2591 10.4247 15.8472 -7.3115 38.5357 6.0877
# 6 -15.2908 -8.8975 -6.1584 -11.4570 6.0877 44.7238
#
#
#
# Elastic Compliance Matrix: (Units=1/GPa)
#
#
# Indices 1 2 3 4 5 6 
#
# 1 0.018469 -0.011305 -0.005682 0.006549 0.009048 0.003729
# 2 -0.011305 0.043669 0.000596 -0.019990 -0.018041 0.002239
# 3 -0.005682 0.000596 0.009885 -0.008756 -0.006523 -0.001818
# 4 0.006549 -0.019990 -0.008756 0.049103 0.018259 0.007150
# 5 0.009048 -0.018041 -0.006523 0.018259 0.038762 -0.001993
# 6 0.003729 0.002239 -0.001818 0.007150 -0.001993 0.025932
#
#
# Mechanical properties :
#
#
# Convention : Reuss Voigt Hill
#
# Bulk Modulus (GPa) = 25.48305 58.04636 41.76470
# Shear Modulus (GPa) = 21.58110 35.97936 28.78023
#
# Velocity S-wave (km/s) = 3.00463 3.87955 3.46978
# Velocity P-wave (km/s) = 4.76415 6.65957 5.78995
#
# Compressibility (1/GPa) = 0.03924177
#
# Stress axis : x y z
#
# Youngs Moduli (GPa) = 54.14364 22.89942 101.16042
#
# Poissons Ratio (x) = 0.25887 0.57479
# Poissons Ratio (y) = 0.61209 -0.06027
# Poissons Ratio (z) = 0.30764 -0.01364
#
# Static dielectric constant tensor:
#      x y z
#    x 1.895890 0.047220 0.005440 
#    y 0.047220 1.957330 -0.035930 
#    z 0.005440 -0.035930 1.934460 
# 
# From -- ./inp_files/77302.got.cif
#   From: 2010.05.17/outbox.cif.g08.bks.cpg/sg2_39_cif.got.tgz:77302.got - 2010.06.03 11:33:40.
