data_PCOD9088880
_publ_section_title
;
Structure prediction by ZEFSAII (Michael W. Deem and Ramdas Pophale) SiO2 
 PCOD9088880
Probable space group: P -1
;
_chemical_formula_sum "Si O2"
_cell_formula_units_Z 16
_cell_length_a 9.643858
_cell_length_b 18.736151
_cell_length_c 6.897345
_cell_angle_alpha 96.898351
_cell_angle_beta 67.708520
_cell_angle_gamma 42.061477
_cell_volume 588.322048
_symmetry_space_group_name_H-M "P -1"
_symmetry_group_IT_number 2
_symmetry_cell_setting 'triclinic'
loop_
_space_group_symop_operation_xyz
x,y,z
-x,-y,-z
loop_
_atom_site_type_symbol
_atom_site_label
_atom_site_fract_x
_atom_site_fract_y
_atom_site_fract_z
Si Si1 0.150815 0.815734 0.312079
Si Si2 0.587552 0.588771 0.251782
Si Si3 0.041454 0.188854 0.155748
Si Si4 0.281054 0.617223 0.956047
Si Si5 0.530644 0.088081 0.844915
Si Si6 0.224583 0.489854 0.463850
Si Si7 0.419440 0.258263 0.239858
Si Si8 0.277563 0.964384 0.684871
O O1 0.456495 0.704778 0.222179
O O2 0.175407 0.723757 0.189438
O O3 0.870062 0.926369 0.642945
O O4 0.015568 0.924925 0.255606
O O5 0.696504 0.475488 0.034086
O O6 0.808679 0.509255 0.285985
O O7 0.277746 0.696759 0.552062
O O8 0.295254 0.134838 0.090548
O O9 0.190809 0.061603 0.915613
O O10 0.935392 0.287901 0.075603
O O11 0.598281 0.511240 0.674562
O O12 0.514004 0.095791 0.621084
O O13 0.503020 0.176532 0.984569
O O14 0.441592 0.335004 0.244720
O O15 0.933111 0.606013 0.531788
O O16 0.584511 0.157347 0.306392
#
# Coordination Sequence:
#
# PCOD9088880 Si02
#       8
#     2   2   2   2   2   2   2   2
#     4   9  22  38  57  97 130 154 207 245 306 378
#     4  11  20  39  66  91 126 167 197 256 319 356
#     4  10  19  37  63  93 129 155 210 253 304 369
#     4  10  20  39  60  92 129 160 202 256 312 365
#     4  10  21  40  64  95 124 164 199 257 307 359
#     4  10  24  42  64  90 118 164 215 252 298 379
#     4  11  22  46  65  87 123 165 212 252 306 359
#     4   9  22  39  61  93 128 156 205 255 302 363
#
# _framework density 27.195990999999999
#
# number of rings (size 3 to 8) (size 9 to 14) (size 15 to 20)
#    0.750    1.250    0.000    4.500    0.000    3.000 
#    6.750   12.500    0.000    0.000    0.000    0.000 
#    0.000    0.000    0.000    0.000    0.000    0.000 
#
# Total GULP energy -89327.932221 kJ/mol
# GULP energy per Si atom -5582.995764 kJ/mol
# Density = 2.713409 g / cm^3
# Si number density = 27.195991 Si / 1000 Ang^3
#
#
#
# Elastic Constant Matrix: (Units=GPa)
#
#
# Indices 1 2 3 4 5 6 
#
# 1 77.7071 9.4126 10.5771 1.1568 1.9440 1.0685
# 2 9.4126 121.5220 7.1029 16.8418 -2.7367 -18.9241
# 3 10.5771 7.1029 89.1504 5.5616 18.2723 8.5135
# 4 1.1568 16.8418 5.5616 44.4775 -3.4352 3.3783
# 5 1.9440 -2.7367 18.2723 -3.4352 34.2265 5.5712
# 6 1.0685 -18.9241 8.5135 3.3783 5.5712 34.0910
#
#
#
# Elastic Compliance Matrix: (Units=1/GPa)
#
#
# Indices 1 2 3 4 5 6 
#
# 1 0.013201 -0.001088 -0.001449 0.000309 0.000082 -0.000700
# 2 -0.001088 0.009897 -0.000989 -0.004068 -0.000033 0.006184
# 3 -0.001449 -0.000989 0.013199 -0.001570 -0.006788 -0.002535
# 4 0.000309 -0.004068 -0.001570 0.024882 0.003800 -0.004963
# 5 0.000082 -0.000033 -0.006788 0.003800 0.033906 -0.004243
# 6 -0.000700 0.006184 -0.002535 -0.004963 -0.004243 0.034606
#
#
# Mechanical properties :
#
#
# Convention : Reuss Voigt Hill
#
# Bulk Modulus (GPa) = 34.19369 38.06275 36.12822
# Shear Modulus (GPa) = 34.13172 39.97812 37.05492
#
# Velocity S-wave (km/s) = 3.54648 3.83822 3.69523
# Velocity P-wave (km/s) = 5.41945 5.80247 5.61423
#
# Compressibility (1/GPa) = 0.02924516
#
# Stress axis : x y z
#
# Youngs Moduli (GPa) = 75.75318 101.04062 75.76299
#
# Poissons Ratio (x) = 0.10991 0.10976
# Poissons Ratio (y) = 0.08240 0.07496
# Poissons Ratio (z) = 0.10974 0.09996
#
# Static dielectric constant tensor:
#      x y z
#    x 2.059970 -0.033210 -0.017030 
#    y -0.033210 2.366350 -0.164840 
#    z -0.017030 -0.164840 2.225780 
# 
# From -- ./inp_files/282006.got.cif
#   From: 2010.05.17/outbox.cif.g08.bks.cpg/sg2_142_cif.got.tgz:282006.got - 2010.06.03 11:33:40.
