data_PCOD9088754
_publ_section_title
;
Structure prediction by ZEFSAII (Michael W. Deem and Ramdas Pophale) SiO2 
 PCOD9088754
Probable space group: P -1
;
_chemical_formula_sum "Si O2"
_cell_formula_units_Z 16
_cell_length_a 5.201063
_cell_length_b 19.869806
_cell_length_c 10.350402
_cell_angle_alpha 44.425652
_cell_angle_beta 65.401270
_cell_angle_gamma 66.501499
_cell_volume 672.083520
_symmetry_space_group_name_H-M "P -1"
_symmetry_group_IT_number 2
_symmetry_cell_setting 'triclinic'
loop_
_space_group_symop_operation_xyz
x,y,z
-x,-y,-z
loop_
_atom_site_type_symbol
_atom_site_label
_atom_site_fract_x
_atom_site_fract_y
_atom_site_fract_z
Si Si1 0.796060 0.892253 0.453236
Si Si2 0.006850 0.203630 0.705950
Si Si3 0.200840 0.033903 0.086549
Si Si4 0.355819 0.302359 0.704459
Si Si5 0.248771 0.061471 0.323236
Si Si6 0.887691 0.618718 0.116376
Si Si7 0.419010 0.488123 0.321153
Si Si8 0.234266 0.567275 0.894936
O O1 0.816824 0.812499 0.444148
O O2 0.759999 0.868001 0.645830
O O3 0.540741 0.983416 0.364712
O O4 0.075483 0.939526 0.291076
O O5 0.156055 0.273664 0.671992
O O6 0.673452 0.244768 0.704642
O O7 0.026319 0.103325 0.921359
O O8 0.210390 0.091915 0.140002
O O9 0.500000 0.000000 0.000000
O O10 0.216627 0.294649 0.884225
O O11 0.357126 0.419163 0.543118
O O12 0.000000 0.000000 0.500000
O O13 0.615703 0.569565 0.196639
O O14 0.129370 0.538334 0.244528
O O15 0.066986 0.645802 0.917475
O O16 0.616193 0.407519 0.300564
O O17 0.500000 0.500000 0.000000
O O18 0.000000 0.500000 0.000000
#
# Coordination Sequence:
#
# PCOD9088754 Si02
#       8
#     2   2   2   2   2   2   2   2
#     4  10  21  40  65  91 118 161 213 263 301 371
#     4  12  26  39  61  89 134 162 200 254 318 365
#     4  11  21  39  67  91 118 163 213 256 305 372
#     4  12  25  38  56  90 128 163 196 248 316 365
#     4   9  20  37  67  94 113 149 222 260 305 356
#     4  10  19  37  63  85 114 152 207 254 289 359
#     4  10  19  37  63  85 111 158 208 245 293 362
#     4   8  16  30  57  86 104 139 195 253 290 334
#
# _framework density 23.806564000000002
#
# number of rings (size 3 to 8) (size 9 to 14) (size 15 to 20)
#    0.000    1.750    1.250    3.375    3.500    0.000 
#    0.000    1.250    0.000    0.000    0.000    0.000 
#    0.000    0.000    0.000    0.000    0.000    0.000 
#
# Total GULP energy -89261.528068 kJ/mol
# GULP energy per Si atom -5578.845504 kJ/mol
# Density = 2.375238 g / cm^3
# Si number density = 23.806564 Si / 1000 Ang^3
#
#
#
# Elastic Constant Matrix: (Units=GPa)
#
#
# Indices 1 2 3 4 5 6 
#
# 1 89.8435 25.9577 8.8123 13.3033 -9.0592 -8.5579
# 2 25.9577 148.8620 38.0529 54.8651 -3.5331 6.2051
# 3 8.8123 38.0529 50.3849 31.4648 3.3473 -3.9530
# 4 13.3033 54.8651 31.4648 60.2406 2.4699 5.4298
# 5 -9.0592 -3.5331 3.3473 2.4699 34.6981 8.3852
# 6 -8.5579 6.2051 -3.9530 5.4298 8.3852 40.0032
#
#
#
# Elastic Compliance Matrix: (Units=1/GPa)
#
#
# Indices 1 2 3 4 5 6 
#
# 1 0.012334 -0.001625 0.000139 -0.001655 0.002531 0.002598
# 2 -0.001625 0.010796 -0.003363 -0.007642 0.001961 -0.001728
# 3 0.000139 -0.003363 0.031904 -0.014050 -0.003939 0.006437
# 4 -0.001655 -0.007642 -0.014050 0.031724 -0.000988 -0.004656
# 5 0.002531 0.001961 -0.003939 -0.000988 0.031743 -0.006672
# 6 0.002598 -0.001728 0.006437 -0.004656 -0.006672 0.028488
#
#
# Mechanical properties :
#
#
# Convention : Reuss Voigt Hill
#
# Bulk Modulus (GPa) = 22.05761 48.30401 35.18081
# Shear Modulus (GPa) = 29.10383 41.40622 35.25502
#
# Velocity S-wave (km/s) = 3.50024 4.17499 3.85241
# Velocity P-wave (km/s) = 5.06172 6.60113 5.88201
#
# Compressibility (1/GPa) = 0.04533582
#
# Stress axis : x y z
#
# Youngs Moduli (GPa) = 81.07687 92.63072 31.34418
#
# Poissons Ratio (x) = 0.15049 -0.00435
# Poissons Ratio (y) = 0.13172 0.10541
# Poissons Ratio (z) = -0.01125 0.31151
#
# Static dielectric constant tensor:
#      x y z
#    x 1.953490 0.046570 0.012250 
#    y 0.046570 2.054530 0.067300 
#    z 0.012250 0.067300 1.926370 
# 
# From -- ./inp_files/369817.got.cif
#   From: 2010.05.17/outbox.cif.g08.bks.cpg/sg2_185_cif.got.tgz:369817.got - 2010.06.03 11:33:40.
