data_PCOD9088152
_publ_section_title
;
Structure prediction by ZEFSAII (Michael W. Deem and Ramdas Pophale) SiO2 
 PCOD9088152
Probable space group: P -1
;
_chemical_formula_sum "Si O2"
_cell_formula_units_Z 12
_cell_length_a 7.412785
_cell_length_b 11.917487
_cell_length_c 6.495105
_cell_angle_alpha 71.095194
_cell_angle_beta 102.902170
_cell_angle_gamma 119.006469
_cell_volume 473.225920
_symmetry_space_group_name_H-M "P -1"
_symmetry_group_IT_number 2
_symmetry_cell_setting 'triclinic'
loop_
_space_group_symop_operation_xyz
x,y,z
-x,-y,-z
loop_
_atom_site_type_symbol
_atom_site_label
_atom_site_fract_x
_atom_site_fract_y
_atom_site_fract_z
Si Si1 0.141030 0.665840 0.391145
Si Si2 0.258777 0.201329 0.892266
Si Si3 0.978893 0.686199 0.945538
Si Si4 0.727566 0.608013 0.544305
Si Si5 0.615260 0.237727 0.235087
Si Si6 0.661319 0.021232 0.844242
O O1 0.313049 0.672027 0.596368
O O2 0.915996 0.596472 0.481102
O O3 0.077530 0.618757 0.167842
O O4 0.232905 0.827723 0.289782
O O5 0.255939 0.255435 0.631612
O O6 0.209755 0.048724 0.978600
O O7 0.110656 0.235073 0.981479
O O8 0.490152 0.276644 0.007657
O O9 0.786600 0.608228 0.795023
O O10 0.175109 0.761611 0.801227
O O11 0.500000 0.500000 0.500000
O O12 0.449856 0.083913 0.305545
O O13 0.500000 0.000000 0.000000
#
# Coordination Sequence:
#
# PCOD9088152 Si02
#       6
#     2   2   2   2   2   2
#     4  10  19  37  59  87 119 160 193 239 301 354
#     4   9  22  37  61  91 122 157 207 233 303 362
#     4  10  20  38  61  86 119 160 199 248 299 353
#     4  10  23  42  61  86 120 158 208 258 296 350
#     4   9  20  37  58  89 125 156 194 243 293 361
#     4  10  19  37  62  90 130 158 188 247 299 361
#
# _framework density 25.357868
#
# number of rings (size 3 to 8) (size 9 to 14) (size 15 to 20)
#    1.000    1.333    1.667    0.500    0.000    8.000 
#    0.000    5.833    0.000   14.000    0.000    0.000 
#    0.000    0.000    0.000    0.000    0.000    0.000 
#
# Total GULP energy -66818.399196 kJ/mol
# GULP energy per Si atom -5568.199933 kJ/mol
# Density = 2.530015 g / cm^3
# Si number density = 25.357868 Si / 1000 Ang^3
#
#
#
# Elastic Constant Matrix: (Units=GPa)
#
#
# Indices 1 2 3 4 5 6 
#
# 1 120.4165 19.3095 5.8820 3.6606 4.7010 6.6589
# 2 19.3095 85.1871 40.8727 5.3577 9.2415 17.6139
# 3 5.8820 40.8727 126.8999 31.1789 30.3098 11.5796
# 4 3.6606 5.3577 31.1789 52.2489 14.0038 18.8168
# 5 4.7010 9.2415 30.3098 14.0038 47.3917 9.2876
# 6 6.6589 17.6139 11.5796 18.8168 9.2876 44.3061
#
#
#
# Elastic Compliance Matrix: (Units=1/GPa)
#
#
# Indices 1 2 3 4 5 6 
#
# 1 0.008664 -0.002070 0.000550 -0.000449 -0.000616 -0.000303
# 2 -0.002070 0.015876 -0.005588 0.003941 0.000768 -0.006375
# 3 0.000550 -0.005588 0.012262 -0.006308 -0.005485 0.002762
# 4 -0.000449 0.003941 -0.006308 0.027122 -0.002582 -0.010828
# 5 -0.000616 0.000768 -0.005485 -0.002582 0.025893 -0.003110
# 6 -0.000303 -0.006375 0.002762 -0.010828 -0.003110 0.029679
#
#
# Mechanical properties :
#
#
# Convention : Reuss Voigt Hill
#
# Bulk Modulus (GPa) = 44.27309 51.62575 47.94942
# Shear Modulus (GPa) = 35.40073 46.55195 40.97634
#
# Velocity S-wave (km/s) = 3.74042 4.28927 4.02421
# Velocity P-wave (km/s) = 6.01262 6.70325 6.36730
#
# Compressibility (1/GPa) = 0.02258708
#
# Stress axis : x y z
#
# Youngs Moduli (GPa) = 115.41958 62.98838 81.55182
#
# Poissons Ratio (x) = 0.13039 -0.04486
# Poissons Ratio (y) = 0.23893 0.45567
# Poissons Ratio (z) = -0.06350 0.35195
#
# Static dielectric constant tensor:
#      x y z
#    x 2.078670 -0.072630 0.054550 
#    y -0.072630 2.150980 0.004000 
#    z 0.054550 0.004000 2.077980 
# 
# From -- ./inp_files/37641.got.cif
#   From: 2010.05.17/outbox.cif.g08.bks.cpg/sg2_19_cif.got.tgz:37641.got - 2010.06.03 11:33:40.
