data_PCOD9088158
_publ_section_title
;
Structure prediction by ZEFSAII (Michael W. Deem and Ramdas Pophale) SiO2 
 PCOD9088158
Probable space group: P -1
;
_chemical_formula_sum "Si O2"
_cell_formula_units_Z 13
_cell_length_a 7.632735
_cell_length_b 9.277905
_cell_length_c 11.833656
_cell_angle_alpha 127.162245
_cell_angle_beta 124.264438
_cell_angle_gamma 90.656823
_cell_volume 466.720772
_symmetry_space_group_name_H-M "P -1"
_symmetry_group_IT_number 2
_symmetry_cell_setting 'triclinic'
loop_
_space_group_symop_operation_xyz
x,y,z
-x,-y,-z
loop_
_atom_site_type_symbol
_atom_site_label
_atom_site_fract_x
_atom_site_fract_y
_atom_site_fract_z
Si Si1 0.500000 0.500000 0.000000
Si Si2 0.459087 0.515392 0.207627
Si Si3 0.927583 0.195775 0.245404
Si Si4 0.610512 0.319087 0.339233
Si Si5 0.708966 0.266330 0.589001
Si Si6 0.209449 0.734963 0.003911
Si Si7 0.968072 0.144457 0.777217
O O1 0.672572 0.595326 0.231581
O O2 0.555570 0.292941 0.923073
O O3 0.416825 0.340799 0.202157
O O4 0.437076 0.690030 0.346851
O O5 0.243832 0.367657 0.962748
O O6 0.737248 0.226387 0.264678
O O7 0.811595 0.137347 0.049682
O O8 0.185958 0.426643 0.448003
O O9 0.984439 0.035133 0.251779
O O10 0.561424 0.216186 0.395275
O O11 0.798493 0.115462 0.595510
O O12 0.962161 0.498745 0.783369
O O13 0.151652 0.801880 0.135027
#
# Coordination Sequence:
#
# PCOD9088158 Si02
#       7
#     1   2   2   2   2   2   2
#     4  12  18  34  64  90 112 148 198 244 276 344
#     4  11  21  37  64  87 113 149 199 241 283 337
#     4  10  22  37  61  84 120 153 192 235 292 342
#     4  10  22  39  58  83 120 160 187 228 296 352
#     4  10  20  38  60  85 117 156 189 231 292 353
#     4  10  19  37  59  88 114 155 189 236 291 341
#     4  11  21  38  62  89 114 149 197 244 280 334
#
# _framework density 27.853916000000002
#
# number of rings (size 3 to 8) (size 9 to 14) (size 15 to 20)
#    0.000    1.538    4.615    1.846    0.000    1.231 
#    0.000    0.769    0.000    0.000    0.000    0.000 
#    0.000    0.000    0.000    0.000    0.000    0.000 
#
# Total GULP energy -72675.261545 kJ/mol
# GULP energy per Si atom -5590.404734 kJ/mol
# Density = 2.779052 g / cm^3
# Si number density = 27.853916 Si / 1000 Ang^3
#
#
#
# Elastic Constant Matrix: (Units=GPa)
#
#
# Indices 1 2 3 4 5 6 
#
# 1 76.1981 28.6146 19.3887 -15.0824 -7.3700 -0.5677
# 2 28.6146 226.8789 45.9061 -47.4139 -3.3000 -12.0344
# 3 19.3887 45.9061 105.5291 -32.8095 -14.4734 14.8129
# 4 -15.0824 -47.4139 -32.8095 44.7419 19.2828 2.2394
# 5 -7.3700 -3.3000 -14.4734 19.2828 37.8592 -1.3919
# 6 -0.5677 -12.0344 14.8129 2.2394 -1.3919 43.1618
#
#
#
# Elastic Compliance Matrix: (Units=1/GPa)
#
#
# Indices 1 2 3 4 5 6 
#
# 1 0.014419 -0.001027 -0.001389 0.002296 0.001028 0.000294
# 2 -0.001027 0.006235 -0.001090 0.006901 -0.003528 0.001627
# 3 -0.001389 -0.001090 0.013667 0.008537 0.000311 -0.005445
# 4 0.002296 0.006901 0.008537 0.044967 -0.018735 -0.003913
# 5 0.001028 -0.003528 0.000311 -0.018735 0.036006 0.001056
# 6 0.000294 0.001627 -0.005445 -0.003913 0.001056 0.025732
#
#
# Mechanical properties :
#
#
# Convention : Reuss Voigt Hill
#
# Bulk Modulus (GPa) = 36.61983 66.26944 51.44463
# Shear Modulus (GPa) = 31.81847 46.13237 38.97542
#
# Velocity S-wave (km/s) = 3.38351 4.07409 3.74475
# Velocity P-wave (km/s) = 5.33290 6.78044 6.09976
#
# Compressibility (1/GPa) = 0.02730761
#
# Stress axis : x y z
#
# Youngs Moduli (GPa) = 69.35359 160.38697 73.17065
#
# Poissons Ratio (x) = 0.16475 0.10162
# Poissons Ratio (y) = 0.07124 0.07979
# Poissons Ratio (z) = 0.09632 0.17489
#
# Static dielectric constant tensor:
#      x y z
#    x 2.456060 0.174700 0.066780 
#    y 0.174700 2.243270 -0.016950 
#    z 0.066780 -0.016950 2.281060 
# 
# From -- ./inp_files/146120.got.cif
#   From: 2010.05.17/outbox.cif.g08.bks.cpg/sg2_74_cif.got.tgz:146120.got - 2010.06.03 11:33:40.
