data_PCOD9088466
_publ_section_title
;
Structure prediction by ZEFSAII (Michael W. Deem and Ramdas Pophale) SiO2 
 PCOD9088466
Probable space group: P -1
;
_chemical_formula_sum "Si O2"
_cell_formula_units_Z 14
_cell_length_a 5.185493
_cell_length_b 9.075122
_cell_length_c 14.752428
_cell_angle_alpha 66.620594
_cell_angle_beta 108.932638
_cell_angle_gamma 76.870559
_cell_volume 549.794095
_symmetry_space_group_name_H-M "P -1"
_symmetry_group_IT_number 2
_symmetry_cell_setting 'triclinic'
loop_
_space_group_symop_operation_xyz
x,y,z
-x,-y,-z
loop_
_atom_site_type_symbol
_atom_site_label
_atom_site_fract_x
_atom_site_fract_y
_atom_site_fract_z
Si Si1 0.282121 0.632257 0.551582
Si Si2 0.999617 0.183216 0.987019
Si Si3 0.390061 0.762288 0.357119
Si Si4 0.793236 0.558454 0.872625
Si Si5 0.950174 0.585873 0.685881
Si Si6 0.156197 0.199301 0.818350
Si Si7 0.552796 0.925645 0.788537
O O1 0.195922 0.758980 0.423591
O O2 0.349345 0.434382 0.570601
O O3 0.604429 0.626263 0.617689
O O4 0.068597 0.683168 0.601972
O O5 0.229157 0.195054 0.933537
O O6 0.739059 0.379852 0.896713
O O7 0.115672 0.153362 0.109689
O O8 0.000000 0.000000 0.000000
O O9 0.181814 0.782065 0.241025
O O10 0.471754 0.929818 0.324635
O O11 0.955411 0.594648 0.793452
O O12 0.516014 0.746960 0.806368
O O13 0.000000 0.500000 0.000000
O O14 0.144346 0.380977 0.735381
O O15 0.355608 0.036148 0.821745
#
# Coordination Sequence:
#
# PCOD9088466 Si02
#       7
#     2   2   2   2   2   2   2
#     4  10  22  38  65  94 124 167 217 269 306 368
#     4  10  19  37  61  88 122 159 207 259 316 384
#     4  10  21  35  61  92 121 160 212 266 310 365
#     4   9  22  41  62  92 130 163 205 260 325 384
#     4  10  21  42  63  92 127 167 214 261 315 375
#     4  10  20  34  61  89 118 161 212 257 311 380
#     4  11  20  38  59  88 126 160 205 261 323 373
#
# _framework density 25.464079000000002
#
# number of rings (size 3 to 8) (size 9 to 14) (size 15 to 20)
#    0.000    2.000    2.857    0.429    2.000    1.714 
#    2.571    2.857    0.000    0.000    0.000    0.000 
#    0.000    0.000    0.000    0.000    0.000    0.000 
#
# Total GULP energy -78044.326267 kJ/mol
# GULP energy per Si atom -5574.594733 kJ/mol
# Density = 2.540612 g / cm^3
# Si number density = 25.464079 Si / 1000 Ang^3
#
#
#
# Elastic Constant Matrix: (Units=GPa)
#
#
# Indices 1 2 3 4 5 6 
#
# 1 74.2313 9.6959 36.2888 5.0204 -8.5445 -3.8329
# 2 9.6959 100.6304 32.9086 -9.4847 3.3936 -8.1956
# 3 36.2888 32.9086 153.6332 9.7448 -23.4225 1.9911
# 4 5.0204 -9.4847 9.7448 48.7456 -6.0676 -6.8626
# 5 -8.5445 3.3936 -23.4225 -6.0676 29.6814 2.8703
# 6 -3.8329 -8.1956 1.9911 -6.8626 2.8703 25.1303
#
#
#
# Elastic Compliance Matrix: (Units=1/GPa)
#
#
# Indices 1 2 3 4 5 6 
#
# 1 0.015475 -0.000311 -0.003353 -0.000481 0.001531 0.002218
# 2 -0.000311 0.011964 -0.003376 0.003312 -0.003975 0.005480
# 3 -0.003353 -0.003376 0.009202 -0.001830 0.006656 -0.003602
# 4 -0.000481 0.003312 -0.001830 0.022833 0.002015 0.007157
# 5 0.001531 -0.003975 0.006656 0.002015 0.040802 -0.005700
# 6 0.002218 0.005480 -0.003602 0.007157 -0.005700 0.044809
#
#
# Mechanical properties :
#
#
# Convention : Reuss Voigt Hill
#
# Bulk Modulus (GPa) = 44.32717 54.03129 49.17923
# Shear Modulus (GPa) = 29.99672 37.35159 33.67416
#
# Velocity S-wave (km/s) = 3.43593 3.83408 3.64045
# Velocity P-wave (km/s) = 5.76076 6.39257 6.08487
#
# Compressibility (1/GPa) = 0.02255953
#
# Stress axis : x y z
#
# Youngs Moduli (GPa) = 64.62174 83.58459 108.67331
#
# Poissons Ratio (x) = 0.02596 0.36443
# Poissons Ratio (y) = 0.02007 0.36692
# Poissons Ratio (z) = 0.21671 0.28221
#
# Static dielectric constant tensor:
#      x y z
#    x 2.099290 0.040330 0.043360 
#    y 0.040330 2.103530 0.003800 
#    z 0.043360 0.003800 2.125250 
# 
# From -- ./inp_files/45836.got.cif
#   From: 2010.05.17/outbox.cif.g08.bks.cpg/sg2_23_cif.got.tgz:45836.got - 2010.06.03 11:33:40.
