data_PCOD9088688
_publ_section_title
;
Structure prediction by ZEFSAII (Michael W. Deem and Ramdas Pophale) SiO2 
 PCOD9088688
Probable space group: P -1
;
_chemical_formula_sum "Si O2"
_cell_formula_units_Z 14
_cell_length_a 17.987320
_cell_length_b 16.141038
_cell_length_c 12.965708
_cell_angle_alpha 155.377955
_cell_angle_beta 41.532198
_cell_angle_gamma 153.484900
_cell_volume 656.199661
_symmetry_space_group_name_H-M "P -1"
_symmetry_group_IT_number 2
_symmetry_cell_setting 'triclinic'
loop_
_space_group_symop_operation_xyz
x,y,z
-x,-y,-z
loop_
_atom_site_type_symbol
_atom_site_label
_atom_site_fract_x
_atom_site_fract_y
_atom_site_fract_z
Si Si1 0.438582 0.839560 0.586533
Si Si2 0.711743 0.909358 0.407912
Si Si3 0.805654 0.825867 0.003805
Si Si4 0.641665 0.805496 0.962471
Si Si5 0.702438 0.833825 0.699820
Si Si6 0.325121 0.739018 0.817377
Si Si7 0.967809 0.226932 0.694381
O O1 0.640905 0.037255 0.607354
O O2 0.334773 0.548012 0.288332
O O3 0.362943 0.700947 0.623538
O O4 0.403224 0.020816 0.802095
O O5 0.861514 0.090840 0.543531
O O6 0.769272 0.892982 0.222374
O O7 0.542322 0.556321 0.227775
O O8 0.773796 0.930128 0.058748
O O9 0.000000 0.000000 0.000000
O O10 0.714316 0.821280 0.796169
O O11 0.500000 0.500000 0.500000
O O12 0.845591 0.961740 0.610029
O O13 0.722282 0.098866 0.972037
O O14 0.164848 0.416941 0.681043
O O15 0.500000 0.000000 0.000000
O O16 0.000000 0.500000 0.000000
#
# Coordination Sequence:
#
# PCOD9088688 Si02
#       7
#     2   2   2   2   2   2   2
#     4  10  21  40  64  91 127 170 220 268 332 385
#     4  11  22  41  67  90 128 172 220 271 329 393
#     4  11  25  42  63  93 129 172 221 273 326 392
#     4  10  22  40  67  97 127 173 215 272 330 388
#     4  10  19  37  62  92 130 164 208 273 327 382
#     4  10  21  36  61  91 126 174 216 263 329 392
#     4  10  20  37  64  92 128 170 217 266 331 394
#
# _framework density 21.334969000000001
#
# number of rings (size 3 to 8) (size 9 to 14) (size 15 to 20)
#    0.000    1.714    1.429    4.286    2.000    2.857 
#    0.000    7.857    0.000    0.000    0.000    0.000 
#    0.000    0.000    0.000    0.000    0.000    0.000 
#
# Total GULP energy -78171.110760 kJ/mol
# GULP energy per Si atom -5583.650769 kJ/mol
# Density = 2.128641 g / cm^3
# Si number density = 21.334969 Si / 1000 Ang^3
#
#
#
# Elastic Constant Matrix: (Units=GPa)
#
#
# Indices 1 2 3 4 5 6 
#
# 1 149.4036 76.0855 59.1928 -4.2086 11.9937 -13.7787
# 2 76.0855 175.2367 52.2402 -15.8358 25.4038 -3.1964
# 3 59.1928 52.2402 84.9656 -20.2952 6.8372 -11.3234
# 4 -4.2086 -15.8358 -20.2952 38.0885 -3.6391 6.2672
# 5 11.9937 25.4038 6.8372 -3.6391 48.9992 -4.5855
# 6 -13.7787 -3.1964 -11.3234 6.2672 -4.5855 35.5078
#
#
#
# Elastic Compliance Matrix: (Units=1/GPa)
#
#
# Indices 1 2 3 4 5 6 
#
# 1 0.010916 -0.003156 -0.006223 -0.003874 -0.000209 0.002624
# 2 -0.003156 0.008448 -0.002567 0.001814 -0.003304 -0.002030
# 3 -0.006223 -0.002567 0.019971 0.008592 0.000923 0.002326
# 4 -0.003874 0.001814 0.008592 0.031914 0.000792 -0.004131
# 5 -0.000209 -0.003304 0.000923 0.000792 0.022352 0.002662
# 6 0.002624 -0.002030 0.002326 -0.004131 0.002662 0.030813
#
#
# Mechanical properties :
#
#
# Convention : Reuss Voigt Hill
#
# Bulk Modulus (GPa) = 64.75300 87.18255 75.96777
# Shear Modulus (GPa) = 32.58328 39.32492 35.95410
#
# Velocity S-wave (km/s) = 3.91221 4.29792 4.10960
# Velocity P-wave (km/s) = 7.12908 8.09827 7.62908
#
# Compressibility (1/GPa) = 0.01544330
#
# Stress axis : x y z
#
# Youngs Moduli (GPa) = 91.61089 118.37041 50.07331
#
# Poissons Ratio (x) = 0.37360 0.31160
# Poissons Ratio (y) = 0.28914 0.12852
# Poissons Ratio (z) = 0.57008 0.30381
#
# Static dielectric constant tensor:
#      x y z
#    x 1.804830 0.033220 -0.028330 
#    y 0.033220 1.820860 -0.006280 
#    z -0.028330 -0.006280 1.763020 
# 
# From -- ./inp_files/466145.got.cif
#   From: 2010.05.17/outbox.cif.g08.bks.cpg/sg2_234_cif.got.tgz:466145.got - 2010.06.03 11:33:40.
