data_PCOD9088029
_publ_section_title
;
Structure prediction by ZEFSAII (Michael W. Deem and Ramdas Pophale) SiO2 
 PCOD9088029
Probable space group: P -1
;
_chemical_formula_sum "Si O2"
_cell_formula_units_Z 16
_cell_length_a 27.793384
_cell_length_b 8.113723
_cell_length_c 6.748909
_cell_angle_alpha 83.506963
_cell_angle_beta 86.602545
_cell_angle_gamma 147.828253
_cell_volume 769.844553
_symmetry_space_group_name_H-M "P -1"
_symmetry_group_IT_number 2
_symmetry_cell_setting 'triclinic'
loop_
_space_group_symop_operation_xyz
x,y,z
-x,-y,-z
loop_
_atom_site_type_symbol
_atom_site_label
_atom_site_fract_x
_atom_site_fract_y
_atom_site_fract_z
Si Si1 0.986563 0.459876 0.777893
Si Si2 0.039306 0.107349 0.698273
Si Si3 0.501337 0.821246 0.930535
Si Si4 0.870841 0.297607 0.535983
Si Si5 0.674137 0.836474 0.689509
Si Si6 0.318365 0.855177 0.062700
Si Si7 0.879476 0.816441 0.982005
Si Si8 0.427633 0.406544 0.648063
O O1 0.933934 0.460551 0.696125
O O2 0.084817 0.716237 0.607678
O O3 0.920680 0.101091 0.824607
O O4 0.000000 0.500000 0.000000
O O5 0.108377 0.473466 0.624113
O O6 0.097099 0.132980 0.794697
O O7 0.000000 0.000000 0.500000
O O8 0.942695 0.853669 0.876725
O O9 0.474346 0.694622 0.725772
O O10 0.605424 0.055870 0.905939
O O11 0.420920 0.491709 0.125319
O O12 0.500000 0.000000 0.000000
O O13 0.762292 0.973680 0.667973
O O14 0.645605 0.754315 0.478887
O O15 0.706317 0.105923 0.743973
O O16 0.227134 0.519255 0.016002
O O17 0.373330 0.135347 0.857759
O O18 0.500000 0.500000 0.500000
#
# Coordination Sequence:
#
# PCOD9088029 Si02
#       8
#     2   2   2   2   2   2   2   2
#     4  10  22  41  59  85 133 168 198 263 326 383
#     4  10  19  37  58  86 116 151 204 258 301 371
#     4  11  25  41  63  93 134 165 210 272 325 379
#     4  10  22  37  60  90 118 161 213 251 316 378
#     4  11  22  41  67  91 122 169 216 263 315 392
#     4  11  22  40  63  94 126 163 215 268 321 378
#     4  10  22  35  60  89 119 159 207 257 314 372
#     4  11  20  43  66  88 123 173 213 262 321 377
#
# _framework density 20.783417
#
# number of rings (size 3 to 8) (size 9 to 14) (size 15 to 20)
#    0.000    1.500    2.500    3.000    1.750    4.500 
#    0.000    0.000    0.000    0.000    0.000    0.000 
#    0.000    0.000    0.000    0.000    0.000    0.000 
#
# Total GULP energy -89159.255163 kJ/mol
# GULP energy per Si atom -5572.453448 kJ/mol
# Density = 2.073611 g / cm^3
# Si number density = 20.783417 Si / 1000 Ang^3
#
#
#
# Elastic Constant Matrix: (Units=GPa)
#
#
# Indices 1 2 3 4 5 6 
#
# 1 99.0844 45.7068 37.7741 12.0137 -2.6060 23.2792
# 2 45.7068 89.4108 34.2425 18.4375 -19.2264 23.3683
# 3 37.7741 34.2425 102.4296 32.2642 1.6670 13.3648
# 4 12.0137 18.4375 32.2642 37.5261 0.9381 2.6649
# 5 -2.6060 -19.2264 1.6670 0.9381 26.7581 -1.7940
# 6 23.2792 23.3683 13.3648 2.6649 -1.7940 41.0994
#
#
#
# Elastic Compliance Matrix: (Units=1/GPa)
#
#
# Indices 1 2 3 4 5 6 
#
# 1 0.014948 -0.006328 -0.003299 0.001527 -0.003210 -0.004035
# 2 -0.006328 0.021597 -0.002136 -0.006627 0.014803 -0.006925
# 3 -0.003299 -0.002136 0.015350 -0.010936 -0.002517 -0.001309
# 4 0.001527 -0.006627 -0.010936 0.038679 -0.005037 0.003731
# 5 -0.003210 0.014803 -0.002517 -0.005037 0.047803 -0.003367
# 6 -0.004035 -0.006925 -0.001309 0.003731 -0.003367 0.030591
#
#
# Mechanical properties :
#
#
# Convention : Reuss Voigt Hill
#
# Bulk Modulus (GPa) = 35.25191 58.48572 46.86882
# Shear Modulus (GPa) = 24.75851 32.62348 28.69099
#
# Velocity S-wave (km/s) = 3.45521 3.96623 3.71951
# Velocity P-wave (km/s) = 5.73728 7.01258 6.40674
#
# Compressibility (1/GPa) = 0.02836725
#
# Stress axis : x y z
#
# Youngs Moduli (GPa) = 66.89975 46.30276 65.14599
#
# Poissons Ratio (x) = 0.29302 0.21493
# Poissons Ratio (y) = 0.42337 0.13916
# Poissons Ratio (z) = 0.22072 0.09891
#
# Static dielectric constant tensor:
#      x y z
#    x 1.797090 -0.034010 -0.000450 
#    y -0.034010 1.827820 0.057410 
#    z -0.000450 0.057410 1.825770 
# 
# From -- ./inp_files/128268.got.cif
#   From: 2010.05.17/outbox.cif.g08.bks.cpg/sg2_65_cif.got.tgz:128268.got - 2010.06.03 11:33:40.
