data_PCOD9088904
_publ_section_title
;
Structure prediction by ZEFSAII (Michael W. Deem and Ramdas Pophale) SiO2 
 PCOD9088904
Probable space group: P -1
;
_chemical_formula_sum "Si O2"
_cell_formula_units_Z 16
_cell_length_a 21.065548
_cell_length_b 12.082665
_cell_length_c 14.027669
_cell_angle_alpha 44.946929
_cell_angle_beta 26.926124
_cell_angle_gamma 28.547641
_cell_volume 724.215050
_symmetry_space_group_name_H-M "P -1"
_symmetry_group_IT_number 2
_symmetry_cell_setting 'triclinic'
loop_
_space_group_symop_operation_xyz
x,y,z
-x,-y,-z
loop_
_atom_site_type_symbol
_atom_site_label
_atom_site_fract_x
_atom_site_fract_y
_atom_site_fract_z
Si Si1 0.230178 0.668913 0.491029
Si Si2 0.494202 0.755280 0.887112
Si Si3 0.799426 0.652841 0.796936
Si Si4 0.730176 0.836927 0.564289
Si Si5 0.159032 0.757558 0.731483
Si Si6 0.891094 0.874505 0.669062
Si Si7 0.543281 0.676146 0.270375
Si Si8 0.313947 0.703283 0.989016
O O1 0.157622 0.661081 0.693634
O O2 0.491309 0.452903 0.254290
O O3 0.117405 0.681178 0.544414
O O4 0.130721 0.932492 0.463546
O O5 0.621885 0.802219 0.662196
O O6 0.379420 0.767540 0.945902
O O7 0.659786 0.489099 0.879168
O O8 0.305495 0.962028 0.090042
O O9 0.741047 0.747737 0.709446
O O10 0.862902 0.756975 0.705255
O O11 0.017015 0.355870 0.684232
O O12 0.606914 0.727741 0.063839
O O13 0.574186 0.118932 0.615738
O O14 0.362203 0.701550 0.475847
O O15 0.235362 0.589790 0.820823
O O16 0.928310 0.046338 0.876191
#
# Coordination Sequence:
#
# PCOD9088904 Si02
#       8
#     2   2   2   2   2   2   2   2
#     4  10  21  36  65  93 124 162 207 255 311 370
#     4  10  20  37  63  98 126 153 200 265 311 369
#     4  11  24  40  64  93 127 162 204 264 319 360
#     4  11  24  39  66  95 125 159 206 259 321 369
#     4  11  25  43  63  87 126 173 213 251 306 374
#     4  10  19  37  63  96 127 157 201 263 316 365
#     4  11  26  44  61  89 128 168 214 256 300 378
#     4  10  22  38  62  94 128 159 204 257 312 360
#
# _framework density 22.092884000000002
#
# number of rings (size 3 to 8) (size 9 to 14) (size 15 to 20)
#    0.000    1.500    2.500    1.875   10.500    1.000 
#    0.000    5.000    0.000    3.000    0.000    0.000 
#    0.000    0.000    0.000    0.000    0.000    0.000 
#
# Total GULP energy -89511.818388 kJ/mol
# GULP energy per Si atom -5594.488649 kJ/mol
# Density = 2.204260 g / cm^3
# Si number density = 22.092884 Si / 1000 Ang^3
#
#
#
# Elastic Constant Matrix: (Units=GPa)
#
#
# Indices 1 2 3 4 5 6 
#
# 1 74.3085 29.0831 10.7854 0.5956 -6.5553 5.8657
# 2 29.0831 64.7887 23.7018 31.9818 -9.5051 -3.8375
# 3 10.7854 23.7018 67.4795 25.9418 4.9750 -8.3185
# 4 0.5956 31.9818 25.9418 39.1162 -1.0584 -8.5313
# 5 -6.5553 -9.5051 4.9750 -1.0584 21.4284 6.4219
# 6 5.8657 -3.8375 -8.3185 -8.5313 6.4219 35.8829
#
#
#
# Elastic Compliance Matrix: (Units=1/GPa)
#
#
# Indices 1 2 3 4 5 6 
#
# 1 0.019645 -0.013512 -0.003819 0.012703 0.002415 -0.002954
# 2 -0.013512 0.039118 -0.000799 -0.031692 0.012930 -0.003642
# 3 -0.003819 -0.000799 0.021885 -0.013160 -0.008451 0.003996
# 4 0.012703 -0.031692 -0.013160 0.061413 -0.006242 0.007202
# 5 0.002415 0.012930 -0.008451 -0.006242 0.058678 -0.012957
# 6 -0.002954 -0.003642 0.003996 0.007202 -0.012957 0.032919
#
#
# Mechanical properties :
#
#
# Convention : Reuss Voigt Hill
#
# Bulk Modulus (GPa) = 22.52882 37.07970 29.80426
# Shear Modulus (GPa) = 17.56141 28.81926 23.19033
#
# Velocity S-wave (km/s) = 2.82244 3.61565 3.24338
# Velocity P-wave (km/s) = 4.56519 5.85240 5.24841
#
# Compressibility (1/GPa) = 0.04438759
#
# Stress axis : x y z
#
# Youngs Moduli (GPa) = 50.90451 25.56362 45.69257
#
# Poissons Ratio (x) = 0.34542 0.17452
# Poissons Ratio (y) = 0.68783 0.03649
# Poissons Ratio (z) = 0.19443 0.02042
#
# Static dielectric constant tensor:
#      x y z
#    x 1.827600 -0.001560 -0.004150 
#    y -0.001560 1.801150 0.014920 
#    z -0.004150 0.014920 1.829890 
# 
# From -- ./inp_files/519333.got.cif
#   From: 2010.05.17/outbox.cif.g08.bks.cpg/sg2_260_cif.got.tgz:519333.got - 2010.06.03 11:33:40.
