data_PCOD9088821
_publ_section_title
;
Structure prediction by ZEFSAII (Michael W. Deem and Ramdas Pophale) SiO2 
 PCOD9088821
Probable space group: P -1
;
_chemical_formula_sum "Si O2"
_cell_formula_units_Z 16
_cell_length_a 8.824449
_cell_length_b 8.864729
_cell_length_c 13.251899
_cell_angle_alpha 58.801318
_cell_angle_beta 75.115825
_cell_angle_gamma 62.248891
_cell_volume 784.563495
_symmetry_space_group_name_H-M "P -1"
_symmetry_group_IT_number 2
_symmetry_cell_setting 'triclinic'
loop_
_space_group_symop_operation_xyz
x,y,z
-x,-y,-z
loop_
_atom_site_type_symbol
_atom_site_label
_atom_site_fract_x
_atom_site_fract_y
_atom_site_fract_z
Si Si1 0.585919 0.592431 0.220468
Si Si2 0.132721 0.915644 0.766083
Si Si3 0.469071 0.654628 0.863897
Si Si4 0.207466 0.726705 0.293020
Si Si5 0.692003 0.988404 0.490965
Si Si6 0.803359 0.613770 0.726001
Si Si7 0.684807 0.360097 0.477086
Si Si8 0.083501 0.522725 0.874185
O O1 0.553315 0.440603 0.204990
O O2 0.394551 0.732716 0.238207
O O3 0.698586 0.481313 0.336388
O O4 0.723522 0.640729 0.116404
O O5 0.288732 0.833894 0.847883
O O6 0.092315 0.732617 0.804394
O O7 0.214491 0.990402 0.634095
O O8 0.956034 0.082674 0.772491
O O9 0.635465 0.695125 0.799158
O O10 0.500000 0.500000 0.000000
O O11 0.204664 0.549164 0.290766
O O12 0.197661 0.686373 0.428283
O O13 0.799024 0.790458 0.598297
O O14 0.500000 0.000000 0.500000
O O15 0.681367 0.164738 0.502289
O O16 0.963621 0.523137 0.802715
O O17 0.500000 0.500000 0.500000
O O18 0.000000 0.500000 0.000000
#
# Coordination Sequence:
#
# PCOD9088821 Si02
#       8
#     2   2   2   2   2   2   2   2
#     4   9  19  40  60  87 126 170 209 258 328 373
#     4  11  23  42  65  94 132 172 217 269 332 389
#     4  10  19  40  65  86 120 172 218 265 319 374
#     4  10  23  41  61  99 136 174 208 265 339 391
#     4  12  21  39  64  98 131 168 225 267 322 402
#     4  11  23  39  63  99 133 167 220 270 319 394
#     4  10  19  37  63  89 134 174 205 257 338 382
#     4  11  23  43  68  93 121 175 233 265 318 388
#
# _framework density 20.393505000000001
#
# number of rings (size 3 to 8) (size 9 to 14) (size 15 to 20)
#    0.000    1.500    3.750    3.750    1.750    1.500 
#    4.500    6.250    0.000    0.000    0.000    0.000 
#    0.000    0.000    0.000    0.000    0.000    0.000 
#
# Total GULP energy -89206.391744 kJ/mol
# GULP energy per Si atom -5575.399484 kJ/mol
# Density = 2.034709 g / cm^3
# Si number density = 20.393505 Si / 1000 Ang^3
#
#
#
# Elastic Constant Matrix: (Units=GPa)
#
#
# Indices 1 2 3 4 5 6 
#
# 1 109.4611 39.0235 42.5633 4.9285 -5.4370 -24.2964
# 2 39.0235 90.1145 29.4118 0.1559 6.8242 -28.5437
# 3 42.5633 29.4118 118.3681 -2.3533 -13.9374 -16.6994
# 4 4.9285 0.1559 -2.3533 21.4377 -6.9737 3.6629
# 5 -5.4370 6.8242 -13.9374 -6.9737 24.0482 2.3180
# 6 -24.2964 -28.5437 -16.6994 3.6629 2.3180 38.2988
#
#
#
# Elastic Compliance Matrix: (Units=1/GPa)
#
#
# Indices 1 2 3 4 5 6 
#
# 1 0.012692 -0.002923 -0.003209 -0.004008 0.000210 0.004844
# 2 -0.002923 0.017594 -0.003029 -0.004884 -0.009886 0.011003
# 3 -0.003209 -0.003029 0.011364 0.004692 0.008108 -0.000278
# 4 -0.004008 -0.004884 0.004692 0.056694 0.020682 -0.010811
# 5 0.000210 -0.009886 0.008108 0.020682 0.056006 -0.009068
# 6 0.004844 0.011003 -0.000278 -0.010811 -0.009068 0.038845
#
#
# Mechanical properties :
#
#
# Convention : Reuss Voigt Hill
#
# Bulk Modulus (GPa) = 42.87098 59.99347 51.43222
# Shear Modulus (GPa) = 22.80051 30.55328 26.67689
#
# Velocity S-wave (km/s) = 3.34732 3.87484 3.62070
# Velocity P-wave (km/s) = 6.00058 7.03569 6.53865
#
# Compressibility (1/GPa) = 0.02332580
#
# Stress axis : x y z
#
# Youngs Moduli (GPa) = 78.79129 56.83808 88.00087
#
# Poissons Ratio (x) = 0.16615 0.28239
# Poissons Ratio (y) = 0.23033 0.26659
# Poissons Ratio (z) = 0.25284 0.17219
#
# Static dielectric constant tensor:
#      x y z
#    x 1.773110 -0.039420 -0.017260 
#    y -0.039420 1.721190 0.011580 
#    z -0.017260 0.011580 1.762190 
# 
# From -- ./inp_files/328577.got.cif
#   From: 2010.05.17/outbox.cif.g08.bks.cpg/sg2_165_cif.got.tgz:328577.got - 2010.06.03 11:33:40.
