data_PCOD9088044
_publ_section_title
;
Structure prediction by ZEFSAII (Michael W. Deem and Ramdas Pophale) SiO2 
 PCOD9088044
Probable space group: P -1
;
_chemical_formula_sum "Si O2"
_cell_formula_units_Z 14
_cell_length_a 13.902312
_cell_length_b 8.509480
_cell_length_c 8.594418
_cell_angle_alpha 114.167537
_cell_angle_beta 106.546751
_cell_angle_gamma 43.121842
_cell_volume 633.914605
_symmetry_space_group_name_H-M "P -1"
_symmetry_group_IT_number 2
_symmetry_cell_setting 'triclinic'
loop_
_space_group_symop_operation_xyz
x,y,z
-x,-y,-z
loop_
_atom_site_type_symbol
_atom_site_label
_atom_site_fract_x
_atom_site_fract_y
_atom_site_fract_z
Si Si1 0.121791 0.834713 0.857745
Si Si2 0.533383 0.167267 0.856045
Si Si3 0.072864 0.496471 0.882840
Si Si4 0.195099 0.311651 0.289654
Si Si5 0.272122 0.288750 0.658505
Si Si6 0.122130 0.723520 0.235058
Si Si7 0.344677 0.647292 0.132740
O O1 0.175898 0.579607 0.736813
O O2 0.253120 0.766186 0.977008
O O3 0.038819 0.017146 0.747498
O O4 0.000000 0.000000 0.000000
O O5 0.426034 0.161399 0.728453
O O6 0.571807 0.274875 0.796284
O O7 0.679902 0.898564 0.851891
O O8 0.453449 0.359946 0.037676
O O9 0.196412 0.264225 0.745114
O O10 0.936747 0.659045 0.773415
O O11 0.140382 0.579971 0.031742
O O12 0.000000 0.500000 0.000000
O O13 0.257390 0.233405 0.458574
O O14 0.148759 0.560784 0.322239
O O15 0.237657 0.732148 0.257938
#
# Coordination Sequence:
#
# PCOD9088044 Si02
#       7
#     2   2   2   2   2   2   2
#     4   9  16  32  63  76 110 148 194 234 276 321
#     4  10  20  36  61  84 113 155 194 226 287 343
#     4  10  20  38  58  84 112 147 196 238 278 338
#     4  11  24  34  58  89 123 149 184 236 297 340
#     4  11  21  39  57  85 119 154 188 235 291 341
#     4  10  19  37  58  87 115 146 195 243 276 331
#     4   9  18  35  61  86 105 153 203 232 273 339
#
# _framework density 22.084992
#
# number of rings (size 3 to 8) (size 9 to 14) (size 15 to 20)
#    0.000    2.000    4.286    1.714    2.000    1.143 
#    0.000    0.714    0.000    0.000    0.000    0.000 
#    0.000    0.000    0.000    0.000    0.000    0.000 
#
# Total GULP energy -77952.809025 kJ/mol
# GULP energy per Si atom -5568.057787 kJ/mol
# Density = 2.203473 g / cm^3
# Si number density = 22.084992 Si / 1000 Ang^3
#
#
#
# Elastic Constant Matrix: (Units=GPa)
#
#
# Indices 1 2 3 4 5 6 
#
# 1 105.0353 12.1250 8.3337 -8.1120 -4.6200 -28.8129
# 2 12.1250 42.7298 -7.8918 9.3152 -6.2085 -11.6867
# 3 8.3337 -7.8918 42.3098 -0.9326 0.8692 -4.0837
# 4 -8.1120 9.3152 -0.9326 20.2113 -0.6213 -1.9606
# 5 -4.6200 -6.2085 0.8692 -0.6213 18.9697 -5.2147
# 6 -28.8129 -11.6867 -4.0837 -1.9606 -5.2147 35.8805
#
#
#
# Elastic Compliance Matrix: (Units=1/GPa)
#
#
# Indices 1 2 3 4 5 6 
#
# 1 0.013990 -0.001871 -0.001931 0.007724 0.006367 0.011753
# 2 -0.001871 0.033268 0.007079 -0.014279 0.012721 0.011208
# 3 -0.001931 0.007079 0.025613 -0.002440 0.001631 0.003774
# 4 0.007724 -0.014279 -0.002440 0.059509 0.000534 0.004604
# 5 0.006367 0.012721 0.001631 0.000534 0.063514 0.018702
# 6 0.011753 0.011208 0.003774 0.004604 0.018702 0.044358
#
#
# Mechanical properties :
#
#
# Convention : Reuss Voigt Hill
#
# Bulk Modulus (GPa) = 12.59014 23.91205 18.25109
# Shear Modulus (GPa) = 19.21807 26.84618 23.03212
#
# Velocity S-wave (km/s) = 2.95309 3.49031 3.23288
# Velocity P-wave (km/s) = 4.16423 5.20517 4.71352
#
# Compressibility (1/GPa) = 0.07942725
#
# Stress axis : x y z
#
# Youngs Moduli (GPa) = 71.47736 30.05904 39.04265
#
# Poissons Ratio (x) = 0.05623 0.07538
# Poissons Ratio (y) = 0.13372 -0.27640
# Poissons Ratio (z) = 0.13801 -0.21280
#
# Static dielectric constant tensor:
#      x y z
#    x 1.935430 0.070480 -0.040120 
#    y 0.070480 1.899280 -0.035300 
#    z -0.040120 -0.035300 1.825940 
# 
# From -- ./inp_files/204692.got.cif
#   From: 2010.05.17/outbox.cif.g08.bks.cpg/sg2_103_cif.got.tgz:204692.got - 2010.06.03 11:33:40.
