data_PCOD9088015
_publ_section_title
;
Structure prediction by ZEFSAII (Michael W. Deem and Ramdas Pophale) SiO2 
 PCOD9088015
Probable space group: P -1
;
_chemical_formula_sum "Si O2"
_cell_formula_units_Z 16
_cell_length_a 15.412247
_cell_length_b 8.727195
_cell_length_c 13.935317
_cell_angle_alpha 39.962357
_cell_angle_beta 138.618393
_cell_angle_gamma 132.881773
_cell_volume 770.947180
_symmetry_space_group_name_H-M "P -1"
_symmetry_group_IT_number 2
_symmetry_cell_setting 'triclinic'
loop_
_space_group_symop_operation_xyz
x,y,z
-x,-y,-z
loop_
_atom_site_type_symbol
_atom_site_label
_atom_site_fract_x
_atom_site_fract_y
_atom_site_fract_z
Si Si1 0.977612 0.714601 0.151181
Si Si2 0.279997 0.043775 0.912346
Si Si3 0.991919 0.347475 0.165187
Si Si4 0.704757 0.771234 0.952164
Si Si5 0.542671 0.319975 0.753916
Si Si6 0.730171 0.210841 0.617489
Si Si7 0.549394 0.447801 0.251569
Si Si8 0.290060 0.395410 0.422204
O O1 0.976975 0.536263 0.146143
O O2 0.113563 0.711318 0.324207
O O3 0.830754 0.647799 0.109863
O O4 0.000000 0.000000 0.000000
O O5 0.275451 0.072456 0.009588
O O6 0.394930 0.900030 0.055817
O O7 0.327998 0.313957 0.778793
O O8 0.137132 0.882228 0.834821
O O9 0.133268 0.271106 0.332822
O O10 0.000000 0.500000 0.000000
O O11 0.556118 0.596023 0.901662
O O12 0.709805 0.952165 0.778397
O O13 0.531044 0.491284 0.751820
O O14 0.392682 0.241353 0.620553
O O15 0.641893 0.470621 0.682261
O O16 0.619869 0.227145 0.438604
O O17 0.711222 0.400479 0.594657
#
# Coordination Sequence:
#
# PCOD9088015 Si02
#       8
#     2   2   2   2   2   2   2   2
#     4   9  19  35  59  87 112 145 190 243 283 334
#     4  12  23  39  56  85 123 152 191 241 291 346
#     4  11  19  35  61  88 114 151 192 237 289 341
#     4  11  21  39  58  82 114 160 196 238 284 343
#     4  10  19  37  58  84 117 144 190 238 287 344
#     4   9  18  39  60  85 112 147 195 242 284 343
#     4  11  24  37  58  86 116 154 194 240 295 342
#     4   9  18  34  61  88 111 142 191 244 283 336
#
# _framework density 20.753689999999999
#
# number of rings (size 3 to 8) (size 9 to 14) (size 15 to 20)
#    0.000    1.750    2.500    3.375    0.000    0.000 
#    0.000    7.500    0.000    0.000    0.000    0.000 
#    0.000    0.000    0.000    0.000    0.000    0.000 
#
# Total GULP energy -89310.525828 kJ/mol
# GULP energy per Si atom -5581.907864 kJ/mol
# Density = 2.070645 g / cm^3
# Si number density = 20.753690 Si / 1000 Ang^3
#
#
#
# Elastic Constant Matrix: (Units=GPa)
#
#
# Indices 1 2 3 4 5 6 
#
# 1 63.1245 35.7282 43.4916 22.9681 24.9053 10.2199
# 2 35.7282 99.1279 22.5564 26.1210 14.3727 13.7139
# 3 43.4916 22.5564 69.3633 19.5246 28.2275 10.6717
# 4 22.9681 26.1210 19.5246 30.3790 9.5281 -0.1760
# 5 24.9053 14.3727 28.2275 9.5281 29.0551 4.7419
# 6 10.2199 13.7139 10.6717 -0.1760 4.7419 23.0180
#
#
#
# Elastic Compliance Matrix: (Units=1/GPa)
#
#
# Indices 1 2 3 4 5 6 
#
# 1 0.037576 -0.004878 -0.012513 -0.012206 -0.012749 -0.005443
# 2 -0.004878 0.015432 0.002994 -0.011122 -0.001372 -0.008218
# 3 -0.012513 0.002994 0.032046 -0.008102 -0.018018 -0.007435
# 4 -0.012206 -0.011122 -0.008102 0.056101 0.002886 0.015636
# 5 -0.012749 -0.001372 -0.018018 0.002886 0.062251 0.002029
# 6 -0.005443 -0.008218 -0.007435 0.015636 0.002029 0.053906
#
#
# Mechanical properties :
#
#
# Convention : Reuss Voigt Hill
#
# Bulk Modulus (GPa) = 17.77497 48.35201 33.06349
# Shear Modulus (GPa) = 16.40093 25.14639 20.77366
#
# Velocity S-wave (km/s) = 2.81422 3.48467 3.16723
# Velocity P-wave (km/s) = 4.37528 6.28801 5.41674
#
# Compressibility (1/GPa) = 0.05625888
#
# Stress axis : x y z
#
# Youngs Moduli (GPa) = 26.61238 64.80203 31.20514
#
# Poissons Ratio (x) = 0.31613 0.39048
# Poissons Ratio (y) = 0.12982 -0.09343
# Poissons Ratio (z) = 0.33301 -0.19402
#
# Static dielectric constant tensor:
#      x y z
#    x 1.739830 0.033650 0.007550 
#    y 0.033650 1.774870 0.018700 
#    z 0.007550 0.018700 1.766990 
# 
# From -- ./inp_files/358895.got.cif
#   From: 2010.05.17/outbox.cif.g08.bks.cpg/sg2_180_cif.got.tgz:358895.got - 2010.06.03 11:33:40.
