data_PCOD9088077
_publ_section_title
;
Structure prediction by ZEFSAII (Michael W. Deem and Ramdas Pophale) SiO2 
 PCOD9088077
Probable space group: P -1
;
_chemical_formula_sum "Si O2"
_cell_formula_units_Z 16
_cell_length_a 8.913940
_cell_length_b 9.648027
_cell_length_c 7.911164
_cell_angle_alpha 106.763422
_cell_angle_beta 88.260808
_cell_angle_gamma 115.061532
_cell_volume 586.812915
_symmetry_space_group_name_H-M "P -1"
_symmetry_group_IT_number 2
_symmetry_cell_setting 'triclinic'
loop_
_space_group_symop_operation_xyz
x,y,z
-x,-y,-z
loop_
_atom_site_type_symbol
_atom_site_label
_atom_site_fract_x
_atom_site_fract_y
_atom_site_fract_z
Si Si1 0.416662 0.644358 0.083346
Si Si2 0.567699 0.726481 0.471159
Si Si3 0.002575 0.723516 0.746061
Si Si4 0.850089 0.003531 0.398007
Si Si5 0.781081 0.152881 0.906827
Si Si6 0.090061 0.410339 0.863826
Si Si7 0.747295 0.501670 0.466318
Si Si8 0.745860 0.838540 0.969961
O O1 0.491281 0.646366 0.265122
O O2 0.348415 0.782366 0.132019
O O3 0.265096 0.474972 0.980255
O O4 0.562457 0.699283 0.959187
O O5 0.686576 0.910109 0.485560
O O6 0.673332 0.635434 0.508273
O O7 0.404915 0.672279 0.572622
O O8 0.871721 0.546607 0.636153
O O9 0.886911 0.798768 0.864761
O O10 0.088298 0.815970 0.604982
O O11 0.149725 0.761030 0.884754
O O12 0.806630 0.910843 0.183263
O O13 0.000000 0.000000 0.500000
O O14 0.948621 0.228456 0.813786
O O15 0.725241 0.969068 0.893416
O O16 0.149191 0.465964 0.694987
O O17 0.000000 0.500000 0.000000
#
# Coordination Sequence:
#
# PCOD9088077 Si02
#       8
#     2   2   2   2   2   2   2   2
#     4  10  22  42  64  92 132 172 219 262 323 393
#     4  10  23  39  62 101 131 168 214 271 329 377
#     4  11  23  38  65 102 129 169 220 271 322 382
#     4  10  19  37  58  93 136 162 207 266 317 373
#     4  10  21  42  64  94 128 177 217 260 327 385
#     4  10  24  43  66  92 124 174 218 267 322 389
#     4  11  24  41  65  97 133 166 218 272 330 380
#     4  10  23  37  66  97 132 170 221 270 317 385
#
# _framework density 27.265930999999998
#
# number of rings (size 3 to 8) (size 9 to 14) (size 15 to 20)
#    0.000    1.750    1.250    2.625    8.750    0.500 
#    0.000   10.000    0.000    0.750    0.000    0.000 
#    0.000    0.000    0.000    0.000    0.000    0.000 
#
# Total GULP energy -89634.716262 kJ/mol
# GULP energy per Si atom -5602.169766 kJ/mol
# Density = 2.720387 g / cm^3
# Si number density = 27.265931 Si / 1000 Ang^3
#
#
#
# Elastic Constant Matrix: (Units=GPa)
#
#
# Indices 1 2 3 4 5 6 
#
# 1 104.1164 50.3345 18.0562 -3.8969 -1.9195 9.7833
# 2 50.3345 137.6111 15.6011 -34.8692 -21.0859 45.8818
# 3 18.0562 15.6011 123.3633 -20.4545 9.2010 15.3128
# 4 -3.8969 -34.8692 -20.4545 46.4815 11.4648 -7.2498
# 5 -1.9195 -21.0859 9.2010 11.4648 43.9397 -5.0643
# 6 9.7833 45.8818 15.3128 -7.2498 -5.0643 58.9219
#
#
#
# Elastic Compliance Matrix: (Units=1/GPa)
#
#
# Indices 1 2 3 4 5 6 
#
# 1 0.012672 -0.006539 -0.002014 -0.004083 -0.000758 0.002943
# 2 -0.006539 0.015809 0.001566 0.009602 0.003296 -0.010167
# 3 -0.002014 0.001566 0.009743 0.005612 -0.003187 -0.003001
# 4 -0.004083 0.009602 0.005612 0.031445 -0.005511 -0.004862
# 5 -0.000758 0.003296 -0.003187 -0.005511 0.026410 -0.000020
# 6 0.002943 -0.010167 -0.003001 -0.004862 -0.000020 0.024579
#
#
# Mechanical properties :
#
#
# Convention : Reuss Voigt Hill
#
# Bulk Modulus (GPa) = 41.23540 59.23049 50.23294
# Shear Modulus (GPa) = 35.03506 48.60855 41.82181
#
# Velocity S-wave (km/s) = 3.58849 4.22685 3.92069
# Velocity P-wave (km/s) = 5.68559 6.75219 6.24172
#
# Compressibility (1/GPa) = 0.02425101
#
# Stress axis : x y z
#
# Youngs Moduli (GPa) = 78.91662 63.25623 102.63353
#
# Poissons Ratio (x) = 0.41362 0.20666
# Poissons Ratio (y) = 0.51602 -0.16072
# Poissons Ratio (z) = 0.15890 -0.09906
#
# Static dielectric constant tensor:
#      x y z
#    x 2.133430 -0.060720 -0.001700 
#    y -0.060720 2.219720 0.005710 
#    z -0.001700 0.005710 2.096190 
# 
# From -- ./inp_files/180390.got.cif
#   From: 2010.05.17/outbox.cif.g08.bks.cpg/sg2_91_cif.got.tgz:180390.got - 2010.06.03 11:33:40.
