data_PCOD9088277
_publ_section_title
;
Structure prediction by ZEFSAII (Michael W. Deem and Ramdas Pophale) SiO2 
 PCOD9088277
Probable space group: P -1
;
_chemical_formula_sum "Si O2"
_cell_formula_units_Z 16
_cell_length_a 9.502791
_cell_length_b 5.888668
_cell_length_c 19.612814
_cell_angle_alpha 104.602657
_cell_angle_beta 49.576668
_cell_angle_gamma 99.968051
_cell_volume 808.447661
_symmetry_space_group_name_H-M "P -1"
_symmetry_group_IT_number 2
_symmetry_cell_setting 'triclinic'
loop_
_space_group_symop_operation_xyz
x,y,z
-x,-y,-z
loop_
_atom_site_type_symbol
_atom_site_label
_atom_site_fract_x
_atom_site_fract_y
_atom_site_fract_z
Si Si1 0.339705 0.399624 0.957033
Si Si2 0.790302 0.953675 0.138151
Si Si3 0.529231 0.288084 0.170602
Si Si4 0.442016 0.275467 0.549520
Si Si5 0.298688 0.909161 0.159033
Si Si6 0.395723 0.323389 0.719018
Si Si7 0.933041 0.602111 0.266547
Si Si8 0.878873 0.809174 0.874710
O O1 0.417578 0.633695 0.916393
O O2 0.223622 0.274863 0.922626
O O3 0.521485 0.250753 0.905634
O O4 0.216081 0.385621 0.061684
O O5 0.704143 0.153651 0.134573
O O6 0.987863 0.028130 0.109523
O O7 0.651450 0.913818 0.242912
O O8 0.352494 0.118769 0.209816
O O9 0.507765 0.506838 0.244114
O O10 0.500000 0.500000 0.500000
O O11 0.499566 0.318336 0.614126
O O12 0.218790 0.302778 0.626055
O O13 0.500000 0.000000 0.500000
O O14 0.264084 0.029613 0.106594
O O15 0.111887 0.768278 0.223867
O O16 0.187967 0.397998 0.765933
O O17 0.002049 0.335170 0.229008
#
# Coordination Sequence:
#
# PCOD9088277 Si02
#       8
#     2   2   2   2   2   2   2   2
#     4  10  24  37  53  92 122 178 215 261 316 372
#     4  10  19  37  60  86 121 167 214 266 314 375
#     4  10  21  40  59  84 128 167 212 260 317 384
#     4  10  23  40  70 105 133 158 211 276 333 399
#     4  11  23  39  59  86 127 173 212 262 318 379
#     4   9  20  38  63  92 118 161 209 250 329 381
#     4  10  23  36  64  94 119 163 205 263 324 381
#     4  12  21  37  61  86 129 163 224 268 309 378
#
# _framework density 19.791013
#
# number of rings (size 3 to 8) (size 9 to 14) (size 15 to 20)
#    0.750    1.000    2.500    1.500    5.250    4.500 
#    0.000    0.000    0.000    1.500    0.000    0.000 
#    0.000    0.000    0.000    0.000    0.000    0.000 
#
# Total GULP energy -89112.818883 kJ/mol
# GULP energy per Si atom -5569.551180 kJ/mol
# Density = 1.974597 g / cm^3
# Si number density = 19.791013 Si / 1000 Ang^3
#
#
#
# Elastic Constant Matrix: (Units=GPa)
#
#
# Indices 1 2 3 4 5 6 
#
# 1 117.9081 44.7731 24.5823 -4.1367 -4.1095 13.2696
# 2 44.7731 85.4600 39.8395 -5.6771 -2.9439 2.0603
# 3 24.5823 39.8395 89.9607 -4.0026 -0.2148 5.1717
# 4 -4.1367 -5.6771 -4.0026 21.4220 -3.2846 1.8883
# 5 -4.1095 -2.9439 -0.2148 -3.2846 21.0963 -9.5015
# 6 13.2696 2.0603 5.1717 1.8883 -9.5015 48.1905
#
#
#
# Elastic Compliance Matrix: (Units=1/GPa)
#
#
# Indices 1 2 3 4 5 6 
#
# 1 0.010974 -0.005429 -0.000397 0.000890 0.000287 -0.002725
# 2 -0.005429 0.017729 -0.006346 0.002701 0.002594 0.001824
# 3 -0.000397 -0.006346 0.014150 0.000806 -0.001339 -0.001433
# 4 0.000890 0.002701 0.000806 0.048990 0.007814 -0.000826
# 5 0.000287 0.002594 -0.001339 0.007814 0.053626 0.010221
# 6 -0.002725 0.001824 -0.001433 -0.000826 0.010221 0.023625
#
#
# Mechanical properties :
#
#
# Convention : Reuss Voigt Hill
#
# Bulk Modulus (GPa) = 54.03308 56.85765 55.44537
# Shear Modulus (GPa) = 25.04903 30.41733 27.73318
#
# Velocity S-wave (km/s) = 3.56149 3.92462 3.74746
# Velocity P-wave (km/s) = 6.65383 7.02341 6.84111
#
# Compressibility (1/GPa) = 0.01850718
#
# Stress axis : x y z
#
# Youngs Moduli (GPa) = 91.12800 56.40438 70.67082
#
# Poissons Ratio (x) = 0.30623 0.02808
# Poissons Ratio (y) = 0.49475 0.44850
# Poissons Ratio (z) = 0.03620 0.35796
#
# Static dielectric constant tensor:
#      x y z
#    x 1.696220 -0.000780 0.023100 
#    y -0.000780 1.773780 0.005010 
#    z 0.023100 0.005010 1.713540 
# 
# From -- ./inp_files/369849.got.cif
#   From: 2010.05.17/outbox.cif.g08.bks.cpg/sg2_185_cif.got.tgz:369849.got - 2010.06.03 11:33:40.
