data_PCOD9088417
_publ_section_title
;
Structure prediction by ZEFSAII (Michael W. Deem and Ramdas Pophale) SiO2 
 PCOD9088417
Probable space group: P -1
;
_chemical_formula_sum "Si O2"
_cell_formula_units_Z 16
_cell_length_a 31.182131
_cell_length_b 9.951346
_cell_length_c 16.860497
_cell_angle_alpha 43.294245
_cell_angle_beta 162.551683
_cell_angle_gamma 146.035356
_cell_volume 811.285357
_symmetry_space_group_name_H-M "P -1"
_symmetry_group_IT_number 2
_symmetry_cell_setting 'triclinic'
loop_
_space_group_symop_operation_xyz
x,y,z
-x,-y,-z
loop_
_atom_site_type_symbol
_atom_site_label
_atom_site_fract_x
_atom_site_fract_y
_atom_site_fract_z
Si Si1 0.758085 0.285359 0.353498
Si Si2 0.789384 0.715576 0.478648
Si Si3 0.305204 0.834245 0.178142
Si Si4 0.979681 0.810982 0.608421
Si Si5 0.987262 0.220981 0.887542
Si Si6 0.107531 0.791550 0.093709
Si Si7 0.473196 0.902908 0.697276
Si Si8 0.384942 0.015406 0.912986
O O1 0.904628 0.569188 0.525240
O O2 0.834149 0.151476 0.582138
O O3 0.749861 0.252703 0.258832
O O4 0.563276 0.178699 0.097165
O O5 0.643287 0.408132 0.374811
O O6 0.701958 0.847314 0.287517
O O7 0.839667 0.738849 0.464263
O O8 0.986131 0.855408 0.812838
O O9 0.500000 0.000000 0.500000
O O10 0.362563 0.946165 0.142268
O O11 0.169853 0.887236 0.948352
O O12 0.184095 0.522495 0.098290
O O13 0.000000 0.000000 0.500000
O O14 0.910395 0.211147 0.842402
O O15 0.000000 0.000000 0.000000
O O16 0.326482 0.943941 0.397562
O O17 0.000000 0.500000 0.000000
O O18 0.549095 0.997758 0.879314
#
# Coordination Sequence:
#
# PCOD9088417 Si02
#       8
#     2   2   2   2   2   2   2   2
#     4  10  22  40  60  89 126 163 202 255 311 362
#     4  11  21  36  62  93 118 164 211 251 307 372
#     4  11  23  40  64  98 127 159 207 266 311 363
#     4  11  23  42  61  91 129 164 201 255 314 371
#     4  11  22  43  63  90 125 169 203 251 321 374
#     4  10  19  37  61  85 120 161 204 252 308 365
#     4  11  20  37  63  92 123 158 209 263 301 357
#     4  11  21  37  63  90 121 160 211 252 299 371
#
# _framework density 19.721789999999999
#
# number of rings (size 3 to 8) (size 9 to 14) (size 15 to 20)
#    0.000    1.250    2.500    6.375    1.750    0.000 
#    2.250    7.500    0.000    0.000    0.000    0.000 
#    0.000    0.000    0.000    0.000    0.000    0.000 
#
# Total GULP energy -89270.094090 kJ/mol
# GULP energy per Si atom -5579.380881 kJ/mol
# Density = 1.967690 g / cm^3
# Si number density = 19.721790 Si / 1000 Ang^3
#
#
#
# Elastic Constant Matrix: (Units=GPa)
#
#
# Indices 1 2 3 4 5 6 
#
# 1 95.6714 28.1291 24.5319 3.3275 4.1647 -11.3635
# 2 28.1291 58.9211 34.8152 -18.2503 18.8676 3.7577
# 3 24.5319 34.8152 110.3569 -19.4393 2.0458 -17.1635
# 4 3.3275 -18.2503 -19.4393 25.3756 -0.3582 2.3242
# 5 4.1647 18.8676 2.0458 -0.3582 39.1830 3.7543
# 6 -11.3635 3.7577 -17.1635 2.3242 3.7543 27.2291
#
#
#
# Elastic Compliance Matrix: (Units=1/GPa)
#
#
# Indices 1 2 3 4 5 6 
#
# 1 0.015548 -0.012663 -0.000330 -0.012135 0.003530 0.008577
# 2 -0.012663 0.042786 -0.008050 0.027515 -0.017026 -0.016265
# 3 -0.000330 -0.008050 0.013725 0.003981 0.002373 0.008958
# 4 -0.012135 0.027515 0.003981 0.064642 -0.010579 -0.010411
# 5 0.003530 -0.017026 0.002373 -0.010579 0.032963 0.001677
# 6 0.008577 -0.016265 0.008958 -0.010411 0.001677 0.048853
#
#
# Mechanical properties :
#
#
# Convention : Reuss Voigt Hill
#
# Bulk Modulus (GPa) = 33.36573 48.87797 41.12185
# Shear Modulus (GPa) = 18.47783 30.18910 24.33346
#
# Velocity S-wave (km/s) = 3.06424 3.91672 3.51641
# Velocity P-wave (km/s) = 5.42903 6.72992 6.11417
#
# Compressibility (1/GPa) = 0.02997087
#
# Stress axis : x y z
#
# Youngs Moduli (GPa) = 64.31896 23.37212 72.86002
#
# Poissons Ratio (x) = 0.29597 0.02406
# Poissons Ratio (y) = 0.81449 0.58655
# Poissons Ratio (z) = 0.02124 0.18815
#
# Static dielectric constant tensor:
#      x y z
#    x 1.684500 -0.006460 -0.035220 
#    y -0.006460 1.750010 -0.050850 
#    z -0.035220 -0.050850 1.879150 
# 
# From -- ./inp_files/504492.got.cif
#   From: 2010.05.17/outbox.cif.g08.bks.cpg/sg2_253_cif.got.tgz:504492.got - 2010.06.03 11:33:40.
