data_PCOD9088396
_publ_section_title
;
Structure prediction by ZEFSAII (Michael W. Deem and Ramdas Pophale) SiO2 
 PCOD9088396
Probable space group: P -1
;
_chemical_formula_sum "Si O2"
_cell_formula_units_Z 12
_cell_length_a 8.743576
_cell_length_b 11.955876
_cell_length_c 13.992591
_cell_angle_alpha 151.250577
_cell_angle_beta 47.061257
_cell_angle_gamma 130.942508
_cell_volume 508.007901
_symmetry_space_group_name_H-M "P -1"
_symmetry_group_IT_number 2
_symmetry_cell_setting 'triclinic'
loop_
_space_group_symop_operation_xyz
x,y,z
-x,-y,-z
loop_
_atom_site_type_symbol
_atom_site_label
_atom_site_fract_x
_atom_site_fract_y
_atom_site_fract_z
Si Si1 0.347519 0.350160 0.375900
Si Si2 0.119544 0.732623 0.450815
Si Si3 0.912897 0.138417 0.851371
Si Si4 0.741690 0.090425 0.687254
Si Si5 0.509446 0.540981 0.912997
Si Si6 0.700457 0.556507 0.253144
O O1 0.500000 0.500000 0.500000
O O2 0.293586 0.067214 0.199289
O O3 0.468635 0.414236 0.274009
O O4 0.112552 0.411624 0.536942
O O5 0.296409 0.584447 0.296478
O O6 0.095814 0.992689 0.698753
O O7 0.170738 0.796248 0.365450
O O8 0.906157 0.164562 0.758628
O O9 0.860914 0.386582 0.094876
O O10 0.710511 0.811049 0.484576
O O11 0.524009 0.186790 0.875719
O O12 0.312394 0.425335 0.843169
O O13 0.500000 0.500000 0.000000
#
# Coordination Sequence:
#
# PCOD9088396 Si02
#       6
#     2   2   2   2   2   2
#     4  10  20  37  59  83 115 149 183 232 283 330
#     4   9  20  36  56  84 116 144 186 234 275 329
#     4   9  20  35  59  81 114 144 189 233 273 326
#     4  10  19  37  61  84 110 149 188 231 278 329
#     4   9  21  39  57  80 119 148 184 232 278 329
#     4  11  20  36  61  81 112 154 185 224 285 331
#
# _framework density 23.621679
#
# number of rings (size 3 to 8) (size 9 to 14) (size 15 to 20)
#    1.000    1.333    1.667    1.000    0.000    4.000 
#    0.000    7.500    0.000    0.000    0.000    0.000 
#    0.000    0.000    0.000    0.000    0.000    0.000 
#
# Total GULP energy -66807.083559 kJ/mol
# GULP energy per Si atom -5567.256963 kJ/mol
# Density = 2.356791 g / cm^3
# Si number density = 23.621679 Si / 1000 Ang^3
#
#
#
# Elastic Constant Matrix: (Units=GPa)
#
#
# Indices 1 2 3 4 5 6 
#
# 1 68.8483 1.7430 72.4285 16.4424 -32.7873 -8.4283
# 2 1.7430 64.9418 37.9906 8.0183 -13.8745 8.3737
# 3 72.4285 37.9906 226.7935 44.3416 -56.1719 4.3281
# 4 16.4424 8.0183 44.3416 42.3653 -0.6856 4.3035
# 5 -32.7873 -13.8745 -56.1719 -0.6856 63.3924 -2.7868
# 6 -8.4283 8.3737 4.3281 4.3035 -2.7868 26.1473
#
#
#
# Elastic Compliance Matrix: (Units=1/GPa)
#
#
# Indices 1 2 3 4 5 6 
#
# 1 0.029210 0.004614 -0.006326 -0.006552 0.010935 0.011229
# 2 0.004614 0.018583 -0.003478 -0.001277 0.003212 -0.003336
# 3 -0.006326 -0.003478 0.009312 -0.006469 0.004106 -0.000965
# 4 -0.006552 -0.001277 -0.006469 0.033738 -0.009351 -0.007182
# 5 0.010935 0.003212 0.004106 -0.009351 0.025940 0.006120
# 6 0.011229 -0.003336 -0.000965 -0.007182 0.006120 0.044927
#
#
# Mechanical properties :
#
#
# Convention : Reuss Voigt Hill
#
# Bulk Modulus (GPa) = 21.40150 64.98975 43.19563
# Shear Modulus (GPa) = 26.64336 42.94243 34.79290
#
# Velocity S-wave (km/s) = 3.36210 4.26834 3.84203
# Velocity P-wave (km/s) = 4.91440 7.20167 6.16504
#
# Compressibility (1/GPa) = 0.04672569
#
# Stress axis : x y z
#
# Youngs Moduli (GPa) = 34.23492 53.81296 107.38403
#
# Poissons Ratio (x) = -0.24830 0.67935
# Poissons Ratio (y) = -0.15796 0.37343
# Poissons Ratio (z) = 0.21658 0.18714
#
# Static dielectric constant tensor:
#      x y z
#    x 1.910720 0.048430 -0.006970 
#    y 0.048430 2.050540 -0.092970 
#    z -0.006970 -0.092970 1.969810 
# 
# From -- ./inp_files/365696.got.cif
#   From: 2010.05.17/outbox.cif.g08.bks.cpg/sg2_183_cif.got.tgz:365696.got - 2010.06.03 11:33:40.
