data_PCOD9088796
_publ_section_title
;
Structure prediction by ZEFSAII (Michael W. Deem and Ramdas Pophale) SiO2 
 PCOD9088796
Probable space group: P -1
;
_chemical_formula_sum "Si O2"
_cell_formula_units_Z 14
_cell_length_a 7.315990
_cell_length_b 11.187359
_cell_length_c 7.698482
_cell_angle_alpha 84.754815
_cell_angle_beta 68.544394
_cell_angle_gamma 116.224920
_cell_volume 501.320353
_symmetry_space_group_name_H-M "P -1"
_symmetry_group_IT_number 2
_symmetry_cell_setting 'triclinic'
loop_
_space_group_symop_operation_xyz
x,y,z
-x,-y,-z
loop_
_atom_site_type_symbol
_atom_site_label
_atom_site_fract_x
_atom_site_fract_y
_atom_site_fract_z
Si Si1 0.904304 0.598714 0.965420
Si Si2 0.226797 0.434731 0.606075
Si Si3 0.139709 0.694978 0.542277
Si Si4 0.749828 0.873586 0.563816
Si Si5 0.528513 0.316849 0.025258
Si Si6 0.647031 0.856525 0.225759
Si Si7 0.387055 0.910124 0.876577
O O1 0.065531 0.716741 0.756509
O O2 0.837160 0.629205 0.170009
O O3 0.686245 0.482427 0.943514
O O4 0.000000 0.500000 0.000000
O O5 0.500000 0.500000 0.500000
O O6 0.180359 0.564591 0.580372
O O7 0.053135 0.336085 0.529059
O O8 0.384442 0.809370 0.370827
O O9 0.740721 0.832225 0.373526
O O10 0.572911 0.926434 0.665161
O O11 0.642713 0.739394 0.744968
O O12 0.000000 0.000000 0.500000
O O13 0.382379 0.236314 0.918456
O O14 0.684669 0.245665 0.013097
O O15 0.765415 0.023007 0.130796
O O16 0.500000 0.000000 0.000000
#
# Coordination Sequence:
#
# PCOD9088796 Si02
#       7
#     2   2   2   2   2   2   2
#     4  10  19  37  63  88 122 158 199 246 299 357
#     4  10  21  39  61  87 123 160 201 249 292 353
#     4  10  22  38  64  92 120 163 200 239 308 358
#     4  10  21  36  59  85 115 154 198 245 295 345
#     4   9  20  35  59  86 118 152 197 241 295 351
#     4  11  19  39  64  84 121 157 196 243 295 357
#     4   8  19  38  58  84 115 152 196 241 289 358
#
# _framework density 27.926255000000001
#
# number of rings (size 3 to 8) (size 9 to 14) (size 15 to 20)
#    0.857    1.429    0.000    4.714    0.000    1.143 
#    5.143    0.000    0.000    0.000    0.000    0.000 
#    0.000    0.000    0.000    0.000    0.000    0.000 
#
# Total GULP energy -78258.155068 kJ/mol
# GULP energy per Si atom -5589.868219 kJ/mol
# Density = 2.786269 g / cm^3
# Si number density = 27.926255 Si / 1000 Ang^3
#
#
#
# Elastic Constant Matrix: (Units=GPa)
#
#
# Indices 1 2 3 4 5 6 
#
# 1 143.3861 33.0728 28.1858 10.5140 16.0129 -0.1907
# 2 33.0728 71.8215 20.1419 11.0266 15.8868 21.0908
# 3 28.1858 20.1419 137.5202 28.8162 29.1780 11.3931
# 4 10.5140 11.0266 28.8162 46.9025 10.3949 5.9189
# 5 16.0129 15.8868 29.1780 10.3949 38.1356 -1.9990
# 6 -0.1907 21.0908 11.3931 5.9189 -1.9990 49.5991
#
#
#
# Elastic Compliance Matrix: (Units=1/GPa)
#
#
# Indices 1 2 3 4 5 6 
#
# 1 0.008173 -0.003780 -0.001014 -0.000362 -0.000884 0.001879
# 2 -0.003780 0.019881 0.000370 -0.001397 -0.007052 -0.008671
# 3 -0.001014 0.000370 0.009805 -0.004240 -0.006188 -0.002157
# 4 -0.000362 -0.001397 -0.004240 0.025191 -0.002970 -0.001559
# 5 -0.000884 -0.007052 -0.006188 -0.002970 0.035400 0.006198
# 6 0.001879 -0.008671 -0.002157 -0.001559 0.006198 0.024787
#
#
# Mechanical properties :
#
#
# Convention : Reuss Voigt Hill
#
# Bulk Modulus (GPa) = 34.46816 57.28098 45.87457
# Shear Modulus (GPa) = 35.27207 45.01592 40.14399
#
# Velocity S-wave (km/s) = 3.55779 4.01927 3.79555
# Velocity P-wave (km/s) = 5.40800 6.48810 5.97252
#
# Compressibility (1/GPa) = 0.02901228
#
# Stress axis : x y z
#
# Youngs Moduli (GPa) = 122.35233 50.29971 101.98471
#
# Poissons Ratio (x) = 0.19013 0.10339
# Poissons Ratio (y) = 0.46249 -0.03775
# Poissons Ratio (z) = 0.12403 -0.01862
#
# Static dielectric constant tensor:
#      x y z
#    x 2.235360 -0.004680 -0.016000 
#    y -0.004680 2.383190 -0.047270 
#    z -0.016000 -0.047270 2.148550 
# 
# From -- ./inp_files/134933.got.cif
#   From: 2010.05.17/outbox.cif.g08.bks.cpg/sg2_68_cif.got.tgz:134933.got - 2010.06.03 11:33:40.
