data_PCOD9088673
_publ_section_title
;
Structure prediction by ZEFSAII (Michael W. Deem and Ramdas Pophale) SiO2 
 PCOD9088673
Probable space group: P -1
;
_chemical_formula_sum "Si O2"
_cell_formula_units_Z 16
_cell_length_a 22.231279
_cell_length_b 8.506858
_cell_length_c 8.640362
_cell_angle_alpha 64.476877
_cell_angle_beta 56.752774
_cell_angle_gamma 35.315983
_cell_volume 789.538875
_symmetry_space_group_name_H-M "P -1"
_symmetry_group_IT_number 2
_symmetry_cell_setting 'triclinic'
loop_
_space_group_symop_operation_xyz
x,y,z
-x,-y,-z
loop_
_atom_site_type_symbol
_atom_site_label
_atom_site_fract_x
_atom_site_fract_y
_atom_site_fract_z
Si Si1 0.277144 0.413087 0.280693
Si Si2 0.680763 0.280313 0.800182
Si Si3 0.946874 0.275525 0.392003
Si Si4 0.427771 0.794998 0.815148
Si Si5 0.682425 0.656549 0.111544
Si Si6 0.093543 0.835652 0.806344
Si Si7 0.090125 0.192165 0.447149
Si Si8 0.525305 0.087274 0.571972
O O1 0.267433 0.629760 0.263919
O O2 0.172173 0.493281 0.450912
O O3 0.387161 0.143940 0.328731
O O4 0.288432 0.391840 0.089483
O O5 0.560965 0.527973 0.778057
O O6 0.779130 0.004354 0.680029
O O7 0.643015 0.239454 0.018693
O O8 0.926864 0.280313 0.239011
O O9 0.037153 0.246744 0.330269
O O10 0.000000 0.000000 0.500000
O O11 0.423121 0.846812 0.619177
O O12 0.375585 0.052660 0.878996
O O13 0.788361 0.418109 0.170133
O O14 0.590726 0.680228 0.272626
O O15 0.089049 0.026002 0.635175
O O16 0.000000 0.000000 0.000000
O O17 0.000000 0.500000 0.500000
O O18 0.500000 0.000000 0.500000
#
# Coordination Sequence:
#
# PCOD9088673 Si02
#       8
#     2   2   2   2   2   2   2   2
#     4  12  21  38  66  95 126 166 216 263 319 390
#     4  11  22  40  65  91 135 165 212 256 338 374
#     4  10  20  39  63  90 122 165 216 261 316 378
#     4  10  23  39  65  94 128 174 203 268 327 387
#     4  11  22  37  67  94 127 167 221 261 315 392
#     4  11  23  40  66  96 125 169 222 268 316 386
#     4  11  25  44  66  96 130 175 211 271 327 385
#     4  10  19  37  62  91 123 166 209 256 315 379
#
# _framework density 20.264991999999999
#
# number of rings (size 3 to 8) (size 9 to 14) (size 15 to 20)
#    0.000    1.250    5.000    4.125    3.500    0.000 
#    0.000    3.750    0.000    0.000    0.000    0.000 
#    0.000    0.000    0.000    0.000    0.000    0.000 
#
# Total GULP energy -89241.660679 kJ/mol
# GULP energy per Si atom -5577.603792 kJ/mol
# Density = 2.021887 g / cm^3
# Si number density = 20.264992 Si / 1000 Ang^3
#
#
#
# Elastic Constant Matrix: (Units=GPa)
#
#
# Indices 1 2 3 4 5 6 
#
# 1 38.5025 41.0048 22.9524 -0.7524 9.5457 -25.2070
# 2 41.0048 123.0858 42.5572 16.1399 6.4299 -31.6223
# 3 22.9524 42.5572 132.9049 6.8035 10.7040 -18.4616
# 4 -0.7524 16.1399 6.8035 39.7056 -6.5359 -3.5297
# 5 9.5457 6.4299 10.7040 -6.5359 37.7211 -3.5170
# 6 -25.2070 -31.6223 -18.4616 -3.5297 -3.5170 28.3559
#
#
#
# Elastic Compliance Matrix: (Units=1/GPa)
#
#
# Indices 1 2 3 4 5 6 
#
# 1 0.079317 -0.012310 -0.001691 0.010000 -0.010576 0.055612
# 2 -0.012310 0.014373 -0.001783 -0.005385 0.000548 0.003322
# 3 -0.001691 -0.001783 0.008846 -0.000941 -0.001761 0.001931
# 4 0.010000 -0.005385 -0.000941 0.028999 0.004277 0.006412
# 5 -0.010576 0.000548 -0.001761 0.004277 0.029802 -0.005708
# 6 0.055612 0.003322 0.001931 0.006412 -0.005708 0.089755
#
#
# Mechanical properties :
#
#
# Convention : Reuss Voigt Hill
#
# Bulk Modulus (GPa) = 14.09125 56.39132 35.24128
# Shear Modulus (GPa) = 16.32305 33.68846 25.00576
#
# Velocity S-wave (km/s) = 2.84118 4.08167 3.51656
# Velocity P-wave (km/s) = 4.21090 7.07819 5.82376
#
# Compressibility (1/GPa) = 0.07096604
#
# Stress axis : x y z
#
# Youngs Moduli (GPa) = 12.60770 69.57519 113.05084
#
# Poissons Ratio (x) = 0.85647 0.19118
# Poissons Ratio (y) = 0.15520 0.20162
# Poissons Ratio (z) = 0.02132 0.12408
#
# Static dielectric constant tensor:
#      x y z
#    x 1.855770 -0.058560 -0.112640 
#    y -0.058560 1.864140 0.093920 
#    z -0.112640 0.093920 1.806270 
# 
# From -- ./inp_files/351694.got.cif
#   From: 2010.05.17/outbox.cif.g08.bks.cpg/sg2_176_cif.got.tgz:351694.got - 2010.06.03 11:33:40.
