data_PCOD9088649
_publ_section_title
;
Structure prediction by ZEFSAII (Michael W. Deem and Ramdas Pophale) SiO2 
 PCOD9088649
Probable space group: P -1
;
_chemical_formula_sum "Si O2"
_cell_formula_units_Z 14
_cell_length_a 6.863004
_cell_length_b 18.730709
_cell_length_c 6.920418
_cell_angle_alpha 111.946964
_cell_angle_beta 62.730296
_cell_angle_gamma 136.543540
_cell_volume 542.639984
_symmetry_space_group_name_H-M "P -1"
_symmetry_group_IT_number 2
_symmetry_cell_setting 'triclinic'
loop_
_space_group_symop_operation_xyz
x,y,z
-x,-y,-z
loop_
_atom_site_type_symbol
_atom_site_label
_atom_site_fract_x
_atom_site_fract_y
_atom_site_fract_z
Si Si1 0.833224 0.301743 0.764765
Si Si2 0.974786 0.653613 0.710022
Si Si3 0.564118 0.696313 0.802802
Si Si4 0.066833 0.943602 0.773445
Si Si5 0.662667 0.157807 0.990876
Si Si6 0.494560 0.562668 0.394649
Si Si7 0.323313 0.994922 0.300010
O O1 0.558903 0.369107 0.406753
O O2 0.165629 0.360138 0.746260
O O3 0.689976 0.341417 0.969745
O O4 0.633306 0.183413 0.811752
O O5 0.759158 0.675306 0.789352
O O6 0.148772 0.685387 0.460111
O O7 0.764576 0.530182 0.717180
O O8 0.183857 0.734646 0.862703
O O9 0.791154 0.819328 0.782148
O O10 0.356133 0.964416 0.738965
O O11 0.154010 0.983048 0.552836
O O12 0.000000 0.000000 0.000000
O O13 0.409320 0.074361 0.173850
O O14 0.832954 0.117066 0.837931
O O15 0.500000 0.500000 0.500000
#
# Coordination Sequence:
#
# PCOD9088649 Si02
#       7
#     2   2   2   2   2   2   2
#     4  10  21  38  62  87 126 154 198 255 295 357
#     4  10  22  41  63  88 121 162 204 243 304 364
#     4  10  19  37  62  90 117 158 201 246 303 351
#     4  11  22  38  66  90 118 164 204 246 304 356
#     4  11  22  40  64  90 121 167 198 249 309 355
#     4   8  19  37  62  89 118 159 201 244 303 360
#     4  10  23  41  59  86 128 157 204 253 296 358
#
# _framework density 25.799797000000002
#
# number of rings (size 3 to 8) (size 9 to 14) (size 15 to 20)
#    0.000    2.286    1.429    2.571    4.000    5.714 
#    0.000   15.714    0.000    0.000    0.000    1.000 
#    0.000    0.000    0.000    0.000    0.000    0.000 
#
# Total GULP energy -78278.456584 kJ/mol
# GULP energy per Si atom -5591.318327 kJ/mol
# Density = 2.574108 g / cm^3
# Si number density = 25.799797 Si / 1000 Ang^3
#
#
#
# Elastic Constant Matrix: (Units=GPa)
#
#
# Indices 1 2 3 4 5 6 
#
# 1 58.1755 11.8839 28.7561 -5.7087 4.4023 4.5748
# 2 11.8839 128.3845 75.0564 24.6389 6.0986 1.0720
# 3 28.7561 75.0564 249.7928 -7.8149 -9.8676 3.4090
# 4 -5.7087 24.6389 -7.8149 56.3786 -0.4837 5.8676
# 5 4.4023 6.0986 -9.8676 -0.4837 36.6947 -0.0321
# 6 4.5748 1.0720 3.4090 5.8676 -0.0321 34.8955
#
#
#
# Elastic Compliance Matrix: (Units=1/GPa)
#
#
# Indices 1 2 3 4 5 6 
#
# 1 0.018952 -0.000951 -0.001889 0.002328 -0.002595 -0.002665
# 2 -0.000951 0.011139 -0.003536 -0.005589 -0.002761 0.001065
# 3 -0.001889 -0.003536 0.005450 0.002186 0.002308 -0.000542
# 4 0.002328 -0.005589 0.002186 0.021137 0.001513 -0.003900
# 5 -0.002595 -0.002761 0.002308 0.001513 0.028663 -0.000028
# 6 -0.002665 0.001065 -0.000542 -0.003900 -0.000028 0.029682
#
#
# Mechanical properties :
#
#
# Convention : Reuss Voigt Hill
#
# Bulk Modulus (GPa) = 43.88125 74.19394 59.03760
# Shear Modulus (GPa) = 36.93509 46.97085 41.95297
#
# Velocity S-wave (km/s) = 3.78776 4.27147 4.03686
# Velocity P-wave (km/s) = 6.01455 7.29021 6.68289
#
# Compressibility (1/GPa) = 0.02278877
#
# Stress axis : x y z
#
# Youngs Moduli (GPa) = 52.76524 89.77252 183.47711
#
# Poissons Ratio (x) = 0.08537 0.34665
# Poissons Ratio (y) = 0.05018 0.64879
# Poissons Ratio (z) = 0.09969 0.31744
#
# Static dielectric constant tensor:
#      x y z
#    x 2.193500 0.164170 -0.052780 
#    y 0.164170 2.169850 0.012390 
#    z -0.052780 0.012390 2.046900 
# 
# From -- ./inp_files/224994.got.cif
#   From: 2010.05.17/outbox.cif.g08.bks.cpg/sg2_113_cif.got.tgz:224994.got - 2010.06.03 11:33:40.
