data_PCOD9088136
_publ_section_title
;
Structure prediction by ZEFSAII (Michael W. Deem and Ramdas Pophale) SiO2 
 PCOD9088136
Probable space group: P -1
;
_chemical_formula_sum "Si O2"
_cell_formula_units_Z 14
_cell_length_a 7.025267
_cell_length_b 20.944468
_cell_length_c 8.230821
_cell_angle_alpha 149.460031
_cell_angle_beta 121.061957
_cell_angle_gamma 60.923531
_cell_volume 524.746712
_symmetry_space_group_name_H-M "P -1"
_symmetry_group_IT_number 2
_symmetry_cell_setting 'triclinic'
loop_
_space_group_symop_operation_xyz
x,y,z
-x,-y,-z
loop_
_atom_site_type_symbol
_atom_site_label
_atom_site_fract_x
_atom_site_fract_y
_atom_site_fract_z
Si Si1 0.700790 0.246448 0.312995
Si Si2 0.735174 0.007725 0.027711
Si Si3 0.674301 0.588073 0.348367
Si Si4 0.842233 0.892009 0.387636
Si Si5 0.989479 0.636517 0.021448
Si Si6 0.642988 0.139015 0.729369
Si Si7 0.676494 0.734790 0.345637
O O1 0.680775 0.110813 0.089424
O O2 0.463668 0.331610 0.399643
O O3 0.853777 0.315441 0.657739
O O4 0.762874 0.217372 0.089809
O O5 0.953744 0.048171 0.301427
O O6 0.500000 0.000000 0.000000
O O7 0.795051 0.864498 0.681132
O O8 0.712943 0.681277 0.422231
O O9 0.500000 0.500000 0.000000
O O10 0.891749 0.494505 0.275048
O O11 0.601705 0.879694 0.341789
O O12 0.942305 0.745455 0.103862
O O13 0.768201 0.999725 0.457482
O O14 0.766063 0.635157 0.029078
O O15 0.578113 0.218387 0.713201
#
# Coordination Sequence:
#
# PCOD9088136 Si02
#       7
#     2   2   2   2   2   2   2
#     4  10  19  37  59  86 119 153 191 241 296 339
#     4  11  20  34  61  89 119 150 201 242 284 350
#     4  10  21  38  60  82 114 157 202 243 280 342
#     4   9  19  36  59  90 118 152 191 236 297 348
#     4   9  19  35  63  84 111 157 209 232 273 349
#     4  10  20  36  60  90 123 150 185 244 304 348
#     4  11  21  37  60  88 113 151 201 243 287 349
#
# _framework density 26.679538999999998
#
# number of rings (size 3 to 8) (size 9 to 14) (size 15 to 20)
#    0.000    2.000    1.429    3.857    0.000    4.000 
#    0.000    8.571    0.000    3.429    0.000    3.000 
#    0.000    0.000    0.000    0.000    0.000    0.000 
#
# Total GULP energy -78205.226283 kJ/mol
# GULP energy per Si atom -5586.087592 kJ/mol
# Density = 2.661881 g / cm^3
# Si number density = 26.679539 Si / 1000 Ang^3
#
#
#
# Elastic Constant Matrix: (Units=GPa)
#
#
# Indices 1 2 3 4 5 6 
#
# 1 92.1282 5.1077 -0.1216 3.1071 -3.8546 -21.6554
# 2 5.1077 163.5317 42.7836 14.8808 -15.3295 -26.1736
# 3 -0.1216 42.7836 65.6967 -13.1094 7.9834 2.3122
# 4 3.1071 14.8808 -13.1094 45.8650 -22.1705 3.6256
# 5 -3.8546 -15.3295 7.9834 -22.1705 33.5184 1.3469
# 6 -21.6554 -26.1736 2.3122 3.6256 1.3469 24.8065
#
#
#
# Elastic Compliance Matrix: (Units=1/GPa)
#
#
# Indices 1 2 3 4 5 6 
#
# 1 0.015221 0.004189 -0.004405 -0.004730 0.000833 0.018764
# 2 0.004189 0.012941 -0.011005 -0.007592 0.003225 0.019271
# 3 -0.004405 -0.011005 0.025690 0.010985 -0.003618 -0.019261
# 4 -0.004730 -0.007592 0.010985 0.038931 0.019919 -0.019936
# 5 0.000833 0.003225 -0.003618 0.019919 0.045479 -0.000914
# 6 0.018764 0.019271 -0.019261 -0.019936 -0.000914 0.081785
#
#
# Mechanical properties :
#
#
# Convention : Reuss Voigt Hill
#
# Bulk Modulus (GPa) = 31.83756 46.32177 39.07967
# Shear Modulus (GPa) = 19.76605 39.07710 29.42157
#
# Velocity S-wave (km/s) = 2.72484 3.83127 3.32441
# Velocity P-wave (km/s) = 4.67535 6.08042 5.42358
#
# Compressibility (1/GPa) = 0.03140944
#
# Stress axis : x y z
#
# Youngs Moduli (GPa) = 65.69675 77.27435 38.92617
#
# Poissons Ratio (x) = -0.32369 0.17148
# Poissons Ratio (y) = -0.27519 0.42838
# Poissons Ratio (z) = 0.28941 0.85040
#
# Static dielectric constant tensor:
#      x y z
#    x 2.303680 0.085620 -0.080700 
#    y 0.085620 2.317590 -0.077100 
#    z -0.080700 -0.077100 2.138450 
# 
# From -- ./inp_files/225773.got.cif
#   From: 2010.05.17/outbox.cif.g08.bks.cpg/sg2_113_cif.got.tgz:225773.got - 2010.06.03 11:33:40.
