data_PCOD9088574
_publ_section_title
;
Structure prediction by ZEFSAII (Michael W. Deem and Ramdas Pophale) SiO2 
 PCOD9088574
Probable space group: P -1
;
_chemical_formula_sum "Si O2"
_cell_formula_units_Z 16
_cell_length_a 7.694228
_cell_length_b 12.866853
_cell_length_c 12.167454
_cell_angle_alpha 63.085595
_cell_angle_beta 37.081058
_cell_angle_gamma 66.883425
_cell_volume 646.516193
_symmetry_space_group_name_H-M "P -1"
_symmetry_group_IT_number 2
_symmetry_cell_setting 'triclinic'
loop_
_space_group_symop_operation_xyz
x,y,z
-x,-y,-z
loop_
_atom_site_type_symbol
_atom_site_label
_atom_site_fract_x
_atom_site_fract_y
_atom_site_fract_z
Si Si1 0.622275 0.623214 0.677576
Si Si2 0.228395 0.849645 0.533567
Si Si3 0.880642 0.476590 0.412857
Si Si4 0.829806 0.153105 0.904663
Si Si5 0.106328 0.779434 0.399247
Si Si6 0.764545 0.690462 0.257837
Si Si7 0.943496 0.242390 0.124946
Si Si8 0.366289 0.962040 0.741219
O O1 0.754516 0.559045 0.534428
O O2 0.283159 0.646218 0.828317
O O3 0.773144 0.547897 0.736361
O O4 0.781334 0.745591 0.548740
O O5 0.121438 0.861838 0.456956
O O6 0.504302 0.755491 0.425654
O O7 0.012720 0.791134 0.754286
O O8 0.353330 0.968182 0.459236
O O9 0.774120 0.348575 0.554535
O O10 0.786696 0.550261 0.318672
O O11 0.761552 0.175762 0.801213
O O12 0.941572 0.269582 0.849156
O O13 0.601106 0.094808 0.126290
O O14 0.107437 0.062457 0.819642
O O15 0.791811 0.741733 0.097174
O O16 0.766012 0.137098 0.217116
#
# Coordination Sequence:
#
# PCOD9088574 Si02
#       8
#     2   2   2   2   2   2   2   2
#     4   9  17  35  60  82 109 144 193 229 274 336
#     4  11  22  38  55  85 121 149 185 230 285 338
#     4   9  17  36  61  84 107 150 189 231 283 324
#     4   9  16  36  58  86 108 144 199 228 270 339
#     4  10  20  34  61  83 117 150 182 233 288 333
#     4  10  19  37  62  84 110 150 196 229 271 337
#     4  11  21  37  61  84 111 149 196 234 268 337
#     4   9  20  34  60  81 110 151 190 233 273 328
#
# _framework density 24.748024999999998
#
# number of rings (size 3 to 8) (size 9 to 14) (size 15 to 20)
#    0.750    1.500    2.500    1.875    0.000    1.500 
#    0.000    5.625    0.000    0.000    0.000    0.000 
#    0.000    0.000    0.000    0.000    0.000    0.000 
#
# Total GULP energy -89253.565297 kJ/mol
# GULP energy per Si atom -5578.347831 kJ/mol
# Density = 2.469170 g / cm^3
# Si number density = 24.748025 Si / 1000 Ang^3
#
#
#
# Elastic Constant Matrix: (Units=GPa)
#
#
# Indices 1 2 3 4 5 6 
#
# 1 70.7799 16.4581 29.0321 -14.8386 25.9932 -5.4469
# 2 16.4581 56.1264 19.3307 -23.7423 -5.8109 -17.7008
# 3 29.0321 19.3307 110.7117 -26.7135 40.1274 -11.3388
# 4 -14.8386 -23.7423 -26.7135 24.8095 -10.7834 6.4175
# 5 25.9932 -5.8109 40.1274 -10.7834 40.0014 -5.7225
# 6 -5.4469 -17.7008 -11.3388 6.4175 -5.7225 36.0592
#
#
#
# Elastic Compliance Matrix: (Units=1/GPa)
#
#
# Indices 1 2 3 4 5 6 
#
# 1 0.022441 -0.012523 0.002321 -0.003739 -0.020396 -0.004599
# 2 -0.012523 0.055648 -0.006272 0.050678 0.039128 0.020643
# 3 0.002321 -0.006272 0.017757 0.006759 -0.018596 -0.001299
# 4 -0.003739 0.050678 0.006759 0.104884 0.033150 0.013032
# 5 -0.020396 0.039128 -0.018596 0.033150 0.073830 0.016096
# 6 -0.004599 0.020643 -0.001299 0.013032 0.016096 0.036997
#
#
# Mechanical properties :
#
#
# Convention : Reuss Voigt Hill
#
# Bulk Modulus (GPa) = 15.89908 40.80664 28.35286
# Shear Modulus (GPa) = 13.68097 31.69382 22.68739
#
# Velocity S-wave (km/s) = 2.35374 3.58251 3.03105
# Velocity P-wave (km/s) = 3.71822 5.79976 4.87146
#
# Compressibility (1/GPa) = 0.06289674
#
# Stress axis : x y z
#
# Youngs Moduli (GPa) = 44.56221 17.97006 56.31621
#
# Poissons Ratio (x) = 0.22505 -0.13072
# Poissons Ratio (y) = 0.55807 0.35323
# Poissons Ratio (z) = -0.10344 0.11271
#
# Static dielectric constant tensor:
#      x y z
#    x 2.061540 -0.012280 0.009200 
#    y -0.012280 2.004610 -0.009370 
#    z 0.009200 -0.009370 1.954830 
# 
# From -- ./inp_files/397259.got.cif
#   From: 2010.05.17/outbox.cif.g08.bks.cpg/sg2_199_cif.got.tgz:397259.got - 2010.06.03 11:33:40.
