data_PCOD9088330
_publ_section_title
;
Structure prediction by ZEFSAII (Michael W. Deem and Ramdas Pophale) SiO2 
 PCOD9088330
Probable space group: P -1
;
_chemical_formula_sum "Si O2"
_cell_formula_units_Z 14
_cell_length_a 12.769446
_cell_length_b 8.204797
_cell_length_c 15.530230
_cell_angle_alpha 66.913555
_cell_angle_beta 25.873570
_cell_angle_gamma 69.445936
_cell_volume 653.179797
_symmetry_space_group_name_H-M "P -1"
_symmetry_group_IT_number 2
_symmetry_cell_setting 'triclinic'
loop_
_space_group_symop_operation_xyz
x,y,z
-x,-y,-z
loop_
_atom_site_type_symbol
_atom_site_label
_atom_site_fract_x
_atom_site_fract_y
_atom_site_fract_z
Si Si1 0.445806 0.969242 0.647554
Si Si2 0.625817 0.321735 0.476258
Si Si3 0.129674 0.274089 0.551274
Si Si4 0.942524 0.557616 0.747868
Si Si5 0.088381 0.809430 0.445543
Si Si6 0.498275 0.431085 0.797580
Si Si7 0.797534 0.354787 0.161011
O O1 0.681564 0.874946 0.531103
O O2 0.230105 0.822357 0.841759
O O3 0.500000 0.000000 0.500000
O O4 0.436640 0.160741 0.661268
O O5 0.500000 0.500000 0.500000
O O6 0.768282 0.273624 0.294067
O O7 0.824544 0.364326 0.391162
O O8 0.291190 0.433389 0.359090
O O9 0.001390 0.360354 0.711323
O O10 0.952424 0.210610 0.621736
O O11 0.924487 0.674553 0.650967
O O12 0.718529 0.568477 0.974914
O O13 0.363990 0.754959 0.272928
O O14 0.000000 0.000000 0.500000
O O15 0.403481 0.517754 0.760686
O O16 0.000000 0.500000 0.000000
#
# Coordination Sequence:
#
# PCOD9088330 Si02
#       7
#     2   2   2   2   2   2   2
#     4   9  19  36  61  86 121 163 208 255 316 382
#     4  11  20  35  63  88 123 171 215 256 320 386
#     4  10  22  40  62  88 124 162 212 266 319 382
#     4  11  21  37  64  89 120 169 213 258 325 379
#     4  11  24  41  61  88 125 165 211 264 322 382
#     4  10  21  39  63  92 124 164 212 263 318 379
#     4  10  19  37  60  90 128 160 204 269 320 368
#
# _framework density 21.433610000000002
#
# number of rings (size 3 to 8) (size 9 to 14) (size 15 to 20)
#    0.000    1.714    1.429    6.000    0.000    2.857 
#    0.000    2.143   12.571    0.000    0.000    0.000 
#    0.000    0.000    0.000    0.000    0.000    0.000 
#
# Total GULP energy -77935.953574 kJ/mol
# GULP energy per Si atom -5566.853827 kJ/mol
# Density = 2.138483 g / cm^3
# Si number density = 21.433610 Si / 1000 Ang^3
#
#
#
# Elastic Constant Matrix: (Units=GPa)
#
#
# Indices 1 2 3 4 5 6 
#
# 1 124.2291 34.1669 13.3738 6.0171 -4.6744 11.4106
# 2 34.1669 140.6929 21.0041 2.6313 -20.9047 13.1743
# 3 13.3738 21.0041 89.9347 3.4569 -0.2507 11.8203
# 4 6.0171 2.6313 3.4569 23.6799 4.5183 -0.9532
# 5 -4.6744 -20.9047 -0.2507 4.5183 28.2255 -6.9412
# 6 11.4106 13.1743 11.8203 -0.9532 -6.9412 33.7782
#
#
#
# Elastic Compliance Matrix: (Units=1/GPa)
#
#
# Indices 1 2 3 4 5 6 
#
# 1 0.008913 -0.001861 -0.000526 -0.002047 -0.000116 -0.002183
# 2 -0.001861 0.008843 -0.001578 -0.001507 0.006215 -0.001034
# 3 -0.000526 -0.001578 0.012118 -0.001254 -0.001900 -0.003873
# 4 -0.002047 -0.001507 -0.001254 0.044738 -0.008315 0.001272
# 5 -0.000116 0.006215 -0.001900 -0.008315 0.043020 0.006886
# 6 -0.002183 -0.001034 -0.003873 0.001272 0.006886 0.033552
#
#
# Mechanical properties :
#
#
# Convention : Reuss Voigt Hill
#
# Bulk Modulus (GPa) = 45.56450 54.66070 50.11260
# Shear Modulus (GPa) = 30.04308 36.22419 33.13363
#
# Velocity S-wave (km/s) = 3.74796 4.11550 3.93602
# Velocity P-wave (km/s) = 6.32726 6.93836 6.63984
#
# Compressibility (1/GPa) = 0.02194691
#
# Stress axis : x y z
#
# Youngs Moduli (GPa) = 112.19240 113.07847 82.52357
#
# Poissons Ratio (x) = 0.21039 0.04338
# Poissons Ratio (y) = 0.20874 0.13018
# Poissons Ratio (z) = 0.05897 0.17838
#
# Static dielectric constant tensor:
#      x y z
#    x 1.899880 0.075630 0.045900 
#    y 0.075630 1.961210 -0.023070 
#    z 0.045900 -0.023070 1.871340 
# 
# From -- ./inp_files/351520.got.cif
#   From: 2010.05.17/outbox.cif.g08.bks.cpg/sg2_176_cif.got.tgz:351520.got - 2010.06.03 11:33:40.
