data_PCOD9088173
_publ_section_title
;
Structure prediction by ZEFSAII (Michael W. Deem and Ramdas Pophale) SiO2 
 PCOD9088173
Probable space group: P -1
;
_chemical_formula_sum "Si O2"
_cell_formula_units_Z 16
_cell_length_a 8.094149
_cell_length_b 7.516425
_cell_length_c 13.909518
_cell_angle_alpha 113.761997
_cell_angle_beta 69.204653
_cell_angle_gamma 70.323978
_cell_volume 599.514528
_symmetry_space_group_name_H-M "P -1"
_symmetry_group_IT_number 2
_symmetry_cell_setting 'triclinic'
loop_
_space_group_symop_operation_xyz
x,y,z
-x,-y,-z
loop_
_atom_site_type_symbol
_atom_site_label
_atom_site_fract_x
_atom_site_fract_y
_atom_site_fract_z
Si Si1 0.315822 0.923378 0.664134
Si Si2 0.805172 0.947808 0.086506
Si Si3 0.278858 0.258363 0.098965
Si Si4 0.518997 0.422496 0.597669
Si Si5 0.936506 0.859427 0.549465
Si Si6 0.554881 0.421980 0.140943
Si Si7 0.519753 0.848295 0.224841
Si Si8 0.087550 0.533067 0.628213
O O1 0.132653 0.035064 0.811617
O O2 0.488043 0.657641 0.609515
O O3 0.316516 0.835033 0.538105
O O4 0.391871 0.099262 0.686388
O O5 0.754996 0.164330 0.077267
O O6 0.871110 0.731918 0.955070
O O7 0.577217 0.988766 0.173194
O O8 0.379761 0.412464 0.114457
O O9 0.131827 0.319549 0.235354
O O10 0.500000 0.000000 0.000000
O O11 0.551178 0.448062 0.707852
O O12 0.281569 0.484780 0.643204
O O13 0.885311 0.706036 0.459779
O O14 0.076687 0.670917 0.563973
O O15 0.725782 0.042212 0.692413
O O16 0.000000 0.000000 0.500000
O O17 0.630298 0.579046 0.115911
#
# Coordination Sequence:
#
# PCOD9088173 Si02
#       8
#     2   2   2   2   2   2   2   2
#     4   8  18  34  58  82 117 154 196 237 291 359
#     4   8  18  37  55  86 115 147 210 242 281 344
#     4  10  20  38  64  86 112 163 208 246 291 351
#     4  10  19  37  59  89 122 159 193 240 309 360
#     4  11  23  37  58  89 124 154 198 243 304 358
#     4  10  20  34  60  88 118 154 198 243 293 360
#     4  10  19  37  60  89 114 160 198 244 298 353
#     4  11  23  40  60  85 125 159 189 257 302 340
#
# _framework density 26.688257
#
# number of rings (size 3 to 8) (size 9 to 14) (size 15 to 20)
#    0.750    1.500    1.250    2.250    0.000    6.000 
#    2.250    8.125    0.000    0.750    0.000    0.000 
#    0.000    0.000    0.000    0.000    0.000    0.000 
#
# Total GULP energy -89111.542222 kJ/mol
# GULP energy per Si atom -5569.471389 kJ/mol
# Density = 2.662751 g / cm^3
# Si number density = 26.688257 Si / 1000 Ang^3
#
#
#
# Elastic Constant Matrix: (Units=GPa)
#
#
# Indices 1 2 3 4 5 6 
#
# 1 67.8319 50.8914 3.5441 12.1341 15.5512 16.3521
# 2 50.8914 139.5028 8.2790 3.5034 4.2397 27.7932
# 3 3.5441 8.2790 71.2563 8.8958 31.1364 -0.8026
# 4 12.1341 3.5034 8.8958 27.8537 15.0104 11.2216
# 5 15.5512 4.2397 31.1364 15.0104 46.4214 7.0901
# 6 16.3521 27.7932 -0.8026 11.2216 7.0901 42.0963
#
#
#
# Elastic Compliance Matrix: (Units=1/GPa)
#
#
# Indices 1 2 3 4 5 6 
#
# 1 0.023915 -0.008428 0.003959 -0.006133 -0.007807 -0.000699
# 2 -0.008428 0.011388 -0.002943 0.003675 0.003465 -0.005864
# 3 0.003959 -0.002943 0.021093 -0.001330 -0.015348 0.003747
# 4 -0.006133 0.003675 -0.001330 0.049337 -0.011622 -0.011263
# 5 -0.007807 0.003465 -0.015348 -0.011622 0.038337 -0.002906
# 6 -0.000699 -0.005864 0.003747 -0.011263 -0.002906 0.031462
#
#
# Mechanical properties :
#
#
# Convention : Reuss Voigt Hill
#
# Bulk Modulus (GPa) = 24.05451 44.89113 34.47282
# Shear Modulus (GPa) = 24.48411 37.66605 31.07508
#
# Velocity S-wave (km/s) = 3.03217 3.76085 3.41599
# Velocity P-wave (km/s) = 4.61426 5.97626 5.33887
#
# Compressibility (1/GPa) = 0.04157224
#
# Stress axis : x y z
#
# Youngs Moduli (GPa) = 41.81541 87.80819 47.40799
#
# Poissons Ratio (x) = 0.74009 -0.18769
# Poissons Ratio (y) = 0.35244 0.13951
# Poissons Ratio (z) = -0.16555 0.25839
#
# Static dielectric constant tensor:
#      x y z
#    x 2.278800 -0.025630 0.133480 
#    y -0.025630 2.134130 -0.059390 
#    z 0.133480 -0.059390 2.333950 
# 
# From -- ./inp_files/493351.got.cif
#   From: 2010.05.17/outbox.cif.g08.bks.cpg/sg2_247_cif.got.tgz:493351.got - 2010.06.03 11:33:40.
