data_PCOD9088351
_publ_section_title
;
Structure prediction by ZEFSAII (Michael W. Deem and Ramdas Pophale) SiO2 
 PCOD9088351
Probable space group: P -1
;
_chemical_formula_sum "Si O2"
_cell_formula_units_Z 16
_cell_length_a 8.652617
_cell_length_b 8.848283
_cell_length_c 13.031321
_cell_angle_alpha 95.776042
_cell_angle_beta 54.542283
_cell_angle_gamma 116.285628
_cell_volume 711.757188
_symmetry_space_group_name_H-M "P -1"
_symmetry_group_IT_number 2
_symmetry_cell_setting 'triclinic'
loop_
_space_group_symop_operation_xyz
x,y,z
-x,-y,-z
loop_
_atom_site_type_symbol
_atom_site_label
_atom_site_fract_x
_atom_site_fract_y
_atom_site_fract_z
Si Si1 0.985609 0.730292 0.730403
Si Si2 0.494931 0.217702 0.726107
Si Si3 0.910588 0.119694 0.090889
Si Si4 0.439496 0.798477 0.527078
Si Si5 0.107439 0.071005 0.573360
Si Si6 0.653906 0.230494 0.049314
Si Si7 0.247390 0.850710 0.212988
Si Si8 0.492927 0.497974 0.126063
O O1 0.943986 0.761900 0.866241
O O2 0.192467 0.698706 0.651230
O O3 0.763313 0.592583 0.757602
O O4 0.056161 0.905074 0.651516
O O5 0.548231 0.277305 0.593584
O O6 0.689198 0.214065 0.713046
O O7 0.414109 0.325457 0.834839
O O8 0.310351 0.019857 0.779968
O O9 0.837002 0.216219 0.043803
O O10 0.000000 0.000000 0.000000
O O11 0.634476 0.811829 0.522905
O O12 0.500000 0.000000 0.500000
O O13 0.983369 0.160951 0.683410
O O14 0.000000 0.000000 0.500000
O O15 0.602348 0.382421 0.109365
O O16 0.430557 0.050856 0.138515
O O17 0.723949 0.243547 0.904224
O O18 0.500000 0.500000 0.000000
#
# Coordination Sequence:
#
# PCOD9088351 Si02
#       8
#     2   2   2   2   2   2   2   2
#     4  11  23  41  65  94 138 168 216 277 329 394
#     4  11  22  39  68  92 135 169 219 272 329 395
#     4  11  22  39  66  97 126 177 224 279 322 384
#     4  10  21  40  62  98 122 172 220 273 325 383
#     4  11  21  36  69  98 125 160 226 279 325 377
#     4  10  22  36  63  92 132 171 221 265 328 393
#     4  10  19  37  60  96 122 167 223 268 312 389
#     4  12  24  44  63 100 140 179 212 270 344 399
#
# _framework density 22.479576999999999
#
# number of rings (size 3 to 8) (size 9 to 14) (size 15 to 20)
#    0.000    1.250    5.000    3.000    3.500    0.500 
#    0.000    3.750    0.000    2.250    0.000    0.000 
#    0.000    0.000    0.000    0.000    0.000    0.000 
#
# Total GULP energy -89442.542043 kJ/mol
# GULP energy per Si atom -5590.158878 kJ/mol
# Density = 2.242841 g / cm^3
# Si number density = 22.479577 Si / 1000 Ang^3
#
#
#
# Elastic Constant Matrix: (Units=GPa)
#
#
# Indices 1 2 3 4 5 6 
#
# 1 147.7253 26.6066 40.8853 5.1641 -10.0305 -0.1466
# 2 26.6066 55.5445 4.3635 16.2922 -3.6001 1.0088
# 3 40.8853 4.3635 81.8948 24.1271 -5.5385 6.6811
# 4 5.1641 16.2922 24.1271 23.9076 5.2434 -1.3196
# 5 -10.0305 -3.6001 -5.5385 5.2434 42.9023 6.9489
# 6 -0.1466 1.0088 6.6811 -1.3196 6.9489 25.5228
#
#
#
# Elastic Compliance Matrix: (Units=1/GPa)
#
#
# Indices 1 2 3 4 5 6 
#
# 1 0.010100 -0.008056 -0.008781 0.012733 -0.001616 0.003773
# 2 -0.008056 0.032587 0.014863 -0.037965 0.008969 -0.009630
# 3 -0.008781 0.014863 0.029722 -0.041205 0.010227 -0.013333
# 4 0.012733 -0.037965 -0.041205 0.113001 -0.023315 0.024550
# 5 -0.001616 0.008969 0.010227 -0.023315 0.029858 -0.012375
# 6 0.003773 -0.009630 -0.013333 0.024550 -0.012375 0.047712
#
#
# Mechanical properties :
#
#
# Convention : Reuss Voigt Hill
#
# Bulk Modulus (GPa) = 14.60730 47.65281 31.13005
# Shear Modulus (GPa) = 17.25638 32.68715 24.97176
#
# Velocity S-wave (km/s) = 2.77365 3.81738 3.33658
# Velocity P-wave (km/s) = 4.09508 6.37763 5.35928
#
# Compressibility (1/GPa) = 0.06845893
#
# Stress axis : x y z
#
# Youngs Moduli (GPa) = 99.01432 30.68716 33.64546
#
# Poissons Ratio (x) = 0.24722 0.29545
# Poissons Ratio (y) = 0.79766 -0.50006
# Poissons Ratio (z) = 0.86947 -0.45609
#
# Static dielectric constant tensor:
#      x y z
#    x 1.854870 0.033540 -0.024510 
#    y 0.033540 1.847160 -0.007450 
#    z -0.024510 -0.007450 1.859650 
# 
# From -- ./inp_files/382539.got.cif
#   From: 2010.05.17/outbox.cif.g08.bks.cpg/sg2_192_cif.got.tgz:382539.got - 2010.06.03 11:33:40.
