data_PCOD9088519
_publ_section_title
;
Structure prediction by ZEFSAII (Michael W. Deem and Ramdas Pophale) SiO2 
 PCOD9088519
Probable space group: P -1
;
_chemical_formula_sum "Si O2"
_cell_formula_units_Z 12
_cell_length_a 8.635516
_cell_length_b 21.939485
_cell_length_c 4.984035
_cell_angle_alpha 70.604214
_cell_angle_beta 90.508396
_cell_angle_gamma 135.216238
_cell_volume 589.730091
_symmetry_space_group_name_H-M "P -1"
_symmetry_group_IT_number 2
_symmetry_cell_setting 'triclinic'
loop_
_space_group_symop_operation_xyz
x,y,z
-x,-y,-z
loop_
_atom_site_type_symbol
_atom_site_label
_atom_site_fract_x
_atom_site_fract_y
_atom_site_fract_z
Si Si1 0.308609 0.610044 0.133383
Si Si2 0.160613 0.192072 0.144261
Si Si3 0.819647 0.887864 0.237446
Si Si4 0.339624 0.808520 0.211398
Si Si5 0.312804 0.885732 0.599798
Si Si6 0.087083 0.608373 0.637057
O O1 0.236454 0.611714 0.424683
O O2 0.174142 0.501485 0.226062
O O3 0.586136 0.696086 0.982267
O O4 0.195059 0.626412 0.902354
O O5 0.944126 0.168445 0.257383
O O6 0.136527 0.158875 0.890046
O O7 0.157667 0.129268 0.433948
O O8 0.563863 0.835766 0.250278
O O9 0.000000 0.000000 0.000000
O O10 0.331897 0.867092 0.323968
O O11 0.121629 0.693142 0.431691
O O12 0.358949 0.839805 0.864531
O O13 0.500000 0.000000 0.500000
#
# Coordination Sequence:
#
# PCOD9088519 Si02
#       6
#     2   2   2   2   2   2
#     4  10  19  37  61  92 117 152 194 253 306 350
#     4  12  22  41  60  89 120 161 200 244 306 354
#     4  12  23  38  63  89 116 153 213 257 284 348
#     4  12  22  41  61  89 117 160 204 245 300 355
#     4  12  26  41  58  85 129 166 193 243 311 359
#     4  10  20  36  63  90 119 148 198 254 305 346
#
# _framework density 20.348291
#
# number of rings (size 3 to 8) (size 9 to 14) (size 15 to 20)
#    0.000    0.667    3.333    6.000    0.000    0.000 
#    0.000    1.667    0.000    0.000    0.000    0.000 
#    0.000    0.000    0.000    0.000    0.000    0.000 
#
# Total GULP energy -67142.876935 kJ/mol
# GULP energy per Si atom -5595.239745 kJ/mol
# Density = 2.030198 g / cm^3
# Si number density = 20.348291 Si / 1000 Ang^3
#
#
#
# Elastic Constant Matrix: (Units=GPa)
#
#
# Indices 1 2 3 4 5 6 
#
# 1 30.9713 -17.4703 -14.1261 8.9219 -7.5116 -1.3212
# 2 -17.4703 73.3053 13.6324 -21.3686 2.3016 -7.4748
# 3 -14.1261 13.6324 70.0685 -12.4286 8.1544 1.1990
# 4 8.9219 -21.3686 -12.4286 40.2871 -10.5746 6.1083
# 5 -7.5116 2.3016 8.1544 -10.5746 40.0214 -3.4462
# 6 -1.3212 -7.4748 1.1990 6.1083 -3.4462 13.4461
#
#
#
# Elastic Compliance Matrix: (Units=1/GPa)
#
#
# Indices 1 2 3 4 5 6 
#
# 1 0.043023 0.009419 0.005331 -0.002955 0.006704 0.012048
# 2 0.009419 0.019022 -0.001101 0.007206 0.003598 0.009246
# 3 0.005331 -0.001101 0.016419 0.003392 -0.001689 -0.003526
# 4 -0.002955 0.007206 0.003392 0.033553 0.006326 -0.010208
# 5 0.006704 0.003598 -0.001689 0.006326 0.028681 0.007287
# 6 0.012048 0.009246 -0.003526 -0.010208 0.007287 0.087514
#
#
# Mechanical properties :
#
#
# Convention : Reuss Voigt Hill
#
# Bulk Modulus (GPa) = 9.45520 15.37969 12.41744
# Shear Modulus (GPa) = 21.17133 31.57153 26.37143
#
# Velocity S-wave (km/s) = 3.22910 3.94325 3.60391
# Velocity P-wave (km/s) = 4.30808 5.32043 4.84079
#
# Compressibility (1/GPa) = 0.10576195
#
# Stress axis : x y z
#
# Youngs Moduli (GPa) = 23.24318 52.57206 60.90435
#
# Poissons Ratio (x) = -0.49517 -0.32467
# Poissons Ratio (y) = -0.21892 0.06704
# Poissons Ratio (z) = -0.12390 0.05786
#
# Static dielectric constant tensor:
#      x y z
#    x 1.686080 -0.003880 0.004460 
#    y -0.003880 1.738840 -0.030380 
#    z 0.004460 -0.030380 1.719520 
# 
# From -- ./inp_files/54791.got.cif
#   From: 2010.05.17/outbox.cif.g08.bks.cpg/sg2_28_cif.got.tgz:54791.got - 2010.06.03 11:33:40.
