data_PCOD9088816
_publ_section_title
;
Structure prediction by ZEFSAII (Michael W. Deem and Ramdas Pophale) SiO2 
 PCOD9088816
Probable space group: P -1
;
_chemical_formula_sum "Si O2"
_cell_formula_units_Z 16
_cell_length_a 15.631351
_cell_length_b 9.929354
_cell_length_c 9.937562
_cell_angle_alpha 119.707592
_cell_angle_beta 49.056072
_cell_angle_gamma 142.251666
_cell_volume 712.388068
_symmetry_space_group_name_H-M "P -1"
_symmetry_group_IT_number 2
_symmetry_cell_setting 'triclinic'
loop_
_space_group_symop_operation_xyz
x,y,z
-x,-y,-z
loop_
_atom_site_type_symbol
_atom_site_label
_atom_site_fract_x
_atom_site_fract_y
_atom_site_fract_z
Si Si1 0.649964 0.721442 0.033333
Si Si2 0.014254 0.042408 0.712772
Si Si3 0.288180 0.172330 0.684049
Si Si4 0.435020 0.776701 0.319264
Si Si5 0.894025 0.548663 0.103657
Si Si6 0.468338 0.812490 0.624967
Si Si7 0.960241 0.329836 0.267124
Si Si8 0.083089 0.364995 0.455090
O O1 0.650231 0.683350 0.173924
O O2 0.597537 0.850801 0.143242
O O3 0.500000 0.500000 0.000000
O O4 0.831197 0.872186 0.871891
O O5 0.151143 0.129162 0.723985
O O6 0.060992 0.266360 0.750414
O O7 0.009061 0.886039 0.543008
O O8 0.435240 0.252295 0.481656
O O9 0.203583 0.928620 0.698807
O O10 0.438819 0.791378 0.484107
O O11 0.273786 0.524922 0.335131
O O12 0.426800 0.932523 0.329551
O O13 0.704098 0.341197 0.206766
O O14 0.000000 0.500000 0.000000
O O15 0.938635 0.629923 0.943828
O O16 0.943111 0.500179 0.369496
O O17 0.033752 0.357135 0.348781
#
# Coordination Sequence:
#
# PCOD9088816 Si02
#       8
#     2   2   2   2   2   2   2   2
#     4  11  20  32  58  99 125 153 211 272 309 358
#     4  11  23  39  64  93 130 165 214 262 319 380
#     4  10  21  39  68  90 122 174 219 257 310 387
#     4  10  19  37  63  89 126 160 215 260 311 377
#     4  12  25  41  63  93 131 168 214 265 322 384
#     4  10  22  38  64  92 120 172 215 259 311 383
#     4  10  21  39  66  96 124 166 217 257 318 382
#     4  10  20  37  67  95 124 167 210 265 313 375
#
# _framework density 22.459669999999999
#
# number of rings (size 3 to 8) (size 9 to 14) (size 15 to 20)
#    0.000    1.500    3.750    1.875    3.500    0.500 
#    0.000    3.125    2.750    0.000    0.000    0.000 
#    0.000    0.000    0.000    0.000    0.000    0.000 
#
# Total GULP energy -89252.568858 kJ/mol
# GULP energy per Si atom -5578.285554 kJ/mol
# Density = 2.240855 g / cm^3
# Si number density = 22.459670 Si / 1000 Ang^3
#
#
#
# Elastic Constant Matrix: (Units=GPa)
#
#
# Indices 1 2 3 4 5 6 
#
# 1 71.5629 34.9482 18.0205 8.1979 -21.3185 11.8684
# 2 34.9482 96.6584 8.4208 17.8532 -3.9108 9.2225
# 3 18.0205 8.4208 78.0305 -3.6308 -15.0185 4.2438
# 4 8.1979 17.8532 -3.6308 41.7296 6.0868 -8.2445
# 5 -21.3185 -3.9108 -15.0185 6.0868 28.9128 3.0594
# 6 11.8684 9.2225 4.2438 -8.2445 3.0594 44.7112
#
#
#
# Elastic Compliance Matrix: (Units=1/GPa)
#
#
# Indices 1 2 3 4 5 6 
#
# 1 0.025150 -0.006202 -0.001318 -0.006762 0.019274 -0.007837
# 2 -0.006202 0.013617 -0.000502 -0.004759 -0.001792 -0.001870
# 3 -0.001318 -0.000502 0.014524 0.000534 0.006528 -0.001274
# 4 -0.006762 -0.004759 0.000534 0.031100 -0.012888 0.009342
# 5 0.019274 -0.001792 0.006528 -0.012888 0.055883 -0.011566
# 6 -0.007837 -0.001870 -0.001274 0.009342 -0.011566 0.027467
#
#
# Mechanical properties :
#
#
# Convention : Reuss Voigt Hill
#
# Bulk Modulus (GPa) = 26.84694 41.00339 33.92516
# Shear Modulus (GPa) = 25.48398 35.39488 30.43943
#
# Velocity S-wave (km/s) = 3.37212 3.97411 3.68542
# Velocity P-wave (km/s) = 5.20970 6.27329 5.76607
#
# Compressibility (1/GPa) = 0.03724820
#
# Stress axis : x y z
#
# Youngs Moduli (GPa) = 39.76070 73.43889 68.84953
#
# Poissons Ratio (x) = 0.45548 0.09072
# Poissons Ratio (y) = 0.24660 0.03455
# Poissons Ratio (z) = 0.05239 0.03686
#
# Static dielectric constant tensor:
#      x y z
#    x 1.852320 -0.047420 -0.037150 
#    y -0.047420 1.892570 0.069990 
#    z -0.037150 0.069990 1.896280 
# 
# From -- ./inp_files/464804.got.cif
#   From: 2010.05.17/outbox.cif.g08.bks.cpg/sg2_233_cif.got.tgz:464804.got - 2010.06.03 11:33:40.
