data_PCOD9088189
_publ_section_title
;
Structure prediction by ZEFSAII (Michael W. Deem and Ramdas Pophale) SiO2 
 PCOD9088189
Probable space group: P -1
;
_chemical_formula_sum "Si O2"
_cell_formula_units_Z 16
_cell_length_a 19.824056
_cell_length_b 12.081775
_cell_length_c 15.358505
_cell_angle_alpha 28.166523
_cell_angle_beta 143.690222
_cell_angle_gamma 150.126819
_cell_volume 851.361397
_symmetry_space_group_name_H-M "P -1"
_symmetry_group_IT_number 2
_symmetry_cell_setting 'triclinic'
loop_
_space_group_symop_operation_xyz
x,y,z
-x,-y,-z
loop_
_atom_site_type_symbol
_atom_site_label
_atom_site_fract_x
_atom_site_fract_y
_atom_site_fract_z
Si Si1 0.655839 0.218566 0.544713
Si Si2 0.657799 0.597858 0.591668
Si Si3 0.158158 0.894298 0.446969
Si Si4 0.362514 0.356041 0.655303
Si Si5 0.837998 0.550120 0.344729
Si Si6 0.676278 0.613169 0.856472
Si Si7 0.647998 0.716377 0.958070
Si Si8 0.662084 0.197300 0.012058
O O1 0.672297 0.493276 0.413185
O O2 0.758784 0.333274 0.491565
O O3 0.500000 0.000000 0.500000
O O4 0.677169 0.027038 0.765429
O O5 0.500000 0.500000 0.500000
O O6 0.679488 0.584555 0.521947
O O7 0.682531 0.396397 0.814753
O O8 0.752029 0.907686 0.517094
O O9 0.173436 0.637895 0.619300
O O10 0.998024 0.763914 0.383330
O O11 0.214066 0.095179 0.280089
O O12 0.527819 0.508674 0.731658
O O13 0.297444 0.020193 0.819460
O O14 0.760756 0.701462 0.138617
O O15 0.655888 0.631362 0.925089
O O16 0.715872 0.396466 0.015590
O O17 0.500000 0.500000 0.000000
O O18 0.500000 0.000000 0.000000
#
# Coordination Sequence:
#
# PCOD9088189 Si02
#       8
#     2   2   2   2   2   2   2   2
#     4  12  23  43  60  91 130 161 212 263 303 380
#     4  11  20  35  62  91 121 159 207 258 314 365
#     4  10  22  42  63  93 132 165 206 269 313 370
#     4  11  21  36  61  89 125 156 203 265 308 363
#     4  11  24  42  63  92 131 169 209 258 318 375
#     4  10  19  37  59  92 130 152 209 259 313 368
#     4  12  24  37  65  92 121 174 208 253 317 376
#     4   9  19  32  52  90 120 152 195 258 308 354
#
# _framework density 18.793430000000001
#
# number of rings (size 3 to 8) (size 9 to 14) (size 15 to 20)
#    0.000    1.250    7.500    0.000    1.750    3.500 
#    0.000    0.625    0.000    3.750    0.000    0.000 
#    0.000    0.000    0.000    0.000    0.000    0.000 
#
# Total GULP energy -89215.088367 kJ/mol
# GULP energy per Si atom -5575.943023 kJ/mol
# Density = 1.875066 g / cm^3
# Si number density = 18.793430 Si / 1000 Ang^3
#
#
#
# Elastic Constant Matrix: (Units=GPa)
#
#
# Indices 1 2 3 4 5 6 
#
# 1 91.3271 44.4612 26.6685 0.4873 4.0947 -5.8945
# 2 44.4612 86.7540 10.8160 -6.8754 4.2341 0.2586
# 3 26.6685 10.8160 84.4803 -9.8908 13.3516 4.3961
# 4 0.4873 -6.8754 -9.8908 18.2193 -9.1513 4.2567
# 5 4.0947 4.2341 13.3516 -9.1513 37.6969 -4.8553
# 6 -5.8945 0.2586 4.3961 4.2567 -4.8553 39.3386
#
#
#
# Elastic Compliance Matrix: (Units=1/GPa)
#
#
# Indices 1 2 3 4 5 6 
#
# 1 0.017046 -0.008680 -0.005328 -0.007735 -0.000352 0.004000
# 2 -0.008680 0.016398 0.001681 0.007966 0.000125 -0.002443
# 3 -0.005328 0.001681 0.014990 0.008066 -0.003448 -0.003783
# 4 -0.007735 0.007966 0.008066 0.071060 0.013288 -0.008162
# 5 -0.000352 0.000125 -0.003448 0.013288 0.031355 0.002764
# 6 0.004000 -0.002443 -0.003783 -0.008162 0.002764 0.027683
#
#
# Mechanical properties :
#
#
# Convention : Reuss Voigt Hill
#
# Bulk Modulus (GPa) = 42.05174 47.38364 44.71769
# Shear Modulus (GPa) = 23.68397 31.09201 27.38799
#
# Velocity S-wave (km/s) = 3.55382 4.07185 3.82162
# Velocity P-wave (km/s) = 6.26609 6.88290 6.58172
#
# Compressibility (1/GPa) = 0.02378023
#
# Stress axis : x y z
#
# Youngs Moduli (GPa) = 58.66373 60.98249 66.71080
#
# Poissons Ratio (x) = 0.52931 0.35544
# Poissons Ratio (y) = 0.50918 -0.11211
# Poissons Ratio (z) = 0.31256 -0.10248
#
# Static dielectric constant tensor:
#      x y z
#    x 1.665520 -0.037400 0.008500 
#    y -0.037400 1.639050 -0.020170 
#    z 0.008500 -0.020170 1.682850 
# 
# From -- ./inp_files/540784.got.cif
#   From: 2010.05.17/outbox.cif.g08.bks.cpg/sg2_271_cif.got.tgz:540784.got - 2010.06.03 11:33:40.
