data_PCOD9088831
_publ_section_title
;
Structure prediction by ZEFSAII (Michael W. Deem and Ramdas Pophale) SiO2 
 PCOD9088831
Probable space group: P -1
;
_chemical_formula_sum "Si O2"
_cell_formula_units_Z 16
_cell_length_a 21.489573
_cell_length_b 17.004598
_cell_length_c 6.582786
_cell_angle_alpha 80.741815
_cell_angle_beta 106.295949
_cell_angle_gamma 162.484350
_cell_volume 645.742448
_symmetry_space_group_name_H-M "P -1"
_symmetry_group_IT_number 2
_symmetry_cell_setting 'triclinic'
loop_
_space_group_symop_operation_xyz
x,y,z
-x,-y,-z
loop_
_atom_site_type_symbol
_atom_site_label
_atom_site_fract_x
_atom_site_fract_y
_atom_site_fract_z
Si Si1 0.104803 0.235181 0.060528
Si Si2 0.005457 0.621665 0.005952
Si Si3 0.757181 0.176294 0.496225
Si Si4 0.754971 0.019354 0.304629
Si Si5 0.156738 0.156860 0.388691
Si Si6 0.523751 0.003352 0.783999
Si Si7 0.167226 0.459721 0.789249
Si Si8 0.681568 0.768679 0.172195
O O1 0.251975 0.350214 0.293644
O O2 0.227819 0.447936 0.953327
O O3 0.907661 0.034459 0.121411
O O4 0.980678 0.042118 0.842804
O O5 0.794321 0.316804 0.881637
O O6 0.110033 0.778922 0.835504
O O7 0.896570 0.563074 0.065040
O O8 0.184903 0.796085 0.251060
O O9 0.668539 0.996375 0.356617
O O10 0.000000 0.500000 0.500000
O O11 0.584622 0.047050 0.404238
O O12 0.941735 0.195553 0.549981
O O13 0.625756 0.794128 0.166386
O O14 0.297941 0.254243 0.585547
O O15 0.000000 0.000000 0.500000
O O16 0.366990 0.740410 0.734315
O O17 0.500000 0.000000 0.000000
O O18 0.500000 0.500000 0.000000
#
# Coordination Sequence:
#
# PCOD9088831 Si02
#       8
#     2   2   2   2   2   2   2   2
#     4  10  19  39  68  88 121 171 209 269 333 379
#     4  10  22  40  65  94 127 175 217 263 329 381
#     4  11  21  42  64  92 134 173 215 275 324 387
#     4  11  22  40  67  91 128 180 217 266 327 394
#     4   9  20  38  64  92 121 158 214 266 327 388
#     4  10  20  41  64  95 133 170 215 270 321 393
#     4  10  19  37  63  90 122 166 217 257 321 391
#     4  11  23  40  64  94 129 168 223 268 327 400
#
# _framework density 24.777678999999999
#
# number of rings (size 3 to 8) (size 9 to 14) (size 15 to 20)
#    0.000    1.750    6.250    0.000    0.000    1.500 
#    0.000   12.500    2.750    0.000    0.000    0.000 
#    0.000    0.000    0.000    0.000    0.000    0.000 
#
# Total GULP energy -89370.268450 kJ/mol
# GULP energy per Si atom -5585.641778 kJ/mol
# Density = 2.472128 g / cm^3
# Si number density = 24.777679 Si / 1000 Ang^3
#
#
#
# Elastic Constant Matrix: (Units=GPa)
#
#
# Indices 1 2 3 4 5 6 
#
# 1 150.6695 57.8057 37.0322 -7.6445 -10.3253 -23.7769
# 2 57.8057 96.6758 32.0927 -13.6753 10.7815 -19.2091
# 3 37.0322 32.0927 123.4252 -17.7781 6.3376 -16.3215
# 4 -7.6445 -13.6753 -17.7781 45.8711 -14.3415 -1.5481
# 5 -10.3253 10.7815 6.3376 -14.3415 44.8899 -6.5861
# 6 -23.7769 -19.2091 -16.3215 -1.5481 -6.5861 47.0200
#
#
#
# Elastic Compliance Matrix: (Units=1/GPa)
#
#
# Indices 1 2 3 4 5 6 
#
# 1 0.009769 -0.005159 -0.001256 0.001102 0.004464 0.003058
# 2 -0.005159 0.015152 -0.001574 0.002017 -0.003578 0.002600
# 3 -0.001256 -0.001574 0.009625 0.003142 0.000053 0.002174
# 4 0.001102 0.002017 0.003142 0.026611 0.008493 0.004538
# 5 0.004464 -0.003578 0.000053 0.008493 0.027596 0.004959
# 6 0.003058 0.002600 0.002174 0.004538 0.004959 0.025475
#
#
# Mechanical properties :
#
#
# Convention : Reuss Voigt Hill
#
# Bulk Modulus (GPa) = 53.85137 69.40352 61.62744
# Shear Modulus (GPa) = 36.65781 43.81219 40.23500
#
# Velocity S-wave (km/s) = 3.85056 4.20957 4.03406
# Velocity P-wave (km/s) = 6.44594 7.19018 6.82820
#
# Compressibility (1/GPa) = 0.01856963
#
# Stress axis : x y z
#
# Youngs Moduli (GPa) = 102.35995 65.99837 103.89145
#
# Poissons Ratio (x) = 0.34048 0.13047
# Poissons Ratio (y) = 0.52806 0.16351
# Poissons Ratio (z) = 0.12855 0.10387
#
# Static dielectric constant tensor:
#      x y z
#    x 2.018940 -0.019620 0.026980 
#    y -0.019620 2.035550 -0.008910 
#    z 0.026980 -0.008910 2.024230 
# 
# From -- ./inp_files/118050.got.cif
#   From: 2010.05.17/outbox.cif.g08.bks.cpg/sg2_60_cif.got.tgz:118050.got - 2010.06.03 11:33:40.
