data_PCOD9088110
_publ_section_title
;
Structure prediction by ZEFSAII (Michael W. Deem and Ramdas Pophale) SiO2 
 PCOD9088110
Probable space group: P -1
;
_chemical_formula_sum "Si O2"
_cell_formula_units_Z 12
_cell_length_a 12.654740
_cell_length_b 9.214235
_cell_length_c 18.631520
_cell_angle_alpha 125.824091
_cell_angle_beta 20.466568
_cell_angle_gamma 123.976548
_cell_volume 615.506826
_symmetry_space_group_name_H-M "P -1"
_symmetry_group_IT_number 2
_symmetry_cell_setting 'triclinic'
loop_
_space_group_symop_operation_xyz
x,y,z
-x,-y,-z
loop_
_atom_site_type_symbol
_atom_site_label
_atom_site_fract_x
_atom_site_fract_y
_atom_site_fract_z
Si Si1 0.560814 0.013897 0.345319
Si Si2 0.357307 0.390986 0.626005
Si Si3 0.295858 0.518799 0.964029
Si Si4 0.602113 0.675658 0.941210
Si Si5 0.698925 0.366537 0.546782
Si Si6 0.749649 0.867055 0.039098
O O1 0.435528 0.832475 0.408369
O O2 0.573060 0.984723 0.242938
O O3 0.374701 0.182193 0.535389
O O4 0.907827 0.054757 0.160289
O O5 0.500000 0.500000 0.500000
O O6 0.560656 0.426595 0.576771
O O7 0.012068 0.442987 0.869858
O O8 0.384170 0.671655 0.010066
O O9 0.571556 0.489986 0.726217
O O10 0.240184 0.329831 0.987090
O O11 0.942608 0.644297 0.689468
O O12 0.500000 0.500000 0.000000
O O13 0.611703 0.836729 0.039182
#
# Coordination Sequence:
#
# PCOD9088110 Si02
#       6
#     2   2   2   2   2   2
#     4  10  20  36  60  87 113 146 197 229 278 339
#     4  12  21  37  57  90 116 148 185 241 288 325
#     4  10  21  36  57  88 118 145 190 235 283 330
#     4  10  19  37  59  84 111 154 193 228 278 344
#     4  11  22  37  61  84 113 154 192 233 276 340
#     4   9  18  36  60  84 112 155 187 229 276 345
#
# _framework density 19.496127999999999
#
# number of rings (size 3 to 8) (size 9 to 14) (size 15 to 20)
#    0.000    1.667    3.333    2.500    0.000    0.000 
#    0.000    1.667    0.000    0.000    0.000    0.000 
#    0.000    0.000    0.000    0.000    0.000    0.000 
#
# Total GULP energy -66998.683053 kJ/mol
# GULP energy per Si atom -5583.223588 kJ/mol
# Density = 1.945175 g / cm^3
# Si number density = 19.496128 Si / 1000 Ang^3
#
#
#
# Elastic Constant Matrix: (Units=GPa)
#
#
# Indices 1 2 3 4 5 6 
#
# 1 59.5951 17.5301 -6.5047 -10.3781 3.5741 8.4858
# 2 17.5301 29.0628 -1.5781 -9.8761 11.3972 9.9369
# 3 -6.5047 -1.5781 46.9949 -24.7324 5.2330 -4.5144
# 4 -10.3781 -9.8761 -24.7324 31.1322 0.6017 1.9226
# 5 3.5741 11.3972 5.2330 0.6017 27.3129 0.2548
# 6 8.4858 9.9369 -4.5144 1.9226 0.2548 28.1940
#
#
#
# Elastic Compliance Matrix: (Units=1/GPa)
#
#
# Indices 1 2 3 4 5 6 
#
# 1 0.022910 -0.005798 0.010507 0.014455 -0.002871 -0.004129
# 2 -0.005798 0.080400 0.030102 0.049781 -0.039423 -0.024810
# 3 0.010507 0.030102 0.057140 0.059472 -0.026115 -0.008442
# 4 0.014455 0.049781 0.059472 0.101849 -0.036125 -0.018992
# 5 -0.002871 -0.039423 -0.026115 -0.036125 0.059122 0.012506
# 6 -0.004129 -0.024810 -0.008442 -0.018992 0.012506 0.045286
#
#
# Mechanical properties :
#
#
# Convention : Reuss Voigt Hill
#
# Bulk Modulus (GPa) = 4.34648 17.17194 10.75921
# Shear Modulus (GPa) = 13.37707 25.74151 19.55929
#
# Velocity S-wave (km/s) = 2.62227 3.63759 3.17083
# Velocity P-wave (km/s) = 3.37678 5.14487 4.35157
#
# Compressibility (1/GPa) = 0.23007122
#
# Stress axis : x y z
#
# Youngs Moduli (GPa) = 43.64955 12.43789 17.50095
#
# Poissons Ratio (x) = 0.07212 -0.18388
# Poissons Ratio (y) = 0.25309 -0.52682
# Poissons Ratio (z) = -0.45862 -0.37441
#
# Static dielectric constant tensor:
#      x y z
#    x 1.722540 0.015800 0.030940 
#    y 0.015800 1.672260 0.002080 
#    z 0.030940 0.002080 1.658650 
# 
# From -- ./inp_files/144602.got.cif
#   From: 2010.05.17/outbox.cif.g08.bks.cpg/sg2_73_cif.got.tgz:144602.got - 2010.06.03 11:33:40.
