data_PCOD9088258
_publ_section_title
;
Structure prediction by ZEFSAII (Michael W. Deem and Ramdas Pophale) SiO2 
 PCOD9088258
Probable space group: P -1
;
_chemical_formula_sum "Si O2"
_cell_formula_units_Z 14
_cell_length_a 9.073828
_cell_length_b 9.327061
_cell_length_c 21.679331
_cell_angle_alpha 149.153589
_cell_angle_beta 54.936271
_cell_angle_gamma 116.426243
_cell_volume 764.931327
_symmetry_space_group_name_H-M "P -1"
_symmetry_group_IT_number 2
_symmetry_cell_setting 'triclinic'
loop_
_space_group_symop_operation_xyz
x,y,z
-x,-y,-z
loop_
_atom_site_type_symbol
_atom_site_label
_atom_site_fract_x
_atom_site_fract_y
_atom_site_fract_z
Si Si1 0.771759 0.955946 0.365696
Si Si2 0.687197 0.838033 0.836534
Si Si3 0.966992 0.447904 0.188994
Si Si4 0.607788 0.219087 0.627984
Si Si5 0.138860 0.233802 0.544441
Si Si6 0.718850 0.006134 0.027565
Si Si7 0.043157 0.641657 0.606222
O O1 0.706969 0.145465 0.511100
O O2 0.815840 0.143063 0.366806
O O3 0.942838 0.737299 0.263279
O O4 0.605078 0.778070 0.328339
O O5 0.660582 0.519054 0.746494
O O6 0.496574 0.952215 0.892369
O O7 0.860722 0.805822 0.739129
O O8 0.723673 0.008217 0.952358
O O9 0.900620 0.541652 0.308141
O O10 0.830731 0.241772 0.117222
O O11 0.167208 0.283612 0.084325
O O12 0.672653 0.957353 0.559811
O O13 0.115612 0.401371 0.548592
O O14 0.000000 0.000000 0.500000
O O15 0.000000 0.500000 0.500000
#
# Coordination Sequence:
#
# PCOD9088258 Si02
#       7
#     2   2   2   2   2   2   2
#     4  10  21  35  59  89 120 151 192 250 302 346
#     4  11  20  38  60  90 117 155 206 238 294 349
#     4  10  19  38  61  89 111 159 211 237 287 348
#     4  10  19  37  60  85 117 156 196 243 295 356
#     4  11  20  35  62  90 118 153 199 248 296 357
#     4  10  21  35  65  84 113 163 211 239 269 366
#     4  12  22  36  58  92 124 150 188 253 310 347
#
# _framework density 18.302295999999998
#
# number of rings (size 3 to 8) (size 9 to 14) (size 15 to 20)
#    0.000    1.429    5.714    0.857    0.000    0.571 
#    0.000    1.429    0.000    0.000    0.000    0.000 
#    0.000    0.000    0.000    0.000    0.000    0.000 
#
# Total GULP energy -78086.689778 kJ/mol
# GULP energy per Si atom -5577.620698 kJ/mol
# Density = 1.826064 g / cm^3
# Si number density = 18.302296 Si / 1000 Ang^3
#
#
#
# Elastic Constant Matrix: (Units=GPa)
#
#
# Indices 1 2 3 4 5 6 
#
# 1 92.0201 35.0876 41.5523 -1.5154 -10.4152 -10.8834
# 2 35.0876 108.2505 30.3493 6.3622 -8.9301 -15.6053
# 3 41.5523 30.3493 83.5877 1.6954 -4.9073 -5.5384
# 4 -1.5154 6.3622 1.6954 22.5829 -6.6710 -5.6419
# 5 -10.4152 -8.9301 -4.9073 -6.6710 55.9052 5.6370
# 6 -10.8834 -15.6053 -5.5384 -5.6419 5.6370 28.8452
#
#
#
# Elastic Compliance Matrix: (Units=1/GPa)
#
#
# Indices 1 2 3 4 5 6 
#
# 1 0.015535 -0.002788 -0.006441 0.003763 0.001983 0.003465
# 2 -0.002788 0.011609 -0.002479 -0.002077 0.000440 0.004260
# 3 -0.006441 -0.002479 0.016017 -0.001231 -0.000247 -0.000888
# 4 0.003763 -0.002077 -0.001231 0.048906 0.005229 0.008603
# 5 0.001983 0.000440 -0.000247 0.005229 0.019108 -0.001773
# 6 0.003465 0.004260 -0.000888 0.008603 -0.001773 0.040139
#
#
# Mechanical properties :
#
#
# Convention : Reuss Voigt Hill
#
# Bulk Modulus (GPa) = 50.64326 55.31520 52.97923
# Shear Modulus (GPa) = 27.57717 33.25793 30.41755
#
# Velocity S-wave (km/s) = 3.88591 4.26742 4.08113
# Velocity P-wave (km/s) = 6.91840 7.38714 7.15661
#
# Compressibility (1/GPa) = 0.01974597
#
# Stress axis : x y z
#
# Youngs Moduli (GPa) = 64.37217 86.14018 62.43425
#
# Poissons Ratio (x) = 0.24013 0.40211
# Poissons Ratio (y) = 0.17945 0.15478
# Poissons Ratio (z) = 0.41460 0.21354
#
# Static dielectric constant tensor:
#      x y z
#    x 1.699700 -0.011680 -0.016790 
#    y -0.011680 1.597540 0.020480 
#    z -0.016790 0.020480 1.665360 
# 
# From -- ./inp_files/181271.got.cif
#   From: 2010.05.17/outbox.cif.g08.bks.cpg/sg2_91_cif.got.tgz:181271.got - 2010.06.03 11:33:40.
