data_PCOD9088191
_publ_section_title
;
Structure prediction by ZEFSAII (Michael W. Deem and Ramdas Pophale) SiO2 
 PCOD9088191
Probable space group: P -1
;
_chemical_formula_sum "Si O2"
_cell_formula_units_Z 16
_cell_length_a 7.372520
_cell_length_b 13.652418
_cell_length_c 10.366247
_cell_angle_alpha 67.628337
_cell_angle_beta 42.130305
_cell_angle_gamma 77.380999
_cell_volume 643.813344
_symmetry_space_group_name_H-M "P -1"
_symmetry_group_IT_number 2
_symmetry_cell_setting 'triclinic'
loop_
_space_group_symop_operation_xyz
x,y,z
-x,-y,-z
loop_
_atom_site_type_symbol
_atom_site_label
_atom_site_fract_x
_atom_site_fract_y
_atom_site_fract_z
Si Si1 0.451539 0.619952 0.795283
Si Si2 0.953224 0.057558 0.191270
Si Si3 0.949823 0.727056 0.372668
Si Si4 0.694010 0.408318 0.410674
Si Si5 0.360916 0.197003 0.751589
Si Si6 0.639134 0.091809 0.970666
Si Si7 0.397072 0.016861 0.366785
Si Si8 0.822176 0.457353 0.783531
O O1 0.698980 0.713485 0.609815
O O2 0.314734 0.611573 0.730014
O O3 0.577968 0.509280 0.817705
O O4 0.266165 0.628038 0.013635
O O5 0.880982 0.009370 0.395770
O O6 0.649817 0.065955 0.297192
O O7 0.099127 0.964972 0.090074
O O8 0.160570 0.160602 0.995652
O O9 0.824100 0.768681 0.286247
O O10 0.222405 0.802540 0.219663
O O11 0.020627 0.608294 0.367964
O O12 0.500000 0.500000 0.500000
O O13 0.572431 0.301249 0.599625
O O14 0.985290 0.451382 0.291182
O O15 0.518468 0.096774 0.673554
O O16 0.500000 0.000000 0.000000
O O17 0.423342 0.098999 0.193386
#
# Coordination Sequence:
#
# PCOD9088191 Si02
#       8
#     2   2   2   2   2   2   2   2
#     4  10  24  41  63  92 125 164 207 255 307 364
#     4  10  20  38  63  84 118 155 201 247 294 356
#     4  11  21  39  64  87 119 163 204 241 305 369
#     4  11  22  39  65  94 124 163 205 255 306 363
#     4  10  19  37  59  93 118 153 204 243 298 358
#     4  11  23  40  59  90 126 155 198 252 301 364
#     4  10  20  38  62  86 114 159 199 246 296 355
#     4  11  23  44  63  88 128 165 204 258 308 364
#
# _framework density 24.851924
#
# number of rings (size 3 to 8) (size 9 to 14) (size 15 to 20)
#    0.000    1.500    5.000    1.500    0.000    5.500 
#    2.250    1.250    0.000    0.000    0.000    0.000 
#    0.000    0.000    0.000    0.000    0.000    0.000 
#
# Total GULP energy -89366.303876 kJ/mol
# GULP energy per Si atom -5585.393992 kJ/mol
# Density = 2.479536 g / cm^3
# Si number density = 24.851924 Si / 1000 Ang^3
#
#
#
# Elastic Constant Matrix: (Units=GPa)
#
#
# Indices 1 2 3 4 5 6 
#
# 1 80.2255 -0.7869 33.0425 -15.6787 -0.0342 3.7965
# 2 -0.7869 51.2813 30.6983 -16.1503 -3.9821 0.5774
# 3 33.0425 30.6983 239.2110 -25.0088 -1.5397 27.4179
# 4 -15.6787 -16.1503 -25.0088 46.1728 7.4446 -6.3924
# 5 -0.0342 -3.9821 -1.5397 7.4446 41.4046 -8.4295
# 6 3.7965 0.5774 27.4179 -6.3924 -8.4295 29.6047
#
#
#
# Elastic Compliance Matrix: (Units=1/GPa)
#
#
# Indices 1 2 3 4 5 6 
#
# 1 0.014218 0.002887 -0.001909 0.005000 -0.000513 0.000822
# 2 0.002887 0.024014 -0.003118 0.008017 0.001618 0.004241
# 3 -0.001909 -0.003118 0.005483 0.000744 -0.001242 -0.004966
# 4 0.005000 0.008017 0.000744 0.027602 -0.003449 0.003491
# 5 -0.000513 0.001618 -0.001242 -0.003449 0.026507 0.007988
# 6 0.000822 0.004241 -0.004966 0.003491 0.007988 0.041217
#
#
# Mechanical properties :
#
#
# Convention : Reuss Voigt Hill
#
# Bulk Modulus (GPa) = 25.35913 55.18063 40.26988
# Shear Modulus (GPa) = 31.95563 43.95400 37.95481
#
# Velocity S-wave (km/s) = 3.58975 4.21008 3.91223
# Velocity P-wave (km/s) = 5.23527 6.77384 6.05363
#
# Compressibility (1/GPa) = 0.03943353
#
# Stress axis : x y z
#
# Youngs Moduli (GPa) = 70.33572 41.64261 182.37620
#
# Poissons Ratio (x) = -0.12020 0.34818
# Poissons Ratio (y) = -0.20303 0.56864
# Poissons Ratio (z) = 0.13428 0.12984
#
# Static dielectric constant tensor:
#      x y z
#    x 2.064330 0.001540 0.046810 
#    y 0.001540 1.929130 -0.012370 
#    z 0.046810 -0.012370 2.064690 
# 
# From -- ./inp_files/398736.got.cif
#   From: 2010.05.17/outbox.cif.g08.bks.cpg/sg2_200_cif.got.tgz:398736.got - 2010.06.03 11:33:40.
