data_PCOD9088426
_publ_section_title
;
Structure prediction by ZEFSAII (Michael W. Deem and Ramdas Pophale) SiO2 
 PCOD9088426
Probable space group: P -1
;
_chemical_formula_sum "Si O2"
_cell_formula_units_Z 16
_cell_length_a 18.884923
_cell_length_b 15.986160
_cell_length_c 14.996169
_cell_angle_alpha 140.873127
_cell_angle_beta 148.987162
_cell_angle_gamma 18.676589
_cell_volume 728.789778
_symmetry_space_group_name_H-M "P -1"
_symmetry_group_IT_number 2
_symmetry_cell_setting 'triclinic'
loop_
_space_group_symop_operation_xyz
x,y,z
-x,-y,-z
loop_
_atom_site_type_symbol
_atom_site_label
_atom_site_fract_x
_atom_site_fract_y
_atom_site_fract_z
Si Si1 0.288245 0.285424 0.183735
Si Si2 0.642129 0.451299 0.749995
Si Si3 0.794338 0.358256 0.639700
Si Si4 0.085893 0.300204 0.348097
Si Si5 0.482762 0.777454 0.130022
Si Si6 0.422886 0.881447 0.950500
Si Si7 0.694147 0.789760 0.660829
Si Si8 0.945126 0.956272 0.989821
O O1 0.377210 0.358889 0.313471
O O2 0.238607 0.337447 0.279821
O O3 0.000000 0.500000 0.000000
O O4 0.466210 0.002881 0.117612
O O5 0.774839 0.321135 0.688634
O O6 0.342813 0.631622 0.566832
O O7 0.621959 0.626022 0.892683
O O8 0.821835 0.230244 0.836911
O O9 0.116166 0.122208 0.777681
O O10 0.373538 0.036903 0.492039
O O11 0.036793 0.203121 0.165657
O O12 0.802151 0.552514 0.305601
O O13 0.130545 0.368324 0.371830
O O14 0.298664 0.062325 0.181878
O O15 0.349587 0.786014 0.062393
O O16 0.446108 0.786740 0.992857
O O17 0.000000 0.000000 0.000000
#
# Coordination Sequence:
#
# PCOD9088426 Si02
#       8
#     2   2   2   2   2   2   2   2
#     4   9  20  36  63  91 124 156 197 261 299 360
#     4  11  22  39  63  86 121 168 205 247 315 365
#     4  10  22  39  61  89 126 160 201 261 302 363
#     4  10  20  37  61  84 116 160 197 257 306 366
#     4  10  19  37  61  86 118 158 204 251 309 365
#     4  10  19  38  62  90 118 159 207 249 306 377
#     4   9  20  36  59  90 118 150 202 249 313 365
#     4  11  24  38  59  88 119 164 211 254 301 367
#
# _framework density 21.954203
#
# number of rings (size 3 to 8) (size 9 to 14) (size 15 to 20)
#    0.000    2.000    2.500    0.750    3.500    1.000 
#    0.000    3.750    2.750    0.000    0.000    0.000 
#    0.000    0.000    0.000    0.000    0.000    0.000 
#
# Total GULP energy -89140.583201 kJ/mol
# GULP energy per Si atom -5571.286450 kJ/mol
# Density = 2.190423 g / cm^3
# Si number density = 21.954203 Si / 1000 Ang^3
#
#
#
# Elastic Constant Matrix: (Units=GPa)
#
#
# Indices 1 2 3 4 5 6 
#
# 1 114.7095 23.1991 38.8847 -19.2244 -23.5086 14.0827
# 2 23.1991 56.1998 23.8251 -7.1273 2.6624 -2.9472
# 3 38.8847 23.8251 91.5591 -13.1808 -17.9163 6.3699
# 4 -19.2244 -7.1273 -13.1808 33.5558 0.6074 0.6127
# 5 -23.5086 2.6624 -17.9163 0.6074 34.1271 -2.4415
# 6 14.0827 -2.9472 6.3699 0.6127 -2.4415 28.3767
#
#
#
# Elastic Compliance Matrix: (Units=1/GPa)
#
#
# Indices 1 2 3 4 5 6 
#
# 1 0.013840 -0.005004 -0.001564 0.006215 0.008532 -0.006437
# 2 -0.005004 0.022954 -0.005807 -0.000230 -0.007889 0.005497
# 3 -0.001564 -0.005807 0.015219 0.003770 0.007104 -0.002714
# 4 0.006215 -0.000230 0.003770 0.034774 0.005356 -0.004245
# 5 0.008532 -0.007889 0.007104 0.005356 0.039187 -0.003393
# 6 -0.006437 0.005497 -0.002714 -0.004245 -0.003393 0.039415
#
#
# Mechanical properties :
#
#
# Convention : Reuss Voigt Hill
#
# Bulk Modulus (GPa) = 36.67882 48.25404 42.46643
# Shear Modulus (GPa) = 25.09712 30.98255 28.03984
#
# Velocity S-wave (km/s) = 3.38473 3.76072 3.57767
# Velocity P-wave (km/s) = 5.65848 6.39409 6.03750
#
# Compressibility (1/GPa) = 0.02726369
#
# Stress axis : x y z
#
# Youngs Moduli (GPa) = 72.25289 43.56548 65.70862
#
# Poissons Ratio (x) = 0.21800 0.10274
# Poissons Ratio (y) = 0.36155 0.38158
# Poissons Ratio (z) = 0.11297 0.25299
#
# Static dielectric constant tensor:
#      x y z
#    x 1.949270 -0.034260 0.002840 
#    y -0.034260 1.909790 0.014800 
#    z 0.002840 0.014800 1.842250 
# 
# From -- ./inp_files/538838.got.cif
#   From: 2010.05.17/outbox.cif.g08.bks.cpg/sg2_270_cif.got.tgz:538838.got - 2010.06.03 11:33:40.
