data_PCOD9088845
_publ_section_title
;
Structure prediction by ZEFSAII (Michael W. Deem and Ramdas Pophale) SiO2 
 PCOD9088845
Probable space group: P -1
;
_chemical_formula_sum "Si O2"
_cell_formula_units_Z 16
_cell_length_a 9.110153
_cell_length_b 10.496457
_cell_length_c 9.262048
_cell_angle_alpha 115.298954
_cell_angle_beta 70.313266
_cell_angle_gamma 121.456366
_cell_volume 675.568512
_symmetry_space_group_name_H-M "P -1"
_symmetry_group_IT_number 2
_symmetry_cell_setting 'triclinic'
loop_
_space_group_symop_operation_xyz
x,y,z
-x,-y,-z
loop_
_atom_site_type_symbol
_atom_site_label
_atom_site_fract_x
_atom_site_fract_y
_atom_site_fract_z
Si Si1 0.501129 0.334287 0.450689
Si Si2 0.174768 0.787655 0.239811
Si Si3 0.780006 0.725359 0.269889
Si Si4 0.922977 0.274053 0.159310
Si Si5 0.293482 0.620303 0.874739
Si Si6 0.177584 0.161367 0.998276
Si Si7 0.669550 0.977947 0.907862
Si Si8 0.824191 0.337174 0.504141
O O1 0.500000 0.500000 0.500000
O O2 0.318688 0.242859 0.548686
O O3 0.559345 0.287247 0.254349
O O4 0.654300 0.356210 0.522590
O O5 0.187443 0.737905 0.373634
O O6 0.976399 0.756087 0.256695
O O7 0.260841 0.697327 0.067662
O O8 0.279942 0.972031 0.250110
O O9 0.691631 0.538159 0.174974
O O10 0.769801 0.818064 0.176030
O O11 0.882328 0.412045 0.176198
O O12 0.816421 0.133927 0.017067
O O13 0.842958 0.226964 0.320337
O O14 0.118711 0.299157 0.111704
O O15 0.309816 0.155483 0.069905
O O16 0.000000 0.000000 0.000000
O O17 0.500000 0.000000 0.000000
O O18 0.000000 0.500000 0.500000
#
# Coordination Sequence:
#
# PCOD9088845 Si02
#       8
#     2   2   2   2   2   2   2   2
#     4   9  20  37  55  87 128 164 196 253 312 373
#     4  11  21  37  64  91 118 165 212 253 311 370
#     4  11  19  34  66  91 125 165 204 258 320 369
#     4   9  19  40  63  88 124 163 206 247 319 366
#     4   9  18  35  61  90 120 157 203 245 317 376
#     4  10  19  37  63  91 119 166 214 255 307 371
#     4  10  22  41  65  88 124 162 215 265 304 364
#     4  11  23  38  62  94 133 159 204 256 315 377
#
# _framework density 23.683754
#
# number of rings (size 3 to 8) (size 9 to 14) (size 15 to 20)
#    0.000    2.000    3.750    2.625    3.500    0.000 
#    0.000   13.750    8.250    0.000    0.000    0.000 
#    0.000    0.000    0.000    0.000    0.000    0.000 
#
# Total GULP energy -89156.873555 kJ/mol
# GULP energy per Si atom -5572.304597 kJ/mol
# Density = 2.362985 g / cm^3
# Si number density = 23.683754 Si / 1000 Ang^3
#
#
#
# Elastic Constant Matrix: (Units=GPa)
#
#
# Indices 1 2 3 4 5 6 
#
# 1 143.2775 20.3575 55.8788 -21.6893 -0.9351 -26.2099
# 2 20.3575 52.3428 45.9824 -27.3129 -0.7568 -19.7027
# 3 55.8788 45.9824 197.3512 -35.7336 -4.0062 -21.9510
# 4 -21.6893 -27.3129 -35.7336 49.6823 -10.4750 0.4392
# 5 -0.9351 -0.7568 -4.0062 -10.4750 50.6164 -12.9983
# 6 -26.2099 -19.7027 -21.9510 0.4392 -12.9983 28.4858
#
#
#
# Elastic Compliance Matrix: (Units=1/GPa)
#
#
# Indices 1 2 3 4 5 6 
#
# 1 0.011323 0.009779 -0.001189 0.010878 0.007529 0.019533
# 2 0.009779 0.062787 -0.002481 0.041804 0.025352 0.061438
# 3 -0.001189 -0.002481 0.007084 0.003639 0.002175 0.003585
# 4 0.010878 0.041804 0.003639 0.055527 0.026168 0.052812
# 5 0.007529 0.025352 0.002175 0.026168 0.036781 0.042519
# 6 0.019533 0.061438 0.003585 0.052812 0.042519 0.116922
#
#
# Mechanical properties :
#
#
# Convention : Reuss Voigt Hill
#
# Bulk Modulus (GPa) = 10.70523 70.82320 40.76421
# Shear Modulus (GPa) = 16.16329 43.80709 29.98519
#
# Velocity S-wave (km/s) = 2.61523 4.30544 3.56204
# Velocity P-wave (km/s) = 3.69448 7.39489 5.84524
#
# Compressibility (1/GPa) = 0.09341231
#
# Stress axis : x y z
#
# Youngs Moduli (GPa) = 88.31549 15.92676 141.17079
#
# Poissons Ratio (x) = -0.15575 0.16790
# Poissons Ratio (y) = -0.86364 0.35018
# Poissons Ratio (z) = 0.10504 0.03951
#
# Static dielectric constant tensor:
#      x y z
#    x 1.929270 0.021680 0.049620 
#    y 0.021680 2.205590 0.063750 
#    z 0.049620 0.063750 1.870810 
# 
# From -- ./inp_files/178860.got.cif
#   From: 2010.05.17/outbox.cif.g08.bks.cpg/sg2_90_cif.got.tgz:178860.got - 2010.06.03 11:33:40.
