data_PCOD9088164
_publ_section_title
;
Structure prediction by ZEFSAII (Michael W. Deem and Ramdas Pophale) SiO2 
 PCOD9088164
Probable space group: P -1
;
_chemical_formula_sum "Si O2"
_cell_formula_units_Z 15
_cell_length_a 8.877798
_cell_length_b 9.351443
_cell_length_c 11.703987
_cell_angle_alpha 93.536283
_cell_angle_beta 142.546575
_cell_angle_gamma 85.036102
_cell_volume 588.631353
_symmetry_space_group_name_H-M "P -1"
_symmetry_group_IT_number 2
_symmetry_cell_setting 'triclinic'
loop_
_space_group_symop_operation_xyz
x,y,z
-x,-y,-z
loop_
_atom_site_type_symbol
_atom_site_label
_atom_site_fract_x
_atom_site_fract_y
_atom_site_fract_z
Si Si1 0.605780 0.561098 0.384569
Si Si2 0.000000 0.500000 0.000000
Si Si3 0.661540 0.397023 0.177037
Si Si4 0.477534 0.088657 0.108060
Si Si5 0.163635 0.625519 0.281973
Si Si6 0.901351 0.061950 0.778204
Si Si7 0.519634 0.140666 0.749695
Si Si8 0.954531 0.259130 0.156932
O O1 0.685266 0.484362 0.312448
O O2 0.304096 0.571945 0.240007
O O3 0.719225 0.469686 0.552850
O O4 0.636001 0.729170 0.396054
O O5 0.906777 0.588951 0.069113
O O6 0.058894 0.347038 0.118174
O O7 0.568505 0.243623 0.149594
O O8 0.902579 0.353418 0.243234
O O9 0.500000 0.500000 0.000000
O O10 0.617417 0.988358 0.282960
O O11 0.189615 0.088906 0.970458
O O12 0.500000 0.000000 0.000000
O O13 0.187649 0.791039 0.335139
O O14 0.724184 0.078850 0.780991
O O15 0.902037 0.895003 0.736972
O O16 0.680155 0.217241 0.947255
#
# Coordination Sequence:
#
# PCOD9088164 Si02
#       8
#     2   1   2   2   2   2   2   2
#     4  10  21  42  59  90 128 163 196 258 309 359
#     4  12  22  38  64  96 110 158 212 254 302 360
#     4  12  22  36  60  91 126 161 203 247 308 370
#     4  11  20  34  60  92 121 162 203 247 304 366
#     4  10  23  39  65  88 122 163 208 249 308 363
#     4  10  21  37  60  89 125 157 206 256 303 354
#     4  10  19  37  59  88 124 161 201 257 302 355
#     4  11  21  36  59  95 119 156 206 255 300 364
#
# _framework density 25.482845000000001
#
# number of rings (size 3 to 8) (size 9 to 14) (size 15 to 20)
#    0.000    1.333    6.667    1.600    3.733    0.000 
#    0.000    2.667    0.000    4.800    0.000    0.000 
#    0.000    0.000    0.000    0.000    0.000    0.000 
#
# Total GULP energy -83587.954780 kJ/mol
# GULP energy per Si atom -5572.530319 kJ/mol
# Density = 2.542484 g / cm^3
# Si number density = 25.482845 Si / 1000 Ang^3
#
#
#
# Elastic Constant Matrix: (Units=GPa)
#
#
# Indices 1 2 3 4 5 6 
#
# 1 101.5799 92.9030 63.1533 -29.7424 -30.0078 -6.1271
# 2 92.9030 250.3124 75.6142 -48.9635 -23.9495 10.0877
# 3 63.1533 75.6142 115.6077 -29.5540 -30.6579 -6.6739
# 4 -29.7424 -48.9635 -29.5540 47.9693 7.5201 -16.8388
# 5 -30.0078 -23.9495 -30.6579 7.5201 34.7388 1.9242
# 6 -6.1271 10.0877 -6.6739 -16.8388 1.9242 66.0834
#
#
#
# Elastic Compliance Matrix: (Units=1/GPa)
#
#
# Indices 1 2 3 4 5 6 
#
# 1 0.021911 -0.004872 -0.004475 0.005447 0.010251 0.003413
# 2 -0.004872 0.006686 -0.001402 0.002866 -0.001409 -0.000843
# 3 -0.004475 -0.001402 0.015425 0.004952 0.007576 0.002398
# 4 0.005447 0.002866 0.004952 0.032748 0.003473 0.008811
# 5 0.010251 -0.001409 0.007576 0.003473 0.042516 0.001578
# 6 0.003413 -0.000843 0.002398 0.008811 0.001578 0.018019
#
#
# Mechanical properties :
#
#
# Convention : Reuss Voigt Hill
#
# Bulk Modulus (GPa) = 44.39543 103.42677 73.91110
# Shear Modulus (GPa) = 30.06416 45.48028 37.77222
#
# Velocity S-wave (km/s) = 3.43852 4.22920 3.85419
# Velocity P-wave (km/s) = 5.76403 8.03263 6.99097
#
# Compressibility (1/GPa) = 0.02252484
#
# Stress axis : x y z
#
# Youngs Moduli (GPa) = 45.63873 149.56051 64.83058
#
# Poissons Ratio (x) = 0.72862 0.29013
# Poissons Ratio (y) = 0.22234 0.09087
# Poissons Ratio (z) = 0.20425 0.20964
#
# Static dielectric constant tensor:
#      x y z
#    x 2.071040 0.057500 0.106450 
#    y 0.057500 2.138240 0.043050 
#    z 0.106450 0.043050 2.203890 
# 
# From -- ./inp_files/376482.got.cif
#   From: 2010.05.17/outbox.cif.g08.bks.cpg/sg2_189_cif.got.tgz:376482.got - 2010.06.03 11:33:40.
