data_PCOD9088789
_publ_section_title
;
Structure prediction by ZEFSAII (Michael W. Deem and Ramdas Pophale) SiO2 
 PCOD9088789
Probable space group: P -1
;
_chemical_formula_sum "Si O2"
_cell_formula_units_Z 14
_cell_length_a 23.923280
_cell_length_b 11.464329
_cell_length_c 9.100334
_cell_angle_alpha 122.067584
_cell_angle_beta 38.649704
_cell_angle_gamma 149.099955
_cell_volume 721.189446
_symmetry_space_group_name_H-M "P -1"
_symmetry_group_IT_number 2
_symmetry_cell_setting 'triclinic'
loop_
_space_group_symop_operation_xyz
x,y,z
-x,-y,-z
loop_
_atom_site_type_symbol
_atom_site_label
_atom_site_fract_x
_atom_site_fract_y
_atom_site_fract_z
Si Si1 0.952366 0.950540 0.806438
Si Si2 0.175871 0.723368 0.708237
Si Si3 0.955378 0.721776 0.410884
Si Si4 0.541874 0.895461 0.374234
Si Si5 0.806533 0.145244 0.798234
Si Si6 0.802394 0.675142 0.218924
Si Si7 0.961964 0.288443 0.271694
O O1 0.905726 0.773116 0.666105
O O2 0.989229 0.132775 0.755352
O O3 0.822417 0.780011 0.092969
O O4 0.121764 0.144738 0.678618
O O5 0.155700 0.814091 0.687106
O O6 0.177852 0.570445 0.535680
O O7 0.321363 0.932614 0.663416
O O8 0.000000 0.500000 0.000000
O O9 0.110478 0.847463 0.248949
O O10 0.378944 0.607695 0.565428
O O11 0.500000 0.000000 0.500000
O O12 0.623210 0.937247 0.088199
O O13 0.849820 0.141751 0.548292
O O14 0.905840 0.417422 0.785667
O O15 0.925124 0.700306 0.973539
#
# Coordination Sequence:
#
# PCOD9088789 Si02
#       7
#     2   2   2   2   2   2   2
#     4  10  22  38  62  82 122 169 202 237 282 368
#     4  11  20  36  64  92 116 155 192 251 308 356
#     4  10  19  38  61  88 113 161 208 233 285 367
#     4  12  22  37  60  97 125 145 193 263 307 343
#     4  10  20  35  62  87 119 154 194 249 302 353
#     4  11  22  39  62  91 119 157 206 245 298 346
#     4  10  19  37  63  88 116 157 200 241 301 367
#
# _framework density 19.412375000000001
#
# number of rings (size 3 to 8) (size 9 to 14) (size 15 to 20)
#    0.000    1.429    5.714    1.714    0.000    0.000 
#    0.000    7.143    0.000    0.000    0.000    0.000 
#    0.000    0.000    0.000    0.000    0.000    0.000 
#
# Total GULP energy -78090.412529 kJ/mol
# GULP energy per Si atom -5577.886609 kJ/mol
# Density = 1.936819 g / cm^3
# Si number density = 19.412375 Si / 1000 Ang^3
#
#
#
# Elastic Constant Matrix: (Units=GPa)
#
#
# Indices 1 2 3 4 5 6 
#
# 1 122.2373 21.8156 52.1545 -5.8594 24.9349 2.2161
# 2 21.8156 72.7983 38.3476 -10.4238 7.6184 10.5202
# 3 52.1545 38.3476 117.7520 -19.7677 19.6979 7.5698
# 4 -5.8594 -10.4238 -19.7677 38.4634 -2.8962 -0.9905
# 5 24.9349 7.6184 19.6979 -2.8962 30.2125 2.2974
# 6 2.2161 10.5202 7.5698 -0.9905 2.2974 29.2001
#
#
#
# Elastic Compliance Matrix: (Units=1/GPa)
#
#
# Indices 1 2 3 4 5 6 
#
# 1 0.011281 -0.000962 -0.003775 -0.000967 -0.006773 0.000969
# 2 -0.000962 0.017459 -0.004582 0.002100 -0.000044 -0.004955
# 3 -0.003775 -0.004582 0.013128 0.004620 -0.003768 -0.001013
# 4 -0.000967 0.002100 0.004620 0.028778 0.000085 -0.000911
# 5 -0.006773 -0.000044 -0.003768 0.000085 0.041297 -0.001740
# 6 0.000969 -0.004955 -0.001013 -0.000911 -0.001740 0.036327
#
#
# Mechanical properties :
#
#
# Convention : Reuss Voigt Hill
#
# Bulk Modulus (GPa) = 43.04571 59.71366 51.37968
# Shear Modulus (GPa) = 28.62878 32.93985 30.78432
#
# Velocity S-wave (km/s) = 3.84444 4.12375 3.98654
# Velocity P-wave (km/s) = 6.47524 7.31445 6.90760
#
# Compressibility (1/GPa) = 0.02323112
#
# Stress axis : x y z
#
# Youngs Moduli (GPa) = 88.64655 57.27544 76.17574
#
# Poissons Ratio (x) = 0.05509 0.28756
# Poissons Ratio (y) = 0.08526 0.34901
# Poissons Ratio (z) = 0.33463 0.26242
#
# Static dielectric constant tensor:
#      x y z
#    x 1.699090 -0.024510 0.020700 
#    y -0.024510 1.731310 0.071840 
#    z 0.020700 0.071840 1.695010 
# 
# From -- ./inp_files/172404.got.cif
#   From: 2010.05.17/outbox.cif.g08.bks.cpg/sg2_87_cif.got.tgz:172404.got - 2010.06.03 11:33:40.
