data_PCOD9088133
_publ_section_title
;
Structure prediction by ZEFSAII (Michael W. Deem and Ramdas Pophale) SiO2 
 PCOD9088133
Probable space group: P -1
;
_chemical_formula_sum "Si O2"
_cell_formula_units_Z 16
_cell_length_a 14.672512
_cell_length_b 13.200947
_cell_length_c 10.433459
_cell_angle_alpha 127.036621
_cell_angle_beta 71.670605
_cell_angle_gamma 150.880971
_cell_volume 658.158196
_symmetry_space_group_name_H-M "P -1"
_symmetry_group_IT_number 2
_symmetry_cell_setting 'triclinic'
loop_
_space_group_symop_operation_xyz
x,y,z
-x,-y,-z
loop_
_atom_site_type_symbol
_atom_site_label
_atom_site_fract_x
_atom_site_fract_y
_atom_site_fract_z
Si Si1 0.536102 0.684275 0.797921
Si Si2 0.413972 0.992946 0.924857
Si Si3 0.285633 0.015022 0.482726
Si Si4 0.828162 0.941340 0.634668
Si Si5 0.350278 0.376088 0.118672
Si Si6 0.698585 0.359236 0.482741
Si Si7 0.060032 0.515443 0.345607
Si Si8 0.013462 0.073882 0.262140
O O1 0.721991 0.893402 0.763541
O O2 0.360625 0.370123 0.587263
O O3 0.620840 0.733070 0.932768
O O4 0.440263 0.708162 0.885996
O O5 0.395459 0.881047 0.723693
O O6 0.165139 0.760511 0.850094
O O7 0.500000 0.000000 0.000000
O O8 0.116412 0.889312 0.369777
O O9 0.422217 0.273161 0.710531
O O10 0.486952 0.198995 0.447732
O O11 0.197771 0.788482 0.422249
O O12 0.976969 0.009645 0.685922
O O13 0.189355 0.237992 0.198756
O O14 0.221777 0.225798 0.929313
O O15 0.796528 0.437519 0.640163
O O16 0.900146 0.677930 0.567086
O O17 0.000000 0.500000 0.500000
#
# Coordination Sequence:
#
# PCOD9088133 Si02
#       8
#     2   2   2   2   2   2   2   2
#     4   9  16  31  52  81 112 149 187 223 284 337
#     4  11  21  35  56  81 114 155 191 227 281 349
#     4  10  19  37  59  86 115 148 193 240 289 333
#     4   9  17  30  55  84 116 143 180 240 285 333
#     4   8  16  28  54  83 113 146 188 239 276 334
#     4  10  20  35  59  85 118 155 189 229 277 347
#     4  10  23  40  58  79 114 157 194 237 288 342
#     4   9  15  29  52  88 116 144 185 230 290 333
#
# _framework density 24.310264
#
# number of rings (size 3 to 8) (size 9 to 14) (size 15 to 20)
#    0.000    2.500    0.000    4.875    0.000    1.000 
#    0.000    5.000    0.000   39.000    0.000    0.000 
#    0.000    0.000    0.000    0.000    0.000    0.125 
#
# Total GULP energy -89216.907049 kJ/mol
# GULP energy per Si atom -5576.056691 kJ/mol
# Density = 2.425493 g / cm^3
# Si number density = 24.310264 Si / 1000 Ang^3
#
#
#
# Elastic Constant Matrix: (Units=GPa)
#
#
# Indices 1 2 3 4 5 6 
#
# 1 130.9271 19.7881 38.8127 -8.3334 11.1629 -46.2958
# 2 19.7881 70.1746 23.2582 0.6173 10.6458 -24.8676
# 3 38.8127 23.2582 73.4270 -4.5726 6.6900 -9.5349
# 4 -8.3334 0.6173 -4.5726 19.5882 -8.4262 -3.5185
# 5 11.1629 10.6458 6.6900 -8.4262 61.0241 -16.5707
# 6 -46.2958 -24.8676 -9.5349 -3.5185 -16.5707 44.5729
#
#
#
# Elastic Compliance Matrix: (Units=1/GPa)
#
#
# Indices 1 2 3 4 5 6 
#
# 1 0.016759 0.004259 -0.007234 0.010753 0.004061 0.020594
# 2 0.004259 0.020393 -0.006689 0.002623 0.000798 0.014873
# 3 -0.007234 -0.006689 0.018644 -0.000736 -0.001826 -0.007993
# 4 0.010753 0.002623 -0.000736 0.064823 0.012662 0.022299
# 5 0.004061 0.000798 -0.001826 0.012662 0.021006 0.013081
# 6 0.020594 0.014873 -0.007993 0.022299 0.013081 0.057036
#
#
# Mechanical properties :
#
#
# Convention : Reuss Voigt Hill
#
# Bulk Modulus (GPa) = 27.42102 48.69409 38.05755
# Shear Modulus (GPa) = 21.72563 37.88171 29.80367
#
# Velocity S-wave (km/s) = 2.99269 3.95176 3.50518
# Velocity P-wave (km/s) = 4.82138 6.39497 5.66310
#
# Compressibility (1/GPa) = 0.03646837
#
# Stress axis : x y z
#
# Youngs Moduli (GPa) = 59.67087 49.03728 53.63742
#
# Poissons Ratio (x) = -0.20884 0.38799
# Poissons Ratio (y) = -0.25413 0.35876
# Poissons Ratio (z) = 0.43163 0.32799
#
# Static dielectric constant tensor:
#      x y z
#    x 2.107970 0.008110 -0.030160 
#    y 0.008110 2.007230 0.057520 
#    z -0.030160 0.057520 1.975550 
# 
# From -- ./inp_files/452573.got.cif
#   From: 2010.05.17/outbox.cif.g08.bks.cpg/sg2_227_cif.got.tgz:452573.got - 2010.06.03 11:33:40.
