data_PCOD9088776
_publ_section_title
;
Structure prediction by ZEFSAII (Michael W. Deem and Ramdas Pophale) SiO2 
 PCOD9088776
Probable space group: P -1
;
_chemical_formula_sum "Si O2"
_cell_formula_units_Z 16
_cell_length_a 16.380235
_cell_length_b 13.615329
_cell_length_c 23.825788
_cell_angle_alpha 21.844277
_cell_angle_beta 157.099398
_cell_angle_gamma 146.926853
_cell_volume 764.010580
_symmetry_space_group_name_H-M "P -1"
_symmetry_group_IT_number 2
_symmetry_cell_setting 'triclinic'
loop_
_space_group_symop_operation_xyz
x,y,z
-x,-y,-z
loop_
_atom_site_type_symbol
_atom_site_label
_atom_site_fract_x
_atom_site_fract_y
_atom_site_fract_z
Si Si1 0.107155 0.456721 0.424733
Si Si2 0.035343 0.084428 0.393568
Si Si3 0.820731 0.667439 0.760771
Si Si4 0.269960 0.474878 0.392721
Si Si5 0.497243 0.890881 0.619651
Si Si6 0.047557 0.029893 0.080958
Si Si7 0.448920 0.748707 0.154457
Si Si8 0.424688 0.720758 0.024474
O O1 0.226717 0.500861 0.418103
O O2 0.300493 0.336425 0.649573
O O3 0.005550 0.742254 0.230222
O O4 0.954083 0.231778 0.438626
O O5 0.095963 0.230618 0.298146
O O6 0.192048 0.191146 0.480336
O O7 0.789957 0.191380 0.192280
O O8 0.649847 0.458925 0.758926
O O9 0.700692 0.929606 0.574318
O O10 0.000000 0.500000 0.000000
O O11 0.500000 0.500000 0.500000
O O12 0.107108 0.710872 0.136987
O O13 0.713158 0.934289 0.767339
O O14 0.484147 0.576036 0.776276
O O15 0.500000 0.000000 0.500000
O O16 0.000000 0.000000 0.000000
O O17 0.362570 0.729713 0.046806
O O18 0.427043 0.043387 0.009890
#
# Coordination Sequence:
#
# PCOD9088776 Si02
#       8
#     2   2   2   2   2   2   2   2
#     4  10  21  41  62  90 123 174 206 251 317 384
#     4  11  22  39  63  89 128 165 213 259 316 375
#     4  12  23  38  61  95 129 167 210 270 320 373
#     4  11  23  40  66  94 123 161 216 265 313 379
#     4  12  21  40  66  95 123 169 217 260 318 389
#     4  10  22  40  65  91 128 169 209 258 325 382
#     4  10  19  37  63  86 128 155 212 248 325 366
#     4  10  20  37  63  91 117 171 205 259 312 385
#
# _framework density 20.942118000000001
#
# number of rings (size 3 to 8) (size 9 to 14) (size 15 to 20)
#    0.000    1.250    5.000    1.125    1.750    0.000 
#    0.000    5.000    0.000    0.000    0.000    0.000 
#    0.000    0.000    0.000    0.000    0.000    0.000 
#
# Total GULP energy -89240.461239 kJ/mol
# GULP energy per Si atom -5577.528827 kJ/mol
# Density = 2.089445 g / cm^3
# Si number density = 20.942118 Si / 1000 Ang^3
#
#
#
# Elastic Constant Matrix: (Units=GPa)
#
#
# Indices 1 2 3 4 5 6 
#
# 1 55.3973 10.8499 10.8030 0.1545 -3.7114 0.6428
# 2 10.8499 144.8383 49.7637 -31.4925 6.7346 -0.9355
# 3 10.8030 49.7637 108.4181 -23.8738 5.7764 -5.1756
# 4 0.1545 -31.4925 -23.8738 54.0038 -3.9354 -10.5625
# 5 -3.7114 6.7346 5.7764 -3.9354 23.6441 -0.8946
# 6 0.6428 -0.9355 -5.1756 -10.5625 -0.8946 22.7956
#
#
#
# Elastic Compliance Matrix: (Units=1/GPa)
#
#
# Indices 1 2 3 4 5 6 
#
# 1 0.018942 -0.001306 -0.001940 -0.001755 0.003463 -0.001705
# 2 -0.001306 0.008986 -0.002929 0.004172 -0.001293 0.001623
# 3 -0.001940 -0.002929 0.012037 0.004420 -0.001499 0.004657
# 4 -0.001755 0.004172 0.004420 0.025653 0.002225 0.013198
# 5 0.003463 -0.001293 -0.001499 0.002225 0.044028 0.002268
# 6 -0.001705 0.001623 0.004657 0.013198 0.002268 0.051244
#
#
# Mechanical properties :
#
#
# Convention : Reuss Voigt Hill
#
# Bulk Modulus (GPa) = 36.21323 50.16521 43.18922
# Shear Modulus (GPa) = 27.40521 35.90452 31.65487
#
# Velocity S-wave (km/s) = 3.62141 4.14510 3.89207
# Velocity P-wave (km/s) = 5.90048 6.84948 6.39262
#
# Compressibility (1/GPa) = 0.02761421
#
# Stress axis : x y z
#
# Youngs Moduli (GPa) = 52.79206 111.27934 83.07732
#
# Poissons Ratio (x) = 0.14532 0.16120
# Poissons Ratio (y) = 0.06894 0.24337
# Poissons Ratio (z) = 0.10243 0.32599
#
# Static dielectric constant tensor:
#      x y z
#    x 1.745340 0.075970 0.063580 
#    y 0.075970 1.630580 -0.151070 
#    z 0.063580 -0.151070 1.660250 
# 
# From -- ./inp_files/205778.got.cif
#   From: 2010.05.17/outbox.cif.g08.bks.cpg/sg2_103_cif.got.tgz:205778.got - 2010.06.03 11:33:40.
