data_PCOD9088084
_publ_section_title
;
Structure prediction by ZEFSAII (Michael W. Deem and Ramdas Pophale) SiO2 
 PCOD9088084
Probable space group: P -1
;
_chemical_formula_sum "Si O2"
_cell_formula_units_Z 12
_cell_length_a 10.775759
_cell_length_b 11.910374
_cell_length_c 14.780038
_cell_angle_alpha 152.311206
_cell_angle_beta 48.182224
_cell_angle_gamma 144.855069
_cell_volume 495.620631
_symmetry_space_group_name_H-M "P -1"
_symmetry_group_IT_number 2
_symmetry_cell_setting 'triclinic'
loop_
_space_group_symop_operation_xyz
x,y,z
-x,-y,-z
loop_
_atom_site_type_symbol
_atom_site_label
_atom_site_fract_x
_atom_site_fract_y
_atom_site_fract_z
Si Si1 0.831682 0.271314 0.840695
Si Si2 0.820361 0.736876 0.078632
Si Si3 0.325804 0.832006 0.807902
Si Si4 0.262223 0.433491 0.384591
Si Si5 0.333631 0.363474 0.120743
Si Si6 0.660609 0.606773 0.412122
O O1 0.590017 0.085831 0.868682
O O2 0.828178 0.989824 0.610605
O O3 0.844237 0.475578 0.899944
O O4 0.000000 0.500000 0.000000
O O5 0.593982 0.604791 0.143448
O O6 0.784402 0.741432 0.993004
O O7 0.033009 0.076068 0.256664
O O8 0.274190 0.658045 0.611941
O O9 0.251508 0.578826 0.743478
O O10 0.259793 0.045800 0.980930
O O11 0.274894 0.512674 0.329000
O O12 0.485916 0.487576 0.332060
O O13 0.500000 0.500000 0.500000
#
# Coordination Sequence:
#
# PCOD9088084 Si02
#       6
#     2   2   2   2   2   2
#     4   9  15  30  56  77 104 144 175 218 276 313
#     4  10  20  36  56  82 112 142 184 228 267 323
#     4   9  19  35  55  83 114 140 182 230 267 324
#     4  10  19  37  59  78 110 150 180 221 277 320
#     4  10  22  37  55  82 112 145 183 223 271 326
#     4   8  16  31  54  81 109 142 180 226 272 316
#
# _framework density 24.212067000000001
#
# number of rings (size 3 to 8) (size 9 to 14) (size 15 to 20)
#    0.000    3.000    0.000    3.500    0.000    1.333 
#    0.000   18.333    0.000   42.000    0.000    0.000 
#    0.000    0.000    0.000    0.000    0.000    0.000 
#
# Total GULP energy -67039.720734 kJ/mol
# GULP energy per Si atom -5586.643394 kJ/mol
# Density = 2.415696 g / cm^3
# Si number density = 24.212067 Si / 1000 Ang^3
#
#
#
# Elastic Constant Matrix: (Units=GPa)
#
#
# Indices 1 2 3 4 5 6 
#
# 1 83.0203 20.9161 60.8272 21.5862 12.6304 -1.2783
# 2 20.9161 62.4633 44.1552 19.1714 11.1625 7.5040
# 3 60.8272 44.1552 132.0451 23.7154 38.0112 1.1410
# 4 21.5862 19.1714 23.7154 41.3945 1.4773 2.0100
# 5 12.6304 11.1625 38.0112 1.4773 33.2892 0.2304
# 6 -1.2783 7.5040 1.1410 2.0100 0.2304 46.7999
#
#
#
# Elastic Compliance Matrix: (Units=1/GPa)
#
#
# Indices 1 2 3 4 5 6 
#
# 1 0.019537 0.001044 -0.009232 -0.005530 0.003018 0.000814
# 2 0.001044 0.023114 -0.006934 -0.007125 0.000110 -0.003203
# 3 -0.009232 -0.006934 0.019165 -0.002413 -0.015953 0.000575
# 4 -0.005530 -0.007125 -0.002413 0.031531 0.005845 -0.000333
# 5 0.003018 0.000110 -0.015953 0.005845 0.046814 -0.000028
# 6 0.000814 -0.003203 0.000575 -0.000333 -0.000028 0.021904
#
#
# Mechanical properties :
#
#
# Convention : Reuss Voigt Hill
#
# Bulk Modulus (GPa) = 31.67361 58.81399 45.24380
# Shear Modulus (GPa) = 24.65073 34.40540 29.52806
#
# Velocity S-wave (km/s) = 3.19426 3.77371 3.49601
# Velocity P-wave (km/s) = 5.16861 6.58269 5.91803
#
# Compressibility (1/GPa) = 0.03157203
#
# Stress axis : x y z
#
# Youngs Moduli (GPa) = 51.18403 43.26457 52.17783
#
# Poissons Ratio (x) = -0.04516 0.48169
# Poissons Ratio (y) = -0.05343 0.36181
# Poissons Ratio (z) = 0.47252 0.30001
#
# Static dielectric constant tensor:
#      x y z
#    x 2.034480 0.043240 -0.038910 
#    y 0.043240 1.961270 0.021080 
#    z -0.038910 0.021080 1.911640 
# 
# From -- ./inp_files/519378.got.cif
#   From: 2010.05.17/outbox.cif.g08.bks.cpg/sg2_260_cif.got.tgz:519378.got - 2010.06.03 11:33:40.
