data_PCOD9088514
_publ_section_title
;
Structure prediction by ZEFSAII (Michael W. Deem and Ramdas Pophale) SiO2 
 PCOD9088514
Probable space group: P -1
;
_chemical_formula_sum "Si O2"
_cell_formula_units_Z 16
_cell_length_a 19.275528
_cell_length_b 14.488680
_cell_length_c 10.938268
_cell_angle_alpha 150.955846
_cell_angle_beta 135.428914
_cell_angle_gamma 28.463110
_cell_volume 685.655333
_symmetry_space_group_name_H-M "P -1"
_symmetry_group_IT_number 2
_symmetry_cell_setting 'triclinic'
loop_
_space_group_symop_operation_xyz
x,y,z
-x,-y,-z
loop_
_atom_site_type_symbol
_atom_site_label
_atom_site_fract_x
_atom_site_fract_y
_atom_site_fract_z
Si Si1 0.197849 0.547864 0.160636
Si Si2 0.182286 0.229611 0.922079
Si Si3 0.087980 0.833425 0.743836
Si Si4 0.137259 0.157445 0.293264
Si Si5 0.851417 0.026522 0.246424
Si Si6 0.287500 0.234636 0.425769
Si Si7 0.771055 0.094691 0.626165
Si Si8 0.613197 0.699348 0.128468
O O1 0.179964 0.787735 0.464041
O O2 0.236055 0.361594 0.109675
O O3 0.312886 0.359422 0.976671
O O4 0.030919 0.729778 0.117380
O O5 0.220131 0.068866 0.910155
O O6 0.239656 0.022690 0.640339
O O7 0.000000 0.500000 0.000000
O O8 0.178132 0.801062 0.708118
O O9 0.166697 0.531229 0.543358
O O10 0.921630 0.006543 0.698953
O O11 0.086976 0.012977 0.043087
O O12 0.246950 0.079523 0.236469
O O13 0.000000 0.500000 0.500000
O O14 0.207186 0.059376 0.402149
O O15 0.304861 0.319456 0.675756
O O16 0.443077 0.009487 0.288944
O O17 0.636924 0.438283 0.869912
#
# Coordination Sequence:
#
# PCOD9088514 Si02
#       8
#     2   2   2   2   2   2   2   2
#     4  10  19  37  61  91 120 159 199 254 305 352
#     4  10  21  33  58  99 122 150 203 258 305 353
#     4  12  23  40  61  92 128 158 200 255 308 360
#     4  12  25  38  64  94 124 159 204 255 308 360
#     4  10  20  35  61  91 121 153 204 258 299 352
#     4  11  26  43  60  92 126 165 204 248 309 366
#     4  12  21  39  67  91 121 163 205 252 306 364
#     4  11  22  44  65  86 127 164 203 254 303 366
#
# _framework density 23.335339000000001
#
# number of rings (size 3 to 8) (size 9 to 14) (size 15 to 20)
#    0.000    1.000    5.000    3.375    3.500    1.500 
#    2.250    0.625    0.000    1.500    0.000    0.000 
#    0.000    0.000    0.000    0.000    0.000    0.000 
#
# Total GULP energy -89464.701556 kJ/mol
# GULP energy per Si atom -5591.543847 kJ/mol
# Density = 2.328223 g / cm^3
# Si number density = 23.335339 Si / 1000 Ang^3
#
#
#
# Elastic Constant Matrix: (Units=GPa)
#
#
# Indices 1 2 3 4 5 6 
#
# 1 182.6335 10.1677 32.0694 12.3913 2.5036 28.3272
# 2 10.1677 13.5658 6.3947 4.7304 -3.3117 8.0182
# 3 32.0694 6.3947 99.3523 9.0939 -5.1930 -2.7352
# 4 12.3913 4.7304 9.0939 23.5756 0.0734 1.1322
# 5 2.5036 -3.3117 -5.1930 0.0734 49.2714 5.7973
# 6 28.3272 8.0182 -2.7352 1.1322 5.7973 28.8214
#
#
#
# Elastic Compliance Matrix: (Units=1/GPa)
#
#
# Indices 1 2 3 4 5 6 
#
# 1 0.007175 0.001263 -0.002334 -0.002761 0.000372 -0.007591
# 2 0.001263 0.102794 -0.005766 -0.017573 0.009994 -0.031706
# 3 -0.002334 -0.005766 0.011559 -0.002317 0.000363 0.005013
# 4 -0.002761 -0.017573 -0.002317 0.048010 -0.002052 0.005909
# 5 0.000372 0.009994 0.000363 -0.002052 0.021864 -0.007428
# 6 -0.007591 -0.031706 0.005013 0.005909 -0.007428 0.052715
#
#
# Mechanical properties :
#
#
# Convention : Reuss Voigt Hill
#
# Bulk Modulus (GPa) = 9.27189 43.64614 26.45901
# Shear Modulus (GPa) = 17.02177 36.79500 26.90838
#
# Velocity S-wave (km/s) = 2.70375 3.97519 3.39944
# Velocity P-wave (km/s) = 3.70526 6.30984 5.17412
#
# Compressibility (1/GPa) = 0.10785289
#
# Stress axis : x y z
#
# Youngs Moduli (GPa) = 139.38211 9.72821 86.51489
#
# Poissons Ratio (x) = -0.01228 0.20192
# Poissons Ratio (y) = -0.17599 0.49883
# Poissons Ratio (z) = 0.32531 0.05609
#
# Static dielectric constant tensor:
#      x y z
#    x 1.949910 0.013940 0.017630 
#    y 0.013940 1.887810 -0.054960 
#    z 0.017630 -0.054960 1.903110 
# 
# From -- ./inp_files/466159.got.cif
#   From: 2010.05.17/outbox.cif.g08.bks.cpg/sg2_234_cif.got.tgz:466159.got - 2010.06.03 11:33:40.
