data_PCOD9088848
_publ_section_title
;
Structure prediction by ZEFSAII (Michael W. Deem and Ramdas Pophale) SiO2 
 PCOD9088848
Probable space group: P -1
;
_chemical_formula_sum "Si O2"
_cell_formula_units_Z 16
_cell_length_a 8.477014
_cell_length_b 13.187022
_cell_length_c 14.706996
_cell_angle_alpha 31.238080
_cell_angle_beta 100.489016
_cell_angle_gamma 112.695062
_cell_volume 748.083094
_symmetry_space_group_name_H-M "P -1"
_symmetry_group_IT_number 2
_symmetry_cell_setting 'triclinic'
loop_
_space_group_symop_operation_xyz
x,y,z
-x,-y,-z
loop_
_atom_site_type_symbol
_atom_site_label
_atom_site_fract_x
_atom_site_fract_y
_atom_site_fract_z
Si Si1 0.415130 0.028460 0.375437
Si Si2 0.817728 0.408719 0.609399
Si Si3 0.945175 0.208978 0.107992
Si Si4 0.938060 0.161135 0.419113
Si Si5 0.377117 0.624426 0.560500
Si Si6 0.233269 0.618581 0.908196
Si Si7 0.232801 0.300807 0.472988
Si Si8 0.995194 0.793265 0.101386
O O1 0.553114 0.262939 0.171312
O O2 0.500000 0.000000 0.500000
O O3 0.213098 0.974517 0.418510
O O4 0.407601 0.835878 0.458831
O O5 0.657632 0.322160 0.586950
O O6 0.802227 0.600827 0.514586
O O7 0.000000 0.500000 0.500000
O O8 0.844797 0.249624 0.805594
O O9 0.821136 0.320436 0.046908
O O10 0.845101 0.960120 0.323222
O O11 0.131289 0.367335 0.058450
O O12 0.979546 0.196778 0.013189
O O13 0.848636 0.265661 0.260667
O O14 0.111162 0.334282 0.357665
O O15 0.000000 0.000000 0.500000
O O16 0.557095 0.595443 0.606767
O O17 0.198478 0.414687 0.737721
O O18 0.000000 0.000000 0.000000
#
# Coordination Sequence:
#
# PCOD9088848 Si02
#       8
#     2   2   2   2   2   2   2   2
#     4  10  19  37  63  91 122 165 217 261 307 383
#     4  10  22  41  65  93 120 168 217 261 316 387
#     4  11  21  38  65  92 130 169 203 273 331 372
#     4  11  20  36  61  92 122 171 218 262 312 385
#     4  11  22  42  65  94 122 172 219 262 314 388
#     4  10  21  39  62  92 130 169 215 265 331 376
#     4  12  22  40  67  94 128 167 221 263 315 389
#     4  11  24  44  68  92 131 167 213 269 333 382
#
# _framework density 21.388000000000002
#
# number of rings (size 3 to 8) (size 9 to 14) (size 15 to 20)
#    0.000    1.250    2.500    6.375    0.000    0.000 
#    0.000    4.375    8.250    0.000    0.000    0.000 
#    0.000    0.000    0.000    0.000    0.000    0.000 
#
# Total GULP energy -89326.381454 kJ/mol
# GULP energy per Si atom -5582.898841 kJ/mol
# Density = 2.133932 g / cm^3
# Si number density = 21.388000 Si / 1000 Ang^3
#
#
#
# Elastic Constant Matrix: (Units=GPa)
#
#
# Indices 1 2 3 4 5 6 
#
# 1 111.5440 32.9700 13.2595 6.2384 -19.3555 3.8243
# 2 32.9700 165.5969 26.1263 -5.3877 2.1940 -13.9177
# 3 13.2595 26.1263 80.2575 -0.8018 -7.5314 2.3224
# 4 6.2384 -5.3877 -0.8018 31.0567 -3.1405 -0.5202
# 5 -19.3555 2.1940 -7.5314 -3.1405 31.4439 -1.9148
# 6 3.8243 -13.9177 2.3224 -0.5202 -1.9148 38.8984
#
#
#
# Elastic Compliance Matrix: (Units=1/GPa)
#
#
# Indices 1 2 3 4 5 6 
#
# 1 0.011037 -0.002426 -0.000390 -0.002011 0.006569 -0.001633
# 2 -0.002426 0.007189 -0.002214 0.001502 -0.002201 0.002855
# 3 -0.000390 -0.002214 0.013581 0.000336 0.003115 -0.001407
# 4 -0.002011 0.001502 0.000336 0.033108 0.002122 0.001262
# 5 0.006569 -0.002201 0.003115 0.002122 0.036972 0.000229
# 6 -0.001633 0.002855 -0.001407 0.001262 0.000229 0.027002
#
#
# Mechanical properties :
#
#
# Convention : Reuss Voigt Hill
#
# Bulk Modulus (GPa) = 45.98057 55.79000 50.88529
# Shear Modulus (GPa) = 34.20035 39.28263 36.74149
#
# Velocity S-wave (km/s) = 4.00314 4.29028 4.14920
# Velocity P-wave (km/s) = 6.55071 7.11923 6.84088
#
# Compressibility (1/GPa) = 0.02174831
#
# Stress axis : x y z
#
# Youngs Moduli (GPa) = 90.60615 139.10372 73.63034
#
# Poissons Ratio (x) = 0.33740 0.02873
# Poissons Ratio (y) = 0.21977 0.16299
# Poissons Ratio (z) = 0.03535 0.30792
#
# Static dielectric constant tensor:
#      x y z
#    x 1.781290 0.016180 -0.012680 
#    y 0.016180 1.787870 0.031460 
#    z -0.012680 0.031460 1.833470 
# 
# From -- ./inp_files/499897.got.cif
#   From: 2010.05.17/outbox.cif.g08.bks.cpg/sg2_250_cif.got.tgz:499897.got - 2010.06.03 11:33:40.
