data_PCOD9088282
_publ_section_title
;
Structure prediction by ZEFSAII (Michael W. Deem and Ramdas Pophale) SiO2 
 PCOD9088282
Probable space group: P -1
;
_chemical_formula_sum "Si O2"
_cell_formula_units_Z 16
_cell_length_a 20.955724
_cell_length_b 21.623567
_cell_length_c 8.975981
_cell_angle_alpha 38.389067
_cell_angle_beta 134.648798
_cell_angle_gamma 161.245352
_cell_volume 796.094178
_symmetry_space_group_name_H-M "P -1"
_symmetry_group_IT_number 2
_symmetry_cell_setting 'triclinic'
loop_
_space_group_symop_operation_xyz
x,y,z
-x,-y,-z
loop_
_atom_site_type_symbol
_atom_site_label
_atom_site_fract_x
_atom_site_fract_y
_atom_site_fract_z
Si Si1 0.952125 0.340631 0.902721
Si Si2 0.281143 0.484129 0.838988
Si Si3 0.169565 0.389428 0.361100
Si Si4 0.979116 0.594165 0.464418
Si Si5 0.020604 0.125786 0.875568
Si Si6 0.313543 0.083327 0.140378
Si Si7 0.623651 0.862203 0.206567
Si Si8 0.020372 0.131202 0.342553
O O1 0.956979 0.459643 0.736003
O O2 0.016271 0.403779 0.713724
O O3 0.092995 0.409465 0.105260
O O4 0.730572 0.069734 0.045646
O O5 0.200760 0.509164 0.597171
O O6 0.506046 0.721888 0.816464
O O7 0.227843 0.345840 0.893233
O O8 0.136072 0.311065 0.067621
O O9 0.399554 0.627058 0.343980
O O10 0.024838 0.215604 0.586908
O O11 0.151508 0.278464 0.427254
O O12 0.180627 0.850081 0.370833
O O13 0.840115 0.977695 0.969821
O O14 0.000000 0.000000 0.000000
O O15 0.398546 0.163802 0.960224
O O16 0.797829 0.953545 0.349167
O O17 0.000000 0.000000 0.500000
#
# Coordination Sequence:
#
# PCOD9088282 Si02
#       8
#     2   2   2   2   2   2   2   2
#     4   9  18  34  59  89 123 145 191 240 294 334
#     4  11  20  39  58  83 115 155 195 232 289 347
#     4  11  22  37  59  89 117 149 195 247 286 336
#     4   9  17  35  60  90 116 152 189 242 284 349
#     4  11  25  41  57  83 122 155 191 242 295 347
#     4  10  20  38  62  81 117 157 194 234 289 350
#     4  10  19  37  60  87 117 149 195 243 284 339
#     4  11  21  35  58  83 112 148 195 242 285 338
#
# _framework density 20.098125
#
# number of rings (size 3 to 8) (size 9 to 14) (size 15 to 20)
#    0.000    1.750    6.250    0.750    0.000    5.000 
#    0.000    6.250    0.000    4.500    0.000    0.000 
#    0.000    0.000    0.000    0.000    0.000    0.000 
#
# Total GULP energy -89213.079924 kJ/mol
# GULP energy per Si atom -5575.817495 kJ/mol
# Density = 2.005238 g / cm^3
# Si number density = 20.098125 Si / 1000 Ang^3
#
#
#
# Elastic Constant Matrix: (Units=GPa)
#
#
# Indices 1 2 3 4 5 6 
#
# 1 60.1619 22.4318 23.6883 -12.2462 22.9528 -16.2732
# 2 22.4318 131.7127 18.1423 -16.3565 17.7695 -3.1824
# 3 23.6883 18.1423 61.9305 -0.7561 18.1543 6.6401
# 4 -12.2462 -16.3565 -0.7561 13.9109 -9.0930 1.2518
# 5 22.9528 17.7695 18.1543 -9.0930 35.6973 -3.6312
# 6 -16.2732 -3.1824 6.6401 1.2518 -3.6312 19.9855
#
#
#
# Elastic Compliance Matrix: (Units=1/GPa)
#
#
# Indices 1 2 3 4 5 6 
#
# 1 0.042024 0.000749 -0.017810 0.028854 -0.007209 0.037138
# 2 0.000749 0.009365 -0.002957 0.010891 -0.000633 0.002286
# 3 -0.017810 -0.002957 0.029201 -0.021880 -0.010057 -0.025131
# 4 0.028854 0.010891 -0.021880 0.119774 0.020586 0.028736
# 5 -0.007209 -0.000633 -0.010057 0.020586 0.043732 0.004027
# 6 0.037138 0.002286 -0.025131 0.028736 0.004027 0.087921
#
#
# Mechanical properties :
#
#
# Convention : Reuss Voigt Hill
#
# Bulk Modulus (GPa) = 24.65766 42.48111 33.56938
# Shear Modulus (GPa) = 12.96779 26.55491 19.76135
#
# Velocity S-wave (km/s) = 2.54288 3.63886 3.13907
# Velocity P-wave (km/s) = 4.57350 6.23200 5.46602
#
# Compressibility (1/GPa) = 0.04055535
#
# Stress axis : x y z
#
# Youngs Moduli (GPa) = 23.79589 106.78006 34.24527
#
# Poissons Ratio (x) = -0.07999 0.60991
# Poissons Ratio (y) = -0.01783 0.10125
# Poissons Ratio (z) = 0.42380 0.31570
#
# Static dielectric constant tensor:
#      x y z
#    x 1.714450 -0.023930 -0.014730 
#    y -0.023930 1.718600 0.023840 
#    z -0.014730 0.023840 1.746290 
# 
# From -- ./inp_files/215199.got.cif
#   From: 2010.05.17/outbox.cif.g08.bks.cpg/sg2_108_cif.got.tgz:215199.got - 2010.06.03 11:33:40.
