data_PCOD9088660
_publ_section_title
;
Structure prediction by ZEFSAII (Michael W. Deem and Ramdas Pophale) SiO2 
 PCOD9088660
Probable space group: P -1
;
_chemical_formula_sum "Si O2"
_cell_formula_units_Z 16
_cell_length_a 9.567865
_cell_length_b 15.406537
_cell_length_c 8.098113
_cell_angle_alpha 57.395163
_cell_angle_beta 119.991274
_cell_angle_gamma 82.631462
_cell_volume 730.266562
_symmetry_space_group_name_H-M "P -1"
_symmetry_group_IT_number 2
_symmetry_cell_setting 'triclinic'
loop_
_space_group_symop_operation_xyz
x,y,z
-x,-y,-z
loop_
_atom_site_type_symbol
_atom_site_label
_atom_site_fract_x
_atom_site_fract_y
_atom_site_fract_z
Si Si1 0.636806 0.180176 0.483204
Si Si2 0.239902 0.360887 0.961399
Si Si3 0.720990 0.061453 0.295360
Si Si4 0.950196 0.641349 0.832176
Si Si5 0.427601 0.004619 0.263233
Si Si6 0.073953 0.350773 0.550439
Si Si7 0.097015 0.801084 0.840062
Si Si8 0.974052 0.190327 0.824286
O O1 0.706205 0.100509 0.438453
O O2 0.824863 0.163730 0.686337
O O3 0.549752 0.125251 0.612015
O O4 0.456113 0.314592 0.187813
O O5 0.234532 0.315378 0.821170
O O6 0.076276 0.503641 0.707278
O O7 0.163769 0.311031 0.111170
O O8 0.545662 0.043402 0.182417
O O9 0.740310 0.166399 0.112741
O O10 0.911452 0.924374 0.525322
O O11 0.850403 0.696431 0.540271
O O12 0.107283 0.680929 0.894461
O O13 0.000000 0.500000 0.000000
O O14 0.500000 0.000000 0.500000
O O15 0.199099 0.095249 0.021836
O O16 0.940842 0.309064 0.591618
O O17 0.060668 0.797305 0.015147
#
# Coordination Sequence:
#
# PCOD9088660 Si02
#       8
#     2   2   2   2   2   2   2   2
#     4  11  22  39  63  93 135 174 222 273 335 403
#     4  10  21  41  67  96 131 172 226 276 324 403
#     4  10  22  38  66  92 135 180 214 280 333 390
#     4  10  21  40  69 100 133 174 226 277 330 395
#     4  10  19  37  62  90 124 179 219 265 332 396
#     4  10  21  39  69  94 124 180 222 271 338 387
#     4  11  21  39  63  99 140 171 220 281 333 393
#     4  12  22  38  65  95 135 179 217 273 340 396
#
# _framework density 21.909808999999999
#
# number of rings (size 3 to 8) (size 9 to 14) (size 15 to 20)
#    0.000    1.500    3.750    3.375    0.000    0.500 
#    4.500    0.625    0.000    2.250    0.000    0.000 
#    0.000    0.000    0.000    0.000    0.000    0.000 
#
# Total GULP energy -89088.496292 kJ/mol
# GULP energy per Si atom -5568.031018 kJ/mol
# Density = 2.185994 g / cm^3
# Si number density = 21.909809 Si / 1000 Ang^3
#
#
#
# Elastic Constant Matrix: (Units=GPa)
#
#
# Indices 1 2 3 4 5 6 
#
# 1 134.5671 39.0296 55.1153 10.0662 -13.2492 37.5037
# 2 39.0296 55.0699 40.0640 11.4454 -0.9347 25.7252
# 3 55.1153 40.0640 79.7674 18.8553 4.3185 13.8943
# 4 10.0662 11.4454 18.8553 22.5766 5.3439 0.4220
# 5 -13.2492 -0.9347 4.3185 5.3439 47.8739 5.7547
# 6 37.5037 25.7252 13.8943 0.4220 5.7547 37.5374
#
#
#
# Elastic Compliance Matrix: (Units=1/GPa)
#
#
# Indices 1 2 3 4 5 6 
#
# 1 0.015681 0.004280 -0.010080 -0.002220 0.007503 -0.015994
# 2 0.004280 0.044141 -0.017997 -0.010690 0.008352 -0.029025
# 3 -0.010080 -0.017997 0.028829 -0.009219 -0.006250 0.012795
# 4 -0.002220 -0.010690 -0.009219 0.060121 -0.008332 0.013558
# 5 0.007503 0.008352 -0.006250 -0.008332 0.026408 -0.014861
# 6 -0.015994 -0.029025 0.012795 0.013558 -0.014861 0.059901
#
#
# Mechanical properties :
#
#
# Convention : Reuss Voigt Hill
#
# Bulk Modulus (GPa) = 24.35651 59.75803 42.05727
# Shear Modulus (GPa) = 16.87145 30.61059 23.74102
#
# Velocity S-wave (km/s) = 2.77797 3.74186 3.29535
# Velocity P-wave (km/s) = 4.62929 6.78251 5.80658
#
# Compressibility (1/GPa) = 0.04105679
#
# Stress axis : x y z
#
# Youngs Moduli (GPa) = 63.77339 22.65488 34.68744
#
# Poissons Ratio (x) = -0.09696 0.34964
# Poissons Ratio (y) = -0.27294 0.62426
# Poissons Ratio (z) = 0.64281 0.40772
#
# Static dielectric constant tensor:
#      x y z
#    x 1.845590 0.023880 -0.026170 
#    y 0.023880 1.944320 -0.061640 
#    z -0.026170 -0.061640 1.855680 
# 
# From -- ./inp_files/216809.got.cif
#   From: 2010.05.17/outbox.cif.g08.bks.cpg/sg2_109_cif.got.tgz:216809.got - 2010.06.03 11:33:40.
