data_PCOD9088281
_publ_section_title
;
Structure prediction by ZEFSAII (Michael W. Deem and Ramdas Pophale) SiO2 
 PCOD9088281
Probable space group: P -1
;
_chemical_formula_sum "Si O2"
_cell_formula_units_Z 16
_cell_length_a 7.013128
_cell_length_b 18.408327
_cell_length_c 7.033424
_cell_angle_alpha 93.788725
_cell_angle_beta 75.105163
_cell_angle_gamma 45.066912
_cell_volume 579.094749
_symmetry_space_group_name_H-M "P -1"
_symmetry_group_IT_number 2
_symmetry_cell_setting 'triclinic'
loop_
_space_group_symop_operation_xyz
x,y,z
-x,-y,-z
loop_
_atom_site_type_symbol
_atom_site_label
_atom_site_fract_x
_atom_site_fract_y
_atom_site_fract_z
Si Si1 0.384501 0.675413 0.272445
Si Si2 0.795663 0.872327 0.416315
Si Si3 0.524811 0.167488 0.548986
Si Si4 0.945465 0.144550 0.031639
Si Si5 0.646870 0.625730 0.797836
Si Si6 0.766965 0.464602 0.309908
Si Si7 0.816048 0.031015 0.824229
Si Si8 0.093802 0.601278 0.184392
O O1 0.628279 0.582974 0.341302
O O2 0.107659 0.801919 0.429722
O O3 0.235807 0.638040 0.234856
O O4 0.546070 0.664808 0.049259
O O5 0.666676 0.835014 0.531015
O O6 0.922545 0.840451 0.163245
O O7 0.500000 0.000000 0.500000
O O8 0.848534 0.076397 0.358049
O O9 0.264373 0.296964 0.679753
O O10 0.596367 0.108360 0.721886
O O11 0.660489 0.266797 0.210285
O O12 0.213529 0.036043 0.066616
O O13 0.824475 0.103200 0.955720
O O14 0.913218 0.608913 0.688569
O O15 0.761393 0.510045 0.768424
O O16 0.500000 0.500000 0.500000
O O17 0.832541 0.420540 0.066805
#
# Coordination Sequence:
#
# PCOD9088281 Si02
#       8
#     2   2   2   2   2   2   2   2
#     4   9  20  38  62  81 117 160 191 239 292 359
#     4  10  19  37  60  87 115 156 198 234 296 355
#     4  10  21  38  61  85 118 158 191 248 293 356
#     4  10  21  38  62  85 118 156 197 249 283 351
#     4  10  20  37  62  84 117 155 198 237 296 352
#     4  11  22  37  56  90 118 150 197 247 292 344
#     4  10  21  38  57  86 118 153 205 235 296 341
#     4  10  20  40  62  84 118 158 198 235 303 356
#
# _framework density 27.629332000000002
#
# number of rings (size 3 to 8) (size 9 to 14) (size 15 to 20)
#    0.000    2.000    1.250    3.750    0.000    3.500 
#    2.250    8.125    0.000    0.000    0.000    0.000 
#    0.000    0.000    0.000    0.000    0.000    0.000 
#
# Total GULP energy -89240.740397 kJ/mol
# GULP energy per Si atom -5577.546275 kJ/mol
# Density = 2.756645 g / cm^3
# Si number density = 27.629332 Si / 1000 Ang^3
#
#
#
# Elastic Constant Matrix: (Units=GPa)
#
#
# Indices 1 2 3 4 5 6 
#
# 1 73.4536 17.5735 50.5735 10.1484 -16.4298 7.7991
# 2 17.5735 189.4019 51.6657 27.1506 -8.3547 -0.8573
# 3 50.5735 51.6657 96.8307 29.7068 -9.9433 -3.4617
# 4 10.1484 27.1506 29.7068 63.1440 -6.1664 -6.5078
# 5 -16.4298 -8.3547 -9.9433 -6.1664 42.1907 10.5784
# 6 7.7991 -0.8573 -3.4617 -6.5078 10.5784 42.2504
#
#
#
# Elastic Compliance Matrix: (Units=1/GPa)
#
#
# Indices 1 2 3 4 5 6 
#
# 1 0.025599 0.001574 -0.014145 0.001953 0.009202 -0.007855
# 2 0.001574 0.006380 -0.003781 -0.001211 0.001038 -0.000917
# 3 -0.014145 -0.003781 0.021416 -0.006056 -0.003133 0.004141
# 4 0.001953 -0.001211 -0.006056 0.019213 0.001473 0.001709
# 5 0.009202 0.001038 -0.003133 0.001473 0.029231 -0.009026
# 6 -0.007855 -0.000917 0.004141 0.001709 -0.009026 0.027962
#
#
# Mechanical properties :
#
#
# Convention : Reuss Voigt Hill
#
# Bulk Modulus (GPa) = 48.32854 66.59017 57.45935
# Shear Modulus (GPa) = 29.51559 45.50860 37.51209
#
# Velocity S-wave (km/s) = 3.27199 4.06287 3.68868
# Velocity P-wave (km/s) = 5.63953 6.79432 6.24368
#
# Compressibility (1/GPa) = 0.02069171
#
# Stress axis : x y z
#
# Youngs Moduli (GPa) = 39.06452 156.73097 46.69314
#
# Poissons Ratio (x) = -0.24664 0.66045
# Poissons Ratio (y) = -0.06147 0.17655
# Poissons Ratio (z) = 0.55255 0.59260
#
# Static dielectric constant tensor:
#      x y z
#    x 2.330920 0.075160 0.089880 
#    y 0.075160 2.252310 -0.010040 
#    z 0.089880 -0.010040 2.207390 
# 
# From -- ./inp_files/223587.got.cif
#   From: 2010.05.17/outbox.cif.g08.bks.cpg/sg2_112_cif.got.tgz:223587.got - 2010.06.03 11:33:40.
