data_PCOD9088169
_publ_section_title
;
Structure prediction by ZEFSAII (Michael W. Deem and Ramdas Pophale) SiO2 
 PCOD9088169
Probable space group: P -1
;
_chemical_formula_sum "Si O2"
_cell_formula_units_Z 16
_cell_length_a 12.139256
_cell_length_b 21.399113
_cell_length_c 8.655254
_cell_angle_alpha 46.232190
_cell_angle_beta 52.627333
_cell_angle_gamma 22.164481
_cell_volume 607.868868
_symmetry_space_group_name_H-M "P -1"
_symmetry_group_IT_number 2
_symmetry_cell_setting 'triclinic'
loop_
_space_group_symop_operation_xyz
x,y,z
-x,-y,-z
loop_
_atom_site_type_symbol
_atom_site_label
_atom_site_fract_x
_atom_site_fract_y
_atom_site_fract_z
Si Si1 0.550256 0.516817 0.678192
Si Si2 0.726011 0.483252 0.927469
Si Si3 0.131914 0.023302 0.372813
Si Si4 0.099396 0.551344 0.655332
Si Si5 0.937961 0.886652 0.047357
Si Si6 0.717460 0.133744 0.196626
Si Si7 0.808976 0.691110 0.345355
Si Si8 0.661609 0.758709 0.919013
O O1 0.599466 0.533063 0.777518
O O2 0.588109 0.572745 0.427194
O O3 0.310260 0.576428 0.821114
O O4 0.830070 0.305479 0.749497
O O5 0.530360 0.670844 0.836768
O O6 0.062928 0.319164 0.881581
O O7 0.126117 0.026796 0.557134
O O8 0.475115 0.848043 0.347831
O O9 0.001093 0.150687 0.125880
O O10 0.000000 0.000000 0.500000
O O11 0.891186 0.682599 0.459322
O O12 0.176504 0.407135 0.843241
O O13 0.911796 0.673618 0.759815
O O14 0.035993 0.929507 0.940306
O O15 0.602594 0.050740 0.090616
O O16 0.526735 0.190284 0.136278
O O17 0.000000 0.500000 0.500000
#
# Coordination Sequence:
#
# PCOD9088169 Si02
#       8
#     2   2   2   2   2   2   2   2
#     4   9  20  39  57  86 122 164 195 248 308 364
#     4   9  18  34  62  82 119 154 202 245 307 347
#     4  10  20  34  57  91 120 152 196 252 306 349
#     4  10  22  36  60  86 119 162 205 247 300 357
#     4  10  22  36  59  85 123 160 198 243 310 369
#     4  10  19  37  59  89 119 153 200 262 301 346
#     4  11  17  32  61  91 116 149 199 261 298 340
#     4  11  21  37  61  91 117 158 206 254 297 360
#
# _framework density 26.321467999999999
#
# number of rings (size 3 to 8) (size 9 to 14) (size 15 to 20)
#    0.000    2.000    2.500    1.125    1.750    1.500 
#    2.250    5.000    2.750    0.000    0.000    0.000 
#    0.000    0.000    0.000    0.000    0.000    0.000 
#
# Total GULP energy -89357.273247 kJ/mol
# GULP energy per Si atom -5584.829578 kJ/mol
# Density = 2.626156 g / cm^3
# Si number density = 26.321468 Si / 1000 Ang^3
#
#
#
# Elastic Constant Matrix: (Units=GPa)
#
#
# Indices 1 2 3 4 5 6 
#
# 1 59.3800 5.5768 30.0935 7.6283 0.8318 -14.9530
# 2 5.5768 108.5884 32.8066 54.4624 -13.9951 -14.9059
# 3 30.0935 32.8066 115.7185 40.8705 -24.6881 -9.9826
# 4 7.6283 54.4624 40.8705 48.6255 -21.0902 -9.8977
# 5 0.8318 -13.9951 -24.6881 -21.0902 33.8199 7.5492
# 6 -14.9530 -14.9059 -9.9826 -9.8977 7.5492 42.3313
#
#
#
# Elastic Compliance Matrix: (Units=1/GPa)
#
#
# Indices 1 2 3 4 5 6 
#
# 1 0.022343 0.001686 -0.006701 -0.001337 -0.007341 0.007902
# 2 0.001686 0.024031 0.002610 -0.032703 -0.009412 0.003705
# 3 -0.006701 0.002610 0.015012 -0.012860 0.004570 -0.001730
# 4 -0.001337 -0.032703 -0.012860 0.079718 0.027095 -0.001213
# 5 -0.007341 -0.009412 0.004570 0.027095 0.047647 -0.006992
# 6 0.007902 0.003705 -0.001730 -0.001213 -0.006992 0.028275
#
#
# Mechanical properties :
#
#
# Convention : Reuss Voigt Hill
#
# Bulk Modulus (GPa) = 17.67470 46.73789 32.20630
# Shear Modulus (GPa) = 20.77331 39.30265 30.03798
#
# Velocity S-wave (km/s) = 2.81235 3.86836 3.38183
# Velocity P-wave (km/s) = 4.15635 6.14389 5.24512
#
# Compressibility (1/GPa) = 0.05657803
#
# Stress axis : x y z
#
# Youngs Moduli (GPa) = 44.75724 41.61214 66.61302
#
# Poissons Ratio (x) = -0.07017 0.44635
# Poissons Ratio (y) = -0.07547 -0.17388
# Poissons Ratio (z) = 0.29990 -0.10862
#
# Static dielectric constant tensor:
#      x y z
#    x 2.149160 0.001740 0.024550 
#    y 0.001740 2.131610 0.005770 
#    z 0.024550 0.005770 2.110640 
# 
# From -- ./inp_files/320483.got.cif
#   From: 2010.05.17/outbox.cif.g08.bks.cpg/sg2_161_cif.got.tgz:320483.got - 2010.06.03 11:33:40.
