data_PCOD9088163
_publ_section_title
;
Structure prediction by ZEFSAII (Michael W. Deem and Ramdas Pophale) SiO2 
 PCOD9088163
Probable space group: P -1
;
_chemical_formula_sum "Si O2"
_cell_formula_units_Z 14
_cell_length_a 21.804863
_cell_length_b 8.256138
_cell_length_c 8.079664
_cell_angle_alpha 144.232274
_cell_angle_beta 52.210444
_cell_angle_gamma 127.602382
_cell_volume 651.455941
_symmetry_space_group_name_H-M "P -1"
_symmetry_group_IT_number 2
_symmetry_cell_setting 'triclinic'
loop_
_space_group_symop_operation_xyz
x,y,z
-x,-y,-z
loop_
_atom_site_type_symbol
_atom_site_label
_atom_site_fract_x
_atom_site_fract_y
_atom_site_fract_z
Si Si1 0.986727 0.924253 0.766875
Si Si2 0.458253 0.923218 0.254678
Si Si3 0.068055 0.565252 0.797154
Si Si4 0.262386 0.793930 0.998521
Si Si5 0.158117 0.243850 0.601046
Si Si6 0.611638 0.314464 0.507302
Si Si7 0.597668 0.837051 0.745851
O O1 0.072355 0.067433 0.661186
O O2 0.961419 0.609374 0.467954
O O3 0.921517 0.099400 0.966820
O O4 0.000000 0.000000 0.000000
O O5 0.531812 0.116861 0.395452
O O6 0.411410 0.125832 0.404106
O O7 0.406939 0.691015 0.272039
O O8 0.507092 0.793533 0.928991
O O9 0.139377 0.443384 0.649980
O O10 0.000000 0.500000 0.000000
O O11 0.206286 0.475911 0.844428
O O12 0.312090 0.810008 0.758954
O O13 0.208365 0.018779 0.283742
O O14 0.335446 0.877471 0.077330
O O15 0.626348 0.599767 0.609147
#
# Coordination Sequence:
#
# PCOD9088163 Si02
#       7
#     2   2   2   2   2   2   2
#     4  11  22  39  65  96 123 153 209 270 307 361
#     4   9  20  34  62  90 113 160 210 270 302 363
#     4  10  20  38  64  91 115 159 210 246 302 376
#     4  11  22  37  60  84 122 166 198 245 315 388
#     4  11  21  40  63  84 122 165 196 245 315 374
#     4  10  19  37  59  89 119 158 214 255 312 370
#     4  10  19  37  59  88 122 159 208 256 321 361
#
# _framework density 21.490324999999999
#
# number of rings (size 3 to 8) (size 9 to 14) (size 15 to 20)
#    0.000    1.714    1.429    5.571    0.000    0.000 
#    0.000    4.286    3.143    0.000    0.000    0.000 
#    0.000    0.000    0.000    0.000    0.000    0.000 
#
# Total GULP energy -77956.100390 kJ/mol
# GULP energy per Si atom -5568.292885 kJ/mol
# Density = 2.144141 g / cm^3
# Si number density = 21.490325 Si / 1000 Ang^3
#
#
#
# Elastic Constant Matrix: (Units=GPa)
#
#
# Indices 1 2 3 4 5 6 
#
# 1 59.7724 27.9781 34.4891 -16.1049 -17.7467 -3.4996
# 2 27.9781 41.9985 20.6686 8.1858 -15.6124 2.6286
# 3 34.4891 20.6686 105.8288 8.1795 -21.6839 -6.1301
# 4 -16.1049 8.1858 8.1795 27.6141 2.1090 6.3232
# 5 -17.7467 -15.6124 -21.6839 2.1090 20.2398 8.2884
# 6 -3.4996 2.6286 -6.1301 6.3232 8.2884 38.0409
#
#
#
# Elastic Compliance Matrix: (Units=1/GPa)
#
#
# Indices 1 2 3 4 5 6 
#
# 1 0.058706 -0.042318 -0.015483 0.052075 -0.002224 -0.002342
# 2 -0.042318 0.070581 0.011130 -0.050200 0.037258 -0.006750
# 3 -0.015483 0.011130 0.016805 -0.018522 0.014791 0.000371
# 4 0.052075 -0.050200 -0.018522 0.089690 -0.020099 -0.005254
# 5 -0.002224 0.037258 0.014791 -0.020099 0.102036 -0.019286
# 6 -0.002342 -0.006750 0.000371 -0.005254 -0.019286 0.031674
#
#
# Mechanical properties :
#
#
# Convention : Reuss Voigt Hill
#
# Bulk Modulus (GPa) = 18.95799 41.54126 30.24963
# Shear Modulus (GPa) = 10.40756 25.47653 17.94204
#
# Velocity S-wave (km/s) = 2.20305 3.44683 2.89258
# Velocity P-wave (km/s) = 3.91306 5.93405 5.02618
#
# Compressibility (1/GPa) = 0.05274820
#
# Stress axis : x y z
#
# Youngs Moduli (GPa) = 17.03399 14.16805 59.50520
#
# Poissons Ratio (x) = 0.59957 0.92134
# Poissons Ratio (y) = 0.72085 -0.66227
# Poissons Ratio (z) = 0.26374 -0.15768
#
# Static dielectric constant tensor:
#      x y z
#    x 1.878460 -0.041540 0.033460 
#    y -0.041540 1.810710 0.021500 
#    z 0.033460 0.021500 1.893840 
# 
# From -- ./inp_files/54659.got.cif
#   From: 2010.05.17/outbox.cif.g08.bks.cpg/sg2_28_cif.got.tgz:54659.got - 2010.06.03 11:33:40.
