data_PCOD9088010
_publ_section_title
;
Structure prediction by ZEFSAII (Michael W. Deem and Ramdas Pophale) SiO2 
 PCOD9088010
Probable space group: P -1
;
_chemical_formula_sum "Si O2"
_cell_formula_units_Z 14
_cell_length_a 8.337773
_cell_length_b 10.702284
_cell_length_c 15.262404
_cell_angle_alpha 156.756867
_cell_angle_beta 98.165888
_cell_angle_gamma 77.554505
_cell_volume 519.260431
_symmetry_space_group_name_H-M "P -1"
_symmetry_group_IT_number 2
_symmetry_cell_setting 'triclinic'
loop_
_space_group_symop_operation_xyz
x,y,z
-x,-y,-z
loop_
_atom_site_type_symbol
_atom_site_label
_atom_site_fract_x
_atom_site_fract_y
_atom_site_fract_z
Si Si1 0.054833 0.818677 0.109145
Si Si2 0.415538 0.884253 0.238312
Si Si3 0.900957 0.940000 0.344445
Si Si4 0.732700 0.147048 0.624172
Si Si5 0.426999 0.129876 0.930716
Si Si6 0.720951 0.114834 0.067282
Si Si7 0.991403 0.697491 0.717433
O O1 0.227967 0.908580 0.205750
O O2 0.909881 0.993576 0.276410
O O3 0.013377 0.939904 0.087382
O O4 0.082205 0.439922 0.881867
O O5 0.389706 0.977163 0.398578
O O6 0.500000 0.500000 0.000000
O O7 0.509108 0.027949 0.259773
O O8 0.076749 0.012341 0.436410
O O9 0.741277 0.101119 0.491055
O O10 0.702086 0.534652 0.883910
O O11 0.583753 0.229013 0.055786
O O12 0.359603 0.935428 0.877334
O O13 0.838460 0.365844 0.256961
O O14 0.829921 0.772539 0.814992
O O15 0.000000 0.500000 0.500000
#
# Coordination Sequence:
#
# PCOD9088010 Si02
#       7
#     2   2   2   2   2   2   2
#     4  10  19  37  58  83 125 158 201 262 307 367
#     4   9  18  35  58  84 120 162 195 248 316 369
#     4   9  19  34  59  94 118 156 206 252 317 364
#     4   9  18  34  61  93 120 160 203 255 309 378
#     4  10  19  39  64  89 135 163 203 256 316 380
#     4  10  23  42  66  92 123 173 207 260 321 356
#     4  11  24  43  66  93 120 166 222 261 306 371
#
# _framework density 26.961424999999998
#
# number of rings (size 3 to 8) (size 9 to 14) (size 15 to 20)
#    0.000    2.286    1.429    0.857    2.000    1.143 
#    7.714    7.143    6.286    0.000    0.000    0.000 
#    0.000    0.000    0.000    0.000    0.000    0.000 
#
# Total GULP energy -78216.183266 kJ/mol
# GULP energy per Si atom -5586.870233 kJ/mol
# Density = 2.690006 g / cm^3
# Si number density = 26.961425 Si / 1000 Ang^3
#
#
#
# Elastic Constant Matrix: (Units=GPa)
#
#
# Indices 1 2 3 4 5 6 
#
# 1 114.2393 25.9667 44.3457 -25.1969 -25.2297 3.9499
# 2 25.9667 116.3788 28.4777 -34.7878 -18.4817 31.4729
# 3 44.3457 28.4777 116.0370 -41.4288 -26.1589 23.9755
# 4 -25.1969 -34.7878 -41.4288 53.2206 16.4719 -18.6581
# 5 -25.2297 -18.4817 -26.1589 16.4719 39.3080 -26.4243
# 6 3.9499 31.4729 23.9755 -18.6581 -26.4243 57.5029
#
#
#
# Elastic Compliance Matrix: (Units=1/GPa)
#
#
# Indices 1 2 3 4 5 6 
#
# 1 0.012306 -0.001700 -0.002945 0.001886 0.008166 0.005677
# 2 -0.001700 0.011824 0.000723 0.005991 -0.001055 -0.005197
# 3 -0.002945 0.000723 0.013446 0.008019 0.002732 -0.001942
# 4 0.001886 0.005991 0.008019 0.031358 -0.002136 0.002441
# 5 0.008166 -0.001055 0.002732 -0.002136 0.045838 0.019248
# 6 0.005677 -0.005197 -0.001942 0.002441 0.019248 0.030292
#
#
# Mechanical properties :
#
#
# Convention : Reuss Voigt Hill
#
# Bulk Modulus (GPa) = 33.63350 60.47060 47.05205
# Shear Modulus (GPa) = 30.70913 46.53063 38.61988
#
# Velocity S-wave (km/s) = 3.37857 4.15881 3.78883
# Velocity P-wave (km/s) = 5.26511 6.74820 6.05226
#
# Compressibility (1/GPa) = 0.02973227
#
# Stress axis : x y z
#
# Youngs Moduli (GPa) = 81.26038 84.57511 74.37125
#
# Poissons Ratio (x) = 0.14378 0.21900
# Poissons Ratio (y) = 0.13815 -0.05376
# Poissons Ratio (z) = 0.23928 -0.06114
#
# Static dielectric constant tensor:
#      x y z
#    x 2.171060 -0.033630 -0.007690 
#    y -0.033630 2.154780 0.003070 
#    z -0.007690 0.003070 2.213760 
# 
# From -- ./inp_files/303045.got.cif
#   From: 2010.05.17/outbox.cif.g08.bks.cpg/sg2_152_cif.got.tgz:303045.got - 2010.06.03 11:33:40.
