data_PCOD9088179
_publ_section_title
;
Structure prediction by ZEFSAII (Michael W. Deem and Ramdas Pophale) SiO2 
 PCOD9088179
Probable space group: P -1
;
_chemical_formula_sum "Si O2"
_cell_formula_units_Z 14
_cell_length_a 13.481148
_cell_length_b 12.306039
_cell_length_c 8.936128
_cell_angle_alpha 95.128846
_cell_angle_beta 76.105330
_cell_angle_gamma 30.848591
_cell_volume 593.770330
_symmetry_space_group_name_H-M "P -1"
_symmetry_group_IT_number 2
_symmetry_cell_setting 'triclinic'
loop_
_space_group_symop_operation_xyz
x,y,z
-x,-y,-z
loop_
_atom_site_type_symbol
_atom_site_label
_atom_site_fract_x
_atom_site_fract_y
_atom_site_fract_z
Si Si1 0.690169 0.756135 0.788573
Si Si2 0.843668 0.985464 0.481319
Si Si3 0.602564 0.603655 0.783213
Si Si4 0.567434 0.531883 0.090969
Si Si5 0.897993 0.952001 0.122777
Si Si6 0.101716 0.514794 0.022673
Si Si7 0.588171 0.002595 0.594574
O O1 0.583943 0.747516 0.758820
O O2 0.885016 0.522063 0.808767
O O3 0.742237 0.787297 0.638980
O O4 0.500000 0.000000 0.000000
O O5 0.859751 0.023658 0.317344
O O6 0.724872 0.981094 0.498565
O O7 0.127127 0.701394 0.400564
O O8 0.659509 0.225470 0.688452
O O9 0.600268 0.598085 0.964875
O O10 0.358770 0.780251 0.835508
O O11 0.832015 0.263238 0.044254
O O12 0.500000 0.500000 0.000000
O O13 0.948835 0.771798 0.075761
O O14 0.000000 0.500000 0.000000
O O15 0.352712 0.275807 0.806460
O O16 0.500000 0.000000 0.500000
#
# Coordination Sequence:
#
# PCOD9088179 Si02
#       7
#     2   2   2   2   2   2   2
#     4  10  19  37  59  90 133 183 215 266 327 386
#     4  11  23  45  65  99 135 172 225 275 332 399
#     4  11  24  43  67  96 136 173 217 280 340 391
#     4  11  25  48  73  96 129 173 224 283 342 397
#     4  11  23  45  66  96 138 172 218 278 331 396
#     4  11  20  38  60  90 136 183 218 268 325 385
#     4  11  22  37  63  98 134 179 229 268 324 401
#
# _framework density 23.578139
#
# number of rings (size 3 to 8) (size 9 to 14) (size 15 to 20)
#    0.000    1.143    4.286    4.286    0.000    4.571 
#    5.143    1.429    0.000    0.000    0.000    0.000 
#    0.000    0.000    0.000    0.000    0.000    0.000 
#
# Total GULP energy -78185.032155 kJ/mol
# GULP energy per Si atom -5584.645154 kJ/mol
# Density = 2.352447 g / cm^3
# Si number density = 23.578139 Si / 1000 Ang^3
#
#
#
# Elastic Constant Matrix: (Units=GPa)
#
#
# Indices 1 2 3 4 5 6 
#
# 1 97.7006 23.2893 19.6895 12.8710 10.7871 -23.3684
# 2 23.2893 112.2890 49.6410 26.0966 -1.3305 -41.1464
# 3 19.6895 49.6410 170.8101 40.6685 16.4998 -14.4954
# 4 12.8710 26.0966 40.6685 41.6456 -1.0056 -14.4363
# 5 10.7871 -1.3305 16.4998 -1.0056 35.0222 -0.9274
# 6 -23.3684 -41.1464 -14.4954 -14.4363 -0.9274 38.0942
#
#
#
# Elastic Compliance Matrix: (Units=1/GPa)
#
#
# Indices 1 2 3 4 5 6 
#
# 1 0.012550 0.000607 -0.000298 -0.001412 -0.003541 0.007620
# 2 0.000607 0.016784 -0.003402 -0.001541 0.002451 0.016682
# 3 -0.000298 -0.003402 0.008864 -0.007769 -0.004530 -0.003539
# 4 -0.001412 -0.001541 -0.007769 0.036000 0.005289 0.008285
# 5 -0.003541 0.002451 -0.004530 0.005289 0.032064 0.001536
# 6 0.007620 0.016682 -0.003539 0.008285 0.001536 0.050774
#
#
# Mechanical properties :
#
#
# Convention : Reuss Voigt Hill
#
# Bulk Modulus (GPa) = 31.23774 62.89325 47.06549
# Shear Modulus (GPa) = 28.75330 42.16439 35.45885
#
# Velocity S-wave (km/s) = 3.49591 4.23340 3.88220
# Velocity P-wave (km/s) = 5.43806 7.11532 6.33247
#
# Compressibility (1/GPa) = 0.03201256
#
# Stress axis : x y z
#
# Youngs Moduli (GPa) = 79.67990 59.58214 112.81006
#
# Poissons Ratio (x) = -0.03618 0.03365
# Poissons Ratio (y) = -0.04839 0.38376
# Poissons Ratio (z) = 0.02377 0.20269
#
# Static dielectric constant tensor:
#      x y z
#    x 2.058430 -0.026330 -0.028380 
#    y -0.026330 1.948340 0.021540 
#    z -0.028380 0.021540 1.914370 
# 
# From -- ./inp_files/315593.got.cif
#   From: 2010.05.17/outbox.cif.g08.bks.cpg/sg2_158_cif.got.tgz:315593.got - 2010.06.03 11:33:40.
