data_PCOD9088065
_publ_section_title
;
Structure prediction by ZEFSAII (Michael W. Deem and Ramdas Pophale) SiO2 
 PCOD9088065
Probable space group: P -1
;
_chemical_formula_sum "Si O2"
_cell_formula_units_Z 16
_cell_length_a 13.246348
_cell_length_b 11.277452
_cell_length_c 13.987530
_cell_angle_alpha 21.702037
_cell_angle_beta 86.573092
_cell_angle_gamma 84.640056
_cell_volume 767.212741
_symmetry_space_group_name_H-M "P -1"
_symmetry_group_IT_number 2
_symmetry_cell_setting 'triclinic'
loop_
_space_group_symop_operation_xyz
x,y,z
-x,-y,-z
loop_
_atom_site_type_symbol
_atom_site_label
_atom_site_fract_x
_atom_site_fract_y
_atom_site_fract_z
Si Si1 0.770154 0.007905 0.323507
Si Si2 0.704764 0.371671 0.311312
Si Si3 0.935352 0.278715 0.358860
Si Si4 0.569635 0.663932 0.255681
Si Si5 0.006997 0.794485 0.856475
Si Si6 0.501620 0.504528 0.110697
Si Si7 0.306860 0.266641 0.275321
Si Si8 0.595297 0.785648 0.378670
O O1 0.887271 0.048474 0.266134
O O2 0.761719 0.854667 0.544291
O O3 0.702132 0.797378 0.417872
O O4 0.723455 0.377358 0.029340
O O5 0.818642 0.390523 0.254830
O O6 0.666418 0.600927 0.228751
O O7 0.615588 0.437441 0.189863
O O8 0.698069 0.991000 0.615872
O O9 0.930920 0.094219 0.598478
O O10 0.988886 0.604571 0.097265
O O11 0.000000 0.000000 0.500000
O O12 0.605909 0.636909 0.383487
O O13 0.491310 0.406435 0.424871
O O14 0.500000 0.000000 0.000000
O O15 0.000000 0.500000 0.000000
O O16 0.417697 0.263291 0.319979
O O17 0.500000 0.500000 0.000000
O O18 0.455626 0.848176 0.896508
#
# Coordination Sequence:
#
# PCOD9088065 Si02
#       8
#     2   2   2   2   2   2   2   2
#     4  11  22  39  67  94 132 169 205 267 332 385
#     4  12  22  38  64  88 130 172 210 260 322 381
#     4  10  22  37  59  88 123 159 208 259 313 376
#     4  11  23  43  61  89 129 173 221 260 299 386
#     4  10  19  37  58  90 125 160 205 258 318 380
#     4  11  22  37  60  96 135 163 204 260 328 403
#     4  11  22  36  58  98 129 163 201 255 329 403
#     4  10  23  40  63  91 129 171 215 259 317 384
#
# _framework density 20.854711999999999
#
# number of rings (size 3 to 8) (size 9 to 14) (size 15 to 20)
#    0.000    1.250    1.250    7.125    1.750    2.000 
#    0.000    0.000    0.000    1.500    0.000    0.000 
#    0.000    0.000    0.000    0.000    0.000    0.000 
#
# Total GULP energy -89205.901071 kJ/mol
# GULP energy per Si atom -5575.368817 kJ/mol
# Density = 2.080725 g / cm^3
# Si number density = 20.854712 Si / 1000 Ang^3
#
#
#
# Elastic Constant Matrix: (Units=GPa)
#
#
# Indices 1 2 3 4 5 6 
#
# 1 135.4964 21.1752 12.3605 -4.2552 -14.6635 -8.5378
# 2 21.1752 69.5785 2.9994 0.1575 -4.0063 -3.1020
# 3 12.3605 2.9994 85.6364 11.1459 -16.7054 -9.0974
# 4 -4.2552 0.1575 11.1459 26.3517 3.6211 -1.8691
# 5 -14.6635 -4.0063 -16.7054 3.6211 35.6658 2.4925
# 6 -8.5378 -3.1020 -9.0974 -1.8691 2.4925 25.2769
#
#
#
# Elastic Compliance Matrix: (Units=1/GPa)
#
#
# Indices 1 2 3 4 5 6 
#
# 1 0.008240 -0.002242 -0.000557 0.001377 0.002585 0.002155
# 2 -0.002242 0.015143 0.000135 -0.000550 0.000827 0.001028
# 3 -0.000557 0.000135 0.014413 -0.006873 0.006968 0.003820
# 4 0.001377 -0.000550 -0.006873 0.042183 -0.007120 0.001745
# 5 0.002585 0.000827 0.006968 -0.007120 0.033202 -0.000318
# 6 0.002155 0.001028 0.003820 0.001745 -0.000318 0.041951
#
#
# Mechanical properties :
#
#
# Convention : Reuss Voigt Hill
#
# Bulk Modulus (GPa) = 30.79883 40.42017 35.60950
# Shear Modulus (GPa) = 29.19144 34.40396 31.79770
#
# Velocity S-wave (km/s) = 3.74539 4.06605 3.90901
# Velocity P-wave (km/s) = 5.78828 6.43953 6.12257
#
# Compressibility (1/GPa) = 0.03246876
#
# Stress axis : x y z
#
# Youngs Moduli (GPa) = 121.35633 66.03534 69.38390
#
# Poissons Ratio (x) = 0.14805 0.03865
# Poissons Ratio (y) = 0.27208 -0.00939
# Poissons Ratio (z) = 0.06760 -0.00893
#
# Static dielectric constant tensor:
#      x y z
#    x 1.848100 -0.010560 0.009770 
#    y -0.010560 1.815720 0.058250 
#    z 0.009770 0.058250 1.817410 
# 
# From -- ./inp_files/101574.got.cif
#   From: 2010.05.17/outbox.cif.g08.bks.cpg/sg2_51_cif.got.tgz:101574.got - 2010.06.03 11:33:40.
