data_PCOD9088259
_publ_section_title
;
Structure prediction by ZEFSAII (Michael W. Deem and Ramdas Pophale) SiO2 
 PCOD9088259
Probable space group: P -1
;
_chemical_formula_sum "Si O2"
_cell_formula_units_Z 16
_cell_length_a 8.096194
_cell_length_b 7.747915
_cell_length_c 12.011095
_cell_angle_alpha 103.933435
_cell_angle_beta 53.678950
_cell_angle_gamma 109.013029
_cell_volume 572.803619
_symmetry_space_group_name_H-M "P -1"
_symmetry_group_IT_number 2
_symmetry_cell_setting 'triclinic'
loop_
_space_group_symop_operation_xyz
x,y,z
-x,-y,-z
loop_
_atom_site_type_symbol
_atom_site_label
_atom_site_fract_x
_atom_site_fract_y
_atom_site_fract_z
Si Si1 0.234805 0.194384 0.904902
Si Si2 0.520460 0.774631 0.612472
Si Si3 0.086785 0.619644 0.816728
Si Si4 0.468463 0.229875 0.045752
Si Si5 0.953079 0.224939 0.847618
Si Si6 0.857532 0.592214 0.682563
Si Si7 0.824534 0.966566 0.683232
Si Si8 0.432825 0.628654 0.385637
O O1 0.374402 0.166041 0.952212
O O2 0.410174 0.269054 0.754655
O O3 0.037689 0.095796 0.883233
O O4 0.099370 0.321195 0.037814
O O5 0.705606 0.936913 0.609305
O O6 0.479103 0.754010 0.495479
O O7 0.553052 0.577173 0.612267
O O8 0.298673 0.777561 0.760215
O O9 0.105547 0.425928 0.825595
O O10 0.022655 0.578005 0.708210
O O11 0.719833 0.263077 0.961892
O O12 0.361417 0.393939 0.158733
O O13 0.357411 0.077949 0.155672
O O14 0.966366 0.148998 0.705555
O O15 0.923400 0.792227 0.632278
O O16 0.788813 0.426951 0.599449
#
# Coordination Sequence:
#
# PCOD9088259 Si02
#       8
#     2   2   2   2   2   2   2   2
#     4  11  22  36  62  95 122 150 203 259 296 347
#     4  10  21  38  61  82 121 162 204 238 302 363
#     4  11  21  36  62  96 116 152 206 257 287 360
#     4   9  20  37  55  88 128 158 188 248 310 356
#     4  12  21  34  61  91 122 157 203 245 305 355
#     4   8  19  37  57  83 123 156 196 243 304 349
#     4   9  21  40  54  86 123 165 189 246 308 362
#     4  10  19  37  60  85 117 162 201 244 297 359
#
# _framework density 27.932784999999999
#
# number of rings (size 3 to 8) (size 9 to 14) (size 15 to 20)
#    0.750    1.250    1.250    3.000    0.000    3.000 
#    2.250    0.625    0.000    3.000    0.000    0.000 
#    0.000    0.000    0.000    0.000    0.000    0.000 
#
# Total GULP energy -89375.893212 kJ/mol
# GULP energy per Si atom -5585.993326 kJ/mol
# Density = 2.786921 g / cm^3
# Si number density = 27.932785 Si / 1000 Ang^3
#
#
#
# Elastic Constant Matrix: (Units=GPa)
#
#
# Indices 1 2 3 4 5 6 
#
# 1 150.1368 20.0386 46.4227 8.4755 26.8943 13.0759
# 2 20.0386 50.1317 30.4872 14.8418 9.3401 3.6088
# 3 46.4227 30.4872 146.6581 9.2904 31.5941 13.8999
# 4 8.4755 14.8418 9.2904 30.7675 14.2411 0.7345
# 5 26.8943 9.3401 31.5941 14.2411 52.8697 20.1543
# 6 13.0759 3.6088 13.8999 0.7345 20.1543 28.0045
#
#
#
# Elastic Compliance Matrix: (Units=1/GPa)
#
#
# Indices 1 2 3 4 5 6 
#
# 1 0.007881 -0.001798 -0.001511 0.000355 -0.002552 -0.000871
# 2 -0.001798 0.026758 -0.004680 -0.012422 0.003190 -0.002256
# 3 -0.001511 -0.004680 0.009088 0.001919 -0.004289 -0.000166
# 4 0.000355 -0.012422 0.001919 0.044502 -0.014964 0.010085
# 5 -0.002552 0.003190 -0.004289 -0.014964 0.034430 -0.021477
# 6 -0.000871 -0.002256 -0.000166 0.010085 -0.021477 0.051680
#
#
# Mechanical properties :
#
#
# Convention : Reuss Voigt Hill
#
# Bulk Modulus (GPa) = 36.03773 60.09151 48.06462
# Shear Modulus (GPa) = 25.05441 38.99355 32.02398
#
# Velocity S-wave (km/s) = 2.99817 3.74033 3.38962
# Velocity P-wave (km/s) = 4.99149 6.34138 5.70649
#
# Compressibility (1/GPa) = 0.02774870
#
# Stress axis : x y z
#
# Youngs Moduli (GPa) = 126.89215 37.37242 110.03754
#
# Poissons Ratio (x) = 0.06720 0.16626
# Poissons Ratio (y) = 0.22816 0.51495
# Poissons Ratio (z) = 0.19173 0.17489
#
# Static dielectric constant tensor:
#      x y z
#    x 2.234490 0.021580 0.016030 
#    y 0.021580 2.312980 -0.056330 
#    z 0.016030 -0.056330 2.266060 
# 
# From -- ./inp_files/388004.got.cif
#   From: 2010.05.17/outbox.cif.g08.bks.cpg/sg2_195_cif.got.tgz:388004.got - 2010.06.03 11:33:40.
