data_PCOD9088292
_publ_section_title
;
Structure prediction by ZEFSAII (Michael W. Deem and Ramdas Pophale) SiO2 
 PCOD9088292
Probable space group: P -1
;
_chemical_formula_sum "Si O2"
_cell_formula_units_Z 16
_cell_length_a 14.594627
_cell_length_b 8.163572
_cell_length_c 10.629736
_cell_angle_alpha 106.800082
_cell_angle_beta 65.450895
_cell_angle_gamma 145.219356
_cell_volume 653.801407
_symmetry_space_group_name_H-M "P -1"
_symmetry_group_IT_number 2
_symmetry_cell_setting 'triclinic'
loop_
_space_group_symop_operation_xyz
x,y,z
-x,-y,-z
loop_
_atom_site_type_symbol
_atom_site_label
_atom_site_fract_x
_atom_site_fract_y
_atom_site_fract_z
Si Si1 0.904324 0.499275 0.865406
Si Si2 0.796781 0.191415 0.387513
Si Si3 0.320436 0.512278 0.120432
Si Si4 0.381464 0.141548 0.150382
Si Si5 0.454862 0.530757 0.397990
Si Si6 0.599452 0.073804 0.684409
Si Si7 0.754505 0.489424 0.360983
Si Si8 0.015895 0.888670 0.082809
O O1 0.766204 0.459419 0.911590
O O2 0.038722 0.691302 0.716799
O O3 0.804525 0.183978 0.851163
O O4 0.002181 0.686984 0.977372
O O5 0.745633 0.161089 0.553623
O O6 0.833220 0.429028 0.363642
O O7 0.629568 0.874975 0.351406
O O8 0.349286 0.660997 0.262820
O O9 0.496969 0.694236 0.002145
O O10 0.188677 0.176371 0.119015
O O11 0.410335 0.346060 0.266875
O O12 0.445879 0.078672 0.193523
O O13 0.500000 0.500000 0.500000
O O14 0.289822 0.417436 0.500190
O O15 0.433227 0.830184 0.642246
O O16 0.862728 0.695820 0.225717
O O17 0.000000 0.000000 0.000000
#
# Coordination Sequence:
#
# PCOD9088292 Si02
#       8
#     2   2   2   2   2   2   2   2
#     4  10  22  36  61  88 129 157 199 251 310 359
#     4  11  24  40  59  90 131 165 194 245 316 371
#     4  10  21  35  63  92 120 155 208 264 299 343
#     4  11  20  37  62  96 117 156 210 263 295 345
#     4  11  22  37  66  92 118 159 211 247 292 359
#     4  10  19  37  60  87 122 160 202 249 308 352
#     4  11  23  41  62  88 128 165 195 250 314 364
#     4  10  21  37  63  90 120 157 208 252 299 355
#
# _framework density 24.472265
#
# number of rings (size 3 to 8) (size 9 to 14) (size 15 to 20)
#    0.000    1.500    2.500    6.000    3.500    3.500 
#    0.000    3.750    0.000    5.250    0.000    0.000 
#    0.000    0.000    0.000    0.000    0.000    0.000 
#
# Total GULP energy -89454.191547 kJ/mol
# GULP energy per Si atom -5590.886972 kJ/mol
# Density = 2.441656 g / cm^3
# Si number density = 24.472265 Si / 1000 Ang^3
#
#
#
# Elastic Constant Matrix: (Units=GPa)
#
#
# Indices 1 2 3 4 5 6 
#
# 1 35.2307 -2.4262 1.4225 -10.8141 0.5773 -18.0508
# 2 -2.4262 168.5217 90.8840 14.2671 -22.3036 0.7422
# 3 1.4225 90.8840 164.2394 -1.0422 -22.8736 8.5522
# 4 -10.8141 14.2671 -1.0422 53.1708 -0.6586 0.2136
# 5 0.5773 -22.3036 -22.8736 -0.6586 23.5557 -3.7514
# 6 -18.0508 0.7422 8.5522 0.2136 -3.7514 35.3364
#
#
#
# Elastic Compliance Matrix: (Units=1/GPa)
#
#
# Indices 1 2 3 4 5 6 
#
# 1 0.042420 0.001030 -0.001765 0.008252 0.001994 0.022237
# 2 0.001030 0.009205 -0.004595 -0.002303 0.004472 0.001934
# 3 -0.001765 -0.004595 0.009409 0.001124 0.004443 -0.002618
# 4 0.008252 -0.002303 0.001124 0.021109 -0.000087 0.003855
# 5 0.001994 0.004472 0.004443 -0.000087 0.051802 0.005349
# 6 0.022237 0.001934 -0.002618 0.003855 0.005349 0.040796
#
#
# Mechanical properties :
#
#
# Convention : Reuss Voigt Hill
#
# Bulk Modulus (GPa) = 19.85178 60.86138 40.35658
# Shear Modulus (GPa) = 24.72876 40.95336 32.84106
#
# Velocity S-wave (km/s) = 3.18226 4.09523 3.66727
# Velocity P-wave (km/s) = 4.65101 6.87639 5.87012
#
# Compressibility (1/GPa) = 0.05037333
#
# Stress axis : x y z
#
# Youngs Moduli (GPa) = 23.57381 108.63218 106.28009
#
# Poissons Ratio (x) = -0.11190 0.18761
# Poissons Ratio (y) = -0.02428 0.48839
# Poissons Ratio (z) = 0.04161 0.49920
#
# Static dielectric constant tensor:
#      x y z
#    x 1.996850 -0.041000 0.021990 
#    y -0.041000 1.972060 0.045820 
#    z 0.021990 0.045820 1.924910 
# 
# From -- ./inp_files/336691.got.cif
#   From: 2010.05.17/outbox.cif.g08.bks.cpg/sg2_169_cif.got.tgz:336691.got - 2010.06.03 11:33:40.
