data_PCOD9088841
_publ_section_title
;
Structure prediction by ZEFSAII (Michael W. Deem and Ramdas Pophale) SiO2 
 PCOD9088841
Probable space group: P -1
;
_chemical_formula_sum "Si O2"
_cell_formula_units_Z 15
_cell_length_a 9.597490
_cell_length_b 11.197783
_cell_length_c 12.038236
_cell_angle_alpha 90.261597
_cell_angle_beta 66.347143
_cell_angle_gamma 39.523392
_cell_volume 635.381708
_symmetry_space_group_name_H-M "P -1"
_symmetry_group_IT_number 2
_symmetry_cell_setting 'triclinic'
loop_
_space_group_symop_operation_xyz
x,y,z
-x,-y,-z
loop_
_atom_site_type_symbol
_atom_site_label
_atom_site_fract_x
_atom_site_fract_y
_atom_site_fract_z
Si Si1 0.437323 0.476151 0.403471
Si Si2 0.544184 0.634368 0.254410
Si Si3 0.096404 0.245892 0.927175
Si Si4 0.403899 0.930923 0.135116
Si Si5 0.081457 0.002805 0.856864
Si Si6 0.500000 0.500000 0.000000
Si Si7 0.924906 0.435136 0.338444
Si Si8 0.734011 0.585223 0.849139
O O1 0.500000 0.500000 0.500000
O O2 0.373137 0.630314 0.344592
O O3 0.202395 0.533113 0.507469
O O4 0.714313 0.221890 0.273043
O O5 0.387562 0.836846 0.231473
O O6 0.681188 0.601707 0.321517
O O7 0.805473 0.415494 0.090604
O O8 0.323783 0.170902 0.919090
O O9 0.217444 0.041982 0.841579
O O10 0.973323 0.406346 0.867094
O O11 0.134229 0.193415 0.224795
O O12 0.482205 0.826016 0.990306
O O13 0.794777 0.231152 0.887714
O O14 0.000000 0.000000 0.000000
O O15 0.613690 0.532228 0.875634
O O16 0.105456 0.437011 0.289003
#
# Coordination Sequence:
#
# PCOD9088841 Si02
#       8
#     2   2   2   2   2   1   2   2
#     4  10  24  41  64  94 132 175 207 257 327 385
#     4  10  19  39  58  90 128 158 215 265 304 377
#     4  10  19  37  63  91 116 162 213 268 315 351
#     4  11  21  34  65  93 120 167 218 263 307 377
#     4  11  23  43  68  90 130 165 215 270 312 377
#     4  10  26  38  64 104 118 168 222 266 318 364
#     4  11  22  36  61  90 126 172 207 253 323 376
#     4  10  20  38  61  91 131 156 220 266 307 378
#
# _framework density 23.607856999999999
#
# number of rings (size 3 to 8) (size 9 to 14) (size 15 to 20)
#    0.000    1.600    4.000    1.200    5.600    0.533 
#    0.000    6.000    0.000    0.000    0.000    0.000 
#    0.000    0.000    0.000    0.000    0.000    0.000 
#
# Total GULP energy -83620.540840 kJ/mol
# GULP energy per Si atom -5574.702723 kJ/mol
# Density = 2.355412 g / cm^3
# Si number density = 23.607857 Si / 1000 Ang^3
#
#
#
# Elastic Constant Matrix: (Units=GPa)
#
#
# Indices 1 2 3 4 5 6 
#
# 1 82.3054 25.9891 26.0768 -13.2479 -8.0171 25.7802
# 2 25.9891 114.3130 42.3938 -19.2801 -13.1955 23.4632
# 3 26.0768 42.3938 106.9042 -25.2184 -20.9769 29.6701
# 4 -13.2479 -19.2801 -25.2184 46.0176 25.5173 -14.1408
# 5 -8.0171 -13.1955 -20.9769 25.5173 42.0717 -8.5506
# 6 25.7802 23.4632 29.6701 -14.1408 -8.5506 42.6011
#
#
#
# Elastic Compliance Matrix: (Units=1/GPa)
#
#
# Indices 1 2 3 4 5 6 
#
# 1 0.015424 -0.001465 -0.000839 0.001121 -0.000164 -0.007604
# 2 -0.001465 0.010973 -0.002838 0.001735 0.000173 -0.002570
# 3 -0.000839 -0.002838 0.013494 0.002513 0.002955 -0.005901
# 4 0.001121 0.001735 0.002513 0.036130 -0.018925 0.004810
# 5 -0.000164 0.000173 0.002955 -0.018925 0.036540 -0.001002
# 6 -0.007604 -0.002570 -0.005901 0.004810 -0.001002 0.034996
#
#
# Mechanical properties :
#
#
# Convention : Reuss Voigt Hill
#
# Bulk Modulus (GPa) = 33.77270 54.71578 44.24424
# Shear Modulus (GPa) = 29.81323 40.07561 34.94442
#
# Velocity S-wave (km/s) = 3.55752 4.12461 3.85151
# Velocity P-wave (km/s) = 5.58671 6.77572 6.20974
#
# Compressibility (1/GPa) = 0.02960972
#
# Stress axis : x y z
#
# Youngs Moduli (GPa) = 64.83225 91.12866 74.10493
#
# Poissons Ratio (x) = 0.13348 0.06216
# Poissons Ratio (y) = 0.09496 0.21029
# Poissons Ratio (z) = 0.05438 0.25860
#
# Static dielectric constant tensor:
#      x y z
#    x 1.999220 -0.057150 0.034870 
#    y -0.057150 1.961780 -0.111070 
#    z 0.034870 -0.111070 1.936580 
# 
# From -- ./inp_files/338805.got.cif
#   From: 2010.05.17/outbox.cif.g08.bks.cpg/sg2_170_cif.got.tgz:338805.got - 2010.06.03 11:33:40.
