data_PCOD9088605
_publ_section_title
;
Structure prediction by ZEFSAII (Michael W. Deem and Ramdas Pophale) SiO2 
 PCOD9088605
Probable space group: P -1
;
_chemical_formula_sum "Si O2"
_cell_formula_units_Z 14
_cell_length_a 5.103023
_cell_length_b 13.999342
_cell_length_c 17.281503
_cell_angle_alpha 150.684144
_cell_angle_beta 110.555000
_cell_angle_gamma 80.786886
_cell_volume 536.510028
_symmetry_space_group_name_H-M "P -1"
_symmetry_group_IT_number 2
_symmetry_cell_setting 'triclinic'
loop_
_space_group_symop_operation_xyz
x,y,z
-x,-y,-z
loop_
_atom_site_type_symbol
_atom_site_label
_atom_site_fract_x
_atom_site_fract_y
_atom_site_fract_z
Si Si1 0.250793 0.631168 0.527670
Si Si2 0.620063 0.668676 0.447379
Si Si3 0.880584 0.192468 0.204144
Si Si4 0.903292 0.736223 0.243536
Si Si5 0.565457 0.066947 0.657696
Si Si6 0.390936 0.216934 0.054684
Si Si7 0.448064 0.667661 0.019089
O O1 0.507209 0.713927 0.551291
O O2 0.273586 0.733755 0.686366
O O3 0.951383 0.661125 0.482656
O O4 0.171980 0.384556 0.355647
O O5 0.599308 0.846329 0.514644
O O6 0.406676 0.445259 0.242346
O O7 0.670521 0.178665 0.099187
O O8 0.883094 0.968328 0.071720
O O9 0.760184 0.916668 0.369963
O O10 0.722717 0.639757 0.077134
O O11 0.795558 0.557376 0.169388
O O12 0.238046 0.813044 0.307341
O O13 0.673179 0.190309 0.836755
O O14 0.437221 0.224688 0.973358
#
# Coordination Sequence:
#
# PCOD9088605 Si02
#       7
#     2   2   2   2   2   2   2
#     4  10  22  42  64  84 121 166 206 242 287 371
#     4  11  23  39  62  92 122 160 203 243 303 356
#     4   9  21  40  64  87 124 160 207 243 304 349
#     4   9  20  37  65  88 114 157 206 242 290 364
#     4  10  19  37  62  87 118 156 205 238 291 369
#     4  10  21  40  59  95 125 157 195 262 300 349
#     4   9  20  37  64  88 121 152 205 245 301 349
#
# _framework density 26.094574000000001
#
# number of rings (size 3 to 8) (size 9 to 14) (size 15 to 20)
#    0.857    1.429    0.000    2.143    2.000    5.714 
#    5.143    4.286    0.000    0.000    0.000    0.000 
#    0.000    0.000    0.000    0.000    0.000    0.000 
#
# Total GULP energy -78404.615700 kJ/mol
# GULP energy per Si atom -5600.329693 kJ/mol
# Density = 2.603518 g / cm^3
# Si number density = 26.094574 Si / 1000 Ang^3
#
#
#
# Elastic Constant Matrix: (Units=GPa)
#
#
# Indices 1 2 3 4 5 6 
#
# 1 91.8470 30.1780 15.1828 7.5121 -4.8689 -2.2671
# 2 30.1780 135.7843 24.0627 15.3756 5.1260 -12.8426
# 3 15.1828 24.0627 72.8810 11.9372 -10.3775 -19.4520
# 4 7.5121 15.3756 11.9372 52.6935 -4.0479 -6.3902
# 5 -4.8689 5.1260 -10.3775 -4.0479 27.5438 0.5757
# 6 -2.2671 -12.8426 -19.4520 -6.3902 0.5757 19.7379
#
#
#
# Elastic Compliance Matrix: (Units=1/GPa)
#
#
# Indices 1 2 3 4 5 6 
#
# 1 0.012154 -0.002579 -0.001974 -0.000696 0.001835 -0.002506
# 2 -0.002579 0.008853 -0.001638 -0.001666 -0.003036 0.003399
# 3 -0.001974 -0.001638 0.020890 -0.001146 0.007267 0.018712
# 4 -0.000696 -0.001666 -0.001146 0.020548 0.002686 0.004282
# 5 0.001835 -0.003036 0.007267 0.002686 0.040221 0.005093
# 6 -0.002506 0.003399 0.018712 0.004282 0.005093 0.072266
#
#
# Mechanical properties :
#
#
# Convention : Reuss Voigt Hill
#
# Bulk Modulus (GPa) = 33.88217 48.81769 41.34993
# Shear Modulus (GPa) = 25.36122 35.40095 30.38109
#
# Velocity S-wave (km/s) = 3.12091 3.68726 3.41584
# Velocity P-wave (km/s) = 5.09895 6.07259 5.60695
#
# Compressibility (1/GPa) = 0.02951405
#
# Stress axis : x y z
#
# Youngs Moduli (GPa) = 82.27992 112.95958 47.87065
#
# Poissons Ratio (x) = 0.29130 0.09451
# Poissons Ratio (y) = 0.21218 0.07841
# Poissons Ratio (z) = 0.16244 0.18503
#
# Static dielectric constant tensor:
#      x y z
#    x 2.020810 -0.028160 0.070800 
#    y -0.028160 1.978760 -0.008820 
#    z 0.070800 -0.008820 2.192190 
# 
# From -- ./inp_files/99892.got.cif
#   From: 2010.05.17/outbox.cif.g08.bks.cpg/sg2_50_cif.got.tgz:99892.got - 2010.06.03 11:33:40.
