data_PCOD9088270
_publ_section_title
;
Structure prediction by ZEFSAII (Michael W. Deem and Ramdas Pophale) SiO2 
 PCOD9088270
Probable space group: P -1
;
_chemical_formula_sum "Si O2"
_cell_formula_units_Z 16
_cell_length_a 11.080010
_cell_length_b 12.262000
_cell_length_c 6.474682
_cell_angle_alpha 121.498530
_cell_angle_beta 94.809459
_cell_angle_gamma 69.245464
_cell_volume 695.696480
_symmetry_space_group_name_H-M "P -1"
_symmetry_group_IT_number 2
_symmetry_cell_setting 'triclinic'
loop_
_space_group_symop_operation_xyz
x,y,z
-x,-y,-z
loop_
_atom_site_type_symbol
_atom_site_label
_atom_site_fract_x
_atom_site_fract_y
_atom_site_fract_z
Si Si1 0.638992 0.707272 0.600507
Si Si2 0.053339 0.686598 0.628167
Si Si3 0.873925 0.618125 0.840968
Si Si4 0.247996 0.466211 0.932022
Si Si5 0.215154 0.734976 0.036490
Si Si6 0.890700 0.976568 0.813110
Si Si7 0.502220 0.292490 0.036901
Si Si8 0.399181 0.007788 0.177903
O O1 0.740119 0.706523 0.794179
O O2 0.708635 0.579155 0.338768
O O3 0.518351 0.701015 0.709900
O O4 0.618694 0.841608 0.593168
O O5 0.089614 0.539370 0.383849
O O6 0.173075 0.715178 0.775926
O O7 0.974686 0.676723 0.816309
O O8 0.961825 0.815954 0.611316
O O9 0.847744 0.606152 0.066144
O O10 0.188821 0.630245 0.086723
O O11 0.376878 0.403880 0.026390
O O12 0.369743 0.688345 0.004302
O O13 0.145980 0.897602 0.230190
O O14 0.745884 0.992569 0.893413
O O15 0.000000 0.000000 0.000000
O O16 0.529453 0.132797 0.828526
O O17 0.500000 0.000000 0.000000
#
# Coordination Sequence:
#
# PCOD9088270 Si02
#       8
#     2   2   2   2   2   2   2   2
#     4  10  19  37  60  86 114 152 193 237 289 341
#     4  10  19  38  61  83 113 152 196 236 291 343
#     4  10  21  37  60  87 113 147 194 246 285 337
#     4  11  22  37  57  89 118 149 192 241 289 339
#     4  10  20  37  56  86 117 154 189 233 288 350
#     4   9  18  33  61  85 113 155 193 233 290 350
#     4   9  21  37  58  84 118 154 189 236 286 346
#     4   9  17  34  60  84 114 150 195 238 286 340
#
# _framework density 22.998536000000001
#
# number of rings (size 3 to 8) (size 9 to 14) (size 15 to 20)
#    0.000    2.250    2.500    0.375    0.000    1.500 
#    2.250    0.625    0.000    3.000    0.000    0.000 
#    0.000    0.000    0.000    0.000    0.000    0.000 
#
# Total GULP energy -89106.867342 kJ/mol
# GULP energy per Si atom -5569.179209 kJ/mol
# Density = 2.294619 g / cm^3
# Si number density = 22.998536 Si / 1000 Ang^3
#
#
#
# Elastic Constant Matrix: (Units=GPa)
#
#
# Indices 1 2 3 4 5 6 
#
# 1 62.2931 12.4070 0.5167 -12.4820 0.1674 -11.8553
# 2 12.4070 154.3524 20.7383 12.2843 0.0121 -7.4064
# 3 0.5167 20.7383 20.3253 -2.5326 -6.3434 -0.7121
# 4 -12.4820 12.2843 -2.5326 28.7081 -0.3564 -6.3907
# 5 0.1674 0.0121 -6.3434 -0.3564 17.5346 -2.2896
# 6 -11.8553 -7.4064 -0.7121 -6.3907 -2.2896 34.9716
#
#
#
# Elastic Compliance Matrix: (Units=1/GPa)
#
#
# Indices 1 2 3 4 5 6 
#
# 1 0.020936 -0.003012 0.005489 0.012953 0.003246 0.009151
# 2 -0.003012 0.008627 -0.010811 -0.006188 -0.004120 -0.000815
# 3 0.005489 -0.010811 0.070366 0.014757 0.026420 0.005430
# 4 0.012953 -0.006188 0.014757 0.047303 0.007818 0.012537
# 5 0.003246 -0.004120 0.026420 0.007818 0.067583 0.006619
# 6 0.009151 -0.000815 0.005430 0.012537 0.006619 0.034359
#
#
# Mechanical properties :
#
#
# Convention : Reuss Voigt Hill
#
# Bulk Modulus (GPa) = 12.01069 33.81052 22.91060
# Shear Modulus (GPa) = 17.03024 29.79677 23.41350
#
# Velocity S-wave (km/s) = 2.72415 3.60334 3.19414
# Velocity P-wave (km/s) = 3.88952 5.66085 4.85662
#
# Compressibility (1/GPa) = 0.08325918
#
# Stress axis : x y z
#
# Youngs Moduli (GPa) = 47.76486 115.91435 14.21151
#
# Poissons Ratio (x) = 0.34918 -0.07801
# Poissons Ratio (y) = 0.14389 0.15364
# Poissons Ratio (z) = -0.26218 1.25318
#
# Static dielectric constant tensor:
#      x y z
#    x 1.883340 0.000830 0.000370 
#    y 0.000830 1.945940 0.032090 
#    z 0.000370 0.032090 1.880230 
# 
# From -- ./inp_files/71830.got.cif
#   From: 2010.05.17/outbox.cif.g08.bks.cpg/sg2_36_cif.got.tgz:71830.got - 2010.06.03 11:33:40.
