data_PCOD9088642
_publ_section_title
;
Structure prediction by ZEFSAII (Michael W. Deem and Ramdas Pophale) SiO2 
 PCOD9088642
Probable space group: P -1
;
_chemical_formula_sum "Si O2"
_cell_formula_units_Z 16
_cell_length_a 14.849869
_cell_length_b 9.732913
_cell_length_c 14.462547
_cell_angle_alpha 56.070808
_cell_angle_beta 136.829680
_cell_angle_gamma 89.534632
_cell_volume 809.188335
_symmetry_space_group_name_H-M "P -1"
_symmetry_group_IT_number 2
_symmetry_cell_setting 'triclinic'
loop_
_space_group_symop_operation_xyz
x,y,z
-x,-y,-z
loop_
_atom_site_type_symbol
_atom_site_label
_atom_site_fract_x
_atom_site_fract_y
_atom_site_fract_z
Si Si1 0.442249 0.171488 0.648350
Si Si2 0.227538 0.664183 0.382792
Si Si3 0.732647 0.090369 0.539464
Si Si4 0.231390 0.298261 0.249226
Si Si5 0.191854 0.674924 0.996844
Si Si6 0.221401 0.759807 0.778857
Si Si7 0.228194 0.876355 0.118679
Si Si8 0.489871 0.753310 0.877948
O O1 0.326893 0.395987 0.547703
O O2 0.310323 0.265704 0.423011
O O3 0.631742 0.096739 0.787767
O O4 0.495153 0.945450 0.815136
O O5 0.303249 0.712969 0.502189
O O6 0.262179 0.730213 0.288027
O O7 0.996117 0.864265 0.145291
O O8 0.611818 0.193288 0.316815
O O9 0.700398 0.951312 0.626651
O O10 0.959325 0.881311 0.759569
O O11 0.274232 0.414418 0.172165
O O12 0.000000 0.500000 0.000000
O O13 0.234555 0.701802 0.917702
O O14 0.264206 0.730243 0.110506
O O15 0.356681 0.789409 0.841305
O O16 0.306067 0.528281 0.869563
O O17 0.000000 0.000000 0.500000
#
# Coordination Sequence:
#
# PCOD9088642 Si02
#       8
#     2   2   2   2   2   2   2   2
#     4  11  22  40  63  90 131 161 198 252 302 374
#     4  10  21  37  63  87 135 166 190 245 306 369
#     4   9  19  37  61  96 124 155 200 246 302 371
#     4   9  19  34  59  94 131 155 198 249 300 364
#     4  10  19  37  62  89 122 164 201 252 302 359
#     4  11  23  42  67  85 117 162 205 263 310 346
#     4  10  22  36  57  96 127 166 205 233 303 383
#     4  10  24  42  62  96 115 151 218 255 300 365
#
# _framework density 19.7729
#
# number of rings (size 3 to 8) (size 9 to 14) (size 15 to 20)
#    0.000    2.000    2.500    0.375    3.500    2.000 
#    0.000    3.125    0.000    2.250    0.000    0.000 
#    0.000    0.000    0.000    0.000    0.000    0.000 
#
# Total GULP energy -89425.730296 kJ/mol
# GULP energy per Si atom -5589.108143 kJ/mol
# Density = 1.972790 g / cm^3
# Si number density = 19.772900 Si / 1000 Ang^3
#
#
#
# Elastic Constant Matrix: (Units=GPa)
#
#
# Indices 1 2 3 4 5 6 
#
# 1 141.1666 58.3894 48.9096 -12.5180 -1.9358 14.8772
# 2 58.3894 112.2107 47.2383 -11.8316 15.0105 24.7718
# 3 48.9096 47.2383 82.1430 -20.4259 15.0102 13.7960
# 4 -12.5180 -11.8316 -20.4259 29.1695 -2.8619 -4.9911
# 5 -1.9358 15.0105 15.0102 -2.8619 23.7858 -3.6897
# 6 14.8772 24.7718 13.7960 -4.9911 -3.6897 31.6010
#
#
#
# Elastic Compliance Matrix: (Units=1/GPa)
#
#
# Indices 1 2 3 4 5 6 
#
# 1 0.010852 -0.004814 -0.005412 -0.000008 0.007632 0.001917
# 2 -0.004814 0.016353 -0.002916 -0.000316 -0.010548 -0.010562
# 3 -0.005412 -0.002916 0.022757 0.010364 -0.012478 -0.004922
# 4 -0.000008 -0.000316 0.010364 0.041687 -0.000985 0.002196
# 5 0.007632 -0.010548 -0.012478 -0.000985 0.059703 0.016938
# 6 0.001917 -0.010562 -0.004922 0.002196 0.016938 0.043495
#
#
# Mechanical properties :
#
#
# Convention : Reuss Voigt Hill
#
# Bulk Modulus (GPa) = 42.23021 71.62165 56.92593
# Shear Modulus (GPa) = 21.83204 28.97682 25.40443
#
# Velocity S-wave (km/s) = 3.32646 3.83231 3.58831
# Velocity P-wave (km/s) = 6.01314 7.47549 6.78383
#
# Compressibility (1/GPa) = 0.02367973
#
# Stress axis : x y z
#
# Youngs Moduli (GPa) = 92.15104 61.14984 43.94322
#
# Poissons Ratio (x) = 0.29435 0.23782
# Poissons Ratio (y) = 0.44357 0.12812
# Poissons Ratio (z) = 0.49871 0.17828
#
# Static dielectric constant tensor:
#      x y z
#    x 1.687860 0.000470 0.028240 
#    y 0.000470 1.692290 -0.022880 
#    z 0.028240 -0.022880 1.727840 
# 
# From -- ./inp_files/528292.got.cif
#   From: 2010.05.17/outbox.cif.g08.bks.cpg/sg2_265_cif.got.tgz:528292.got - 2010.06.03 11:33:40.
