data_PCOD9088542
_publ_section_title
;
Structure prediction by ZEFSAII (Michael W. Deem and Ramdas Pophale) SiO2 
 PCOD9088542
Probable space group: P -1
;
_chemical_formula_sum "Si O2"
_cell_formula_units_Z 14
_cell_length_a 9.588306
_cell_length_b 12.805829
_cell_length_c 17.768776
_cell_angle_alpha 150.802024
_cell_angle_beta 38.408612
_cell_angle_gamma 131.893084
_cell_volume 660.272762
_symmetry_space_group_name_H-M "P -1"
_symmetry_group_IT_number 2
_symmetry_cell_setting 'triclinic'
loop_
_space_group_symop_operation_xyz
x,y,z
-x,-y,-z
loop_
_atom_site_type_symbol
_atom_site_label
_atom_site_fract_x
_atom_site_fract_y
_atom_site_fract_z
Si Si1 0.059774 0.084223 0.811041
Si Si2 0.492859 0.001260 0.351706
Si Si3 0.556223 0.738485 0.602839
Si Si4 0.825802 0.946363 0.973580
Si Si5 0.169948 0.539346 0.091380
Si Si6 0.339284 0.389280 0.075566
Si Si7 0.984681 0.996444 0.616775
O O1 0.319866 0.009453 0.669889
O O2 0.980677 0.016379 0.720776
O O3 0.039706 0.343376 0.990047
O O4 0.926808 0.987392 0.875791
O O5 0.572345 0.817471 0.141973
O O6 0.494767 0.215499 0.435017
O O7 0.243980 0.962486 0.460892
O O8 0.500000 0.500000 0.500000
O O9 0.392878 0.897478 0.821735
O O10 0.806028 0.823129 0.560840
O O11 0.770184 0.702889 0.862377
O O12 0.000000 0.000000 0.000000
O O13 0.433327 0.498208 0.931727
O O14 0.092775 0.773293 0.242518
O O15 0.176879 0.511327 0.161525
#
# Coordination Sequence:
#
# PCOD9088542 Si02
#       7
#     2   2   2   2   2   2   2
#     4  11  24  40  64  93 128 166 197 254 319 368
#     4  10  21  42  63  87 127 164 208 250 305 371
#     4  11  25  42  64  93 119 166 214 255 304 360
#     4  11  19  42  66  86 123 163 210 250 298 374
#     4  10  19  37  61  95 119 154 205 252 305 360
#     4   9  19  36  64  93 114 158 210 253 298 358
#     4  12  24  41  61  96 130 157 205 262 309 361
#
# _framework density 21.203357
#
# number of rings (size 3 to 8) (size 9 to 14) (size 15 to 20)
#    0.000    1.429    7.143    1.286    2.000    0.571 
#    2.571    0.714    0.000    0.000    0.000    0.000 
#    0.000    0.000    0.000    0.000    0.000    0.000 
#
# Total GULP energy -78206.342377 kJ/mol
# GULP energy per Si atom -5586.167313 kJ/mol
# Density = 2.115510 g / cm^3
# Si number density = 21.203357 Si / 1000 Ang^3
#
#
#
# Elastic Constant Matrix: (Units=GPa)
#
#
# Indices 1 2 3 4 5 6 
#
# 1 65.7942 48.1220 37.5284 4.7578 -9.9472 -17.5266
# 2 48.1220 188.0008 47.2300 2.3885 -1.8053 -11.1560
# 3 37.5284 47.2300 84.1765 -10.4863 -24.4780 -11.0023
# 4 4.7578 2.3885 -10.4863 32.1158 -0.3866 -1.3399
# 5 -9.9472 -1.8053 -24.4780 -0.3866 23.7136 -6.1520
# 6 -17.5266 -11.1560 -11.0023 -1.3399 -6.1520 28.3903
#
#
#
# Elastic Compliance Matrix: (Units=1/GPa)
#
#
# Indices 1 2 3 4 5 6 
#
# 1 0.027409 -0.004548 -0.005791 -0.004898 0.008877 0.014582
# 2 -0.004548 0.007487 -0.005020 -0.001758 -0.007459 -0.003511
# 3 -0.005791 -0.005020 0.029625 0.011837 0.031412 0.013299
# 4 -0.004898 -0.001758 0.011837 0.036219 0.011964 0.005175
# 5 0.008877 -0.007459 0.031412 0.011964 0.086791 0.034094
# 6 0.014582 -0.003511 0.013299 0.005175 0.034094 0.055632
#
#
# Mechanical properties :
#
#
# Convention : Reuss Voigt Hill
#
# Bulk Modulus (GPa) = 29.58270 67.08136 48.33203
# Shear Modulus (GPa) = 17.53473 30.51670 24.02572
#
# Velocity S-wave (km/s) = 2.87884 3.79785 3.36982
# Velocity P-wave (km/s) = 5.00325 7.13704 6.16319
#
# Compressibility (1/GPa) = 0.03380355
#
# Stress axis : x y z
#
# Youngs Moduli (GPa) = 36.48418 133.56753 33.75473
#
# Poissons Ratio (x) = 0.60751 0.19546
# Poissons Ratio (y) = 0.16594 0.16945
# Poissons Ratio (z) = 0.21127 0.67050
#
# Static dielectric constant tensor:
#      x y z
#    x 1.756190 0.016030 -0.036870 
#    y 0.016030 1.831330 0.021800 
#    z -0.036870 0.021800 1.813270 
# 
# From -- ./inp_files/594815.got.cif
#   From: 2010.05.17/outbox.cif.g08.bks.cpg/sg2_298_cif.got.tgz:594815.got - 2010.06.03 11:33:40.
