data_PCOD9088871
_publ_section_title
;
Structure prediction by ZEFSAII (Michael W. Deem and Ramdas Pophale) SiO2 
 PCOD9088871
Probable space group: P -1
;
_chemical_formula_sum "Si O2"
_cell_formula_units_Z 14
_cell_length_a 9.202452
_cell_length_b 8.555544
_cell_length_c 13.120106
_cell_angle_alpha 102.342938
_cell_angle_beta 42.299372
_cell_angle_gamma 111.718670
_cell_volume 642.869424
_symmetry_space_group_name_H-M "P -1"
_symmetry_group_IT_number 2
_symmetry_cell_setting 'triclinic'
loop_
_space_group_symop_operation_xyz
x,y,z
-x,-y,-z
loop_
_atom_site_type_symbol
_atom_site_label
_atom_site_fract_x
_atom_site_fract_y
_atom_site_fract_z
Si Si1 0.139800 0.297960 0.474860
Si Si2 0.572010 0.878623 0.801677
Si Si3 0.341409 0.642737 0.299848
Si Si4 0.141543 0.640163 0.867257
Si Si5 0.158931 0.174767 0.897742
Si Si6 0.892819 0.665720 0.267990
Si Si7 0.406510 0.754098 0.075759
O O1 0.212295 0.145630 0.370036
O O2 0.297141 0.475663 0.367713
O O3 0.173863 0.297006 0.578877
O O4 0.885695 0.301413 0.579050
O O5 0.351830 0.777864 0.833235
O O6 0.567238 0.065359 0.857215
O O7 0.573049 0.792393 0.899607
O O8 0.571292 0.785635 0.234801
O O9 0.400061 0.620987 0.148332
O O10 0.223606 0.532327 0.726514
O O11 0.000000 0.500000 0.000000
O O12 0.935714 0.711333 0.959502
O O13 0.121770 0.218938 0.805130
O O14 0.000000 0.000000 0.000000
O O15 0.159834 0.694349 0.144517
#
# Coordination Sequence:
#
# PCOD9088871 Si02
#       7
#     2   2   2   2   2   2   2
#     4  10  23  44  62  93 131 172 206 259 321 390
#     4  11  21  38  69  91 124 169 216 259 314 379
#     4  10  23  40  61  94 134 161 208 266 315 376
#     4  10  19  37  63  93 116 165 214 262 301 370
#     4  11  22  39  64  98 127 162 211 278 308 369
#     4  10  22  42  66  91 124 170 217 251 323 382
#     4  10  22  40  64  95 119 169 221 258 307 377
#
# _framework density 21.777362
#
# number of rings (size 3 to 8) (size 9 to 14) (size 15 to 20)
#    0.000    1.714    2.857    2.571    2.000    5.143 
#    5.143    1.429    0.000    4.286    0.000    0.000 
#    0.000    0.000    0.000    0.000    0.000    0.000 
#
# Total GULP energy -77975.110062 kJ/mol
# GULP energy per Si atom -5569.650719 kJ/mol
# Density = 2.172780 g / cm^3
# Si number density = 21.777362 Si / 1000 Ang^3
#
#
#
# Elastic Constant Matrix: (Units=GPa)
#
#
# Indices 1 2 3 4 5 6 
#
# 1 101.5605 28.7068 36.1981 -12.6811 16.9845 9.9617
# 2 28.7068 89.1859 42.2330 -5.8740 -3.5849 17.8535
# 3 36.1981 42.2330 136.3486 2.5430 23.5251 -7.8083
# 4 -12.6811 -5.8740 2.5430 44.4754 0.2520 1.1670
# 5 16.9845 -3.5849 23.5251 0.2520 41.1871 -8.3390
# 6 9.9617 17.8535 -7.8083 1.1670 -8.3390 26.3888
#
#
#
# Elastic Compliance Matrix: (Units=1/GPa)
#
#
# Indices 1 2 3 4 5 6 
#
# 1 0.013275 -0.001785 -0.002455 0.003891 -0.005559 -0.006459
# 2 -0.001785 0.017449 -0.006247 0.002449 0.003374 -0.012022
# 3 -0.002455 -0.006247 0.011138 -0.002324 -0.004431 0.007151
# 4 0.003891 0.002449 -0.002324 0.024196 -0.001282 -0.005289
# 5 -0.005559 0.003374 -0.004431 -0.001282 0.031103 0.008390
# 6 -0.006459 -0.012022 0.007151 -0.005289 0.008390 0.053468
#
#
# Mechanical properties :
#
#
# Convention : Reuss Voigt Hill
#
# Bulk Modulus (GPa) = 47.87273 60.15232 54.01252
# Shear Modulus (GPa) = 28.00112 37.07408 32.53760
#
# Velocity S-wave (km/s) = 3.58968 4.13051 3.86956
# Velocity P-wave (km/s) = 6.26192 7.10138 6.69482
#
# Compressibility (1/GPa) = 0.02088872
#
# Stress axis : x y z
#
# Youngs Moduli (GPa) = 75.33161 57.31078 89.78059
#
# Poissons Ratio (x) = 0.10228 0.22039
# Poissons Ratio (y) = 0.13444 0.56087
# Poissons Ratio (z) = 0.18492 0.35803
#
# Static dielectric constant tensor:
#      x y z
#    x 1.716880 0.238120 0.045370 
#    y 0.238120 1.476150 -0.045810 
#    z 0.045370 -0.045810 1.843580 
# 
# From -- ./inp_files/240126.got.cif
#   From: 2010.05.17/outbox.cif.g08.bks.cpg/sg2_121_cif.got.tgz:240126.got - 2010.06.03 11:33:40.
