data_PCOD9088897
_publ_section_title
;
Structure prediction by ZEFSAII (Michael W. Deem and Ramdas Pophale) SiO2 
 PCOD9088897
Probable space group: P -1
;
_chemical_formula_sum "Si O2"
_cell_formula_units_Z 16
_cell_length_a 15.327475
_cell_length_b 11.913054
_cell_length_c 11.864857
_cell_angle_alpha 127.603128
_cell_angle_beta 28.373924
_cell_angle_gamma 136.279466
_cell_volume 709.393252
_symmetry_space_group_name_H-M "P -1"
_symmetry_group_IT_number 2
_symmetry_cell_setting 'triclinic'
loop_
_space_group_symop_operation_xyz
x,y,z
-x,-y,-z
loop_
_atom_site_type_symbol
_atom_site_label
_atom_site_fract_x
_atom_site_fract_y
_atom_site_fract_z
Si Si1 0.102629 0.004965 0.595087
Si Si2 0.781070 0.469533 0.586401
Si Si3 0.680250 0.396757 0.312461
Si Si4 0.590104 0.586219 0.177444
Si Si5 0.911062 0.226685 0.691984
Si Si6 0.531008 0.262947 0.149944
Si Si7 0.021893 0.729756 0.674200
Si Si8 0.048668 0.760603 0.092157
O O1 0.983272 0.859951 0.551028
O O2 0.139429 0.906583 0.592429
O O3 0.301540 0.126209 0.366626
O O4 0.994658 0.103602 0.827728
O O5 0.548029 0.415331 0.773855
O O6 0.881656 0.593183 0.653878
O O7 0.933345 0.580119 0.379449
O O8 0.820481 0.322066 0.481487
O O9 0.490581 0.364754 0.589485
O O10 0.626983 0.347006 0.212761
O O11 0.834583 0.590329 0.249170
O O12 0.791956 0.296442 0.169973
O O13 0.540817 0.400983 0.141208
O O14 0.837527 0.703638 0.952534
O O15 0.878349 0.171729 0.823212
O O16 0.685096 0.198817 0.888035
#
# Coordination Sequence:
#
# PCOD9088897 Si02
#       8
#     2   2   2   2   2   2   2   2
#     4  11  22  39  58  92 132 161 196 263 327 365
#     4  10  20  41  63  92 125 166 212 251 302 380
#     4  10  22  38  64  91 122 157 218 262 292 369
#     4  12  21  40  67  92 115 171 214 253 302 369
#     4  10  19  37  63  95 126 157 206 265 314 371
#     4  11  22  38  64  95 123 161 213 259 309 367
#     4  10  24  40  61  90 133 164 204 256 311 374
#     4  10  20  37  62  92 118 163 207 265 312 358
#
# _framework density 22.554483000000001
#
# number of rings (size 3 to 8) (size 9 to 14) (size 15 to 20)
#    0.000    1.500    3.750    1.500    0.000    1.000 
#    4.500    1.250    0.000    0.000    0.000    0.000 
#    0.000    0.000    0.000    0.000    0.000    0.000 
#
# Total GULP energy -89322.051189 kJ/mol
# GULP energy per Si atom -5582.628199 kJ/mol
# Density = 2.250315 g / cm^3
# Si number density = 22.554483 Si / 1000 Ang^3
#
#
#
# Elastic Constant Matrix: (Units=GPa)
#
#
# Indices 1 2 3 4 5 6 
#
# 1 67.1630 29.9184 7.8251 16.1204 -16.0683 -18.2303
# 2 29.9184 96.1247 19.6592 24.3029 -11.4375 -35.4977
# 3 7.8251 19.6592 67.4927 18.2116 1.9856 -11.4991
# 4 16.1204 24.3029 18.2116 34.2279 -6.6870 -0.0501
# 5 -16.0683 -11.4375 1.9856 -6.6870 26.4575 6.6433
# 6 -18.2303 -35.4977 -11.4991 -0.0501 6.6433 30.8611
#
#
#
# Elastic Compliance Matrix: (Units=1/GPa)
#
#
# Indices 1 2 3 4 5 6 
#
# 1 0.022311 0.001615 0.002181 -0.011296 0.007669 0.014181
# 2 0.001615 0.027012 0.003739 -0.022215 -0.001712 0.033750
# 3 0.002181 0.003739 0.020362 -0.015705 -0.006193 0.014485
# 4 -0.011296 -0.022215 -0.015705 0.060582 0.010109 -0.040155
# 5 0.007669 -0.001712 -0.006193 0.010109 0.047218 -0.009895
# 6 0.014181 0.033750 0.014485 -0.040155 -0.009895 0.087063
#
#
# Mechanical properties :
#
#
# Convention : Reuss Voigt Hill
#
# Bulk Modulus (GPa) = 11.79856 38.39841 25.09849
# Shear Modulus (GPa) = 18.00324 29.86782 23.93553
#
# Velocity S-wave (km/s) = 2.82833 3.64297 3.26119
# Velocity P-wave (km/s) = 3.98854 5.89548 5.03315
#
# Compressibility (1/GPa) = 0.08475611
#
# Stress axis : x y z
#
# Youngs Moduli (GPa) = 44.82165 37.02064 49.11082
#
# Poissons Ratio (x) = -0.05978 -0.10713
# Poissons Ratio (y) = -0.07238 -0.18365
# Poissons Ratio (z) = -0.09777 -0.13844
#
# Static dielectric constant tensor:
#      x y z
#    x 1.913430 0.030420 -0.015220 
#    y 0.030420 1.860010 0.015960 
#    z -0.015220 0.015960 1.878860 
# 
# From -- ./inp_files/451585.got.cif
#   From: 2010.05.17/outbox.cif.g08.bks.cpg/sg2_226_cif.got.tgz:451585.got - 2010.06.03 11:33:40.
