data_PCOD9088813
_publ_section_title
;
Structure prediction by ZEFSAII (Michael W. Deem and Ramdas Pophale) SiO2 
 PCOD9088813
Probable space group: P -1
;
_chemical_formula_sum "Si O2"
_cell_formula_units_Z 16
_cell_length_a 17.418470
_cell_length_b 23.876883
_cell_length_c 12.151669
_cell_angle_alpha 149.049458
_cell_angle_beta 137.038172
_cell_angle_gamma 20.221745
_cell_volume 819.308905
_symmetry_space_group_name_H-M "P -1"
_symmetry_group_IT_number 2
_symmetry_cell_setting 'triclinic'
loop_
_space_group_symop_operation_xyz
x,y,z
-x,-y,-z
loop_
_atom_site_type_symbol
_atom_site_label
_atom_site_fract_x
_atom_site_fract_y
_atom_site_fract_z
Si Si1 0.974277 0.690246 0.002794
Si Si2 0.878405 0.890566 0.943496
Si Si3 0.704501 0.955748 0.658618
Si Si4 0.549278 0.580909 0.223934
Si Si5 0.183714 0.939118 0.620585
Si Si6 0.140500 0.396204 0.858461
Si Si7 0.504685 0.188499 0.607581
Si Si8 0.255094 0.219839 0.274193
O O1 0.912431 0.867822 0.212766
O O2 0.018384 0.605449 0.026273
O O3 0.236426 0.444086 0.805936
O O4 0.768370 0.795536 0.902754
O O5 0.821173 0.942547 0.841975
O O6 0.756135 0.883301 0.844837
O O7 0.166117 0.636952 0.839191
O O8 0.795146 0.055716 0.218612
O O9 0.866261 0.706672 0.399425
O O10 0.433895 0.162963 0.773412
O O11 0.665972 0.026256 0.610699
O O12 0.427314 0.767714 0.323106
O O13 0.437002 0.695662 0.418901
O O14 0.500000 0.500000 0.000000
O O15 0.000000 0.000000 0.500000
O O16 0.000000 0.500000 0.000000
O O17 0.463884 0.119209 0.369069
O O18 0.000000 0.500000 0.500000
#
# Coordination Sequence:
#
# PCOD9088813 Si02
#       8
#     2   2   2   2   2   2   2   2
#     4   9  18  34  57  89 122 154 198 258 290 356
#     4  11  21  40  59  91 124 157 202 252 302 365
#     4  10  22  38  59  88 130 169 193 246 304 358
#     4  12  23  39  67  87 113 160 208 259 306 359
#     4  11  22  40  64  88 115 153 208 263 309 350
#     4  10  21  36  58  89 133 170 200 235 303 376
#     4  10  19  37  63  89 123 165 198 238 310 360
#     4   9  14  30  58  83 118 151 187 242 292 343
#
# _framework density 19.528654
#
# number of rings (size 3 to 8) (size 9 to 14) (size 15 to 20)
#    0.000    1.750    5.000    3.000    1.750    1.000 
#    0.000    1.875    0.000    3.750    0.000    0.000 
#    0.000    0.000    0.000    0.000    0.000    0.000 
#
# Total GULP energy -89247.265155 kJ/mol
# GULP energy per Si atom -5577.954072 kJ/mol
# Density = 1.948421 g / cm^3
# Si number density = 19.528654 Si / 1000 Ang^3
#
#
#
# Elastic Constant Matrix: (Units=GPa)
#
#
# Indices 1 2 3 4 5 6 
#
# 1 71.2928 24.9322 25.9008 -16.9594 0.6002 4.8622
# 2 24.9322 60.0969 29.4270 -20.0948 5.7469 19.0653
# 3 25.9008 29.4270 100.0902 -22.1952 2.3279 0.3874
# 4 -16.9594 -20.0948 -22.1952 32.1218 -7.6502 -10.5296
# 5 0.6002 5.7469 2.3279 -7.6502 38.2263 -0.4832
# 6 4.8622 19.0653 0.3874 -10.5296 -0.4832 21.2253
#
#
#
# Elastic Compliance Matrix: (Units=1/GPa)
#
#
# Indices 1 2 3 4 5 6 
#
# 1 0.017980 -0.006321 -0.001370 0.006739 0.002163 0.004976
# 2 -0.006321 0.032307 -0.007160 0.002268 -0.004202 -0.026411
# 3 -0.001370 -0.007160 0.014298 0.008744 0.002115 0.010870
# 4 0.006739 0.002268 0.008744 0.051701 0.009647 0.022128
# 5 0.002163 -0.004202 0.002115 0.009647 0.028669 0.008679
# 6 0.004976 -0.026411 0.010870 0.022128 0.008679 0.080673
#
#
# Mechanical properties :
#
#
# Convention : Reuss Voigt Hill
#
# Bulk Modulus (GPa) = 28.66615 43.55553 36.11084
# Shear Modulus (GPa) = 18.72954 28.39601 23.56277
#
# Velocity S-wave (km/s) = 3.10026 3.81736 3.47735
# Velocity P-wave (km/s) = 5.24656 6.46386 5.88676
#
# Compressibility (1/GPa) = 0.03488435
#
# Stress axis : x y z
#
# Youngs Moduli (GPa) = 55.61667 30.95331 69.93866
#
# Poissons Ratio (x) = 0.19565 0.09580
# Poissons Ratio (y) = 0.35155 0.50075
# Poissons Ratio (z) = 0.07618 0.22162
#
# Static dielectric constant tensor:
#      x y z
#    x 1.672830 -0.001560 -0.067270 
#    y -0.001560 1.693330 -0.008450 
#    z -0.067270 -0.008450 1.689790 
# 
# From -- ./inp_files/467484.got.cif
#   From: 2010.05.17/outbox.cif.g08.bks.cpg/sg2_234_cif.got.tgz:467484.got - 2010.06.03 11:33:40.
