data_PCOD9088843
_publ_section_title
;
Structure prediction by ZEFSAII (Michael W. Deem and Ramdas Pophale) SiO2 
 PCOD9088843
Probable space group: P -1
;
_chemical_formula_sum "Si O2"
_cell_formula_units_Z 16
_cell_length_a 11.330803
_cell_length_b 14.003413
_cell_length_c 14.244372
_cell_angle_alpha 148.394774
_cell_angle_beta 140.500501
_cell_angle_gamma 49.448570
_cell_volume 753.235226
_symmetry_space_group_name_H-M "P -1"
_symmetry_group_IT_number 2
_symmetry_cell_setting 'triclinic'
loop_
_space_group_symop_operation_xyz
x,y,z
-x,-y,-z
loop_
_atom_site_type_symbol
_atom_site_label
_atom_site_fract_x
_atom_site_fract_y
_atom_site_fract_z
Si Si1 0.386000 0.773128 0.381813
Si Si2 0.817681 0.334285 0.178078
Si Si3 0.811046 0.502536 0.828288
Si Si4 0.691456 0.471529 0.535435
Si Si5 0.424427 0.150251 0.796910
Si Si6 0.304930 0.513408 0.948168
Si Si7 0.462747 0.169813 0.053291
Si Si8 0.782663 0.672055 0.578680
O O1 0.323940 0.638179 0.315667
O O2 0.609120 0.774948 0.517193
O O3 0.337353 0.979505 0.545645
O O4 0.310197 0.680975 0.163710
O O5 0.839398 0.452663 0.194660
O O6 0.781960 0.480678 0.360559
O O7 0.013450 0.242713 0.239006
O O8 0.637912 0.204518 0.947021
O O9 0.834135 0.444447 0.685270
O O10 0.715669 0.700966 0.932468
O O11 0.000000 0.500000 0.000000
O O12 0.500000 0.500000 0.500000
O O13 0.639251 0.302056 0.294903
O O14 0.743672 0.633587 0.632417
O O15 0.303889 0.328590 0.852757
O O16 0.440583 0.107458 0.880738
O O17 0.500000 0.500000 0.000000
O O18 0.500000 0.000000 0.000000
#
# Coordination Sequence:
#
# PCOD9088843 Si02
#       8
#     2   2   2   2   2   2   2   2
#     4  12  22  41  67  90 129 170 214 262 334 393
#     4  10  22  39  65  93 129 171 217 266 320 377
#     4  11  24  42  66  95 132 171 217 277 336 389
#     4  10  19  37  63  91 118 173 214 256 335 390
#     4  11  22  40  68  95 127 171 218 264 328 389
#     4  10  20  41  62  90 126 173 204 265 322 376
#     4  11  21  40  67  95 130 172 219 269 330 399
#     4  11  20  39  64  93 126 168 215 262 319 387
#
# _framework density 21.241705
#
# number of rings (size 3 to 8) (size 9 to 14) (size 15 to 20)
#    0.000    1.250    7.500    0.750    3.500    2.500 
#    0.000    3.750    0.000    0.000    0.000    0.000 
#    0.000    0.000    0.000    0.000    0.000    0.000 
#
# Total GULP energy -89252.782894 kJ/mol
# GULP energy per Si atom -5578.298931 kJ/mol
# Density = 2.119336 g / cm^3
# Si number density = 21.241705 Si / 1000 Ang^3
#
#
#
# Elastic Constant Matrix: (Units=GPa)
#
#
# Indices 1 2 3 4 5 6 
#
# 1 56.1030 21.4550 25.0302 -1.3977 -20.0542 17.6779
# 2 21.4550 99.0784 41.9679 -12.3427 -1.6353 6.4442
# 3 25.0302 41.9679 92.3103 4.1083 -26.3208 -0.2567
# 4 -1.3977 -12.3427 4.1083 36.6163 5.6733 -2.7135
# 5 -20.0542 -1.6353 -26.3208 5.6733 30.8764 -14.8072
# 6 17.6779 6.4442 -0.2567 -2.7135 -14.8072 31.2535
#
#
#
# Elastic Compliance Matrix: (Units=1/GPa)
#
#
# Indices 1 2 3 4 5 6 
#
# 1 0.027657 -0.004942 -0.001515 -0.003068 0.012716 -0.008879
# 2 -0.004942 0.018181 -0.013003 0.009744 -0.019701 -0.009548
# 3 -0.001515 -0.013003 0.026729 -0.011028 0.031680 0.017809
# 4 -0.003068 0.009744 -0.011028 0.034380 -0.020624 -0.007150
# 5 0.012716 -0.019701 0.031680 -0.020624 0.088203 0.037128
# 6 -0.008879 -0.009548 0.017809 -0.007150 0.037128 0.056103
#
#
# Mechanical properties :
#
#
# Convention : Reuss Voigt Hill
#
# Bulk Modulus (GPa) = 29.72107 47.15530 38.43819
# Shear Modulus (GPa) = 16.58993 30.35183 23.47088
#
# Velocity S-wave (km/s) = 2.79768 3.78415 3.32767
# Velocity P-wave (km/s) = 4.94553 6.42967 5.73581
#
# Compressibility (1/GPa) = 0.03364616
#
# Stress axis : x y z
#
# Youngs Moduli (GPa) = 36.15766 55.00313 37.41292
#
# Poissons Ratio (x) = 0.27184 0.05667
# Poissons Ratio (y) = 0.17870 0.48649
# Poissons Ratio (z) = 0.05476 0.71521
#
# Static dielectric constant tensor:
#      x y z
#    x 1.829300 -0.015660 0.011450 
#    y -0.015660 1.806870 -0.008560 
#    z 0.011450 -0.008560 1.810300 
# 
# From -- ./inp_files/521969.got.cif
#   From: 2010.05.17/outbox.cif.g08.bks.cpg/sg2_261_cif.got.tgz:521969.got - 2010.06.03 11:33:40.
