data_PCOD9088709
_publ_section_title
;
Structure prediction by ZEFSAII (Michael W. Deem and Ramdas Pophale) SiO2 
 PCOD9088709
Probable space group: P -1
;
_chemical_formula_sum "Si O2"
_cell_formula_units_Z 16
_cell_length_a 9.521597
_cell_length_b 9.805851
_cell_length_c 23.121320
_cell_angle_alpha 148.147864
_cell_angle_beta 142.720766
_cell_angle_gamma 52.193622
_cell_volume 676.561099
_symmetry_space_group_name_H-M "P -1"
_symmetry_group_IT_number 2
_symmetry_cell_setting 'triclinic'
loop_
_space_group_symop_operation_xyz
x,y,z
-x,-y,-z
loop_
_atom_site_type_symbol
_atom_site_label
_atom_site_fract_x
_atom_site_fract_y
_atom_site_fract_z
Si Si1 0.876474 0.996577 0.853440
Si Si2 0.073425 0.700854 0.544677
Si Si3 0.787016 0.653391 0.982442
Si Si4 0.266325 0.623007 0.963943
Si Si5 0.753729 0.472144 0.707418
Si Si6 0.422807 0.467515 0.710685
Si Si7 0.626586 0.979024 0.147408
Si Si8 0.368037 0.321642 0.441621
O O1 0.813162 0.745226 0.786275
O O2 0.764458 0.922640 0.726581
O O3 0.139505 0.125349 0.964162
O O4 0.781796 0.224016 0.938943
O O5 0.207999 0.519973 0.485019
O O6 0.000000 0.500000 0.500000
O O7 0.824414 0.741277 0.451723
O O8 0.244165 0.940734 0.719356
O O9 0.741811 0.784555 0.075421
O O10 0.554991 0.463036 0.812746
O O11 0.000000 0.500000 0.000000
O O12 0.018022 0.439847 0.798338
O O13 0.500000 0.500000 0.000000
O O14 0.357677 0.847228 0.026731
O O15 0.604069 0.470999 0.717400
O O16 0.563262 0.275757 0.535378
O O17 0.351062 0.753077 0.784690
O O18 0.500000 0.500000 0.500000
#
# Coordination Sequence:
#
# PCOD9088709 Si02
#       8
#     2   2   2   2   2   2   2   2
#     4  11  21  41  66  90 123 162 208 254 309 364
#     4  10  19  37  62  95 125 152 200 266 311 359
#     4  12  26  40  57  92 133 166 203 253 310 365
#     4  12  24  40  62  90 129 167 206 253 305 371
#     4  11  21  40  68  96 116 161 211 259 310 365
#     4  11  21  40  67  93 123 157 213 259 306 368
#     4  11  22  40  63  93 123 159 210 255 309 367
#     4  10  20  36  63  98 125 150 201 267 313 359
#
# _framework density 23.649010000000001
#
# number of rings (size 3 to 8) (size 9 to 14) (size 15 to 20)
#    0.000    1.000    5.000    4.500    0.000    2.000 
#    0.000    2.500    0.000    0.000    0.000    0.000 
#    0.000    0.000    0.000    0.000    0.000    0.000 
#
# Total GULP energy -89232.052837 kJ/mol
# GULP energy per Si atom -5577.003302 kJ/mol
# Density = 2.359518 g / cm^3
# Si number density = 23.649010 Si / 1000 Ang^3
#
#
#
# Elastic Constant Matrix: (Units=GPa)
#
#
# Indices 1 2 3 4 5 6 
#
# 1 133.1454 7.7949 20.2620 4.4348 -6.0557 -33.1272
# 2 7.7949 78.5212 43.1221 -26.6058 -9.5541 -13.2160
# 3 20.2620 43.1221 120.3520 -43.0791 -6.7244 -24.5238
# 4 4.4348 -26.6058 -43.0791 35.5885 -4.4696 13.9298
# 5 -6.0557 -9.5541 -6.7244 -4.4696 37.9561 -0.0862
# 6 -33.1272 -13.2160 -24.5238 13.9298 -0.0862 27.7167
#
#
#
# Elastic Compliance Matrix: (Units=1/GPa)
#
#
# Indices 1 2 3 4 5 6 
#
# 1 0.013372 -0.001128 -0.002638 -0.013513 -0.000164 0.019902
# 2 -0.001128 0.018830 -0.001596 0.013167 0.005827 -0.000381
# 3 -0.002638 -0.001596 0.016831 0.019629 0.004473 0.001126
# 4 -0.013513 0.013167 0.019629 0.077375 0.013676 -0.031349
# 5 -0.000164 0.005827 0.004473 0.013676 0.030189 -0.000239
# 6 0.019902 -0.000381 0.001126 -0.031349 -0.000239 0.076436
#
#
# Mechanical properties :
#
#
# Convention : Reuss Voigt Hill
#
# Bulk Modulus (GPa) = 26.10319 52.70852 39.40585
# Shear Modulus (GPa) = 19.49114 37.64158 28.56636
#
# Velocity S-wave (km/s) = 2.87398 3.99391 3.47930
# Velocity P-wave (km/s) = 4.69837 6.60338 5.73059
#
# Compressibility (1/GPa) = 0.03830950
#
# Stress axis : x y z
#
# Youngs Moduli (GPa) = 74.78114 53.10639 59.41551
#
# Poissons Ratio (x) = 0.05989 0.15674
# Poissons Ratio (y) = 0.08433 0.09483
# Poissons Ratio (z) = 0.19727 0.08476
#
# Static dielectric constant tensor:
#      x y z
#    x 1.859890 0.056380 0.048980 
#    y 0.056380 1.967890 -0.045110 
#    z 0.048980 -0.045110 2.210790 
# 
# From -- ./inp_files/607706.got.cif
#   From: 2010.05.17/outbox.cif.g08.bks.cpg/sg2_304_cif.got.tgz:607706.got - 2010.06.03 11:33:40.
