data_PCOD9088451
_publ_section_title
;
Structure prediction by ZEFSAII (Michael W. Deem and Ramdas Pophale) SiO2 
 PCOD9088451
Probable space group: P -1
;
_chemical_formula_sum "Si O2"
_cell_formula_units_Z 16
_cell_length_a 12.398000
_cell_length_b 20.387662
_cell_length_c 21.659600
_cell_angle_alpha 160.015078
_cell_angle_beta 28.925612
_cell_angle_gamma 140.936974
_cell_volume 869.133840
_symmetry_space_group_name_H-M "P -1"
_symmetry_group_IT_number 2
_symmetry_cell_setting 'triclinic'
loop_
_space_group_symop_operation_xyz
x,y,z
-x,-y,-z
loop_
_atom_site_type_symbol
_atom_site_label
_atom_site_fract_x
_atom_site_fract_y
_atom_site_fract_z
Si Si1 0.800037 0.951913 0.516163
Si Si2 0.186792 0.696762 0.383019
Si Si3 0.353164 0.714419 0.736012
Si Si4 0.168280 0.126190 0.816867
Si Si5 0.958875 0.244497 0.901941
Si Si6 0.662366 0.697419 0.461636
Si Si7 0.488726 0.717218 0.132521
Si Si8 0.739689 0.882286 0.711362
O O1 0.666158 0.831337 0.519065
O O2 0.917872 0.821410 0.282911
O O3 0.630963 0.151926 0.749061
O O4 0.000000 0.000000 0.500000
O O5 0.293990 0.689801 0.253949
O O6 0.474994 0.876290 0.847143
O O7 0.333695 0.493944 0.160682
O O8 0.912899 0.737267 0.544119
O O9 0.500000 0.500000 0.500000
O O10 0.414781 0.711185 0.629697
O O11 0.085199 0.773424 0.938330
O O12 0.145935 0.217614 0.839804
O O13 0.213000 0.890686 0.576627
O O14 0.361784 0.172733 0.803402
O O15 0.809486 0.088517 0.855487
O O16 0.798527 0.468823 0.179420
O O17 0.786451 0.782248 0.530988
#
# Coordination Sequence:
#
# PCOD9088451 Si02
#       8
#     2   2   2   2   2   2   2   2
#     4  12  22  41  59  86 123 157 196 243 295 355
#     4  10  20  35  58  87 117 152 189 241 300 342
#     4  10  19  37  61  87 124 154 192 254 282 344
#     4  11  21  38  58  92 120 144 202 234 305 342
#     4  11  20  36  62  90 116 154 191 248 300 348
#     4  10  21  37  56  89 118 156 196 235 298 349
#     4  11  22  38  58  85 122 154 187 251 295 348
#     4   9  19  37  57  89 117 148 193 244 286 335
#
# _framework density 18.409132
#
# number of rings (size 3 to 8) (size 9 to 14) (size 15 to 20)
#    0.750    0.750    5.000    2.250    0.000    3.000 
#    4.500    0.625    0.000    0.750    0.000    0.000 
#    0.000    0.000    0.000    0.000    0.000    0.000 
#
# Total GULP energy -89260.997046 kJ/mol
# GULP energy per Si atom -5578.812315 kJ/mol
# Density = 1.836723 g / cm^3
# Si number density = 18.409132 Si / 1000 Ang^3
#
#
#
# Elastic Constant Matrix: (Units=GPa)
#
#
# Indices 1 2 3 4 5 6 
#
# 1 95.0490 29.6625 40.6092 -1.1370 -13.1010 -13.7918
# 2 29.6625 43.9702 10.5620 -3.5312 -6.4870 -17.6459
# 3 40.6092 10.5620 91.6646 14.3428 -10.6603 -16.1837
# 4 -1.1370 -3.5312 14.3428 36.0547 -3.3745 -1.6404
# 5 -13.1010 -6.4870 -10.6603 -3.3745 22.0900 -8.3406
# 6 -13.7918 -17.6459 -16.1837 -1.6404 -8.3406 29.4332
#
#
#
# Elastic Compliance Matrix: (Units=1/GPa)
#
#
# Indices 1 2 3 4 5 6 
#
# 1 0.016608 -0.008271 -0.005977 0.002652 0.005401 0.001216
# 2 -0.008271 0.044319 0.006537 0.005326 0.024766 0.033604
# 3 -0.005977 0.006537 0.017201 -0.004748 0.011023 0.013435
# 4 0.002652 0.005326 -0.004748 0.031222 0.007796 0.005774
# 5 0.005401 0.024766 0.011023 0.007796 0.079809 0.046490
# 6 0.001216 0.033604 0.013435 0.005774 0.046490 0.075575
#
#
# Mechanical properties :
#
#
# Convention : Reuss Voigt Hill
#
# Bulk Modulus (GPa) = 15.94706 43.59457 29.77081
# Shear Modulus (GPa) = 16.60812 27.50558 22.05685
#
# Velocity S-wave (km/s) = 3.00687 3.86959 3.46518
# Velocity P-wave (km/s) = 4.55372 6.61039 5.67599
#
# Compressibility (1/GPa) = 0.06270749
#
# Stress axis : x y z
#
# Youngs Moduli (GPa) = 60.21146 22.56361 58.13623
#
# Poissons Ratio (x) = 0.18661 0.34748
# Poissons Ratio (y) = 0.49798 -0.38004
# Poissons Ratio (z) = 0.35988 -0.14750
#
# Static dielectric constant tensor:
#      x y z
#    x 1.620100 0.008590 0.023590 
#    y 0.008590 1.676880 -0.003590 
#    z 0.023590 -0.003590 1.659800 
# 
# From -- ./inp_files/610947.got.cif
#   From: 2010.05.17/outbox.cif.g08.bks.cpg/sg2_306_cif.got.tgz:610947.got - 2010.06.03 11:33:40.
