data_PCOD9088391
_publ_section_title
;
Structure prediction by ZEFSAII (Michael W. Deem and Ramdas Pophale) SiO2 
 PCOD9088391
Probable space group: P -1
;
_chemical_formula_sum "Si O2"
_cell_formula_units_Z 16
_cell_length_a 13.508627
_cell_length_b 7.284576
_cell_length_c 8.563102
_cell_angle_alpha 93.485052
_cell_angle_beta 104.877190
_cell_angle_gamma 104.713962
_cell_volume 780.505784
_symmetry_space_group_name_H-M "P -1"
_symmetry_group_IT_number 2
_symmetry_cell_setting 'triclinic'
loop_
_space_group_symop_operation_xyz
x,y,z
-x,-y,-z
loop_
_atom_site_type_symbol
_atom_site_label
_atom_site_fract_x
_atom_site_fract_y
_atom_site_fract_z
Si Si1 0.106134 0.694055 0.238115
Si Si2 0.944666 0.300975 0.116895
Si Si3 0.515087 0.207222 0.377979
Si Si4 0.081093 0.877978 0.557382
Si Si5 0.326721 0.016170 0.720621
Si Si6 0.355885 0.811948 0.293610
Si Si7 0.285333 0.690680 0.928299
Si Si8 0.423645 0.464637 0.818470
O O1 0.064910 0.734772 0.394219
O O2 0.234109 0.751427 0.298743
O O3 0.053092 0.470384 0.171780
O O4 0.072426 0.791051 0.070625
O O5 0.939977 0.192739 0.274812
O O6 0.840095 0.379372 0.092903
O O7 0.563546 0.262312 0.570717
O O8 0.519658 0.391492 0.287642
O O9 0.598892 0.094471 0.342622
O O10 0.403480 0.043092 0.322132
O O11 0.207580 0.984144 0.605706
O O12 0.000000 0.000000 0.500000
O O13 0.383541 0.239975 0.759714
O O14 0.309537 0.901915 0.872175
O O15 0.350789 0.723938 0.115823
O O16 0.323219 0.545218 0.826899
O O17 0.500000 0.500000 0.000000
#
# Coordination Sequence:
#
# PCOD9088391 Si02
#       8
#     2   2   2   2   2   2   2   2
#     4  10  20  39  65  86 118 158 201 246 297 360
#     4   9  21  39  63  90 115 156 207 241 297 367
#     4  10  21  38  61  83 118 158 194 247 291 357
#     4  11  23  37  61  91 124 157 192 251 305 355
#     4  10  21  40  59  88 119 153 203 242 296 365
#     4  10  19  37  61  83 115 158 199 237 306 349
#     4   9  20  38  61  85 117 157 191 249 298 354
#     4  11  22  36  60  89 117 154 202 245 296 358
#
# _framework density 20.499528999999999
#
# number of rings (size 3 to 8) (size 9 to 14) (size 15 to 20)
#    0.000    2.000    1.250    1.875    1.750    3.500 
#    0.000    6.875   11.000    0.000    0.000    0.000 
#    0.000    0.000    0.000    0.000    0.000    0.000 
#
# Total GULP energy -89174.081309 kJ/mol
# GULP energy per Si atom -5573.380082 kJ/mol
# Density = 2.045287 g / cm^3
# Si number density = 20.499529 Si / 1000 Ang^3
#
#
#
# Elastic Constant Matrix: (Units=GPa)
#
#
# Indices 1 2 3 4 5 6 
#
# 1 75.2669 44.0423 20.1940 -4.4575 16.6656 22.2882
# 2 44.0423 109.0334 35.4776 -3.5520 6.4987 10.8213
# 3 20.1940 35.4776 110.9443 -11.6026 6.9323 6.0021
# 4 -4.4575 -3.5520 -11.6026 25.3241 7.9256 0.5577
# 5 16.6656 6.4987 6.9323 7.9256 30.7551 2.2684
# 6 22.2882 10.8213 6.0021 0.5577 2.2684 30.9008
#
#
#
# Elastic Compliance Matrix: (Units=1/GPa)
#
#
# Indices 1 2 3 4 5 6 
#
# 1 0.025711 -0.007955 0.000350 0.008063 -0.013302 -0.014996
# 2 -0.007955 0.013036 -0.003171 -0.001886 0.002637 0.001629
# 3 0.000350 -0.003171 0.010822 0.005642 -0.003331 -0.001101
# 4 0.008063 -0.001886 0.005642 0.048798 -0.017386 -0.005856
# 5 -0.013302 0.002637 -0.003331 -0.017386 0.043924 0.006407
# 6 -0.014996 0.001629 -0.001101 -0.005856 0.006407 0.042456
#
#
# Mechanical properties :
#
#
# Convention : Reuss Voigt Hill
#
# Bulk Modulus (GPa) = 35.69416 54.96359 45.32887
# Shear Modulus (GPa) = 23.18693 30.43141 26.80917
#
# Velocity S-wave (km/s) = 3.36683 3.85709 3.62027
# Velocity P-wave (km/s) = 5.70649 6.83422 6.29566
#
# Compressibility (1/GPa) = 0.02801579
#
# Stress axis : x y z
#
# Youngs Moduli (GPa) = 38.89433 76.70815 92.40811
#
# Poissons Ratio (x) = 0.61025 -0.03233
# Poissons Ratio (y) = 0.30942 0.29301
# Poissons Ratio (z) = -0.01361 0.24323
#
# Static dielectric constant tensor:
#      x y z
#    x 1.759340 0.000270 -0.066910 
#    y 0.000270 1.717470 -0.020430 
#    z -0.066910 -0.020430 1.818980 
# 
# From -- ./inp_files/276905.got.cif
#   From: 2010.05.17/outbox.cif.g08.bks.cpg/sg2_139_cif.got.tgz:276905.got - 2010.06.03 11:33:40.
