data_PCOD9088854
_publ_section_title
;
Structure prediction by ZEFSAII (Michael W. Deem and Ramdas Pophale) SiO2 
 PCOD9088854
Probable space group: P -1
;
_chemical_formula_sum "Si O2"
_cell_formula_units_Z 16
_cell_length_a 25.291634
_cell_length_b 16.556521
_cell_length_c 13.396525
_cell_angle_alpha 146.057961
_cell_angle_beta 159.745214
_cell_angle_gamma 22.195772
_cell_volume 700.201238
_symmetry_space_group_name_H-M "P -1"
_symmetry_group_IT_number 2
_symmetry_cell_setting 'triclinic'
loop_
_space_group_symop_operation_xyz
x,y,z
-x,-y,-z
loop_
_atom_site_type_symbol
_atom_site_label
_atom_site_fract_x
_atom_site_fract_y
_atom_site_fract_z
Si Si1 0.540561 0.946970 0.272773
Si Si2 0.239735 0.665003 0.105852
Si Si3 0.223261 0.909853 0.169004
Si Si4 0.424106 0.207138 0.621400
Si Si5 0.272530 0.767458 0.882825
Si Si6 0.427889 0.246527 0.077665
Si Si7 0.994007 0.704497 0.327857
Si Si8 0.101685 0.247243 0.560060
O O1 0.650910 0.772657 0.377961
O O2 0.655650 0.020764 0.544050
O O3 0.561962 0.840988 0.100877
O O4 0.261190 0.163385 0.022687
O O5 0.086586 0.665505 0.765013
O O6 0.332003 0.718575 0.246283
O O7 0.414024 0.427755 0.226130
O O8 0.048896 0.873496 0.056284
O O9 0.240598 0.837002 0.012847
O O10 0.209449 0.438121 0.418657
O O11 0.500000 0.000000 0.500000
O O12 0.650505 0.148129 0.955708
O O13 0.059015 0.818613 0.523754
O O14 0.500000 0.500000 0.000000
O O15 0.664076 0.020554 0.318139
O O16 0.198157 0.341468 0.819699
O O17 0.981316 0.725546 0.447614
#
# Coordination Sequence:
#
# PCOD9088854 Si02
#       8
#     2   2   2   2   2   2   2   2
#     4  11  23  41  63  94 125 158 217 255 307 377
#     4  11  22  39  65  89 131 171 198 253 321 373
#     4  11  23  40  62  97 130 160 211 263 311 370
#     4  11  23  40  65  91 119 160 212 263 312 364
#     4  10  22  43  64  88 124 166 207 258 312 369
#     4  10  22  36  63  95 123 166 206 250 306 386
#     4  10  23  41  65  87 125 168 198 260 317 368
#     4  10  19  37  63  91 125 156 212 246 304 381
#
# _framework density 22.850572
#
# number of rings (size 3 to 8) (size 9 to 14) (size 15 to 20)
#    0.000    1.500    3.750    1.125    3.500    1.000 
#    0.000    6.250    0.000    0.000    0.000    0.000 
#    0.000    0.000    0.000    0.000    0.000    0.000 
#
# Total GULP energy -89494.951621 kJ/mol
# GULP energy per Si atom -5593.434476 kJ/mol
# Density = 2.279856 g / cm^3
# Si number density = 22.850572 Si / 1000 Ang^3
#
#
#
# Elastic Constant Matrix: (Units=GPa)
#
#
# Indices 1 2 3 4 5 6 
#
# 1 65.6772 33.3750 28.5896 11.6259 23.0811 15.4559
# 2 33.3750 97.8118 34.3254 20.8250 10.0417 15.3132
# 3 28.5896 34.3254 102.6252 20.0087 33.5647 13.8015
# 4 11.6259 20.8250 20.0087 34.2991 10.5295 7.1471
# 5 23.0811 10.0417 33.5647 10.5295 42.2555 14.0825
# 6 15.4559 15.3132 13.8015 7.1471 14.0825 44.7365
#
#
#
# Elastic Compliance Matrix: (Units=1/GPa)
#
#
# Indices 1 2 3 4 5 6 
#
# 1 0.022551 -0.006022 -0.000855 -0.000097 -0.009348 -0.002508
# 2 -0.006022 0.014566 -0.003262 -0.005829 0.004685 -0.002443
# 3 -0.000855 -0.003262 0.014931 -0.003499 -0.009907 0.000483
# 4 -0.000097 -0.005829 -0.003499 0.036398 -0.004413 -0.001317
# 5 -0.009348 0.004685 -0.009907 -0.004413 0.038914 -0.006862
# 6 -0.002508 -0.002443 0.000483 -0.001317 -0.006862 0.026277
#
#
# Mechanical properties :
#
#
# Convention : Reuss Voigt Hill
#
# Bulk Modulus (GPa) = 31.47545 50.96601 41.22073
# Shear Modulus (GPa) = 27.09988 35.57984 31.33986
#
# Velocity S-wave (km/s) = 3.44751 3.95025 3.70741
# Velocity P-wave (km/s) = 5.44532 6.56951 6.03365
#
# Compressibility (1/GPa) = 0.03177079
#
# Stress axis : x y z
#
# Youngs Moduli (GPa) = 44.34481 68.65514 66.97633
#
# Poissons Ratio (x) = 0.41343 0.05724
# Poissons Ratio (y) = 0.26704 0.21845
# Poissons Ratio (z) = 0.03790 0.22392
#
# Static dielectric constant tensor:
#      x y z
#    x 170.556140 -15.626280 398.431530 
#    y -15.626280 3.325750 -36.924200 
#    z 398.431530 -36.924200 942.829570 
# 
# From -- ./inp_files/544300.got.cif
#   From: 2010.05.17/outbox.cif.g08.bks.cpg/sg2_273_cif.got.tgz:544300.got - 2010.06.03 11:33:40.
