data_PCOD9088679
_publ_section_title
;
Structure prediction by ZEFSAII (Michael W. Deem and Ramdas Pophale) SiO2 
 PCOD9088679
Probable space group: P -1
;
_chemical_formula_sum "Si O2"
_cell_formula_units_Z 16
_cell_length_a 12.241319
_cell_length_b 11.021279
_cell_length_c 14.834579
_cell_angle_alpha 27.796498
_cell_angle_beta 115.092414
_cell_angle_gamma 129.820301
_cell_volume 657.746229
_symmetry_space_group_name_H-M "P -1"
_symmetry_group_IT_number 2
_symmetry_cell_setting 'triclinic'
loop_
_space_group_symop_operation_xyz
x,y,z
-x,-y,-z
loop_
_atom_site_type_symbol
_atom_site_label
_atom_site_fract_x
_atom_site_fract_y
_atom_site_fract_z
Si Si1 0.766292 0.252012 0.588970
Si Si2 0.870771 0.870362 0.463854
Si Si3 0.910405 0.362249 0.741006
Si Si4 0.816682 0.282760 0.263570
Si Si5 0.510418 0.264799 0.764965
Si Si6 0.312354 0.333679 0.781781
Si Si7 0.383625 0.222746 0.320423
Si Si8 0.442645 0.851677 0.847930
O O1 0.890272 0.291738 0.673818
O O2 0.797519 0.586976 0.344693
O O3 0.715576 0.019474 0.637558
O O4 0.606438 0.054550 0.721401
O O5 0.909054 0.678315 0.537782
O O6 0.691020 0.569086 0.617287
O O7 0.877043 0.195900 0.255501
O O8 0.000000 0.000000 0.500000
O O9 0.051112 0.455843 0.791721
O O10 0.769672 0.016953 0.966531
O O11 0.697671 0.329313 0.152816
O O12 0.712145 0.960106 0.503384
O O13 0.407895 0.346378 0.722776
O O14 0.446258 0.102441 0.750934
O O15 0.500000 0.000000 0.000000
O O16 0.440712 0.639249 0.691853
O O17 0.412402 0.563459 0.088891
#
# Coordination Sequence:
#
# PCOD9088679 Si02
#       8
#     2   2   2   2   2   2   2   2
#     4  12  25  41  71  97 126 179 226 262 322 389
#     4  10  19  37  62  91 131 168 203 263 331 380
#     4  11  25  45  63  97 138 171 213 278 330 380
#     4  11  26  43  65  98 136 172 215 272 334 386
#     4  12  19  39  68 100 127 165 218 269 322 388
#     4  12  24  41  69  98 132 169 219 276 321 391
#     4  12  24  43  69  97 132 170 227 271 312 392
#     4  12  24  41  72 100 129 173 218 271 331 385
#
# _framework density 24.325492000000001
#
# number of rings (size 3 to 8) (size 9 to 14) (size 15 to 20)
#    0.000    0.500    7.500    0.750    1.750    2.500 
#    0.000    1.875    0.000    0.000    0.000    0.000 
#    0.000    0.000    0.000    0.000    0.000    0.000 
#
# Total GULP energy -89351.223534 kJ/mol
# GULP energy per Si atom -5584.451471 kJ/mol
# Density = 2.427013 g / cm^3
# Si number density = 24.325492 Si / 1000 Ang^3
#
#
#
# Elastic Constant Matrix: (Units=GPa)
#
#
# Indices 1 2 3 4 5 6 
#
# 1 44.5119 31.6377 6.9549 2.6862 -1.5114 6.9178
# 2 31.6377 161.7898 13.5615 -1.5238 -0.2704 11.9814
# 3 6.9549 13.5615 53.7605 12.3952 5.8218 2.1680
# 4 2.6862 -1.5238 12.3952 29.0380 -0.6664 2.2924
# 5 -1.5114 -0.2704 5.8218 -0.6664 19.2505 3.2035
# 6 6.9178 11.9814 2.1680 2.2924 3.2035 42.9633
#
#
#
# Elastic Compliance Matrix: (Units=1/GPa)
#
#
# Indices 1 2 3 4 5 6 
#
# 1 0.026930 -0.004874 -0.002119 -0.001532 0.003137 -0.003022
# 2 -0.004874 0.007383 -0.001609 0.001640 0.000484 -0.001316
# 3 -0.002119 -0.001609 0.022269 -0.009621 -0.007378 0.000730
# 4 -0.001532 0.001640 -0.009621 0.039045 0.004521 -0.002146
# 5 0.003137 0.000484 -0.007378 0.004521 0.055359 -0.004637
# 6 -0.003022 -0.001316 0.000730 -0.002146 -0.004637 0.024553
#
#
# Mechanical properties :
#
#
# Convention : Reuss Voigt Hill
#
# Bulk Modulus (GPa) = 25.39546 40.48562 32.94054
# Shear Modulus (GPa) = 24.28735 32.11090 28.19912
#
# Velocity S-wave (km/s) = 3.16323 3.63719 3.40846
# Velocity P-wave (km/s) = 4.87892 5.85818 5.39083
#
# Compressibility (1/GPa) = 0.03937712
#
# Stress axis : x y z
#
# Youngs Moduli (GPa) = 37.13362 135.45434 44.90569
#
# Poissons Ratio (x) = 0.66018 0.09515
# Poissons Ratio (y) = 0.18098 0.07226
# Poissons Ratio (z) = 0.07869 0.21798
#
# Static dielectric constant tensor:
#      x y z
#    x 2.007950 -0.007470 0.019920 
#    y -0.007470 1.958300 -0.018550 
#    z 0.019920 -0.018550 1.918070 
# 
# From -- ./inp_files/532273.got.cif
#   From: 2010.05.17/outbox.cif.g08.bks.cpg/sg2_267_cif.got.tgz:532273.got - 2010.06.03 11:33:40.
