data_PCOD9088012
_publ_section_title
;
Structure prediction by ZEFSAII (Michael W. Deem and Ramdas Pophale) SiO2 
 PCOD9088012
Probable space group: P -1
;
_chemical_formula_sum "Si O2"
_cell_formula_units_Z 16
_cell_length_a 10.469547
_cell_length_b 20.672076
_cell_length_c 12.182954
_cell_angle_alpha 149.128957
_cell_angle_beta 142.571985
_cell_angle_gamma 50.240411
_cell_volume 814.751064
_symmetry_space_group_name_H-M "P -1"
_symmetry_group_IT_number 2
_symmetry_cell_setting 'triclinic'
loop_
_space_group_symop_operation_xyz
x,y,z
-x,-y,-z
loop_
_atom_site_type_symbol
_atom_site_label
_atom_site_fract_x
_atom_site_fract_y
_atom_site_fract_z
Si Si1 0.010888 0.668998 0.326669
Si Si2 0.514547 0.860700 0.451705
Si Si3 0.031609 0.151207 0.253403
Si Si4 0.293060 0.445074 0.569088
Si Si5 0.617787 0.403146 0.371872
Si Si6 0.567842 0.152069 0.879415
Si Si7 0.160230 0.638456 0.934388
Si Si8 0.762281 0.412581 0.839454
O O1 0.184879 0.617520 0.448316
O O2 0.114976 0.671472 0.281537
O O3 0.974946 0.797646 0.551488
O O4 0.812656 0.557670 0.038784
O O5 0.728189 0.808832 0.564664
O O6 0.514415 0.851425 0.305412
O O7 0.521437 0.011888 0.696685
O O8 0.309292 0.772272 0.224218
O O9 0.825610 0.189677 0.107984
O O10 0.000000 0.000000 0.000000
O O11 0.315078 0.537617 0.613321
O O12 0.267923 0.533434 0.785897
O O13 0.507643 0.380959 0.624703
O O14 0.070399 0.357012 0.269382
O O15 0.500000 0.500000 0.500000
O O16 0.487684 0.264116 0.057667
O O17 0.147970 0.595551 0.989472
#
# Coordination Sequence:
#
# PCOD9088012 Si02
#       8
#     2   2   2   2   2   2   2   2
#     4  10  21  35  58  87 117 142 195 235 284 340
#     4  10  19  37  58  84 111 146 187 236 281 330
#     4   9  19  35  58  86 109 142 189 240 280 321
#     4  11  22  36  53  86 118 154 187 231 287 337
#     4  11  19  36  60  86 115 147 186 241 285 329
#     4   9  20  34  58  87 108 139 191 236 276 329
#     4  11  23  36  55  81 121 154 188 229 283 344
#     4  11  22  36  53  88 116 151 184 233 287 340
#
# _framework density 19.637900999999999
#
# number of rings (size 3 to 8) (size 9 to 14) (size 15 to 20)
#    0.000    1.750    3.750    1.125    0.000    1.000 
#    0.000    0.000    0.000    7.500    0.000    0.000 
#    0.000    0.000    0.000    0.000    0.000    0.000 
#
# Total GULP energy -89261.239493 kJ/mol
# GULP energy per Si atom -5578.827468 kJ/mol
# Density = 1.959320 g / cm^3
# Si number density = 19.637901 Si / 1000 Ang^3
#
#
#
# Elastic Constant Matrix: (Units=GPa)
#
#
# Indices 1 2 3 4 5 6 
#
# 1 90.1338 20.6134 45.1091 15.1130 -13.4037 -8.1595
# 2 20.6134 50.9705 29.9282 6.4185 -4.4779 -15.8148
# 3 45.1091 29.9282 110.5146 17.5012 3.8316 -18.2591
# 4 15.1130 6.4185 17.5012 31.8826 -7.1974 -7.3326
# 5 -13.4037 -4.4779 3.8316 -7.1974 39.9198 -3.5141
# 6 -8.1595 -15.8148 -18.2591 -7.3326 -3.5141 26.6050
#
#
#
# Elastic Compliance Matrix: (Units=1/GPa)
#
#
# Indices 1 2 3 4 5 6 
#
# 1 0.015570 -0.002462 -0.005501 -0.002900 0.004903 -0.000615
# 2 -0.002462 0.027753 -0.004770 0.002333 0.004370 0.013689
# 3 -0.005501 -0.004770 0.013958 -0.004278 -0.004201 0.003323
# 4 -0.002900 0.002333 -0.004278 0.038393 0.007424 0.009123
# 5 0.004903 0.004370 -0.004201 0.007424 0.029559 0.007169
# 6 -0.000615 0.013689 0.003323 0.009123 0.007169 0.051277
#
#
# Mechanical properties :
#
#
# Convention : Reuss Voigt Hill
#
# Bulk Modulus (GPa) = 31.43178 49.21335 40.32256
# Shear Modulus (GPa) = 23.52040 30.07936 26.79988
#
# Velocity S-wave (km/s) = 3.46454 3.91794 3.69819
# Velocity P-wave (km/s) = 5.66078 6.75143 6.23002
#
# Compressibility (1/GPa) = 0.03181494
#
# Stress axis : x y z
#
# Youngs Moduli (GPa) = 64.22427 36.03212 71.64407
#
# Poissons Ratio (x) = 0.08871 0.39412
# Poissons Ratio (y) = 0.15811 0.34176
# Poissons Ratio (z) = 0.35331 0.17188
#
# Static dielectric constant tensor:
#      x y z
#    x 1.691370 -0.040400 0.022920 
#    y -0.040400 1.735670 -0.019230 
#    z 0.022920 -0.019230 1.737540 
# 
# From -- ./inp_files/406832.got.cif
#   From: 2010.05.17/outbox.cif.g08.bks.cpg/sg2_204_cif.got.tgz:406832.got - 2010.06.03 11:33:40.
