data_PCOD9088723
_publ_section_title
;
Structure prediction by ZEFSAII (Michael W. Deem and Ramdas Pophale) SiO2 
 PCOD9088723
Probable space group: P -1
;
_chemical_formula_sum "Si O2"
_cell_formula_units_Z 16
_cell_length_a 9.567823
_cell_length_b 11.220251
_cell_length_c 8.793822
_cell_angle_alpha 91.664076
_cell_angle_beta 80.919694
_cell_angle_gamma 61.982957
_cell_volume 817.183454
_symmetry_space_group_name_H-M "P -1"
_symmetry_group_IT_number 2
_symmetry_cell_setting 'triclinic'
loop_
_space_group_symop_operation_xyz
x,y,z
-x,-y,-z
loop_
_atom_site_type_symbol
_atom_site_label
_atom_site_fract_x
_atom_site_fract_y
_atom_site_fract_z
Si Si1 0.646520 0.026431 0.445884
Si Si2 0.755520 0.561116 0.296413
Si Si3 0.078325 0.252739 0.737954
Si Si4 0.106930 0.853041 0.054447
Si Si5 0.609274 0.419477 0.121431
Si Si6 0.883521 0.993076 0.649213
Si Si7 0.556812 0.317662 0.428298
Si Si8 0.105490 0.695371 0.546397
O O1 0.603395 0.164253 0.371715
O O2 0.500000 0.000000 0.500000
O O3 0.784418 0.897991 0.333560
O O4 0.716681 0.034334 0.597780
O O5 0.836267 0.654867 0.250430
O O6 0.707545 0.496994 0.160671
O O7 0.591567 0.636157 0.428404
O O8 0.877336 0.435269 0.374089
O O9 0.989851 0.229195 0.894803
O O10 0.959670 0.300054 0.612524
O O11 0.142230 0.902644 0.210655
O O12 0.267666 0.738729 0.943007
O O13 0.000000 0.000000 0.000000
O O14 0.516029 0.411358 0.288915
O O15 0.500000 0.500000 0.000000
O O16 0.979143 0.832425 0.662425
O O17 0.000000 0.000000 0.500000
O O18 0.718161 0.312821 0.472412
#
# Coordination Sequence:
#
# PCOD9088723 Si02
#       8
#     2   2   2   2   2   2   2   2
#     4  11  20  36  62 100 119 147 209 272 309 349
#     4  11  24  40  65  91 126 164 209 263 310 371
#     4  11  22  38  66  97 122 161 206 267 318 358
#     4  12  24  42  67  90 131 169 208 260 311 385
#     4  11  27  41  61  94 130 172 211 248 319 383
#     4  11  20  37  68  89 115 160 217 257 296 364
#     4  11  21  40  68  87 124 164 215 258 303 371
#     4  10  19  37  62  98 117 150 218 259 300 368
#
# _framework density 19.579446999999998
#
# number of rings (size 3 to 8) (size 9 to 14) (size 15 to 20)
#    0.000    1.000    5.000    4.125    5.250    0.500 
#    0.000    1.250    0.000    3.000    0.000    0.000 
#    0.000    0.000    0.000    0.000    0.000    0.000 
#
# Total GULP energy -89316.509108 kJ/mol
# GULP energy per Si atom -5582.281819 kJ/mol
# Density = 1.953488 g / cm^3
# Si number density = 19.579447 Si / 1000 Ang^3
#
#
#
# Elastic Constant Matrix: (Units=GPa)
#
#
# Indices 1 2 3 4 5 6 
#
# 1 109.4799 33.6897 46.6937 -14.1526 4.5363 19.5940
# 2 33.6897 126.5398 32.1791 -13.3467 6.5843 18.8569
# 3 46.6937 32.1791 66.4445 2.2969 4.9079 1.3433
# 4 -14.1526 -13.3467 2.2969 28.8052 1.2152 1.3149
# 5 4.5363 6.5843 4.9079 1.2152 26.1021 -1.6035
# 6 19.5940 18.8569 1.3433 1.3149 -1.6035 37.4093
#
#
#
# Elastic Compliance Matrix: (Units=1/GPa)
#
#
# Indices 1 2 3 4 5 6 
#
# 1 0.017491 0.001353 -0.012970 0.010791 -0.002050 -0.009845
# 2 0.001353 0.010865 -0.006127 0.006582 -0.002518 -0.006305
# 3 -0.012970 -0.006127 0.027369 -0.011809 -0.000225 0.009305
# 4 0.010791 0.006582 -0.011809 0.044649 -0.004026 -0.010288
# 5 -0.002050 -0.002518 -0.000225 -0.004026 0.039790 0.004198
# 6 -0.009845 -0.006305 0.009305 -0.010288 0.004198 0.035273
#
#
# Mechanical properties :
#
#
# Convention : Reuss Voigt Hill
#
# Bulk Modulus (GPa) = 49.41245 58.62103 54.01674
# Shear Modulus (GPa) = 22.97041 31.12343 27.04692
#
# Velocity S-wave (km/s) = 3.42890 3.99130 3.72074
# Velocity P-wave (km/s) = 6.40064 7.15861 6.79021
#
# Compressibility (1/GPa) = 0.02023782
#
# Stress axis : x y z
#
# Youngs Moduli (GPa) = 57.17126 92.03634 36.53778
#
# Poissons Ratio (x) = -0.12456 0.47389
# Poissons Ratio (y) = -0.07737 0.22387
# Poissons Ratio (z) = 0.74151 0.56393
#
# Static dielectric constant tensor:
#      x y z
#    x 1.747630 -0.004980 -0.055350 
#    y -0.004980 1.752470 0.005250 
#    z -0.055350 0.005250 1.783030 
# 
# From -- ./inp_files/178933.got.cif
#   From: 2010.05.17/outbox.cif.g08.bks.cpg/sg2_90_cif.got.tgz:178933.got - 2010.06.03 11:33:40.
