data_PCOD9088938
_publ_section_title
;
Structure prediction by ZEFSAII (Michael W. Deem and Ramdas Pophale) SiO2 
 PCOD9088938
Probable space group: P -1
;
_chemical_formula_sum "Si O2"
_cell_formula_units_Z 16
_cell_length_a 8.599581
_cell_length_b 15.342834
_cell_length_c 10.538214
_cell_angle_alpha 143.613918
_cell_angle_beta 57.111241
_cell_angle_gamma 104.307042
_cell_volume 640.262267
_symmetry_space_group_name_H-M "P -1"
_symmetry_group_IT_number 2
_symmetry_cell_setting 'triclinic'
loop_
_space_group_symop_operation_xyz
x,y,z
-x,-y,-z
loop_
_atom_site_type_symbol
_atom_site_label
_atom_site_fract_x
_atom_site_fract_y
_atom_site_fract_z
Si Si1 0.461068 0.257335 0.935729
Si Si2 0.598428 0.744569 0.718554
Si Si3 0.984434 0.290100 0.432877
Si Si4 0.400962 0.576652 0.422132
Si Si5 0.307802 0.068614 0.343610
Si Si6 0.099083 0.891481 0.523526
Si Si7 0.799297 0.947855 0.133624
Si Si8 0.435853 0.280820 0.692367
O O1 0.691475 0.145765 0.681525
O O2 0.318377 0.160825 0.897930
O O3 0.400536 0.341297 0.921567
O O4 0.443940 0.391563 0.203045
O O5 0.832525 0.650144 0.552518
O O6 0.462195 0.657018 0.611080
O O7 0.643123 0.838927 0.688458
O O8 0.468549 0.888623 0.040322
O O9 0.819406 0.360393 0.476050
O O10 0.892693 0.260016 0.570090
O O11 0.107440 0.114669 0.115485
O O12 0.551717 0.593670 0.266876
O O13 0.302322 0.183287 0.597612
O O14 0.089526 0.070905 0.434937
O O15 0.054726 0.044250 0.812136
O O16 0.648519 0.130481 0.406942
#
# Coordination Sequence:
#
# PCOD9088938 Si02
#       8
#     2   2   2   2   2   2   2   2
#     4  11  24  40  53  87 131 157 187 238 301 364
#     4   9  19  34  57  96 121 136 201 268 284 328
#     4  11  20  36  66  90 110 157 206 246 290 345
#     4  11  22  38  63  87 120 164 196 235 297 360
#     4   9  17  33  59  93 114 140 201 265 289 323
#     4  10  20  35  63  89 112 154 205 243 292 348
#     4  11  21  37  61  87 119 151 197 254 294 337
#     4  10  19  37  64  85 114 154 201 247 289 344
#
# _framework density 24.98976
#
# number of rings (size 3 to 8) (size 9 to 14) (size 15 to 20)
#    0.000    1.750    3.750    3.000    1.750    0.500 
#    2.250    5.000    0.000    0.000    0.000    0.000 
#    0.000    0.000    0.000    0.000    0.000    0.000 
#
# Total GULP energy -89283.959036 kJ/mol
# GULP energy per Si atom -5580.247440 kJ/mol
# Density = 2.493288 g / cm^3
# Si number density = 24.989760 Si / 1000 Ang^3
#
#
#
# Elastic Constant Matrix: (Units=GPa)
#
#
# Indices 1 2 3 4 5 6 
#
# 1 190.6625 20.0748 32.1581 10.1963 24.6877 36.9442
# 2 20.0748 92.4358 21.2164 4.0847 -5.8383 26.2766
# 3 32.1581 21.2164 70.0670 0.7000 26.5731 21.4697
# 4 10.1963 4.0847 0.7000 37.4880 1.5858 6.0487
# 5 24.6877 -5.8383 26.5731 1.5858 33.1666 4.7476
# 6 36.9442 26.2766 21.4697 6.0487 4.7476 34.1437
#
#
#
# Elastic Compliance Matrix: (Units=1/GPa)
#
#
# Indices 1 2 3 4 5 6 
#
# 1 0.007246 0.000127 0.000878 -0.000549 -0.004946 -0.007706
# 2 0.000127 0.015147 -0.004458 -0.000311 0.007589 -0.009992
# 3 0.000878 -0.004458 0.027013 0.002584 -0.021490 -0.011974
# 4 -0.000549 -0.000311 0.002584 0.027777 -0.002272 -0.005397
# 5 -0.004946 0.007589 -0.021490 -0.002272 0.051600 0.006252
# 6 -0.007706 -0.009992 -0.011974 -0.005397 0.006252 0.052931
#
#
# Mechanical properties :
#
#
# Convention : Reuss Voigt Hill
#
# Bulk Modulus (GPa) = 23.52967 55.56265 39.54616
# Shear Modulus (GPa) = 24.65640 39.60739 32.13189
#
# Velocity S-wave (km/s) = 3.14452 3.98546 3.58970
# Velocity P-wave (km/s) = 4.75607 6.59249 5.74809
#
# Compressibility (1/GPa) = 0.04249954
#
# Stress axis : x y z
#
# Youngs Moduli (GPa) = 138.00341 66.01799 37.01969
#
# Poissons Ratio (x) = -0.00839 -0.03250
# Poissons Ratio (y) = -0.01754 0.16505
# Poissons Ratio (z) = -0.12117 0.29434
#
# Static dielectric constant tensor:
#      x y z
#    x 2.163520 -0.090950 0.007810 
#    y -0.090950 2.025360 -0.006880 
#    z 0.007810 -0.006880 1.922280 
# 
# From -- ./inp_files/299056.got.cif
#   From: 2010.05.17/outbox.cif.g08.bks.cpg/sg2_150_cif.got.tgz:299056.got - 2010.06.03 11:33:40.
