data_PCOD9088695
_publ_section_title
;
Structure prediction by ZEFSAII (Michael W. Deem and Ramdas Pophale) SiO2 
 PCOD9088695
Probable space group: P -1
;
_chemical_formula_sum "Si O2"
_cell_formula_units_Z 14
_cell_length_a 15.942112
_cell_length_b 9.998229
_cell_length_c 12.267093
_cell_angle_alpha 128.624165
_cell_angle_beta 41.856490
_cell_angle_gamma 153.609866
_cell_volume 573.789304
_symmetry_space_group_name_H-M "P -1"
_symmetry_group_IT_number 2
_symmetry_cell_setting 'triclinic'
loop_
_space_group_symop_operation_xyz
x,y,z
-x,-y,-z
loop_
_atom_site_type_symbol
_atom_site_label
_atom_site_fract_x
_atom_site_fract_y
_atom_site_fract_z
Si Si1 0.472772 0.096366 0.976131
Si Si2 0.954095 0.792920 0.142330
Si Si3 0.132886 0.625799 0.546745
Si Si4 0.572267 0.215676 0.327980
Si Si5 0.612391 0.613103 0.071115
Si Si6 0.843040 0.756911 0.626378
Si Si7 0.993838 0.512314 0.166413
O O1 0.621463 0.428042 0.004188
O O2 0.217225 0.873121 0.116987
O O3 0.500000 0.000000 0.000000
O O4 0.500030 0.021491 0.801610
O O5 0.687069 0.487930 0.276564
O O6 0.054231 0.024871 0.258741
O O7 0.984057 0.621749 0.005588
O O8 0.131332 0.041891 0.002721
O O9 0.154143 0.443971 0.453999
O O10 0.011564 0.552961 0.736417
O O11 0.000000 0.500000 0.500000
O O12 0.357986 0.990178 0.496849
O O13 0.774193 0.374339 0.287253
O O14 0.418857 0.490896 0.264065
O O15 0.500000 0.500000 0.000000
O O16 0.000000 0.000000 0.500000
#
# Coordination Sequence:
#
# PCOD9088695 Si02
#       7
#     2   2   2   2   2   2   2
#     4  11  22  39  65  98 134 171 211 264 324 385
#     4  10  21  37  62  93 122 160 215 267 306 364
#     4  12  26  44  66  96 130 170 216 271 333 390
#     4  11  21  39  65  94 128 170 218 264 316 390
#     4  10  19  37  62  93 129 173 217 258 315 390
#     4  11  22  40  65  95 131 174 216 262 319 390
#     4  11  22  40  65  95 129 172 217 262 319 391
#
# _framework density 24.399201000000001
#
# number of rings (size 3 to 8) (size 9 to 14) (size 15 to 20)
#    0.000    1.143    0.000   10.714    0.000    1.143 
#    0.000    7.143    0.000    1.714    0.000    0.000 
#    0.000    0.000    0.000    0.000    0.000    0.000 
#
# Total GULP energy -78081.618781 kJ/mol
# GULP energy per Si atom -5577.258484 kJ/mol
# Density = 2.434367 g / cm^3
# Si number density = 24.399201 Si / 1000 Ang^3
#
#
#
# Elastic Constant Matrix: (Units=GPa)
#
#
# Indices 1 2 3 4 5 6 
#
# 1 73.7791 11.5816 4.8479 10.2468 7.8187 -17.0351
# 2 11.5816 174.8136 37.7982 -31.6818 -10.5538 -32.0706
# 3 4.8479 37.7982 95.4411 -17.9671 16.1091 -1.0483
# 4 10.2468 -31.6818 -17.9671 58.6202 -2.7932 5.1403
# 5 7.8187 -10.5538 16.1091 -2.7932 23.1371 1.1699
# 6 -17.0351 -32.0706 -1.0483 5.1403 1.1699 36.2476
#
#
#
# Elastic Compliance Matrix: (Units=1/GPa)
#
#
# Indices 1 2 3 4 5 6 
#
# 1 0.016919 -0.000859 -0.000096 -0.004490 -0.006991 0.008051
# 2 -0.000859 0.008931 -0.003977 0.003519 0.007221 0.006651
# 3 -0.000096 -0.003977 0.014313 0.001982 -0.011353 -0.003064
# 4 -0.004490 0.003519 0.001982 0.020738 0.004348 -0.002020
# 5 -0.006991 0.007221 -0.011353 0.004348 0.057291 0.000309
# 6 0.008051 0.006651 -0.003064 -0.002020 0.000309 0.037444
#
#
# Mechanical properties :
#
#
# Convention : Reuss Voigt Hill
#
# Bulk Modulus (GPa) = 33.00408 50.27658 41.64033
# Shear Modulus (GPa) = 28.47407 42.92139 35.69773
#
# Velocity S-wave (km/s) = 3.41986 4.19875 3.82916
# Velocity P-wave (km/s) = 5.39907 6.64504 6.05419
#
# Compressibility (1/GPa) = 0.03029928
#
# Stress axis : x y z
#
# Youngs Moduli (GPa) = 59.10687 111.96914 69.86570
#
# Poissons Ratio (x) = 0.09618 0.00671
# Poissons Ratio (y) = 0.05077 0.27784
# Poissons Ratio (z) = 0.00567 0.44527
#
# Static dielectric constant tensor:
#      x y z
#    x 2.065680 0.100040 0.039690 
#    y 0.100040 1.989760 -0.024580 
#    z 0.039690 -0.024580 2.007380 
# 
# From -- ./inp_files/448017.got.cif
#   From: 2010.05.17/outbox.cif.g08.bks.cpg/sg2_225_cif.got.tgz:448017.got - 2010.06.03 11:33:40.
