data_PCOD9088250
_publ_section_title
;
Structure prediction by ZEFSAII (Michael W. Deem and Ramdas Pophale) SiO2 
 PCOD9088250
Probable space group: P -1
;
_chemical_formula_sum "Si O2"
_cell_formula_units_Z 14
_cell_length_a 9.333426
_cell_length_b 14.308377
_cell_length_c 8.311836
_cell_angle_alpha 122.791403
_cell_angle_beta 66.988614
_cell_angle_gamma 78.269639
_cell_volume 724.879842
_symmetry_space_group_name_H-M "P -1"
_symmetry_group_IT_number 2
_symmetry_cell_setting 'triclinic'
loop_
_space_group_symop_operation_xyz
x,y,z
-x,-y,-z
loop_
_atom_site_type_symbol
_atom_site_label
_atom_site_fract_x
_atom_site_fract_y
_atom_site_fract_z
Si Si1 0.160546 0.680854 0.765255
Si Si2 0.969920 0.274000 0.509073
Si Si3 0.879032 0.974725 0.160822
Si Si4 0.439290 0.731498 0.832867
Si Si5 0.173904 0.861111 0.363282
Si Si6 0.876818 0.551547 0.441783
Si Si7 0.329566 0.004088 0.001776
O O1 0.355737 0.652804 0.714747
O O2 0.114456 0.575905 0.752250
O O3 0.131807 0.688139 0.587961
O O4 0.018353 0.828519 0.028952
O O5 0.042278 0.369848 0.606137
O O6 0.861726 0.253153 0.677611
O O7 0.147744 0.125768 0.273833
O O8 0.795945 0.087864 0.433715
O O9 0.716368 0.969203 0.140295
O O10 0.000000 0.000000 0.000000
O O11 0.659907 0.650632 0.667694
O O12 0.343122 0.793549 0.103549
O O13 0.365092 0.861250 0.879355
O O14 0.000000 0.000000 0.500000
O O15 0.000000 0.500000 0.500000
O O16 0.500000 0.000000 0.000000
#
# Coordination Sequence:
#
# PCOD9088250 Si02
#       7
#     2   2   2   2   2   2   2
#     4  10  19  37  61  86 111 158 203 228 279 358
#     4  10  19  37  60  84 120 153 191 238 294 342
#     4  11  18  36  62  87 115 153 193 240 292 351
#     4  12  21  35  62  91 117 146 200 245 292 338
#     4  12  20  34  62  96 120 145 188 253 301 337
#     4  10  23  39  60  81 116 163 201 234 277 354
#     4  11  19  33  61  88 114 149 197 242 287 348
#
# _framework density 19.313545999999999
#
# number of rings (size 3 to 8) (size 9 to 14) (size 15 to 20)
#    0.000    1.143    8.571    0.429    0.000    0.000 
#    0.000    4.286    6.286    0.000    0.000    0.000 
#    0.000    0.000    0.000    0.000    0.000    0.000 
#
# Total GULP energy -77975.432692 kJ/mol
# GULP energy per Si atom -5569.673764 kJ/mol
# Density = 1.926959 g / cm^3
# Si number density = 19.313546 Si / 1000 Ang^3
#
#
#
# Elastic Constant Matrix: (Units=GPa)
#
#
# Indices 1 2 3 4 5 6 
#
# 1 105.9173 10.3788 12.4874 3.9074 6.1392 -2.3743
# 2 10.3788 51.8234 20.4980 23.4826 -3.9609 11.5870
# 3 12.4874 20.4980 49.7702 10.7730 -3.5586 2.8453
# 4 3.9074 23.4826 10.7730 31.6734 4.9520 10.6412
# 5 6.1392 -3.9609 -3.5586 4.9520 22.0873 13.4867
# 6 -2.3743 11.5870 2.8453 10.6412 13.4867 31.6400
#
#
#
# Elastic Compliance Matrix: (Units=1/GPa)
#
#
# Indices 1 2 3 4 5 6 
#
# 1 0.010537 -0.003584 -0.002324 0.001653 -0.007285 0.004861
# 2 -0.003584 0.038839 -0.007514 -0.024163 0.021146 -0.014703
# 3 -0.002324 -0.007514 0.024765 -0.003088 0.004235 -0.000417
# 4 0.001653 -0.024163 -0.003088 0.053480 -0.016150 -0.001852
# 5 -0.007285 0.021146 0.004235 -0.016150 0.077560 -0.036301
# 6 0.004861 -0.014703 -0.000417 -0.001852 -0.036301 0.053489
#
#
# Mechanical properties :
#
#
# Convention : Reuss Voigt Hill
#
# Bulk Modulus (GPa) = 21.14312 32.69325 26.91819
# Shear Modulus (GPa) = 16.59587 28.02326 22.30957
#
# Velocity S-wave (km/s) = 2.93454 3.81328 3.40240
# Velocity P-wave (km/s) = 4.73847 6.02931 5.42244
#
# Compressibility (1/GPa) = 0.04729671
#
# Stress axis : x y z
#
# Youngs Moduli (GPa) = 94.90578 25.74746 40.37923
#
# Poissons Ratio (x) = 0.09227 0.09386
# Poissons Ratio (y) = 0.34012 0.30340
# Poissons Ratio (z) = 0.22060 0.19346
#
# Static dielectric constant tensor:
#      x y z
#    x 1.759900 0.024600 0.005050 
#    y 0.024600 1.725010 -0.000390 
#    z 0.005050 -0.000390 1.668130 
# 
# From -- ./inp_files/176483.got.cif
#   From: 2010.05.17/outbox.cif.g08.bks.cpg/sg2_89_cif.got.tgz:176483.got - 2010.06.03 11:33:40.
