data_PCOD9088576
_publ_section_title
;
Structure prediction by ZEFSAII (Michael W. Deem and Ramdas Pophale) SiO2 
 PCOD9088576
Probable space group: P -1
;
_chemical_formula_sum "Si O2"
_cell_formula_units_Z 14
_cell_length_a 8.096668
_cell_length_b 17.720330
_cell_length_c 9.765107
_cell_angle_alpha 37.468635
_cell_angle_beta 120.556764
_cell_angle_gamma 128.318751
_cell_volume 668.302628
_symmetry_space_group_name_H-M "P -1"
_symmetry_group_IT_number 2
_symmetry_cell_setting 'triclinic'
loop_
_space_group_symop_operation_xyz
x,y,z
-x,-y,-z
loop_
_atom_site_type_symbol
_atom_site_label
_atom_site_fract_x
_atom_site_fract_y
_atom_site_fract_z
Si Si1 0.750942 0.581397 0.979872
Si Si2 0.655906 0.191420 0.466875
Si Si3 0.873812 0.655753 0.621180
Si Si4 0.934507 0.040744 0.770515
Si Si5 0.246415 0.428572 0.607125
Si Si6 0.774373 0.369173 0.498894
Si Si7 0.271938 0.214950 0.123963
O O1 0.804752 0.587705 0.835367
O O2 0.810182 0.727441 0.864567
O O3 0.500000 0.500000 0.000000
O O4 0.834762 0.497092 0.235864
O O5 0.626281 0.236429 0.543444
O O6 0.470308 0.189126 0.297419
O O7 0.879448 0.311097 0.342865
O O8 0.718949 0.063950 0.667904
O O9 0.745044 0.580800 0.539842
O O10 0.891132 0.810264 0.410025
O O11 0.892870 0.923273 0.812675
O O12 0.000000 0.000000 0.000000
O O13 0.316525 0.578856 0.485514
O O14 0.993253 0.358076 0.635209
O O15 0.334541 0.334781 0.863033
#
# Coordination Sequence:
#
# PCOD9088576 Si02
#       7
#     2   2   2   2   2   2   2
#     4  11  22  37  61  83 119 152 190 243 283 334
#     4   9  19  33  59  89 113 151 192 233 284 342
#     4   9  21  37  57  91 109 156 194 229 286 341
#     4  10  19  37  62  84 115 151 192 235 283 344
#     4   9  18  32  60  82 116 150 188 229 285 346
#     4   9  17  35  55  83 115 154 181 231 291 339
#     4  11  19  36  61  86 115 152 190 234 294 329
#
# _framework density 20.948595000000001
#
# number of rings (size 3 to 8) (size 9 to 14) (size 15 to 20)
#    0.857    1.429    2.857    0.429    0.000    2.857 
#    0.000    2.857    6.286    0.857    0.000    0.000 
#    0.000    0.000    0.000    0.000    0.000    0.000 
#
# Total GULP energy -78029.485237 kJ/mol
# GULP energy per Si atom -5573.534660 kJ/mol
# Density = 2.090091 g / cm^3
# Si number density = 20.948595 Si / 1000 Ang^3
#
#
#
# Elastic Constant Matrix: (Units=GPa)
#
#
# Indices 1 2 3 4 5 6 
#
# 1 35.4861 16.5770 12.3464 6.3007 2.2850 -14.6619
# 2 16.5770 136.3607 15.7140 11.4497 -2.4156 -37.6956
# 3 12.3464 15.7140 77.2556 19.6787 21.5509 -4.9140
# 4 6.3007 11.4497 19.6787 38.5256 -5.2208 4.2767
# 5 2.2850 -2.4156 21.5509 -5.2208 36.6034 6.0258
# 6 -14.6619 -37.6956 -4.9140 4.2767 6.0258 34.5698
#
#
#
# Elastic Compliance Matrix: (Units=1/GPa)
#
#
# Indices 1 2 3 4 5 6 
#
# 1 0.038119 0.001726 -0.001030 -0.009313 -0.006306 0.020155
# 2 0.001726 0.011584 0.000737 -0.006159 -0.003087 0.014768
# 3 -0.001030 0.000737 0.021447 -0.014027 -0.015817 0.007908
# 4 -0.009313 -0.006159 -0.014027 0.041194 0.017741 -0.020849
# 5 -0.006306 -0.003087 -0.015817 0.017741 0.042292 -0.017856
# 6 0.020155 0.014768 0.007908 -0.020849 -0.017856 0.060395
#
#
# Mechanical properties :
#
#
# Convention : Reuss Voigt Hill
#
# Bulk Modulus (GPa) = 13.51027 37.59747 25.55387
# Shear Modulus (GPa) = 21.11179 35.57076 28.34128
#
# Velocity S-wave (km/s) = 3.17802 4.12515 3.68216
# Velocity P-wave (km/s) = 4.46426 6.37774 5.50478
#
# Compressibility (1/GPa) = 0.07401775
#
# Stress axis : x y z
#
# Youngs Moduli (GPa) = 26.23377 86.32837 46.62688
#
# Poissons Ratio (x) = -0.14905 0.04801
# Poissons Ratio (y) = -0.04529 -0.03439
# Poissons Ratio (z) = 0.02701 -0.06366
#
# Static dielectric constant tensor:
#      x y z
#    x 1.817500 -0.032970 0.045140 
#    y -0.032970 1.813690 0.012420 
#    z 0.045140 0.012420 1.777790 
# 
# From -- ./inp_files/211783.got.cif
#   From: 2010.05.17/outbox.cif.g08.bks.cpg/sg2_106_cif.got.tgz:211783.got - 2010.06.03 11:33:40.
