data_PCOD9088604
_publ_section_title
;
Structure prediction by ZEFSAII (Michael W. Deem and Ramdas Pophale) SiO2 
 PCOD9088604
Probable space group: P -1
;
_chemical_formula_sum "Si O2"
_cell_formula_units_Z 16
_cell_length_a 8.120938
_cell_length_b 14.128150
_cell_length_c 12.503000
_cell_angle_alpha 78.998750
_cell_angle_beta 140.600323
_cell_angle_gamma 124.015734
_cell_volume 670.544238
_symmetry_space_group_name_H-M "P -1"
_symmetry_group_IT_number 2
_symmetry_cell_setting 'triclinic'
loop_
_space_group_symop_operation_xyz
x,y,z
-x,-y,-z
loop_
_atom_site_type_symbol
_atom_site_label
_atom_site_fract_x
_atom_site_fract_y
_atom_site_fract_z
Si Si1 0.794274 0.650274 0.082502
Si Si2 0.797450 0.642014 0.657499
Si Si3 0.798841 0.017161 0.481630
Si Si4 0.187515 0.446160 0.092101
Si Si5 0.972035 0.712865 0.395170
Si Si6 0.349172 0.987700 0.098661
Si Si7 0.946731 0.879638 0.716052
Si Si8 0.430236 0.752612 0.794482
O O1 0.970724 0.642387 0.072891
O O2 0.610999 0.699130 0.930515
O O3 0.500000 0.500000 0.000000
O O4 0.996006 0.721151 0.277301
O O5 0.500000 0.500000 0.500000
O O6 0.878403 0.635840 0.821160
O O7 0.711593 0.733997 0.589278
O O8 0.116922 0.694178 0.732032
O O9 0.430420 0.950145 0.256294
O O10 0.978452 0.165294 0.561593
O O11 0.000000 0.000000 0.500000
O O12 0.809072 0.951809 0.604568
O O13 0.596598 0.573447 0.261941
O O14 0.000000 0.500000 0.000000
O O15 0.257889 0.718997 0.598270
O O16 0.693834 0.050523 0.185190
O O17 0.338610 0.097132 0.099985
O O18 0.037271 0.889504 0.883972
#
# Coordination Sequence:
#
# PCOD9088604 Si02
#       8
#     2   2   2   2   2   2   2   2
#     4  10  22  38  59  85 117 160 208 244 294 358
#     4  11  21  37  55  86 128 159 192 240 309 364
#     4   9  17  29  55  87 112 146 197 253 293 329
#     4  11  24  40  57  86 124 160 196 244 306 370
#     4  10  20  38  61  88 121 155 202 253 295 348
#     4   8  16  29  52  83 109 144 197 246 286 332
#     4   9  17  30  50  80 115 152 188 242 290 339
#     4  10  19  37  62  87 118 155 199 249 298 355
#
# _framework density 23.861214
#
# number of rings (size 3 to 8) (size 9 to 14) (size 15 to 20)
#    0.000    2.250    1.250    3.000    0.000    6.000 
#    2.250    0.000    0.000    3.000    0.000    6.125 
#    0.000    0.000    0.000    0.000    0.000    0.000 
#
# Total GULP energy -89486.811566 kJ/mol
# GULP energy per Si atom -5592.925723 kJ/mol
# Density = 2.380690 g / cm^3
# Si number density = 23.861214 Si / 1000 Ang^3
#
#
#
# Elastic Constant Matrix: (Units=GPa)
#
#
# Indices 1 2 3 4 5 6 
#
# 1 73.6357 27.0448 56.7528 -2.2185 -15.8804 -14.3052
# 2 27.0448 123.3802 73.1145 -18.3301 2.9288 -23.5778
# 3 56.7528 73.1145 156.7707 -20.9352 -33.9826 -11.1936
# 4 -2.2185 -18.3301 -20.9352 52.5510 3.0184 6.4099
# 5 -15.8804 2.9288 -33.9826 3.0184 44.3596 3.8045
# 6 -14.3052 -23.5778 -11.1936 6.4099 3.8045 33.8719
#
#
#
# Elastic Compliance Matrix: (Units=1/GPa)
#
#
# Indices 1 2 3 4 5 6 
#
# 1 0.020575 0.000835 -0.007433 -0.002748 0.001185 0.007201
# 2 0.000835 0.014685 -0.008015 0.001363 -0.007635 0.008525
# 3 -0.007433 -0.008015 0.014878 0.002932 0.009532 -0.005427
# 4 -0.002748 0.001363 0.002932 0.020947 0.000022 -0.003209
# 5 0.001185 -0.007635 0.009532 0.000022 0.031216 -0.005174
# 6 0.007201 0.008525 -0.005427 -0.003209 -0.005174 0.037893
#
#
# Mechanical properties :
#
#
# Convention : Reuss Voigt Hill
#
# Bulk Modulus (GPa) = 47.82453 74.17898 61.00175
# Shear Modulus (GPa) = 28.34623 39.28145 33.81384
#
# Velocity S-wave (km/s) = 3.45042 4.06180 3.76853
# Velocity P-wave (km/s) = 5.99668 7.29060 6.67506
#
# Compressibility (1/GPa) = 0.02090977
#
# Stress axis : x y z
#
# Youngs Moduli (GPa) = 48.60347 68.09870 67.21365
#
# Poissons Ratio (x) = -0.05685 0.49963
# Poissons Ratio (y) = -0.04057 0.53872
# Poissons Ratio (z) = 0.36129 0.54581
#
# Static dielectric constant tensor:
#      x y z
#    x 2.025790 -0.020340 0.009830 
#    y -0.020340 2.033850 -0.042950 
#    z 0.009830 -0.042950 1.924680 
# 
# From -- ./inp_files/315820.got.cif
#   From: 2010.05.17/outbox.cif.g08.bks.cpg/sg2_158_cif.got.tgz:315820.got - 2010.06.03 11:33:40.
