data_PCOD9088910
_publ_section_title
;
Structure prediction by ZEFSAII (Michael W. Deem and Ramdas Pophale) SiO2 
 PCOD9088910
Probable space group: P -1
;
_chemical_formula_sum "Si O2"
_cell_formula_units_Z 16
_cell_length_a 20.293418
_cell_length_b 11.580533
_cell_length_c 17.756155
_cell_angle_alpha 138.217489
_cell_angle_beta 21.999343
_cell_angle_gamma 149.169567
_cell_volume 772.907370
_symmetry_space_group_name_H-M "P -1"
_symmetry_group_IT_number 2
_symmetry_cell_setting 'triclinic'
loop_
_space_group_symop_operation_xyz
x,y,z
-x,-y,-z
loop_
_atom_site_type_symbol
_atom_site_label
_atom_site_fract_x
_atom_site_fract_y
_atom_site_fract_z
Si Si1 0.571328 0.866060 0.645602
Si Si2 0.422072 0.466312 0.709279
Si Si3 0.171039 0.779289 0.956801
Si Si4 0.639505 0.163827 0.857972
Si Si5 0.924761 0.715018 0.497075
Si Si6 0.595635 0.521060 0.089454
Si Si7 0.033841 0.166914 0.660530
Si Si8 0.030220 0.034154 0.825535
O O1 0.411066 0.607660 0.725920
O O2 0.812620 0.939544 0.396182
O O3 0.604749 0.017214 0.752789
O O4 0.434207 0.873725 0.727772
O O5 0.381474 0.491552 0.850919
O O6 0.701256 0.605158 0.482558
O O7 0.225259 0.199310 0.763621
O O8 0.134963 0.859490 0.112384
O O9 0.098048 0.871187 0.016328
O O10 0.000000 0.500000 0.000000
O O11 0.921669 0.341696 0.662471
O O12 0.561127 0.305093 0.990559
O O13 0.500000 0.000000 0.000000
O O14 0.640613 0.526930 0.704294
O O15 0.001361 0.785636 0.363188
O O16 0.006072 0.941979 0.566814
O O17 0.827483 0.767587 0.933929
#
# Coordination Sequence:
#
# PCOD9088910 Si02
#       8
#     2   2   2   2   2   2   2   2
#     4  12  23  40  69  97 122 166 223 265 307 374
#     4  11  20  43  68  91 124 168 215 266 307 374
#     4  12  23  37  64  92 122 167 214 256 310 374
#     4  12  21  40  70  98 124 165 220 265 310 375
#     4  10  20  38  63  91 130 158 206 264 317 367
#     4  11  26  41  64  97 133 169 203 263 328 379
#     4  10  19  37  63  97 119 156 214 269 304 362
#     4  12  26  44  60  94 139 168 205 261 326 379
#
# _framework density 20.701058
#
# number of rings (size 3 to 8) (size 9 to 14) (size 15 to 20)
#    0.000    0.750    5.000    4.500    0.000    1.500 
#    0.000    4.375    0.000    5.250    0.000    0.000 
#    0.000    0.000    0.000    0.000    0.000    0.000 
#
# Total GULP energy -89352.259161 kJ/mol
# GULP energy per Si atom -5584.516198 kJ/mol
# Density = 2.065394 g / cm^3
# Si number density = 20.701058 Si / 1000 Ang^3
#
#
#
# Elastic Constant Matrix: (Units=GPa)
#
#
# Indices 1 2 3 4 5 6 
#
# 1 42.5482 3.2046 23.2323 -6.4450 -24.5185 6.9562
# 2 3.2046 64.9062 18.2683 -20.0276 -1.4398 -0.1586
# 3 23.2323 18.2683 65.3374 -13.3555 -20.1549 -7.1027
# 4 -6.4450 -20.0276 -13.3555 31.1872 2.4267 -0.7494
# 5 -24.5185 -1.4398 -20.1549 2.4267 30.9484 0.6686
# 6 6.9562 -0.1586 -7.1027 -0.7494 0.6686 33.5193
#
#
#
# Elastic Compliance Matrix: (Units=1/GPa)
#
#
# Indices 1 2 3 4 5 6 
#
# 1 0.050853 0.002210 -0.008239 0.005376 0.034881 -0.012864
# 2 0.002210 0.020085 -0.004517 0.011483 -0.001135 -0.001041
# 3 -0.008239 -0.004517 0.023805 0.005111 0.008220 0.006683
# 4 0.005376 0.011483 0.005111 0.042388 0.004780 0.000874
# 5 0.034881 -0.001135 0.008220 0.004780 0.065016 -0.006692
# 6 -0.012864 -0.001041 0.006683 0.000874 -0.006692 0.034068
#
#
# Mechanical properties :
#
#
# Convention : Reuss Voigt Hill
#
# Bulk Modulus (GPa) = 13.57800 29.13356 21.35578
# Shear Modulus (GPa) = 17.73939 27.67008 22.70473
#
# Velocity S-wave (km/s) = 2.93051 3.65999 3.31538
# Velocity P-wave (km/s) = 4.24545 5.65373 4.99943
#
# Compressibility (1/GPa) = 0.07364857
#
# Stress axis : x y z
#
# Youngs Moduli (GPa) = 19.66437 49.78888 42.00823
#
# Poissons Ratio (x) = -0.11001 0.34612
# Poissons Ratio (y) = -0.04345 0.18977
# Poissons Ratio (z) = 0.16202 0.22492
#
# Static dielectric constant tensor:
#      x y z
#    x 1.776320 0.010470 -0.041060 
#    y 0.010470 1.708850 0.010260 
#    z -0.041060 0.010260 1.764390 
# 
# From -- ./inp_files/425103.got.cif
#   From: 2010.05.17/outbox.cif.g08.bks.cpg/sg2_213_cif.got.tgz:425103.got - 2010.06.03 11:33:40.
