data_PCOD9088885
_publ_section_title
;
Structure prediction by ZEFSAII (Michael W. Deem and Ramdas Pophale) SiO2 
 PCOD9088885
Probable space group: P -1
;
_chemical_formula_sum "Si O2"
_cell_formula_units_Z 12
_cell_length_a 7.758093
_cell_length_b 8.344842
_cell_length_c 14.782693
_cell_angle_alpha 84.589032
_cell_angle_beta 50.172915
_cell_angle_gamma 118.568954
_cell_volume 519.314366
_symmetry_space_group_name_H-M "P -1"
_symmetry_group_IT_number 2
_symmetry_cell_setting 'triclinic'
loop_
_space_group_symop_operation_xyz
x,y,z
-x,-y,-z
loop_
_atom_site_type_symbol
_atom_site_label
_atom_site_fract_x
_atom_site_fract_y
_atom_site_fract_z
Si Si1 0.140112 0.206961 0.714820
Si Si2 0.648631 0.249794 0.447079
Si Si3 0.816884 0.503315 0.195802
Si Si4 0.773161 0.307523 0.729680
Si Si5 0.186941 0.171950 0.014122
Si Si6 0.272990 0.812625 0.878073
O O1 0.376497 0.237637 0.567181
O O2 0.315911 0.395832 0.726080
O O3 0.933494 0.238889 0.733534
O O4 0.921719 0.968338 0.850711
O O5 0.795683 0.372811 0.294482
O O6 0.935480 0.431939 0.410723
O O7 0.500000 0.000000 0.500000
O O8 0.638594 0.311967 0.188998
O O9 0.155985 0.723125 0.025392
O O10 0.533334 0.082117 0.760441
O O11 0.544493 0.307357 0.865098
O O12 0.051059 0.283342 0.053437
O O13 0.000000 0.000000 0.000000
#
# Coordination Sequence:
#
# PCOD9088885 Si02
#       6
#     2   2   2   2   2   2
#     4  11  21  41  66  89 128 164 205 259 311 363
#     4  11  25  44  61  90 127 170 208 258 306 371
#     4  10  20  39  65  88 132 158 205 249 319 358
#     4  10  21  40  67  95 120 166 211 251 310 368
#     4  10  19  37  63  94 127 153 207 257 305 359
#     4  10  21  39  66 100 124 160 202 264 308 365
#
# _framework density 23.107389999999999
#
# number of rings (size 3 to 8) (size 9 to 14) (size 15 to 20)
#    0.000    1.667    3.333    3.500    2.333    0.000 
#    6.000   15.000    0.000    0.000    0.000    0.000 
#    0.000    0.000    0.000    0.000    0.000    0.000 
#
# Total GULP energy -66841.618602 kJ/mol
# GULP energy per Si atom -5570.134884 kJ/mol
# Density = 2.305480 g / cm^3
# Si number density = 23.107390 Si / 1000 Ang^3
#
#
#
# Elastic Constant Matrix: (Units=GPa)
#
#
# Indices 1 2 3 4 5 6 
#
# 1 48.3924 20.4879 37.4927 3.0792 -20.1037 -17.4445
# 2 20.4879 130.9165 35.7745 -5.9083 -2.6115 -12.8835
# 3 37.4927 35.7745 78.6242 0.5557 -20.2218 -4.1099
# 4 3.0792 -5.9083 0.5557 49.5037 -1.8998 4.2830
# 5 -20.1037 -2.6115 -20.2218 -1.8998 28.8437 2.6672
# 6 -17.4445 -12.8835 -4.1099 4.2830 2.6672 23.0522
#
#
#
# Elastic Compliance Matrix: (Units=1/GPa)
#
#
# Indices 1 2 3 4 5 6 
#
# 1 0.063372 0.000450 -0.021839 -0.006393 0.024533 0.042663
# 2 0.000450 0.009368 -0.004920 0.000618 -0.002700 0.004896
# 3 -0.021839 -0.004920 0.025521 0.001974 0.003791 -0.015531
# 4 -0.006393 0.000618 0.001974 0.021308 -0.000873 -0.007998
# 5 0.024533 -0.002700 0.003791 -0.000873 0.053038 0.011758
# 6 0.042663 0.004896 -0.015531 -0.007998 0.011758 0.075757
#
#
# Mechanical properties :
#
#
# Convention : Reuss Voigt Hill
#
# Bulk Modulus (GPa) = 21.90940 49.49369 35.70154
# Shear Modulus (GPa) = 15.81295 31.22512 23.51903
#
# Velocity S-wave (km/s) = 2.61880 3.68000 3.19378
# Velocity P-wave (km/s) = 4.31813 6.28665 5.39297
#
# Compressibility (1/GPa) = 0.04564252
#
# Stress axis : x y z
#
# Youngs Moduli (GPa) = 15.77995 106.74172 39.18389
#
# Poissons Ratio (x) = -0.04800 0.85573
# Poissons Ratio (y) = -0.00710 0.19278
# Poissons Ratio (z) = 0.34462 0.52515
#
# Static dielectric constant tensor:
#      x y z
#    x 1.997710 0.076910 -0.004140 
#    y 0.076910 1.988340 -0.022410 
#    z -0.004140 -0.022410 1.872700 
# 
# From -- ./inp_files/147177.got.cif
#   From: 2010.05.17/outbox.cif.g08.bks.cpg/sg2_74_cif.got.tgz:147177.got - 2010.06.03 11:33:40.
