data_PCOD9088134
_publ_section_title
;
Structure prediction by ZEFSAII (Michael W. Deem and Ramdas Pophale) SiO2 
 PCOD9088134
Probable space group: P -1
;
_chemical_formula_sum "Si O2"
_cell_formula_units_Z 16
_cell_length_a 10.111284
_cell_length_b 10.003304
_cell_length_c 11.889844
_cell_angle_alpha 121.883415
_cell_angle_beta 125.403733
_cell_angle_gamma 90.228912
_cell_volume 744.186615
_symmetry_space_group_name_H-M "P -1"
_symmetry_group_IT_number 2
_symmetry_cell_setting 'triclinic'
loop_
_space_group_symop_operation_xyz
x,y,z
-x,-y,-z
loop_
_atom_site_type_symbol
_atom_site_label
_atom_site_fract_x
_atom_site_fract_y
_atom_site_fract_z
Si Si1 0.194407 0.627324 0.290809
Si Si2 0.803628 0.467786 0.510779
Si Si3 0.395404 0.600519 0.048932
Si Si4 0.233923 0.716615 0.809602
Si Si5 0.780921 0.799527 0.706518
Si Si6 0.197256 0.042981 0.987380
Si Si7 0.451484 0.159915 0.562945
Si Si8 0.099505 0.322250 0.949072
O O1 0.192157 0.643610 0.429521
O O2 0.395691 0.692216 0.373655
O O3 0.094706 0.729841 0.227075
O O4 0.094399 0.425619 0.106815
O O5 0.707849 0.351992 0.304028
O O6 0.717425 0.593987 0.565170
O O7 0.014696 0.600319 0.648519
O O8 0.521895 0.761631 0.264233
O O9 0.500000 0.500000 0.000000
O O10 0.310224 0.668987 0.938439
O O11 0.239517 0.462254 0.992247
O O12 0.282010 0.922378 0.923654
O O13 0.732685 0.874159 0.603828
O O14 0.707560 0.849651 0.805415
O O15 0.998727 0.896971 0.865273
O O16 0.162337 0.175100 0.946509
O O17 0.500000 0.000000 0.500000
#
# Coordination Sequence:
#
# PCOD9088134 Si02
#       8
#     2   2   2   2   2   2   2   2
#     4  10  20  36  63  87 118 155 198 247 285 346
#     4  10  19  37  59  86 115 156 199 237 284 354
#     4  11  23  42  62  84 120 164 193 238 300 359
#     4  10  21  37  60  84 120 156 195 236 295 352
#     4  10  20  35  61  86 119 150 197 240 294 348
#     4  10  20  37  62  90 115 153 194 248 292 341
#     4  11  23  38  59  89 120 153 196 249 297 342
#     4  10  20  38  63  90 115 152 208 238 290 351
#
# _framework density 21.499984000000001
#
# number of rings (size 3 to 8) (size 9 to 14) (size 15 to 20)
#    0.000    1.750    2.500    2.250    0.000    0.500 
#    4.500    1.250    0.000    0.000    0.000    0.000 
#    0.000    0.000    0.000    0.000    0.000    0.000 
#
# Total GULP energy -89320.104314 kJ/mol
# GULP energy per Si atom -5582.506520 kJ/mol
# Density = 2.145105 g / cm^3
# Si number density = 21.499984 Si / 1000 Ang^3
#
#
#
# Elastic Constant Matrix: (Units=GPa)
#
#
# Indices 1 2 3 4 5 6 
#
# 1 44.4839 8.4047 34.5404 7.3609 -21.7578 -9.7959
# 2 8.4047 136.6746 60.1132 -1.8887 -30.3331 -22.2414
# 3 34.5404 60.1132 129.2910 -6.0547 -50.5847 -18.3129
# 4 7.3609 -1.8887 -6.0547 22.6897 -1.3418 -8.9651
# 5 -21.7578 -30.3331 -50.5847 -1.3418 35.6097 2.0236
# 6 -9.7959 -22.2414 -18.3129 -8.9651 2.0236 32.1852
#
#
#
# Elastic Compliance Matrix: (Units=1/GPa)
#
#
# Indices 1 2 3 4 5 6 
#
# 1 0.038625 0.005717 -0.002101 -0.006785 0.024600 0.011075
# 2 0.005717 0.011500 -0.000776 0.003318 0.011776 0.009429
# 3 -0.002101 -0.000776 0.023622 0.014429 0.031341 0.014313
# 4 -0.006785 0.003318 0.014429 0.061155 0.020106 0.024208
# 5 0.024600 0.011776 0.031341 0.020106 0.096548 0.032988
# 6 0.011075 0.009429 0.014313 0.024208 0.032988 0.053770
#
#
# Mechanical properties :
#
#
# Convention : Reuss Voigt Hill
#
# Bulk Modulus (GPa) = 12.59016 57.39624 34.99320
# Shear Modulus (GPa) = 16.33898 31.92298 24.13098
#
# Velocity S-wave (km/s) = 2.75972 3.85748 3.35382
# Velocity P-wave (km/s) = 4.00291 6.82599 5.59542
#
# Compressibility (1/GPa) = 0.07942711
#
# Stress axis : x y z
#
# Youngs Moduli (GPa) = 25.88971 86.95442 42.33384
#
# Poissons Ratio (x) = -0.49713 0.08896
# Poissons Ratio (y) = -0.14801 0.03285
# Poissons Ratio (z) = 0.05440 0.06747
#
# Static dielectric constant tensor:
#      x y z
#    x 1.812420 -0.008420 0.028100 
#    y -0.008420 1.809170 0.033250 
#    z 0.028100 0.033250 1.824850 
# 
# From -- ./inp_files/262405.got.cif
#   From: 2010.05.17/outbox.cif.g08.bks.cpg/sg2_132_cif.got.tgz:262405.got - 2010.06.03 11:33:40.
