data_PCOD9088873
_publ_section_title
;
Structure prediction by ZEFSAII (Michael W. Deem and Ramdas Pophale) SiO2 
 PCOD9088873
Probable space group: P -1
;
_chemical_formula_sum "Si O2"
_cell_formula_units_Z 16
_cell_length_a 21.667178
_cell_length_b 17.320719
_cell_length_c 10.360165
_cell_angle_alpha 150.766885
_cell_angle_beta 31.613167
_cell_angle_gamma 155.741588
_cell_volume 749.104138
_symmetry_space_group_name_H-M "P -1"
_symmetry_group_IT_number 2
_symmetry_cell_setting 'triclinic'
loop_
_space_group_symop_operation_xyz
x,y,z
-x,-y,-z
loop_
_atom_site_type_symbol
_atom_site_label
_atom_site_fract_x
_atom_site_fract_y
_atom_site_fract_z
Si Si1 0.860922 0.384623 0.185015
Si Si2 0.620822 0.248613 0.037760
Si Si3 0.108408 0.754189 0.421233
Si Si4 0.978998 0.018814 0.214929
Si Si5 0.256886 0.076829 0.859305
Si Si6 0.827029 0.040668 0.883240
Si Si7 0.825388 0.712834 0.269638
Si Si8 0.459323 0.792784 0.598063
O O1 0.717710 0.363348 0.361410
O O2 0.938606 0.527053 0.383433
O O3 0.805157 0.162449 0.000743
O O4 0.000000 0.500000 0.000000
O O5 0.697229 0.462617 0.140217
O O6 0.532113 0.229392 0.295738
O O7 0.764575 0.268121 0.862631
O O8 0.521697 0.029746 0.818360
O O9 0.099768 0.879689 0.508162
O O10 0.155887 0.873731 0.647253
O O11 0.871536 0.808552 0.183364
O O12 0.153215 0.146180 0.149024
O O13 0.000000 0.000000 0.000000
O O14 0.425849 0.222245 0.704737
O O15 0.261581 0.016496 0.907252
O O16 0.012338 0.198807 0.821825
O O17 0.780216 0.832386 0.600183
#
# Coordination Sequence:
#
# PCOD9088873 Si02
#       8
#     2   2   2   2   2   2   2   2
#     4  12  21  36  62  95 116 156 213 258 308 360
#     4  10  20  40  63  93 118 169 204 251 313 367
#     4  10  19  37  65  92 118 155 213 249 304 361
#     4   9  19  37  62  95 124 158 203 258 303 358
#     4   9  21  40  59  85 126 170 192 249 320 363
#     4  10  21  36  61  88 126 157 207 261 298 362
#     4  10  19  37  63  93 121 158 213 253 301 365
#     4  10  22  38  62  87 133 157 203 260 311 371
#
# _framework density 21.358844999999999
#
# number of rings (size 3 to 8) (size 9 to 14) (size 15 to 20)
#    0.000    2.000    2.500    0.750    0.000    3.000 
#    6.750    3.125    0.000    0.000    0.000    0.000 
#    0.000    0.000    0.000    0.000    0.000    0.000 
#
# Total GULP energy -89234.255776 kJ/mol
# GULP energy per Si atom -5577.140986 kJ/mol
# Density = 2.131023 g / cm^3
# Si number density = 21.358845 Si / 1000 Ang^3
#
#
#
# Elastic Constant Matrix: (Units=GPa)
#
#
# Indices 1 2 3 4 5 6 
#
# 1 64.0728 29.5203 34.4416 -9.5729 -2.4472 -16.1986
# 2 29.5203 97.3482 43.9545 -4.1756 -6.8424 -16.3451
# 3 34.4416 43.9545 49.6307 -8.1964 0.2883 -23.9215
# 4 -9.5729 -4.1756 -8.1964 30.4252 -8.6726 1.3935
# 5 -2.4472 -6.8424 0.2883 -8.6726 26.0611 4.2760
# 6 -16.1986 -16.3451 -23.9215 1.3935 4.2760 46.3686
#
#
#
# Elastic Compliance Matrix: (Units=1/GPa)
#
#
# Indices 1 2 3 4 5 6 
#
# 1 0.025658 0.000781 -0.018065 0.004611 0.004452 -0.000630
# 2 0.000781 0.018080 -0.018230 -0.000500 0.005387 -0.003240
# 3 -0.018065 -0.018230 0.058244 0.004207 -0.008678 0.017985
# 4 0.004611 -0.000500 0.004207 0.039046 0.013047 0.001229
# 5 0.004452 0.005387 -0.008678 0.013047 0.045563 -0.005616
# 6 -0.000630 -0.003240 0.017985 0.001229 -0.005616 0.029963
#
#
# Mechanical properties :
#
#
# Convention : Reuss Voigt Hill
#
# Bulk Modulus (GPa) = 32.30642 47.43160 39.86901
# Shear Modulus (GPa) = 16.78420 27.44666 22.11543
#
# Velocity S-wave (km/s) = 2.80629 3.58861 3.22129
# Velocity P-wave (km/s) = 5.06544 6.27902 5.70460
#
# Compressibility (1/GPa) = 0.03095360
#
# Stress axis : x y z
#
# Youngs Moduli (GPa) = 38.97452 55.31063 17.16924
#
# Poissons Ratio (x) = -0.04320 0.31017
# Poissons Ratio (y) = -0.03044 0.31299
# Poissons Ratio (z) = 0.70408 1.00829
#
# Static dielectric constant tensor:
#      x y z
#    x 1.785840 0.025350 0.012180 
#    y 0.025350 1.790560 0.018350 
#    z 0.012180 0.018350 1.871270 
# 
# From -- ./inp_files/436486.got.cif
#   From: 2010.05.17/outbox.cif.g08.bks.cpg/sg2_219_cif.got.tgz:436486.got - 2010.06.03 11:33:40.
