data_PCOD9088934
_publ_section_title
;
Structure prediction by ZEFSAII (Michael W. Deem and Ramdas Pophale) SiO2 
 PCOD9088934
Probable space group: P -1
;
_chemical_formula_sum "Si O2"
_cell_formula_units_Z 14
_cell_length_a 6.286225
_cell_length_b 13.737745
_cell_length_c 7.780503
_cell_angle_alpha 91.294044
_cell_angle_beta 92.046776
_cell_angle_gamma 109.978260
_cell_volume 630.642976
_symmetry_space_group_name_H-M "P -1"
_symmetry_group_IT_number 2
_symmetry_cell_setting 'triclinic'
loop_
_space_group_symop_operation_xyz
x,y,z
-x,-y,-z
loop_
_atom_site_type_symbol
_atom_site_label
_atom_site_fract_x
_atom_site_fract_y
_atom_site_fract_z
Si Si1 0.505270 0.470723 0.754465
Si Si2 0.725679 0.045307 0.123486
Si Si3 0.436632 0.781402 0.783607
Si Si4 0.826517 0.853178 0.087830
Si Si5 0.336549 0.333310 0.431660
Si Si6 0.797869 0.391388 0.981437
Si Si7 0.055311 0.321845 0.716245
O O1 0.515447 0.404206 0.580343
O O2 0.642669 0.589315 0.723967
O O3 0.587887 0.423644 0.916585
O O4 0.235477 0.438338 0.750976
O O5 0.672404 0.129819 0.243659
O O6 0.783946 0.947296 0.193581
O O7 0.938730 0.102565 0.009212
O O8 0.500000 0.000000 0.000000
O O9 0.572731 0.755995 0.628902
O O10 0.623470 0.815468 0.943347
O O11 0.251241 0.677872 0.852353
O O12 0.845153 0.760108 0.198102
O O13 0.091223 0.304301 0.514697
O O14 0.844240 0.322606 0.822308
O O15 0.000000 0.500000 0.000000
#
# Coordination Sequence:
#
# PCOD9088934 Si02
#       7
#     2   2   2   2   2   2   2
#     4   9  21  41  52  79 124 160 191 235 284 342
#     4   9  20  36  61  90 112 139 194 248 295 337
#     4  11  20  37  58  90 111 150 200 238 281 348
#     4  10  19  37  64  84 114 149 189 248 292 336
#     4   9  21  39  57  77 125 161 185 234 296 336
#     4  12  24  33  60  88 114 155 208 237 273 340
#     4  10  20  39  54  83 113 157 185 234 299 331
#
# _framework density 22.199563000000001
#
# number of rings (size 3 to 8) (size 9 to 14) (size 15 to 20)
#    0.857    1.143    2.857    0.857    2.000    1.714 
#    2.571    0.714    0.000    7.714    0.000    0.000 
#    0.000    0.000    0.000    0.000    0.000    0.000 
#
# Total GULP energy -77980.912843 kJ/mol
# GULP energy per Si atom -5570.065203 kJ/mol
# Density = 2.214904 g / cm^3
# Si number density = 22.199563 Si / 1000 Ang^3
#
#
#
# Elastic Constant Matrix: (Units=GPa)
#
#
# Indices 1 2 3 4 5 6 
#
# 1 57.1374 22.6414 15.4100 6.3384 -24.5143 -17.5315
# 2 22.6414 82.6444 14.3096 9.6394 -12.1592 -16.4037
# 3 15.4100 14.3096 58.2885 6.9128 -28.5306 -18.5042
# 4 6.3384 9.6394 6.9128 26.0007 -9.5641 -15.0078
# 5 -24.5143 -12.1592 -28.5306 -9.5641 37.7925 13.2404
# 6 -17.5315 -16.4037 -18.5042 -15.0078 13.2404 47.5648
#
#
#
# Elastic Compliance Matrix: (Units=1/GPa)
#
#
# Indices 1 2 3 4 5 6 
#
# 1 0.027733 -0.004862 0.004563 0.004479 0.018718 0.006523
# 2 -0.004862 0.014277 -0.002014 -0.003088 -0.001489 0.001788
# 3 0.004563 -0.002014 0.029656 0.004638 0.023240 0.007519
# 4 0.004479 -0.003088 0.004638 0.050576 0.013058 0.014713
# 5 0.018718 -0.001489 0.023240 0.013058 0.057756 0.003469
# 6 0.006523 0.001788 0.007519 0.014713 0.003469 0.030647
#
#
# Mechanical properties :
#
#
# Convention : Reuss Voigt Hill
#
# Bulk Modulus (GPa) = 14.91649 33.64362 24.28006
# Shear Modulus (GPa) = 21.04228 31.98555 26.51392
#
# Velocity S-wave (km/s) = 3.08209 3.79993 3.45968
# Velocity P-wave (km/s) = 4.40449 5.86861 5.18846
#
# Compressibility (1/GPa) = 0.06703989
#
# Stress axis : x y z
#
# Youngs Moduli (GPa) = 36.05832 70.04397 33.71982
#
# Poissons Ratio (x) = 0.34053 -0.15387
# Poissons Ratio (y) = 0.17530 0.06793
# Poissons Ratio (z) = -0.16454 0.14110
#
# Static dielectric constant tensor:
#      x y z
#    x 1.850170 0.001390 -0.027600 
#    y 0.001390 1.870330 0.055990 
#    z -0.027600 0.055990 1.861010 
# 
# From -- ./inp_files/117184.got.cif
#   From: 2010.05.17/outbox.cif.g08.bks.cpg/sg2_59_cif.got.tgz:117184.got - 2010.06.03 11:33:40.
