data_PCOD9088659
_publ_section_title
;
Structure prediction by ZEFSAII (Michael W. Deem and Ramdas Pophale) SiO2 
 PCOD9088659
Probable space group: P -1
;
_chemical_formula_sum "Si O2"
_cell_formula_units_Z 16
_cell_length_a 7.792451
_cell_length_b 7.892231
_cell_length_c 15.088829
_cell_angle_alpha 80.468437
_cell_angle_beta 127.669424
_cell_angle_gamma 105.640414
_cell_volume 707.328757
_symmetry_space_group_name_H-M "P -1"
_symmetry_group_IT_number 2
_symmetry_cell_setting 'triclinic'
loop_
_space_group_symop_operation_xyz
x,y,z
-x,-y,-z
loop_
_atom_site_type_symbol
_atom_site_label
_atom_site_fract_x
_atom_site_fract_y
_atom_site_fract_z
Si Si1 0.894922 0.064515 0.583575
Si Si2 0.942180 0.553129 0.377897
Si Si3 0.165770 0.792664 0.727803
Si Si4 0.373249 0.601223 0.385666
Si Si5 0.047697 0.279310 0.977498
Si Si6 0.912608 0.583377 0.825605
Si Si7 0.650314 0.972821 0.872108
Si Si8 0.449036 0.004893 0.359572
O O1 0.740097 0.997545 0.626602
O O2 0.083535 0.243955 0.638937
O O3 0.696648 0.105918 0.455186
O O4 0.015221 0.904038 0.616177
O O5 0.794187 0.377900 0.300032
O O6 0.000000 0.500000 0.500000
O O7 0.146167 0.589189 0.369178
O O8 0.038903 0.724277 0.784212
O O9 0.393064 0.922364 0.817165
O O10 0.500000 0.500000 0.500000
O O11 0.476710 0.802962 0.382390
O O12 0.321342 0.498582 0.286582
O O13 0.047914 0.427606 0.892100
O O14 0.795011 0.167845 0.913521
O O15 0.110161 0.357374 0.087273
O O16 0.211546 0.149777 0.022739
O O17 0.642129 0.942233 0.765997
#
# Coordination Sequence:
#
# PCOD9088659 Si02
#       8
#     2   2   2   2   2   2   2   2
#     4  10  22  39  62  93 133 174 205 258 321 389
#     4  10  22  38  55  89 133 168 199 251 315 379
#     4  11  24  41  64  97 130 166 207 269 326 376
#     4  10  20  35  63  93 123 163 208 255 311 380
#     4  10  23  43  66  87 125 168 219 265 302 384
#     4  10  21  43  64  92 126 163 214 264 315 376
#     4  11  23  40  63  93 119 169 213 267 321 365
#     4  10  19  37  62  90 124 171 214 250 313 386
#
# _framework density 22.620314
#
# number of rings (size 3 to 8) (size 9 to 14) (size 15 to 20)
#    0.000    1.750    1.250    3.000    0.000    7.000 
#    4.500    0.000    0.000    0.000    0.000    0.000 
#    0.000    0.000    0.000    0.000    0.000    0.000 
#
# Total GULP energy -89263.296378 kJ/mol
# GULP energy per Si atom -5578.956024 kJ/mol
# Density = 2.256883 g / cm^3
# Si number density = 22.620314 Si / 1000 Ang^3
#
#
#
# Elastic Constant Matrix: (Units=GPa)
#
#
# Indices 1 2 3 4 5 6 
#
# 1 23.6644 25.9404 -2.1823 -2.8962 -0.4060 0.4793
# 2 25.9404 86.0623 33.5884 -1.7097 15.2620 5.8679
# 3 -2.1823 33.5884 101.5691 -3.9530 4.6367 -5.6668
# 4 -2.8962 -1.7097 -3.9530 43.4724 1.1336 -2.7499
# 5 -0.4060 15.2620 4.6367 1.1336 29.0617 2.7043
# 6 0.4793 5.8679 -5.6668 -2.7499 2.7043 13.6990
#
#
#
# Elastic Compliance Matrix: (Units=1/GPa)
#
#
# Indices 1 2 3 4 5 6 
#
# 1 0.079750 -0.032524 0.012851 0.005756 0.014548 0.014741
# 2 -0.032524 0.028566 -0.010427 -0.002518 -0.012442 -0.013461
# 3 0.012851 -0.010427 0.014098 0.002287 0.002402 0.009833
# 4 0.005756 -0.002518 0.002287 0.023935 -0.000522 0.006731
# 5 0.014548 -0.012442 0.002402 -0.000522 0.041006 -0.002386
# 6 0.014741 -0.013461 0.009833 0.006731 -0.002386 0.084138
#
#
# Mechanical properties :
#
#
# Convention : Reuss Voigt Hill
#
# Bulk Modulus (GPa) = 16.07314 36.22097 26.14706
# Shear Modulus (GPa) = 14.18723 27.50991 20.84857
#
# Velocity S-wave (km/s) = 2.50709 3.49113 3.03920
# Velocity P-wave (km/s) = 3.93722 5.68313 4.88875
#
# Compressibility (1/GPa) = 0.06221559
#
# Stress axis : x y z
#
# Youngs Moduli (GPa) = 12.53915 35.00657 70.93372
#
# Poissons Ratio (x) = 1.13856 -0.91160
# Poissons Ratio (y) = 0.40782 0.73959
# Poissons Ratio (z) = -0.16115 0.36500
#
# Static dielectric constant tensor:
#      x y z
#    x 1.854140 -0.067740 -0.022050 
#    y -0.067740 1.977460 0.058320 
#    z -0.022050 0.058320 1.818820 
# 
# From -- ./inp_files/494741.got.cif
#   From: 2010.05.17/outbox.cif.g08.bks.cpg/sg2_248_cif.got.tgz:494741.got - 2010.06.03 11:33:40.
