data_PCOD9088675
_publ_section_title
;
Structure prediction by ZEFSAII (Michael W. Deem and Ramdas Pophale) SiO2 
 PCOD9088675
Probable space group: P -1
;
_chemical_formula_sum "Si O2"
_cell_formula_units_Z 16
_cell_length_a 12.214683
_cell_length_b 9.402224
_cell_length_c 12.577932
_cell_angle_alpha 141.559468
_cell_angle_beta 42.646735
_cell_angle_gamma 125.422272
_cell_volume 608.392028
_symmetry_space_group_name_H-M "P -1"
_symmetry_group_IT_number 2
_symmetry_cell_setting 'triclinic'
loop_
_space_group_symop_operation_xyz
x,y,z
-x,-y,-z
loop_
_atom_site_type_symbol
_atom_site_label
_atom_site_fract_x
_atom_site_fract_y
_atom_site_fract_z
Si Si1 0.614396 0.610426 0.892504
Si Si2 0.092969 0.023449 0.335348
Si Si3 0.761447 0.956284 0.420712
Si Si4 0.575457 0.746996 0.779872
Si Si5 0.528085 0.127418 0.283574
Si Si6 0.757634 0.139701 0.313804
Si Si7 0.856376 0.474490 0.003049
Si Si8 0.905633 0.653074 0.843159
O O1 0.552632 0.577805 0.797176
O O2 0.792543 0.550411 0.771836
O O3 0.500000 0.500000 0.000000
O O4 0.615579 0.888778 0.053720
O O5 0.946487 0.026939 0.356369
O O6 0.230030 0.216886 0.348165
O O7 0.191238 0.788538 0.107345
O O8 0.000000 0.000000 0.500000
O O9 0.648164 0.964625 0.608309
O O10 0.751746 0.692070 0.235724
O O11 0.694948 0.103173 0.456461
O O12 0.496030 0.699669 0.694446
O O13 0.500000 0.000000 0.000000
O O14 0.628643 0.216487 0.364363
O O15 0.915382 0.296922 0.293791
O O16 0.826348 0.891873 0.080705
O O17 0.907956 0.504760 0.861566
O O18 0.000000 0.500000 0.000000
#
# Coordination Sequence:
#
# PCOD9088675 Si02
#       8
#     2   2   2   2   2   2   2   2
#     4  10  22  38  60  92 127 167 210 260 322 379
#     4  11  21  38  65  91 127 165 212 263 315 379
#     4  10  19  37  62  91 124 166 211 259 316 376
#     4  10  22  38  61  93 123 169 208 255 322 378
#     4  10  20  36  62  93 124 166 210 260 316 374
#     4   9  18  34  59  86 121 161 210 253 310 375
#     4   9  21  35  60  91 118 161 208 258 314 368
#     4   9  18  35  57  85 118 162 210 256 307 374
#
# _framework density 26.298833999999999
#
# number of rings (size 3 to 8) (size 9 to 14) (size 15 to 20)
#    0.000    2.250    1.250    1.125    3.500    6.000 
#    0.000    1.250    2.750    7.500    0.000    0.000 
#    0.000    0.000    0.000    0.000    0.000    0.000 
#
# Total GULP energy -89514.609881 kJ/mol
# GULP energy per Si atom -5594.663118 kJ/mol
# Density = 2.623898 g / cm^3
# Si number density = 26.298834 Si / 1000 Ang^3
#
#
#
# Elastic Constant Matrix: (Units=GPa)
#
#
# Indices 1 2 3 4 5 6 
#
# 1 223.9824 94.9030 22.6477 -19.8326 13.7659 -34.2647
# 2 94.9030 101.5579 15.4267 -10.5449 -4.8067 -33.9073
# 3 22.6477 15.4267 58.1583 12.1261 4.9644 -11.1277
# 4 -19.8326 -10.5449 12.1261 43.7430 -1.6620 0.0158
# 5 13.7659 -4.8067 4.9644 -1.6620 35.3306 -10.0494
# 6 -34.2647 -33.9073 -11.1277 0.0158 -10.0494 56.4568
#
#
#
# Elastic Compliance Matrix: (Units=1/GPa)
#
#
# Indices 1 2 3 4 5 6 
#
# 1 0.008171 -0.007608 -0.001367 0.002094 -0.004102 -0.000611
# 2 -0.007608 0.021025 -0.002148 0.002547 0.008852 0.009161
# 3 -0.001367 -0.002148 0.020208 -0.006836 -0.002518 0.001417
# 4 0.002094 0.002547 -0.006836 0.026404 0.002259 0.001848
# 5 -0.004102 0.008852 -0.002518 0.002259 0.033948 0.008373
# 6 -0.000611 0.009161 0.001417 0.001848 0.008373 0.024613
#
#
# Mechanical properties :
#
#
# Convention : Reuss Voigt Hill
#
# Bulk Modulus (GPa) = 36.82312 72.18373 54.50343
# Shear Modulus (GPa) = 30.18100 43.82081 37.00091
#
# Velocity S-wave (km/s) = 3.39133 4.08642 3.75499
# Velocity P-wave (km/s) = 5.41913 7.05494 6.29044
#
# Compressibility (1/GPa) = 0.02715685
#
# Stress axis : x y z
#
# Youngs Moduli (GPa) = 122.39120 47.56334 49.48583
#
# Poissons Ratio (x) = 0.36187 0.06764
# Poissons Ratio (y) = 0.93116 0.10630
# Poissons Ratio (z) = 0.16730 0.10217
#
# Static dielectric constant tensor:
#      x y z
#    x 2.051540 -0.012140 0.038620 
#    y -0.012140 1.907130 -0.081130 
#    z 0.038620 -0.081130 2.004990 
# 
# From -- ./inp_files/419238.got.cif
#   From: 2010.05.17/outbox.cif.g08.bks.cpg/sg2_210_cif.got.tgz:419238.got - 2010.06.03 11:33:40.
