data_PCOD9088432
_publ_section_title
;
Structure prediction by ZEFSAII (Michael W. Deem and Ramdas Pophale) SiO2 
 PCOD9088432
Probable space group: P -1
;
_chemical_formula_sum "Si O2"
_cell_formula_units_Z 16
_cell_length_a 7.363950
_cell_length_b 25.686162
_cell_length_c 10.318253
_cell_angle_alpha 33.915757
_cell_angle_beta 34.287162
_cell_angle_gamma 44.762809
_cell_volume 611.632999
_symmetry_space_group_name_H-M "P -1"
_symmetry_group_IT_number 2
_symmetry_cell_setting 'triclinic'
loop_
_space_group_symop_operation_xyz
x,y,z
-x,-y,-z
loop_
_atom_site_type_symbol
_atom_site_label
_atom_site_fract_x
_atom_site_fract_y
_atom_site_fract_z
Si Si1 0.856165 0.588368 0.756966
Si Si2 0.098691 0.196505 0.308194
Si Si3 0.566695 0.792640 0.417655
Si Si4 0.335222 0.911475 0.892481
Si Si5 0.625503 0.971450 0.127969
Si Si6 0.241381 0.545785 0.361954
Si Si7 0.884091 0.731386 0.141367
Si Si8 0.799902 0.292203 0.495178
O O1 0.642158 0.681873 0.633167
O O2 0.074094 0.531085 0.635013
O O3 0.112744 0.636993 0.593686
O O4 0.604558 0.534535 0.106435
O O5 0.387908 0.118959 0.311014
O O6 0.088647 0.279239 0.246734
O O7 0.729174 0.172544 0.575536
O O8 0.087587 0.229734 0.097935
O O9 0.859402 0.805698 0.118127
O O10 0.547381 0.861909 0.406239
O O11 0.014104 0.966533 0.916527
O O12 0.226907 0.810446 0.213799
O O13 0.482416 0.966807 0.811534
O O14 0.500000 0.000000 0.000000
O O15 0.166085 0.656836 0.165618
O O16 0.000000 0.500000 0.500000
O O17 0.543238 0.682431 0.424509
#
# Coordination Sequence:
#
# PCOD9088432 Si02
#       8
#     2   2   2   2   2   2   2   2
#     4  11  23  41  69  99 126 177 219 264 323 402
#     4  10  19  37  61  86 121 162 223 271 324 386
#     4  10  20  38  60  89 120 170 226 269 320 401
#     4  10  23  39  57  88 127 170 219 287 334 389
#     4  11  21  39  59  84 132 172 220 284 345 391
#     4  11  24  44  68 100 136 167 212 271 333 401
#     4   9  20  37  63  91 122 169 213 268 326 392
#     4  10  21  39  62  90 126 167 223 270 322 395
#
# _framework density 26.159475
#
# number of rings (size 3 to 8) (size 9 to 14) (size 15 to 20)
#    0.000    1.750    2.500    2.625    3.500    0.500 
#    2.250    8.125    0.000    0.000    0.000    0.000 
#    0.000    0.000    0.000    0.000    0.000    0.000 
#
# Total GULP energy -89138.308191 kJ/mol
# GULP energy per Si atom -5571.144262 kJ/mol
# Density = 2.609994 g / cm^3
# Si number density = 26.159475 Si / 1000 Ang^3
#
#
#
# Elastic Constant Matrix: (Units=GPa)
#
#
# Indices 1 2 3 4 5 6 
#
# 1 94.4128 23.9619 14.4521 -3.8431 0.0581 6.9236
# 2 23.9619 96.2090 40.1479 12.4771 16.6502 35.1084
# 3 14.4521 40.1479 87.5899 16.2857 7.5135 16.5692
# 4 -3.8431 12.4771 16.2857 40.7767 5.6609 -0.8719
# 5 0.0581 16.6502 7.5135 5.6609 22.1177 -7.2270
# 6 6.9236 35.1084 16.5692 -0.8719 -7.2270 59.1764
#
#
#
# Elastic Compliance Matrix: (Units=1/GPa)
#
#
# Indices 1 2 3 4 5 6 
#
# 1 0.011740 -0.003941 -0.001181 0.002363 0.003298 0.001733
# 2 -0.003941 0.021821 -0.004677 -0.002902 -0.018488 -0.013476
# 3 -0.001181 -0.004677 0.014951 -0.004563 -0.000859 -0.001446
# 4 0.002363 -0.002902 -0.004563 0.027861 -0.002478 0.002831
# 5 0.003298 -0.018488 -0.000859 -0.002478 0.066215 0.018874
# 6 0.001733 -0.013476 -0.001446 0.002831 0.018874 0.027442
#
#
# Mechanical properties :
#
#
# Convention : Reuss Voigt Hill
#
# Bulk Modulus (GPa) = 34.58449 48.37060 41.47754
# Shear Modulus (GPa) = 25.09218 37.72414 31.40816
#
# Velocity S-wave (km/s) = 3.10046 3.80160 3.46879
# Velocity P-wave (km/s) = 5.10553 6.14820 5.65096
#
# Compressibility (1/GPa) = 0.02891469
#
# Stress axis : x y z
#
# Youngs Moduli (GPa) = 85.18052 45.82792 66.88517
#
# Poissons Ratio (x) = 0.18059 0.07898
# Poissons Ratio (y) = 0.33567 0.31282
# Poissons Ratio (z) = 0.10058 0.21433
#
# Static dielectric constant tensor:
#      x y z
#    x 2.058450 0.015260 0.007230 
#    y 0.015260 2.221000 0.035200 
#    z 0.007230 0.035200 2.298860 
# 
# From -- ./inp_files/53340.got.cif
#   From: 2010.05.17/outbox.cif.g08.bks.cpg/sg2_27_cif.got.tgz:53340.got - 2010.06.03 11:33:40.
