data_PCOD9088433
_publ_section_title
;
Structure prediction by ZEFSAII (Michael W. Deem and Ramdas Pophale) SiO2 
 PCOD9088433
Probable space group: P -1
;
_chemical_formula_sum "Si O2"
_cell_formula_units_Z 14
_cell_length_a 15.272526
_cell_length_b 9.346289
_cell_length_c 12.035035
_cell_angle_alpha 48.719745
_cell_angle_beta 151.627615
_cell_angle_gamma 137.073778
_cell_volume 555.341663
_symmetry_space_group_name_H-M "P -1"
_symmetry_group_IT_number 2
_symmetry_cell_setting 'triclinic'
loop_
_space_group_symop_operation_xyz
x,y,z
-x,-y,-z
loop_
_atom_site_type_symbol
_atom_site_label
_atom_site_fract_x
_atom_site_fract_y
_atom_site_fract_z
Si Si1 0.690802 0.562237 0.304693
Si Si2 0.631155 0.955781 0.947267
Si Si3 0.200653 0.509677 0.770938
Si Si4 0.701134 0.820855 0.857794
Si Si5 0.138758 0.653984 0.838915
Si Si6 0.364175 0.156996 0.477381
Si Si7 0.192866 0.454775 0.198243
O O1 0.670898 0.463808 0.209943
O O2 0.513051 0.390040 0.265772
O O3 0.907870 0.604412 0.577146
O O4 0.668386 0.775794 0.147770
O O5 0.697334 0.959985 0.888659
O O6 0.418753 0.979928 0.685573
O O7 0.772198 0.156690 0.073758
O O8 0.263266 0.677629 0.853117
O O9 0.000000 0.500000 0.500000
O O10 0.149831 0.282430 0.884691
O O11 0.717152 0.905549 0.707748
O O12 0.166417 0.468444 0.029601
O O13 0.224359 0.239606 0.352820
O O14 0.589641 0.358513 0.618770
O O15 0.000000 0.500000 0.000000
#
# Coordination Sequence:
#
# PCOD9088433 Si02
#       7
#     2   2   2   2   2   2   2
#     4  10  21  37  63  89 120 164 207 249 304 370
#     4  10  21  36  61  93 126 159 201 256 312 361
#     4   9  18  33  57  84 115 159 200 242 298 364
#     4  11  20  39  62  89 122 164 205 247 307 373
#     4  10  19  37  61  86 122 160 209 256 303 358
#     4  10  21  37  65  90 125 163 204 255 314 365
#     4  10  20  37  64  92 122 162 211 254 307 373
#
# _framework density 25.209707000000002
#
# number of rings (size 3 to 8) (size 9 to 14) (size 15 to 20)
#    0.000    2.000    1.429    3.429    0.000    0.000 
#    0.000    2.857   50.286    5.143    0.000    0.000 
#    0.000    0.000    0.000    0.000    0.000    0.000 
#
# Total GULP energy -78116.196866 kJ/mol
# GULP energy per Si atom -5579.728348 kJ/mol
# Density = 2.515233 g / cm^3
# Si number density = 25.209707 Si / 1000 Ang^3
#
#
#
# Elastic Constant Matrix: (Units=GPa)
#
#
# Indices 1 2 3 4 5 6 
#
# 1 98.6110 23.6062 37.5120 0.0797 -3.5308 -17.9677
# 2 23.6062 85.9113 33.8354 -16.4462 -2.2551 -31.3121
# 3 37.5120 33.8354 166.8623 -8.6497 -5.0821 -20.7734
# 4 0.0797 -16.4462 -8.6497 31.5971 -6.6782 -2.6005
# 5 -3.5308 -2.2551 -5.0821 -6.6782 48.6087 -3.3213
# 6 -17.9677 -31.3121 -20.7734 -2.6005 -3.3213 36.7212
#
#
#
# Elastic Compliance Matrix: (Units=1/GPa)
#
#
# Indices 1 2 3 4 5 6 
#
# 1 0.011889 -0.001317 -0.001979 -0.000808 0.000729 0.003584
# 2 -0.001317 0.021953 -0.000988 0.013548 0.003968 0.018835
# 3 -0.001979 -0.000988 0.007061 0.001825 0.000963 0.002400
# 4 -0.000808 0.013548 0.001825 0.042120 0.007631 0.015863
# 5 0.000729 0.003968 0.000963 0.007631 0.022427 0.006854
# 6 0.003584 0.018835 0.002400 0.015863 0.006854 0.048147
#
#
# Mechanical properties :
#
#
# Convention : Reuss Voigt Hill
#
# Bulk Modulus (GPa) = 30.92548 60.14354 45.53451
# Shear Modulus (GPa) = 28.91134 40.48080 34.69607
#
# Velocity S-wave (km/s) = 3.39017 4.01154 3.71387
# Velocity P-wave (km/s) = 5.25531 6.73541 6.04086
#
# Compressibility (1/GPa) = 0.03233580
#
# Stress axis : x y z
#
# Youngs Moduli (GPa) = 84.11370 45.55171 141.62435
#
# Poissons Ratio (x) = 0.05998 0.28031
# Poissons Ratio (y) = 0.11075 0.13986
# Poissons Ratio (z) = 0.16648 0.04499
#
# Static dielectric constant tensor:
#      x y z
#    x 2.169470 0.108130 0.098180 
#    y 0.108130 2.111410 0.003570 
#    z 0.098180 0.003570 2.002020 
# 
# From -- ./inp_files/445702.got.cif
#   From: 2010.05.17/outbox.cif.g08.bks.cpg/sg2_223_cif.got.tgz:445702.got - 2010.06.03 11:33:40.
