data_PCOD9088531
_publ_section_title
;
Structure prediction by ZEFSAII (Michael W. Deem and Ramdas Pophale) SiO2 
 PCOD9088531
Probable space group: P -1
;
_chemical_formula_sum "Si O2"
_cell_formula_units_Z 16
_cell_length_a 12.420642
_cell_length_b 7.414930
_cell_length_c 9.362860
_cell_angle_alpha 114.670338
_cell_angle_beta 62.997847
_cell_angle_gamma 102.838071
_cell_volume 697.605911
_symmetry_space_group_name_H-M "P -1"
_symmetry_group_IT_number 2
_symmetry_cell_setting 'triclinic'
loop_
_space_group_symop_operation_xyz
x,y,z
-x,-y,-z
loop_
_atom_site_type_symbol
_atom_site_label
_atom_site_fract_x
_atom_site_fract_y
_atom_site_fract_z
Si Si1 0.766054 0.824702 0.954597
Si Si2 0.689679 0.497063 0.707699
Si Si3 0.744271 0.258189 0.167945
Si Si4 0.873468 0.185502 0.568045
Si Si5 0.865303 0.741972 0.469013
Si Si6 0.527877 0.309429 0.514983
Si Si7 0.273540 0.300548 0.744488
Si Si8 0.034094 0.824533 0.810567
O O1 0.670165 0.680754 0.884581
O O2 0.900401 0.748751 0.816959
O O3 0.756611 0.057284 0.004262
O O4 0.000000 0.000000 0.000000
O O5 0.764164 0.330439 0.686195
O O6 0.774283 0.597852 0.564869
O O7 0.576715 0.389627 0.663302
O O8 0.636472 0.213983 0.332861
O O9 0.713898 0.458780 0.169773
O O10 0.870326 0.291995 0.190628
O O11 0.995152 0.290836 0.593195
O O12 0.850435 0.975248 0.590824
O O13 0.900037 0.139535 0.369011
O O14 0.829370 0.725871 0.320467
O O15 0.500000 0.500000 0.500000
O O16 0.396243 0.207229 0.579862
O O17 0.245518 0.202590 0.878560
#
# Coordination Sequence:
#
# PCOD9088531 Si02
#       8
#     2   2   2   2   2   2   2   2
#     4  11  26  39  62  99 133 169 211 264 339 378
#     4  12  23  43  66  94 133 173 213 271 327 372
#     4  10  21  42  64  92 130 170 214 270 316 383
#     4  11  23  39  64 100 131 170 219 265 320 398
#     4  11  22  39  67  93 130 167 221 261 319 393
#     4  10  21  43  72  91 124 173 229 268 302 392
#     4  11  24  43  66  96 126 173 225 259 319 387
#     4  10  19  37  61  93 133 162 204 269 323 381
#
# _framework density 22.935585
#
# number of rings (size 3 to 8) (size 9 to 14) (size 15 to 20)
#    0.000    1.250    5.000    1.875    1.750    2.500 
#    2.250    2.500    0.000    0.000    0.000    0.000 
#    0.000    0.000    0.000    0.000    0.000    0.000 
#
# Total GULP energy -89370.754264 kJ/mol
# GULP energy per Si atom -5585.672142 kJ/mol
# Density = 2.288338 g / cm^3
# Si number density = 22.935585 Si / 1000 Ang^3
#
#
#
# Elastic Constant Matrix: (Units=GPa)
#
#
# Indices 1 2 3 4 5 6 
#
# 1 89.6849 -10.2953 15.2435 20.7001 2.4861 -6.6057
# 2 -10.2953 49.7202 -0.3527 10.7572 -15.7204 -9.3497
# 3 15.2435 -0.3527 62.5095 17.3068 3.1991 3.3822
# 4 20.7001 10.7572 17.3068 24.8289 1.1185 1.3738
# 5 2.4861 -15.7204 3.1991 1.1185 38.7927 3.2965
# 6 -6.6057 -9.3497 3.3822 1.3738 3.2965 10.9894
#
#
#
# Elastic Compliance Matrix: (Units=1/GPa)
#
#
# Indices 1 2 3 4 5 6 
#
# 1 0.021472 0.017225 0.000725 -0.027682 0.003823 0.029652
# 2 0.017225 0.046249 0.003865 -0.040463 0.014298 0.049283
# 3 0.000725 0.003865 0.020425 -0.016499 0.000363 -0.000608
# 4 -0.027682 -0.040463 -0.016499 0.095918 -0.011392 -0.054562
# 5 0.003823 0.014298 0.000363 -0.011392 0.031077 0.006453
# 6 0.029652 0.049283 -0.000608 -0.054562 0.006453 0.155823
#
#
# Mechanical properties :
#
#
# Convention : Reuss Voigt Hill
#
# Bulk Modulus (GPa) = 7.58857 23.45618 15.52238
# Shear Modulus (GPa) = 13.46769 28.07681 20.77225
#
# Velocity S-wave (km/s) = 2.42584 3.50259 3.01271
# Velocity P-wave (km/s) = 3.34097 5.15817 4.34562
#
# Compressibility (1/GPa) = 0.13177708
#
# Stress axis : x y z
#
# Youngs Moduli (GPa) = 46.57312 21.62195 48.96000
#
# Poissons Ratio (x) = -0.37244 -0.03552
# Poissons Ratio (y) = -0.80223 -0.18924
# Poissons Ratio (z) = -0.03379 -0.08357
#
# Static dielectric constant tensor:
#      x y z
#    x 1.858060 0.052420 0.003400 
#    y 0.052420 1.897700 0.018040 
#    z 0.003400 0.018040 1.886580 
# 
# From -- ./inp_files/418378.got.cif
#   From: 2010.05.17/outbox.cif.g08.bks.cpg/sg2_210_cif.got.tgz:418378.got - 2010.06.03 11:33:40.
