data_PCOD9088948
_publ_section_title
;
Structure prediction by ZEFSAII (Michael W. Deem and Ramdas Pophale) SiO2 
 PCOD9088948
Probable space group: P -1
;
_chemical_formula_sum "Si O2"
_cell_formula_units_Z 16
_cell_length_a 13.129741
_cell_length_b 7.382702
_cell_length_c 11.305456
_cell_angle_alpha 36.949060
_cell_angle_beta 111.613028
_cell_angle_gamma 102.265372
_cell_volume 605.803568
_symmetry_space_group_name_H-M "P -1"
_symmetry_group_IT_number 2
_symmetry_cell_setting 'triclinic'
loop_
_space_group_symop_operation_xyz
x,y,z
-x,-y,-z
loop_
_atom_site_type_symbol
_atom_site_label
_atom_site_fract_x
_atom_site_fract_y
_atom_site_fract_z
Si Si1 0.383441 0.405633 0.148778
Si Si2 0.262075 0.444191 0.696279
Si Si3 0.788300 0.883297 0.647711
Si Si4 0.512017 0.680751 0.240622
Si Si5 0.855392 0.952267 0.003757
Si Si6 0.410115 0.973648 0.694606
Si Si7 0.918364 0.792418 0.361224
Si Si8 0.943811 0.516819 0.745461
O O1 0.273093 0.253529 0.197853
O O2 0.410803 0.526875 0.228853
O O3 0.484952 0.164299 0.269658
O O4 0.380644 0.694022 0.909807
O O5 0.381476 0.506114 0.679837
O O6 0.249839 0.215423 0.920502
O O7 0.210142 0.263437 0.665961
O O8 0.190004 0.772530 0.505615
O O9 0.698794 0.918704 0.484234
O O10 0.898064 0.669385 0.766828
O O11 0.544364 0.771114 0.338197
O O12 0.500000 0.000000 0.000000
O O13 0.910610 0.001949 0.132520
O O14 0.939156 0.700974 0.101222
O O15 0.857250 0.288468 0.781024
O O16 0.945373 0.792957 0.508753
O O17 0.000000 0.500000 0.500000
#
# Coordination Sequence:
#
# PCOD9088948 Si02
#       8
#     2   2   2   2   2   2   2   2
#     4  10  23  43  59  90 133 159 208 263 299 373
#     4  10  21  39  58  89 129 154 200 264 303 357
#     4  12  24  37  61  95 127 157 207 265 305 369
#     4  10  21  38  65  89 119 168 211 244 308 375
#     4   8  20  38  61  83 121 154 206 256 295 379
#     4  10  22  42  63  84 125 171 201 252 324 354
#     4   8  17  38  61  83 116 157 201 257 296 364
#     4  10  19  37  64  87 110 163 207 246 318 359
#
# _framework density 26.411201999999999
#
# number of rings (size 3 to 8) (size 9 to 14) (size 15 to 20)
#    0.750    1.500    1.250    1.125    3.500    1.000 
#    4.500    0.000    0.000    2.250    0.000    0.000 
#    0.000    0.000    0.000    0.000    0.000    0.000 
#
# Total GULP energy -89257.995848 kJ/mol
# GULP energy per Si atom -5578.624741 kJ/mol
# Density = 2.635109 g / cm^3
# Si number density = 26.411202 Si / 1000 Ang^3
#
#
#
# Elastic Constant Matrix: (Units=GPa)
#
#
# Indices 1 2 3 4 5 6 
#
# 1 71.2122 36.6231 26.4534 -6.0226 -21.1077 -5.7297
# 2 36.6231 94.4703 22.4281 -0.8325 -6.1336 -9.5852
# 3 26.4534 22.4281 74.5058 6.3574 -8.2186 -7.3435
# 4 -6.0226 -0.8325 6.3574 34.9743 -9.4631 1.8147
# 5 -21.1077 -6.1336 -8.2186 -9.4631 33.5249 -8.8307
# 6 -5.7297 -9.5852 -7.3435 1.8147 -8.8307 35.6747
#
#
#
# Elastic Compliance Matrix: (Units=1/GPa)
#
#
# Indices 1 2 3 4 5 6 
#
# 1 0.026432 -0.007129 -0.005583 0.010044 0.018165 0.005166
# 2 -0.007129 0.013738 -0.001573 -0.001321 -0.002279 0.001725
# 3 -0.005583 -0.001573 0.016407 -0.004200 -0.000394 0.002174
# 4 0.010044 -0.001321 -0.004200 0.035154 0.015627 0.002473
# 5 0.018165 -0.002279 -0.000394 0.015627 0.048716 0.013488
# 6 0.005166 0.001725 0.002174 0.002473 0.013488 0.032985
#
#
# Mechanical properties :
#
#
# Convention : Reuss Voigt Hill
#
# Bulk Modulus (GPa) = 35.70553 45.68860 40.69706
# Shear Modulus (GPa) = 23.65892 31.14702 27.40297
#
# Velocity S-wave (km/s) = 2.99622 3.43784 3.22460
# Velocity P-wave (km/s) = 5.05156 5.75281 5.41355
#
# Compressibility (1/GPa) = 0.02800687
#
# Stress axis : x y z
#
# Youngs Moduli (GPa) = 37.83274 72.79060 60.95077
#
# Poissons Ratio (x) = 0.51896 0.34027
# Poissons Ratio (y) = 0.26973 0.09586
# Poissons Ratio (z) = 0.21121 0.11449
#
# Static dielectric constant tensor:
#      x y z
#    x 1.713570 -0.004670 -0.221380 
#    y -0.004670 2.095580 0.037400 
#    z -0.221380 0.037400 1.995760 
# 
# From -- ./inp_files/527071.got.cif
#   From: 2010.05.17/outbox.cif.g08.bks.cpg/sg2_264_cif.got.tgz:527071.got - 2010.06.03 11:33:40.
