data_PCOD9088505
_publ_section_title
;
Structure prediction by ZEFSAII (Michael W. Deem and Ramdas Pophale) SiO2 
 PCOD9088505
Probable space group: P -1
;
_chemical_formula_sum "Si O2"
_cell_formula_units_Z 14
_cell_length_a 7.116234
_cell_length_b 16.262473
_cell_length_c 10.373449
_cell_angle_alpha 154.385368
_cell_angle_beta 84.595293
_cell_angle_gamma 88.264522
_cell_volume 497.826995
_symmetry_space_group_name_H-M "P -1"
_symmetry_group_IT_number 2
_symmetry_cell_setting 'triclinic'
loop_
_space_group_symop_operation_xyz
x,y,z
-x,-y,-z
loop_
_atom_site_type_symbol
_atom_site_label
_atom_site_fract_x
_atom_site_fract_y
_atom_site_fract_z
Si Si1 0.873111 0.546807 0.406906
Si Si2 0.824680 0.125007 0.863289
Si Si3 0.800139 0.209461 0.258846
Si Si4 0.229769 0.440086 0.860473
Si Si5 0.645987 0.183501 0.507503
Si Si6 0.730869 0.898120 0.325664
Si Si7 0.618061 0.616820 0.777367
O O1 0.923332 0.304786 0.081056
O O2 0.621563 0.392527 0.483616
O O3 0.025825 0.682440 0.584852
O O4 0.772390 0.570534 0.308577
O O5 0.847790 0.067590 0.931091
O O6 0.595844 0.241594 0.021643
O O7 0.851700 0.949984 0.510274
O O8 0.729489 0.135241 0.289908
O O9 0.253922 0.379666 0.352583
O O10 0.299930 0.623342 0.169949
O O11 0.242268 0.989489 0.649024
O O12 0.000000 0.500000 0.000000
O O13 0.406902 0.245943 0.613286
O O14 0.721764 0.678534 0.983989
O O15 0.500000 0.000000 0.500000
#
# Coordination Sequence:
#
# PCOD9088505 Si02
#       7
#     2   2   2   2   2   2   2
#     4  11  20  38  62  96 127 164 220 268 308 377
#     4  10  19  37  61  90 123 166 209 261 312 378
#     4  11  22  38  67  95 122 166 223 263 311 374
#     4  11  22  37  67  99 125 159 222 268 309 369
#     4  11  23  41  67  94 128 169 210 266 321 374
#     4  10  23  40  64  90 132 166 210 258 329 385
#     4  10  21  38  63  92 127 170 212 262 320 380
#
# _framework density 28.122222000000001
#
# number of rings (size 3 to 8) (size 9 to 14) (size 15 to 20)
#    0.000    1.429    2.857    5.143    6.000    0.000 
#    0.000   10.000   12.571    0.000    0.000    0.000 
#    0.000    0.000    0.000    0.000    0.000    0.000 
#
# Total GULP energy -78390.362378 kJ/mol
# GULP energy per Si atom -5599.311598 kJ/mol
# Density = 2.805821 g / cm^3
# Si number density = 28.122222 Si / 1000 Ang^3
#
#
#
# Elastic Constant Matrix: (Units=GPa)
#
#
# Indices 1 2 3 4 5 6 
#
# 1 135.8159 40.2065 34.5165 -0.8081 7.8718 8.5098
# 2 40.2065 134.7566 41.7759 -30.7183 10.2461 2.1493
# 3 34.5165 41.7759 160.1578 -37.6831 28.1386 -11.7363
# 4 -0.8081 -30.7183 -37.6831 49.0098 -15.8336 2.0412
# 5 7.8718 10.2461 28.1386 -15.8336 45.0809 8.0636
# 6 8.5098 2.1493 -11.7363 2.0412 8.0636 48.4622
#
#
#
# Elastic Compliance Matrix: (Units=1/GPa)
#
#
# Indices 1 2 3 4 5 6 
#
# 1 0.008764 -0.002651 -0.001968 -0.003120 -0.000494 -0.001684
# 2 -0.002651 0.009710 -0.000807 0.005725 0.000868 -0.000546
# 3 -0.001968 -0.000807 0.008941 0.004972 -0.003840 0.002976
# 4 -0.003120 0.005725 0.004972 0.030012 0.006843 -0.000905
# 5 -0.000494 0.000868 -0.003840 0.006843 0.027911 -0.005814
# 6 -0.001684 -0.000546 0.002976 -0.000905 -0.005814 0.022681
#
#
# Mechanical properties :
#
#
# Convention : Reuss Voigt Hill
#
# Bulk Modulus (GPa) = 60.37850 73.74755 67.06303
# Shear Modulus (GPa) = 40.19566 49.45934 44.82750
#
# Velocity S-wave (km/s) = 3.78474 4.19827 3.99685
# Velocity P-wave (km/s) = 6.37304 7.05560 6.72299
#
# Compressibility (1/GPa) = 0.01656219
#
# Stress axis : x y z
#
# Youngs Moduli (GPa) = 114.10951 102.98945 111.84516
#
# Poissons Ratio (x) = 0.27307 0.22008
# Poissons Ratio (y) = 0.30255 0.09024
# Poissons Ratio (z) = 0.22454 0.08309
#
# Static dielectric constant tensor:
#      x y z
#    x 2.326450 0.083790 -0.072270 
#    y 0.083790 2.225310 0.023550 
#    z -0.072270 0.023550 2.397980 
# 
# From -- ./inp_files/404337.got.cif
#   From: 2010.05.17/outbox.cif.g08.bks.cpg/sg2_203_cif.got.tgz:404337.got - 2010.06.03 11:33:40.
