data_PCOD9088046
_publ_section_title
;
Structure prediction by ZEFSAII (Michael W. Deem and Ramdas Pophale) SiO2 
 PCOD9088046
Probable space group: P -1
;
_chemical_formula_sum "Si O2"
_cell_formula_units_Z 16
_cell_length_a 8.800339
_cell_length_b 17.589778
_cell_length_c 9.172296
_cell_angle_alpha 125.718712
_cell_angle_beta 80.361977
_cell_angle_gamma 138.393175
_cell_volume 663.268018
_symmetry_space_group_name_H-M "P -1"
_symmetry_group_IT_number 2
_symmetry_cell_setting 'triclinic'
loop_
_space_group_symop_operation_xyz
x,y,z
-x,-y,-z
loop_
_atom_site_type_symbol
_atom_site_label
_atom_site_fract_x
_atom_site_fract_y
_atom_site_fract_z
Si Si1 0.021166 0.754824 0.033368
Si Si2 0.333348 0.625643 0.142358
Si Si3 0.570625 0.217310 0.986220
Si Si4 0.331314 0.011799 0.050258
Si Si5 0.534956 0.604886 0.319035
Si Si6 0.983309 0.274367 0.688861
Si Si7 0.219875 0.533511 0.555313
Si Si8 0.752677 0.265248 0.490679
O O1 0.097386 0.819623 0.257473
O O2 0.081067 0.857131 0.010469
O O3 0.193730 0.742911 0.976669
O O4 0.710464 0.583056 0.893031
O O5 0.559152 0.684581 0.263906
O O6 0.200975 0.618619 0.289892
O O7 0.427968 0.746386 0.140038
O O8 0.138783 0.448312 0.910303
O O9 0.328077 0.054094 0.937062
O O10 0.625451 0.340006 0.200363
O O11 0.512504 0.160064 0.301107
O O12 0.500000 0.000000 0.000000
O O13 0.801040 0.680193 0.377780
O O14 0.416579 0.593629 0.470131
O O15 0.736597 0.178356 0.519798
O O16 0.000000 0.500000 0.500000
O O17 0.011182 0.359598 0.465159
#
# Coordination Sequence:
#
# PCOD9088046 Si02
#       8
#     2   2   2   2   2   2   2   2
#     4  10  19  37  58  87 124 157 196 245 300 352
#     4  11  20  37  62  92 119 151 204 255 294 349
#     4  11  19  34  61  90 116 148 202 260 292 340
#     4  10  22  37  58  93 123 158 198 254 296 350
#     4  11  23  37  63  88 125 162 191 247 314 358
#     4  11  23  37  60  95 125 153 197 252 311 356
#     4  12  18  34  59  91 119 149 201 254 297 348
#     4  12  21  36  65  94 116 157 205 252 299 350
#
# _framework density 24.122979999999998
#
# number of rings (size 3 to 8) (size 9 to 14) (size 15 to 20)
#    0.000    1.000    6.250    3.375    0.000    1.000 
#    0.000    0.000    0.000    9.750    0.000    0.000 
#    0.000    0.000    0.000    0.000    0.000    0.000 
#
# Total GULP energy -89192.849557 kJ/mol
# GULP energy per Si atom -5574.553097 kJ/mol
# Density = 2.406808 g / cm^3
# Si number density = 24.122980 Si / 1000 Ang^3
#
#
#
# Elastic Constant Matrix: (Units=GPa)
#
#
# Indices 1 2 3 4 5 6 
#
# 1 60.5205 31.0214 23.8538 -12.2519 3.3232 3.7954
# 2 31.0214 155.7474 25.0924 -32.7301 5.0336 -29.2331
# 3 23.8538 25.0924 63.0620 -29.3173 -16.0350 4.8970
# 4 -12.2519 -32.7301 -29.3173 35.5155 1.5243 0.5277
# 5 3.3232 5.0336 -16.0350 1.5243 23.2274 -13.8641
# 6 3.7954 -29.2331 4.8970 0.5277 -13.8641 33.8574
#
#
#
# Elastic Compliance Matrix: (Units=1/GPa)
#
#
# Indices 1 2 3 4 5 6 
#
# 1 0.026670 -0.006845 -0.016019 -0.009156 -0.022015 -0.015455
# 2 -0.006845 0.011809 0.004548 0.011682 0.009047 0.013829
# 3 -0.016019 0.004548 0.044187 0.033282 0.038272 0.014484
# 4 -0.009156 0.011682 0.033282 0.061804 0.027639 0.016654
# 5 -0.022015 0.009047 0.038272 0.027639 0.094527 0.043020
# 6 -0.015455 0.013829 0.014484 0.016654 0.043020 0.058470
#
#
# Mechanical properties :
#
#
# Convention : Reuss Voigt Hill
#
# Bulk Modulus (GPa) = 21.72305 48.80723 35.26514
# Shear Modulus (GPa) = 14.30843 31.81088 23.05966
#
# Velocity S-wave (km/s) = 2.43810 3.63533 3.09515
# Velocity P-wave (km/s) = 4.11709 6.15608 5.23678
#
# Compressibility (1/GPa) = 0.04603406
#
# Stress axis : x y z
#
# Youngs Moduli (GPa) = 37.49526 84.67774 22.63115
#
# Poissons Ratio (x) = 0.57960 0.36253
# Poissons Ratio (y) = 0.25664 -0.10292
# Poissons Ratio (z) = 0.60064 -0.38509
#
# Static dielectric constant tensor:
#      x y z
#    x 1.957000 -0.079240 -0.050050 
#    y -0.079240 2.076060 -0.003280 
#    z -0.050050 -0.003280 2.011780 
# 
# From -- ./inp_files/218272.got.cif
#   From: 2010.05.17/outbox.cif.g08.bks.cpg/sg2_110_cif.got.tgz:218272.got - 2010.06.03 11:33:40.
