data_PCOD9088683
_publ_section_title
;
Structure prediction by ZEFSAII (Michael W. Deem and Ramdas Pophale) SiO2 
 PCOD9088683
Probable space group: P -1
;
_chemical_formula_sum "Si O2"
_cell_formula_units_Z 14
_cell_length_a 12.323489
_cell_length_b 8.838706
_cell_length_c 9.124331
_cell_angle_alpha 52.773676
_cell_angle_beta 104.386519
_cell_angle_gamma 127.105715
_cell_volume 620.415582
_symmetry_space_group_name_H-M "P -1"
_symmetry_group_IT_number 2
_symmetry_cell_setting 'triclinic'
loop_
_space_group_symop_operation_xyz
x,y,z
-x,-y,-z
loop_
_atom_site_type_symbol
_atom_site_label
_atom_site_fract_x
_atom_site_fract_y
_atom_site_fract_z
Si Si1 0.143454 0.186058 0.138586
Si Si2 0.122958 0.847348 0.912577
Si Si3 0.876953 0.027803 0.476008
Si Si4 0.642910 0.763672 0.043046
Si Si5 0.548376 0.654113 0.573947
Si Si6 0.473458 0.948509 0.242471
Si Si7 0.722910 0.345953 0.908375
O O1 0.108116 0.956338 0.350943
O O2 0.215149 0.406134 0.145159
O O3 0.004027 0.157853 0.063311
O O4 0.254168 0.252083 0.013953
O O5 0.106757 0.818690 0.748344
O O6 0.263925 0.090090 0.869875
O O7 0.150513 0.664324 0.087075
O O8 0.713552 0.822318 0.528214
O O9 0.000000 0.000000 0.500000
O O10 0.514176 0.517401 0.206413
O O11 0.595211 0.910000 0.859080
O O12 0.500000 0.500000 0.500000
O O13 0.492384 0.816518 0.455705
O O14 0.379229 0.742886 0.211670
O O15 0.624881 0.142888 0.112919
#
# Coordination Sequence:
#
# PCOD9088683 Si02
#       7
#     2   2   2   2   2   2   2
#     4  11  23  38  61  93 133 161 205 273 321 363
#     4  10  20  41  64  87 124 174 213 252 316 385
#     4  10  21  37  60  90 122 161 207 255 308 368
#     4  11  24  40  64  96 127 168 210 260 324 374
#     4  12  20  39  69  92 122 169 216 254 307 388
#     4  10  21  38  63  93 125 160 213 261 309 385
#     4  10  19  37  62  92 119 162 217 261 310 372
#
# _framework density 22.565519999999999
#
# number of rings (size 3 to 8) (size 9 to 14) (size 15 to 20)
#    0.000    1.429    2.857    4.286    0.000    2.286 
#    2.571    1.429    0.000    2.571    0.000    0.000 
#    0.000    0.000    0.000    0.000    0.000    0.000 
#
# Total GULP energy -78021.185211 kJ/mol
# GULP energy per Si atom -5572.941801 kJ/mol
# Density = 2.251416 g / cm^3
# Si number density = 22.565520 Si / 1000 Ang^3
#
#
#
# Elastic Constant Matrix: (Units=GPa)
#
#
# Indices 1 2 3 4 5 6 
#
# 1 158.8960 26.4029 49.1999 -12.4056 7.8508 14.3007
# 2 26.4029 47.2443 12.4300 -18.0870 6.2551 12.3718
# 3 49.1999 12.4300 74.2600 -7.8559 10.3844 -0.4074
# 4 -12.4056 -18.0870 -7.8559 16.1664 3.3328 -6.0359
# 5 7.8508 6.2551 10.3844 3.3328 49.8143 1.7610
# 6 14.3007 12.3718 -0.4074 -6.0359 1.7610 34.6616
#
#
#
# Elastic Compliance Matrix: (Units=1/GPa)
#
#
# Indices 1 2 3 4 5 6 
#
# 1 0.008618 -0.002805 -0.005296 -0.000129 0.000200 -0.002649
# 2 -0.002805 0.042319 0.000590 0.044955 -0.007801 -0.005716
# 3 -0.005296 0.000590 0.018213 0.007583 -0.003674 0.003696
# 4 -0.000129 0.044955 0.007583 0.121174 -0.015524 0.005986
# 5 0.000200 -0.007801 -0.003674 -0.015524 0.022870 -0.001207
# 6 -0.002649 -0.005716 0.003696 0.005986 -0.001207 0.033131
#
#
# Mechanical properties :
#
#
# Convention : Reuss Voigt Hill
#
# Bulk Modulus (GPa) = 18.47499 50.71842 34.59671
# Shear Modulus (GPa) = 17.89614 32.95295 25.42455
#
# Velocity S-wave (km/s) = 2.81921 3.82556 3.36028
# Velocity P-wave (km/s) = 4.33616 6.48368 5.51545
#
# Compressibility (1/GPa) = 0.05412724
#
# Stress axis : x y z
#
# Youngs Moduli (GPa) = 116.03729 23.62994 54.90643
#
# Poissons Ratio (x) = 0.06628 0.29081
# Poissons Ratio (y) = 0.32548 -0.03240
# Poissons Ratio (z) = 0.61458 -0.01394
#
# Static dielectric constant tensor:
#      x y z
#    x 1.844020 -0.008690 0.037940 
#    y -0.008690 1.864550 -0.012570 
#    z 0.037940 -0.012570 1.926440 
# 
# From -- ./inp_files/188753.got.cif
#   From: 2010.05.17/outbox.cif.g08.bks.cpg/sg2_95_cif.got.tgz:188753.got - 2010.06.03 11:33:40.
