data_PCOD9088479
_publ_section_title
;
Structure prediction by ZEFSAII (Michael W. Deem and Ramdas Pophale) SiO2 
 PCOD9088479
Probable space group: P -1
;
_chemical_formula_sum "Si O2"
_cell_formula_units_Z 14
_cell_length_a 11.652719
_cell_length_b 9.643464
_cell_length_c 9.083413
_cell_angle_alpha 97.419117
_cell_angle_beta 39.399651
_cell_angle_gamma 74.399777
_cell_volume 520.687067
_symmetry_space_group_name_H-M "P -1"
_symmetry_group_IT_number 2
_symmetry_cell_setting 'triclinic'
loop_
_space_group_symop_operation_xyz
x,y,z
-x,-y,-z
loop_
_atom_site_type_symbol
_atom_site_label
_atom_site_fract_x
_atom_site_fract_y
_atom_site_fract_z
Si Si1 0.753225 0.216536 0.415348
Si Si2 0.505078 0.769269 0.043630
Si Si3 0.830607 0.826807 0.633539
Si Si4 0.782663 0.434688 0.191102
Si Si5 0.725528 0.772407 0.404637
Si Si6 0.289233 0.688519 0.034207
Si Si7 0.762382 0.028637 0.101629
O O1 0.599516 0.240395 0.704339
O O2 0.682205 0.371264 0.397060
O O3 0.776507 0.074434 0.262402
O O4 0.004870 0.141486 0.205021
O O5 0.500689 0.642719 0.914041
O O6 0.327890 0.964213 0.181348
O O7 0.734363 0.752143 0.828356
O O8 0.784578 0.772635 0.514926
O O9 0.084809 0.761457 0.360782
O O10 0.714863 0.616556 0.341809
O O11 0.728075 0.435886 0.073810
O O12 0.051043 0.285010 0.910949
O O13 0.473060 0.944221 0.668182
O O14 0.251643 0.829618 0.972227
#
# Coordination Sequence:
#
# PCOD9088479 Si02
#       7
#     2   2   2   2   2   2   2
#     4  10  22  37  57  94 127 150 199 266 308 341
#     4  11  21  37  59  92 123 160 198 252 312 352
#     4  10  21  35  61  90 120 161 206 251 283 385
#     4   9  22  41  65  87 124 159 206 260 290 367
#     4  10  20  41  65  90 115 169 215 232 303 376
#     4  10  19  37  61  89 117 162 206 244 296 368
#     4  10  20  37  61  89 120 154 206 249 301 353
#
# _framework density 26.887551999999999
#
# number of rings (size 3 to 8) (size 9 to 14) (size 15 to 20)
#    0.000    2.000    2.857    0.429    2.000    2.857 
#    2.571    0.714    0.000    2.571    0.000    0.000 
#    0.000    0.000    0.000    0.000    0.000    0.000 
#
# Total GULP energy -78300.853148 kJ/mol
# GULP energy per Si atom -5592.918082 kJ/mol
# Density = 2.682635 g / cm^3
# Si number density = 26.887552 Si / 1000 Ang^3
#
#
#
# Elastic Constant Matrix: (Units=GPa)
#
#
# Indices 1 2 3 4 5 6 
#
# 1 90.0793 25.6513 51.9424 -7.2578 7.1379 22.7944
# 2 25.6513 73.2012 27.3934 -15.7724 7.8417 9.2881
# 3 51.9424 27.3934 166.9032 -35.5459 -30.7968 -6.7436
# 4 -7.2578 -15.7724 -35.5459 44.1577 3.9113 0.1279
# 5 7.1379 7.8417 -30.7968 3.9113 62.2175 9.9567
# 6 22.7944 9.2881 -6.7436 0.1279 9.9567 34.5331
#
#
#
# Elastic Compliance Matrix: (Units=1/GPa)
#
#
# Indices 1 2 3 4 5 6 
#
# 1 0.019304 -0.002804 -0.007398 -0.003454 -0.003311 -0.012465
# 2 -0.002804 0.016710 -0.001433 0.004575 -0.002423 -0.002242
# 3 -0.007398 -0.001433 0.011171 0.006788 0.005183 0.005930
# 4 -0.003454 0.004575 0.006788 0.029079 0.001037 0.001969
# 5 -0.003311 -0.002423 0.005183 0.001037 0.019545 -0.001790
# 6 -0.012465 -0.002242 0.005930 0.001969 -0.001790 0.039455
#
#
# Mechanical properties :
#
#
# Convention : Reuss Voigt Hill
#
# Bulk Modulus (GPa) = 41.81588 60.01753 50.91670
# Shear Modulus (GPa) = 30.02936 43.19476 36.61206
#
# Velocity S-wave (km/s) = 3.34556 4.01246 3.69409
# Velocity P-wave (km/s) = 5.52355 6.62092 6.09697
#
# Compressibility (1/GPa) = 0.02391436
#
# Stress axis : x y z
#
# Youngs Moduli (GPa) = 51.80334 59.84590 89.52130
#
# Poissons Ratio (x) = 0.16782 0.66224
# Poissons Ratio (y) = 0.14526 0.12829
# Poissons Ratio (z) = 0.38322 0.08576
#
# Static dielectric constant tensor:
#      x y z
#    x 2.127600 0.022580 -0.055140 
#    y 0.022580 2.164380 0.064290 
#    z -0.055140 0.064290 2.112680 
# 
# From -- ./inp_files/258777.got.cif
#   From: 2010.05.17/outbox.cif.g08.bks.cpg/sg2_130_cif.got.tgz:258777.got - 2010.06.03 11:33:40.
