data_PCOD9088329
_publ_section_title
;
Structure prediction by ZEFSAII (Michael W. Deem and Ramdas Pophale) SiO2 
 PCOD9088329
Probable space group: P -1
;
_chemical_formula_sum "Si O2"
_cell_formula_units_Z 14
_cell_length_a 5.308689
_cell_length_b 15.202797
_cell_length_c 7.573782
_cell_angle_alpha 69.162659
_cell_angle_beta 62.415056
_cell_angle_gamma 89.872148
_cell_volume 496.500206
_symmetry_space_group_name_H-M "P -1"
_symmetry_group_IT_number 2
_symmetry_cell_setting 'triclinic'
loop_
_space_group_symop_operation_xyz
x,y,z
-x,-y,-z
loop_
_atom_site_type_symbol
_atom_site_label
_atom_site_fract_x
_atom_site_fract_y
_atom_site_fract_z
Si Si1 0.709381 0.574162 0.500707
Si Si2 0.383418 0.737453 0.456074
Si Si3 0.717122 0.315230 0.861248
Si Si4 0.694825 0.969133 0.797323
Si Si5 0.828159 0.857887 0.403817
Si Si6 0.881068 0.139055 0.078749
Si Si7 0.791085 0.658565 0.772488
O O1 0.500000 0.500000 0.500000
O O2 0.640035 0.678666 0.401566
O O3 0.679444 0.578186 0.719038
O O4 0.045340 0.590330 0.326054
O O5 0.312028 0.745258 0.268285
O O6 0.493649 0.834768 0.457906
O O7 0.129565 0.663158 0.688625
O O8 0.815030 0.245941 0.024621
O O9 0.422418 0.344320 0.995589
O O10 0.439779 0.930233 0.766308
O O11 0.870142 0.885775 0.857879
O O12 0.969573 0.056179 0.620117
O O13 0.500000 0.000000 0.000000
O O14 0.820685 0.763942 0.594872
O O15 0.979923 0.872057 0.151334
#
# Coordination Sequence:
#
# PCOD9088329 Si02
#       7
#     2   2   2   2   2   2   2
#     4  10  23  44  69  93 126 165 212 268 333 409
#     4  10  20  41  65  89 128 169 216 263 336 395
#     4  11  23  40  64  94 132 167 216 273 332 399
#     4  10  22  33  64  96 129 179 237 280 331 389
#     4  10  19  37  60  90 126 170 221 267 319 388
#     4  11  20  37  61  97 129 179 231 280 333 393
#     4  10  23  39  63  96 127 170 216 263 338 394
#
# _framework density 28.197371
#
# number of rings (size 3 to 8) (size 9 to 14) (size 15 to 20)
#    0.000    1.714    4.286    2.571    4.000    5.143 
#    0.000    2.857    0.000    0.000    0.000    0.000 
#    0.000    0.000    0.000    0.000    0.000    0.000 
#
# Total GULP energy -78271.049054 kJ/mol
# GULP energy per Si atom -5590.789218 kJ/mol
# Density = 2.813319 g / cm^3
# Si number density = 28.197371 Si / 1000 Ang^3
#
#
#
# Elastic Constant Matrix: (Units=GPa)
#
#
# Indices 1 2 3 4 5 6 
#
# 1 144.0080 53.2592 46.7463 14.4339 -36.4144 31.5983
# 2 53.2592 131.6488 47.2753 3.5066 -4.8124 49.1092
# 3 46.7463 47.2753 124.4136 20.7659 -31.4437 25.0698
# 4 14.4339 3.5066 20.7659 49.0261 3.1031 -0.1396
# 5 -36.4144 -4.8124 -31.4437 3.1031 54.3437 -12.5939
# 6 31.5983 49.1092 25.0698 -0.1396 -12.5939 67.8699
#
#
#
# Elastic Compliance Matrix: (Units=1/GPa)
#
#
# Indices 1 2 3 4 5 6 
#
# 1 0.010496 -0.003417 -0.000248 -0.003156 0.006507 -0.001122
# 2 -0.003417 0.012771 -0.003736 0.001977 -0.005105 -0.007214
# 3 -0.000248 -0.003736 0.012235 -0.005272 0.006778 -0.000454
# 4 -0.003156 0.001977 -0.005272 0.023810 -0.006142 0.000895
# 5 0.006507 -0.005105 0.006778 -0.006142 0.027328 0.003219
# 6 -0.001122 -0.007214 -0.000454 0.000895 0.003219 0.021243
#
#
# Mechanical properties :
#
#
# Convention : Reuss Voigt Hill
#
# Bulk Modulus (GPa) = 48.30589 77.18132 62.74361
# Shear Modulus (GPa) = 38.58482 51.10058 44.84270
#
# Velocity S-wave (km/s) = 3.70318 4.26167 3.99220
# Velocity P-wave (km/s) = 5.95426 7.18658 6.59925
#
# Compressibility (1/GPa) = 0.02070141
#
# Stress axis : x y z
#
# Youngs Moduli (GPa) = 95.27305 78.29996 81.73285
#
# Poissons Ratio (x) = 0.26754 0.02027
# Poissons Ratio (y) = 0.32553 0.30533
# Poissons Ratio (z) = 0.02363 0.29251
#
# Static dielectric constant tensor:
#      x y z
#    x 2.429470 0.002110 -0.027020 
#    y 0.002110 2.251750 0.010620 
#    z -0.027020 0.010620 2.197760 
# 
# From -- ./inp_files/134890.got.cif
#   From: 2010.05.17/outbox.cif.g08.bks.cpg/sg2_68_cif.got.tgz:134890.got - 2010.06.03 11:33:40.
