data_PCOD9088063
_publ_section_title
;
Structure prediction by ZEFSAII (Michael W. Deem and Ramdas Pophale) SiO2 
 PCOD9088063
Probable space group: P -1
;
_chemical_formula_sum "Si O2"
_cell_formula_units_Z 14
_cell_length_a 13.600510
_cell_length_b 13.555813
_cell_length_c 11.127835
_cell_angle_alpha 42.524029
_cell_angle_beta 115.930646
_cell_angle_gamma 147.986117
_cell_volume 626.264639
_symmetry_space_group_name_H-M "P -1"
_symmetry_group_IT_number 2
_symmetry_cell_setting 'triclinic'
loop_
_space_group_symop_operation_xyz
x,y,z
-x,-y,-z
loop_
_atom_site_type_symbol
_atom_site_label
_atom_site_fract_x
_atom_site_fract_y
_atom_site_fract_z
Si Si1 0.682955 0.039569 0.518613
Si Si2 0.746768 0.738516 0.447109
Si Si3 0.844524 0.910918 0.082558
Si Si4 0.512717 0.073834 0.235065
Si Si5 0.605023 0.630015 0.808375
Si Si6 0.083608 0.659403 0.273818
Si Si7 0.143782 0.335637 0.216664
O O1 0.531296 0.937313 0.428037
O O2 0.906192 0.388718 0.332151
O O3 0.561757 0.916470 0.694866
O O4 0.725244 0.922945 0.612964
O O5 0.500000 0.500000 0.500000
O O6 0.854244 0.855366 0.269369
O O7 0.778012 0.629845 0.641787
O O8 0.885695 0.021074 0.341602
O O9 0.598941 0.610821 0.174227
O O10 0.907993 0.155713 0.895538
O O11 0.000000 0.000000 0.000000
O O12 0.330407 0.886611 0.204101
O O13 0.739264 0.385232 0.018359
O O14 0.754395 0.670402 0.811516
O O15 0.500000 0.500000 0.000000
O O16 0.000000 0.500000 0.500000
#
# Coordination Sequence:
#
# PCOD9088063 Si02
#       7
#     2   2   2   2   2   2   2
#     4  10  22  33  60  90 137 162 206 259 325 376
#     4  11  23  42  63  96 128 170 212 266 326 381
#     4  12  25  39  68  99 130 162 221 273 316 376
#     4  10  19  37  58  90 121 177 208 253 318 389
#     4  12  21  39  60 100 132 160 210 276 312 366
#     4  10  20  38  56  88 131 168 203 256 322 381
#     4  11  22  40  68  89 126 172 219 262 316 384
#
# _framework density 22.354766999999999
#
# number of rings (size 3 to 8) (size 9 to 14) (size 15 to 20)
#    0.000    1.143    4.286    2.571    6.000    0.000 
#    0.000    0.000    0.000   10.286    0.000    0.000 
#    0.000    0.000    0.000    0.000    0.000    0.000 
#
# Total GULP energy -78217.848382 kJ/mol
# GULP energy per Si atom -5586.989170 kJ/mol
# Density = 2.230389 g / cm^3
# Si number density = 22.354767 Si / 1000 Ang^3
#
#
#
# Elastic Constant Matrix: (Units=GPa)
#
#
# Indices 1 2 3 4 5 6 
#
# 1 43.0179 15.9784 9.1773 9.0664 3.3072 1.5263
# 2 15.9784 129.8222 43.7243 -2.0341 -5.1218 13.0689
# 3 9.1773 43.7243 108.5070 11.0026 -4.2901 -7.8870
# 4 9.0664 -2.0341 11.0026 45.9578 -9.8810 -11.0914
# 5 3.3072 -5.1218 -4.2901 -9.8810 30.9460 -4.0886
# 6 1.5263 13.0689 -7.8870 -11.0914 -4.0886 26.1861
#
#
#
# Elastic Compliance Matrix: (Units=1/GPa)
#
#
# Indices 1 2 3 4 5 6 
#
# 1 0.026823 -0.002901 -0.000915 -0.007747 -0.006568 -0.004698
# 2 -0.002901 0.010129 -0.004301 0.000882 0.000923 -0.005664
# 3 -0.000915 -0.004301 0.011592 -0.001200 0.001322 0.005389
# 4 -0.007747 0.000882 -0.001200 0.029621 0.012127 0.014090
# 5 -0.006568 0.000923 0.001322 0.012127 0.038745 0.011506
# 6 -0.004698 -0.005664 0.005389 0.014090 0.011506 0.050676
#
#
# Mechanical properties :
#
#
# Convention : Reuss Voigt Hill
#
# Bulk Modulus (GPa) = 30.94977 46.56746 38.75861
# Shear Modulus (GPa) = 25.69503 34.78246 30.23874
#
# Velocity S-wave (km/s) = 3.39399 3.94881 3.68186
# Velocity P-wave (km/s) = 5.40682 6.45501 5.95403
#
# Compressibility (1/GPa) = 0.03231042
#
# Stress axis : x y z
#
# Youngs Moduli (GPa) = 37.28126 98.72893 86.26515
#
# Poissons Ratio (x) = 0.28637 0.07897
# Poissons Ratio (y) = 0.10814 0.37101
# Poissons Ratio (z) = 0.03413 0.42461
#
# Static dielectric constant tensor:
#      x y z
#    x 1.798050 0.115080 -0.088230 
#    y 0.115080 1.694380 -0.014920 
#    z -0.088230 -0.014920 1.882430 
# 
# From -- ./inp_files/455481.got.cif
#   From: 2010.05.17/outbox.cif.g08.bks.cpg/sg2_228_cif.got.tgz:455481.got - 2010.06.03 11:33:40.
