data_PCOD9088303
_publ_section_title
;
Structure prediction by ZEFSAII (Michael W. Deem and Ramdas Pophale) SiO2 
 PCOD9088303
Probable space group: P -1
;
_chemical_formula_sum "Si O2"
_cell_formula_units_Z 16
_cell_length_a 9.022693
_cell_length_b 13.047077
_cell_length_c 9.030067
_cell_angle_alpha 115.074552
_cell_angle_beta 70.367007
_cell_angle_gamma 63.869804
_cell_volume 662.249937
_symmetry_space_group_name_H-M "P -1"
_symmetry_group_IT_number 2
_symmetry_cell_setting 'triclinic'
loop_
_space_group_symop_operation_xyz
x,y,z
-x,-y,-z
loop_
_atom_site_type_symbol
_atom_site_label
_atom_site_fract_x
_atom_site_fract_y
_atom_site_fract_z
Si Si1 0.579750 0.307420 0.787531
Si Si2 0.357618 0.970781 0.467179
Si Si3 0.630025 0.856076 0.030108
Si Si4 0.981647 0.498883 0.327907
Si Si5 0.695453 0.068540 0.048371
Si Si6 0.066968 0.920168 0.266164
Si Si7 0.762340 0.435886 0.739404
Si Si8 0.561050 0.595557 0.587402
O O1 0.560512 0.198707 0.644325
O O2 0.696255 0.237176 0.865485
O O3 0.736839 0.315481 0.655255
O O4 0.359501 0.473176 0.011060
O O5 0.500000 0.000000 0.500000
O O6 0.415029 0.959871 0.267702
O O7 0.118943 0.082712 0.686220
O O8 0.813953 0.675462 0.903129
O O9 0.528478 0.858908 0.913986
O O10 0.736909 0.928186 0.028907
O O11 0.008842 0.616594 0.347085
O O12 0.000000 0.500000 0.500000
O O13 0.761058 0.545654 0.395215
O O14 0.626446 0.217981 0.245348
O O15 0.888290 0.015051 0.842115
O O16 0.000000 0.000000 0.500000
O O17 0.650507 0.539474 0.691954
O O18 0.500000 0.500000 0.500000
#
# Coordination Sequence:
#
# PCOD9088303 Si02
#       8
#     2   2   2   2   2   2   2   2
#     4  10  19  37  61  81 110 151 199 239 282 348
#     4  11  23  39  59  89 127 155 190 247 307 358
#     4  11  21  39  64  91 119 155 205 252 293 355
#     4  10  19  37  60  88 114 156 200 241 296 351
#     4  11  21  39  64  91 119 155 205 252 293 355
#     4  10  19  37  60  88 114 156 200 241 296 351
#     4  10  19  37  61  81 110 151 199 239 282 348
#     4  11  23  39  59  89 127 155 190 247 307 358
#
# _framework density 24.160062
#
# number of rings (size 3 to 8) (size 9 to 14) (size 15 to 20)
#    0.000    1.500    7.500    0.000    0.000    7.000 
#    0.000    1.250    0.000    3.000    0.000    0.000 
#    0.000    0.000    0.000    0.000    0.000    0.000 
#
# Total GULP energy -89087.602220 kJ/mol
# GULP energy per Si atom -5567.975139 kJ/mol
# Density = 2.410507 g / cm^3
# Si number density = 24.160062 Si / 1000 Ang^3
#
#
#
# Elastic Constant Matrix: (Units=GPa)
#
#
# Indices 1 2 3 4 5 6 
#
# 1 128.3115 39.0246 40.3076 1.1363 -6.3786 64.5145
# 2 39.0246 106.1133 20.1936 -4.4046 -0.0584 56.5788
# 3 40.3076 20.1936 79.7916 0.9699 -13.9412 23.4746
# 4 1.1363 -4.4046 0.9699 29.5103 18.8492 -1.9103
# 5 -6.3786 -0.0584 -13.9412 18.8492 29.9769 -6.0076
# 6 64.5145 56.5788 23.4746 -1.9103 -6.0076 60.9633
#
#
#
# Elastic Compliance Matrix: (Units=1/GPa)
#
#
# Indices 1 2 3 4 5 6 
#
# 1 0.020869 0.008558 -0.005216 0.001917 -0.004873 -0.028439
# 2 0.008558 0.023430 -0.003358 0.008360 -0.011031 -0.030334
# 3 -0.005216 -0.003358 0.017650 -0.009346 0.013546 0.002882
# 4 0.001917 0.008360 -0.009346 0.064215 -0.046047 -0.008714
# 5 -0.004873 -0.011031 0.013546 -0.046047 0.070701 0.015703
# 6 -0.028439 -0.030334 0.002882 -0.008714 0.015703 0.074815
#
#
# Mechanical properties :
#
#
# Convention : Reuss Voigt Hill
#
# Bulk Modulus (GPa) = 16.15050 57.02977 36.59014
# Shear Modulus (GPa) = 17.10270 38.40282 27.75276
#
# Velocity S-wave (km/s) = 2.66351 3.99120 3.39293
# Velocity P-wave (km/s) = 4.01974 6.70043 5.52513
#
# Compressibility (1/GPa) = 0.06191757
#
# Stress axis : x y z
#
# Youngs Moduli (GPa) = 47.91805 42.68006 56.65722
#
# Poissons Ratio (x) = -0.36526 0.29553
# Poissons Ratio (y) = -0.41008 0.19023
# Poissons Ratio (z) = 0.24995 0.14330
#
# Static dielectric constant tensor:
#      x y z
#    x 2.050000 -0.032950 -0.029340 
#    y -0.032950 2.118050 0.009730 
#    z -0.029340 0.009730 2.042810 
# 
# From -- ./inp_files/396324.got.cif
#   From: 2010.05.17/outbox.cif.g08.bks.cpg/sg2_199_cif.got.tgz:396324.got - 2010.06.03 11:33:40.
