data_PCOD9088829
_publ_section_title
;
Structure prediction by ZEFSAII (Michael W. Deem and Ramdas Pophale) SiO2 
 PCOD9088829
Probable space group: P -1
;
_chemical_formula_sum "Si O2"
_cell_formula_units_Z 16
_cell_length_a 9.202106
_cell_length_b 8.894173
_cell_length_c 14.808341
_cell_angle_alpha 70.704431
_cell_angle_beta 138.461074
_cell_angle_gamma 115.527562
_cell_volume 725.183584
_symmetry_space_group_name_H-M "P -1"
_symmetry_group_IT_number 2
_symmetry_cell_setting 'triclinic'
loop_
_space_group_symop_operation_xyz
x,y,z
-x,-y,-z
loop_
_atom_site_type_symbol
_atom_site_label
_atom_site_fract_x
_atom_site_fract_y
_atom_site_fract_z
Si Si1 0.629529 0.521665 0.462082
Si Si2 0.743305 0.571079 0.826091
Si Si3 0.319385 0.957330 0.087284
Si Si4 0.905852 0.753793 0.049344
Si Si5 0.897386 0.484053 0.255578
Si Si6 0.222667 0.115589 0.631883
Si Si7 0.790344 0.276116 0.088216
Si Si8 0.387964 0.339245 0.814548
O O1 0.500000 0.500000 0.500000
O O2 0.447753 0.400209 0.334558
O O3 0.692564 0.714722 0.421951
O O4 0.863536 0.476574 0.589885
O O5 0.602803 0.389090 0.833462
O O6 0.981878 0.599668 0.879602
O O7 0.789176 0.673626 0.918103
O O8 0.577541 0.970898 0.236023
O O9 0.161300 0.845465 0.114767
O O10 0.263643 0.880386 0.974567
O O11 0.228113 0.117149 0.010761
O O12 0.902205 0.621604 0.152508
O O13 0.864306 0.310655 0.220534
O O14 0.710655 0.511395 0.233242
O O15 0.197385 0.192549 0.705300
O O16 0.000000 0.000000 0.500000
O O17 0.539173 0.304008 0.972561
#
# Coordination Sequence:
#
# PCOD9088829 Si02
#       8
#     2   2   2   2   2   2   2   2
#     4  11  23  41  66 100 123 166 224 272 309 386
#     4  10  20  37  66  88 124 167 216 262 317 379
#     4   9  21  40  63  89 123 173 216 255 317 399
#     4  10  21  38  65  95 124 161 216 274 319 369
#     4  12  23  37  63 100 131 155 215 279 321 363
#     4  10  23  44  63  87 137 180 208 250 341 400
#     4  10  19  37  63  90 120 165 215 261 314 375
#     4  10  22  37  60  96 122 163 214 269 315 377
#
# _framework density 22.063376999999999
#
# number of rings (size 3 to 8) (size 9 to 14) (size 15 to 20)
#    0.000    1.750    2.500    1.500    3.500    4.000 
#    2.250    1.250    0.000    4.500    0.000    0.000 
#    0.000    0.000    0.000    0.000    0.000    0.000 
#
# Total GULP energy -89071.719906 kJ/mol
# GULP energy per Si atom -5566.982494 kJ/mol
# Density = 2.201316 g / cm^3
# Si number density = 22.063377 Si / 1000 Ang^3
#
#
#
# Elastic Constant Matrix: (Units=GPa)
#
#
# Indices 1 2 3 4 5 6 
#
# 1 96.8035 36.9926 48.0929 -1.2236 26.6410 -5.0685
# 2 36.9926 74.7990 39.4787 6.2795 11.0232 -8.0908
# 3 48.0929 39.4787 165.6501 22.8246 15.6492 -16.3080
# 4 -1.2236 6.2795 22.8246 33.1263 -0.1391 2.8223
# 5 26.6410 11.0232 15.6492 -0.1391 29.0907 -6.7732
# 6 -5.0685 -8.0908 -16.3080 2.8223 -6.7732 43.6775
#
#
#
# Elastic Compliance Matrix: (Units=1/GPa)
#
#
# Indices 1 2 3 4 5 6 
#
# 1 0.017600 -0.005669 -0.003387 0.004219 -0.012713 -0.002516
# 2 -0.005669 0.017658 -0.002052 -0.002314 0.000061 0.002006
# 3 -0.003387 -0.002052 0.008611 -0.005909 -0.000129 0.002804
# 4 0.004219 -0.002314 -0.005909 0.035236 -0.000695 -0.004530
# 5 -0.012713 0.000061 -0.000129 -0.000695 0.047432 0.005888
# 6 -0.002516 0.002006 0.002804 -0.004530 0.005888 0.025227
#
#
# Mechanical properties :
#
#
# Convention : Reuss Voigt Hill
#
# Bulk Modulus (GPa) = 46.18180 65.15343 55.66761
# Shear Modulus (GPa) = 27.59405 35.35814 31.47609
#
# Velocity S-wave (km/s) = 3.54032 4.00756 3.78116
# Velocity P-wave (km/s) = 6.13911 7.14201 6.65946
#
# Compressibility (1/GPa) = 0.02165355
#
# Stress axis : x y z
#
# Youngs Moduli (GPa) = 56.81968 56.63063 116.12411
#
# Poissons Ratio (x) = 0.32107 0.39326
# Poissons Ratio (y) = 0.32214 0.23827
# Poissons Ratio (z) = 0.19242 0.11620
#
# Static dielectric constant tensor:
#      x y z
#    x 1.892610 0.072070 -0.013140 
#    y 0.072070 1.940660 -0.002970 
#    z -0.013140 -0.002970 1.951440 
# 
# From -- ./inp_files/495000.got.cif
#   From: 2010.05.17/outbox.cif.g08.bks.cpg/sg2_248_cif.got.tgz:495000.got - 2010.06.03 11:33:40.
