data_PCOD9088707
_publ_section_title
;
Structure prediction by ZEFSAII (Michael W. Deem and Ramdas Pophale) SiO2 
 PCOD9088707
Probable space group: P -1
;
_chemical_formula_sum "Si O2"
_cell_formula_units_Z 16
_cell_length_a 8.800193
_cell_length_b 11.038709
_cell_length_c 14.253493
_cell_angle_alpha 83.880699
_cell_angle_beta 139.588751
_cell_angle_gamma 119.252517
_cell_volume 691.517299
_symmetry_space_group_name_H-M "P -1"
_symmetry_group_IT_number 2
_symmetry_cell_setting 'triclinic'
loop_
_space_group_symop_operation_xyz
x,y,z
-x,-y,-z
loop_
_atom_site_type_symbol
_atom_site_label
_atom_site_fract_x
_atom_site_fract_y
_atom_site_fract_z
Si Si1 0.230249 0.938068 0.684853
Si Si2 0.169501 0.361006 0.237366
Si Si3 0.317844 0.620684 0.434809
Si Si4 0.612811 0.818865 0.402896
Si Si5 0.310861 0.132668 0.078900
Si Si6 0.220968 0.514025 0.678885
Si Si7 0.604988 0.418670 0.837811
Si Si8 0.511157 0.193236 0.958638
O O1 0.254985 0.014602 0.590273
O O2 0.328476 0.062054 0.803579
O O3 0.446196 0.894518 0.786509
O O4 0.875104 0.804470 0.544992
O O5 0.272170 0.500542 0.345636
O O6 0.426222 0.342211 0.374757
O O7 0.171929 0.416098 0.127703
O O8 0.824601 0.219807 0.115945
O O9 0.442086 0.775954 0.422783
O O10 0.990152 0.542904 0.325602
O O11 0.417557 0.698272 0.237462
O O12 0.474162 0.308676 0.177009
O O13 0.317904 0.142513 0.967135
O O14 0.000000 0.000000 0.000000
O O15 0.307067 0.404594 0.704913
O O16 0.000000 0.500000 0.500000
O O17 0.623579 0.359358 0.952497
#
# Coordination Sequence:
#
# PCOD9088707 Si02
#       8
#     2   2   2   2   2   2   2   2
#     4  10  22  41  67  86 129 168 209 254 308 383
#     4  10  19  37  62  95 120 151 206 261 311 360
#     4  10  20  36  66  91 120 157 207 268 308 355
#     4   9  20  41  65  99 117 158 216 266 306 360
#     4  12  28  44  59  90 135 173 206 251 320 388
#     4  12  24  42  64  94 126 167 208 262 319 375
#     4  10  22  38  66  94 128 155 205 266 317 365
#     4  11  23  42  63  92 124 167 211 256 314 371
#
# _framework density 23.137525
#
# number of rings (size 3 to 8) (size 9 to 14) (size 15 to 20)
#    0.000    1.500    2.500    2.250    3.500    2.500 
#    0.000    0.000    0.000    6.000    0.000    0.000 
#    0.000    0.000    0.000    0.000    0.000    0.000 
#
# Total GULP energy -89282.267147 kJ/mol
# GULP energy per Si atom -5580.141697 kJ/mol
# Density = 2.308486 g / cm^3
# Si number density = 23.137525 Si / 1000 Ang^3
#
#
#
# Elastic Constant Matrix: (Units=GPa)
#
#
# Indices 1 2 3 4 5 6 
#
# 1 105.3801 42.0240 24.5133 2.3354 12.8319 36.3233
# 2 42.0240 66.1848 15.9522 -7.1839 -1.9263 33.2420
# 3 24.5133 15.9522 89.9767 -0.7374 3.8124 16.6065
# 4 2.3354 -7.1839 -0.7374 36.2585 0.9558 6.2119
# 5 12.8319 -1.9263 3.8124 0.9558 28.9627 3.6138
# 6 36.3233 33.2420 16.6065 6.2119 3.6138 45.5507
#
#
#
# Elastic Compliance Matrix: (Units=1/GPa)
#
#
# Indices 1 2 3 4 5 6 
#
# 1 0.015430 -0.006542 -0.001627 -0.001080 -0.006236 -0.006294
# 2 -0.006542 0.029623 -0.000349 0.009199 0.006866 -0.018073
# 3 -0.001627 -0.000349 0.012196 0.000805 -0.000565 -0.002959
# 4 -0.001080 0.009199 0.000805 0.031255 0.001264 -0.010508
# 5 -0.006236 0.006866 -0.000565 0.001264 0.038158 -0.003032
# 6 -0.006294 -0.018073 -0.002959 -0.010508 -0.003032 0.042915
#
#
# Mechanical properties :
#
#
# Convention : Reuss Voigt Hill
#
# Bulk Modulus (GPa) = 24.86823 47.39117 36.12970
# Shear Modulus (GPa) = 24.99781 34.09120 29.54451
#
# Velocity S-wave (km/s) = 3.29051 3.84267 3.57726
# Velocity P-wave (km/s) = 5.02075 6.34153 5.71940
#
# Compressibility (1/GPa) = 0.04021195
#
# Stress axis : x y z
#
# Youngs Moduli (GPa) = 64.80973 33.75720 81.99544
#
# Poissons Ratio (x) = 0.22085 0.13338
# Poissons Ratio (y) = 0.42401 0.02865
# Poissons Ratio (z) = 0.10542 0.01180
#
# Static dielectric constant tensor:
#      x y z
#    x 1.906930 0.049840 -0.005950 
#    y 0.049840 1.939170 -0.027860 
#    z -0.005950 -0.027860 1.895320 
# 
# From -- ./inp_files/499137.got.cif
#   From: 2010.05.17/outbox.cif.g08.bks.cpg/sg2_250_cif.got.tgz:499137.got - 2010.06.03 11:33:40.
