data_PCOD9088512
_publ_section_title
;
Structure prediction by ZEFSAII (Michael W. Deem and Ramdas Pophale) SiO2 
 PCOD9088512
Probable space group: P -1
;
_chemical_formula_sum "Si O2"
_cell_formula_units_Z 15
_cell_length_a 18.188325
_cell_length_b 22.673738
_cell_length_c 10.810989
_cell_angle_alpha 38.141374
_cell_angle_beta 147.761751
_cell_angle_gamma 163.841914
_cell_volume 651.676231
_symmetry_space_group_name_H-M "P -1"
_symmetry_group_IT_number 2
_symmetry_cell_setting 'triclinic'
loop_
_space_group_symop_operation_xyz
x,y,z
-x,-y,-z
loop_
_atom_site_type_symbol
_atom_site_label
_atom_site_fract_x
_atom_site_fract_y
_atom_site_fract_z
Si Si1 0.283098 0.727446 0.187639
Si Si2 0.068719 0.264319 0.717919
Si Si3 0.726194 0.656830 0.871645
Si Si4 0.600373 0.685760 0.186073
Si Si5 0.000000 0.000000 0.000000
Si Si6 0.782364 0.906683 0.506448
Si Si7 0.460741 0.951810 0.818058
Si Si8 0.566403 0.255268 0.968309
O O1 0.539758 0.801591 0.433752
O O2 0.326161 0.829474 0.191736
O O3 0.361160 0.834058 0.996599
O O4 0.934500 0.473146 0.106778
O O5 0.399719 0.481749 0.763266
O O6 0.827319 0.179560 0.443481
O O7 0.106856 0.304981 0.851550
O O8 0.971033 0.093769 0.848431
O O9 0.638591 0.545921 0.806379
O O10 0.871356 0.851333 0.740283
O O11 0.455084 0.686253 0.045597
O O12 0.754871 0.813558 0.066772
O O13 0.897216 0.837216 0.441489
O O14 0.606506 0.804139 0.296141
O O15 0.579396 0.941496 0.913579
#
# Coordination Sequence:
#
# PCOD9088512 Si02
#       8
#     2   2   2   2   1   2   2   2
#     4  10  21  39  65  95 124 165 205 255 312 375
#     4  10  19  37  61  91 117 159 211 259 296 365
#     4  10  21  35  61  92 120 156 209 258 302 364
#     4  11  24  41  62  93 125 164 210 261 311 363
#     4  10  20  40  64  84 120 162 210 250 304 364
#     4  11  21  40  67  92 123 163 207 256 312 372
#     4  10  21  39  64  89 129 166 207 246 313 380
#     4  11  24  40  61  96 129 161 204 261 316 366
#
# _framework density 23.017565999999999
#
# number of rings (size 3 to 8) (size 9 to 14) (size 15 to 20)
#    0.000    1.600    1.333    5.200    0.000    3.733 
#    2.400    1.333    0.000    0.000    0.000    0.000 
#    0.000    0.000    0.000    0.000    0.000    0.000 
#
# Total GULP energy -83562.824865 kJ/mol
# GULP energy per Si atom -5570.854991 kJ/mol
# Density = 2.296518 g / cm^3
# Si number density = 23.017566 Si / 1000 Ang^3
#
#
#
# Elastic Constant Matrix: (Units=GPa)
#
#
# Indices 1 2 3 4 5 6 
#
# 1 109.4629 27.9488 14.5797 -0.3778 17.7205 -37.6810
# 2 27.9488 82.5935 15.0061 -0.1141 3.2368 -30.1338
# 3 14.5797 15.0061 43.9596 8.1511 8.5494 -21.6439
# 4 -0.3778 -0.1141 8.1511 26.6426 -4.6155 2.9720
# 5 17.7205 3.2368 8.5494 -4.6155 21.6683 -2.3383
# 6 -37.6810 -30.1338 -21.6439 2.9720 -2.3383 44.3233
#
#
#
# Elastic Compliance Matrix: (Units=1/GPa)
#
#
# Indices 1 2 3 4 5 6 
#
# 1 0.016771 -0.000025 0.007478 -0.006812 -0.016225 0.017493
# 2 -0.000025 0.016202 0.000772 -0.001758 -0.001849 0.011391
# 3 0.007478 0.000772 0.041856 -0.019914 -0.024031 0.027388
# 4 -0.006812 -0.001758 -0.019914 0.049471 0.022193 -0.018857
# 5 -0.016225 -0.001849 -0.024031 0.022193 0.071259 -0.024515
# 6 0.017493 0.011391 0.027388 -0.018857 -0.024515 0.058522
#
#
# Mechanical properties :
#
#
# Convention : Reuss Voigt Hill
#
# Bulk Modulus (GPa) = 10.95570 39.00945 24.98258
# Shear Modulus (GPa) = 18.65276 30.42561 24.53918
#
# Velocity S-wave (km/s) = 2.84979 3.63966 3.26867
# Velocity P-wave (km/s) = 3.94949 5.88620 5.01227
#
# Compressibility (1/GPa) = 0.09127667
#
# Stress axis : x y z
#
# Youngs Moduli (GPa) = 59.62814 61.72199 23.89156
#
# Poissons Ratio (x) = 0.00155 -0.17865
# Poissons Ratio (y) = 0.00149 -0.01844
# Poissons Ratio (z) = -0.44588 -0.04763
#
# Static dielectric constant tensor:
#      x y z
#    x 1.914590 -0.012280 0.002340 
#    y -0.012280 1.865950 0.021340 
#    z 0.002340 0.021340 1.838600 
# 
# From -- ./inp_files/382098.got.cif
#   From: 2010.05.17/outbox.cif.g08.bks.cpg/sg2_192_cif.got.tgz:382098.got - 2010.06.03 11:33:40.
