data_PCOD9088150
_publ_section_title
;
Structure prediction by ZEFSAII (Michael W. Deem and Ramdas Pophale) SiO2 
 PCOD9088150
Probable space group: P -1
;
_chemical_formula_sum "Si O2"
_cell_formula_units_Z 14
_cell_length_a 9.774209
_cell_length_b 6.258321
_cell_length_c 15.824997
_cell_angle_alpha 113.912183
_cell_angle_beta 54.978200
_cell_angle_gamma 92.358122
_cell_volume 700.596121
_symmetry_space_group_name_H-M "P -1"
_symmetry_group_IT_number 2
_symmetry_cell_setting 'triclinic'
loop_
_space_group_symop_operation_xyz
x,y,z
-x,-y,-z
loop_
_atom_site_type_symbol
_atom_site_label
_atom_site_fract_x
_atom_site_fract_y
_atom_site_fract_z
Si Si1 0.966716 0.131590 0.941913
Si Si2 0.729414 0.602619 0.148742
Si Si3 0.712136 0.164206 0.513672
Si Si4 0.172517 0.425612 0.371147
Si Si5 0.440721 0.065491 0.327682
Si Si6 0.632513 0.483799 0.350585
Si Si7 0.952829 0.238917 0.298136
O O1 0.118766 0.264536 0.895467
O O2 0.789294 0.344003 0.040338
O O3 0.980572 0.942348 0.831172
O O4 0.000000 0.000000 0.000000
O O5 0.709953 0.542431 0.243975
O O6 0.554862 0.801140 0.218848
O O7 0.743225 0.353523 0.604506
O O8 0.541944 0.302797 0.543706
O O9 0.874054 0.112617 0.384000
O O10 0.662533 0.959157 0.553763
O O11 0.305028 0.192912 0.326002
O O12 0.000000 0.500000 0.500000
O O13 0.100854 0.360661 0.297535
O O14 0.568521 0.238691 0.325244
O O15 0.785065 0.438534 0.356554
#
# Coordination Sequence:
#
# PCOD9088150 Si02
#       7
#     2   2   2   2   2   2   2
#     4  11  21  38  58  87 117 147 191 245 288 333
#     4  10  20  37  60  84 113 154 190 235 296 328
#     4   9  21  37  58  84 119 155 188 226 292 345
#     4   9  21  39  55  82 122 155 188 229 285 346
#     4  10  19  39  60  81 117 161 185 232 283 347
#     4  10  19  37  59  87 116 148 189 240 288 338
#     4  11  20  37  56  89 117 149 191 241 281 339
#
# _framework density 19.982983000000001
#
# number of rings (size 3 to 8) (size 9 to 14) (size 15 to 20)
#    0.000    2.000    2.857    0.429    0.000    2.857 
#   10.286    0.714    0.000   12.000    0.000    0.000 
#    0.000    0.000    0.000    0.000    0.000    0.000 
#
# Total GULP energy -78130.883066 kJ/mol
# GULP energy per Si atom -5580.777362 kJ/mol
# Density = 1.993750 g / cm^3
# Si number density = 19.982983 Si / 1000 Ang^3
#
#
#
# Elastic Constant Matrix: (Units=GPa)
#
#
# Indices 1 2 3 4 5 6 
#
# 1 134.4469 47.2894 31.5548 13.0290 11.0174 -6.8962
# 2 47.2894 103.1566 41.9748 -9.9882 3.8747 6.2605
# 3 31.5548 41.9748 109.9892 2.5055 11.9567 4.5357
# 4 13.0290 -9.9882 2.5055 33.8747 4.4722 -4.1068
# 5 11.0174 3.8747 11.9567 4.4722 30.1855 5.0601
# 6 -6.8962 6.2605 4.5357 -4.1068 5.0601 13.6811
#
#
#
# Elastic Compliance Matrix: (Units=1/GPa)
#
#
# Indices 1 2 3 4 5 6 
#
# 1 0.010606 -0.005257 -0.000887 -0.004100 -0.003603 0.008148
# 2 -0.005257 0.014682 -0.004151 0.005528 0.002048 -0.007090
# 3 -0.000887 -0.004151 0.011374 -0.001501 -0.003158 -0.001601
# 4 -0.004100 0.005528 -0.001501 0.034498 -0.005094 0.008141
# 5 -0.003603 0.002048 -0.003158 -0.005094 0.039156 -0.017718
# 6 0.008148 -0.007090 -0.001601 0.008141 -0.017718 0.089973
#
#
# Mechanical properties :
#
#
# Convention : Reuss Voigt Hill
#
# Bulk Modulus (GPa) = 62.22470 65.47007 63.84739
# Shear Modulus (GPa) = 22.10078 30.66649 26.38364
#
# Velocity S-wave (km/s) = 3.32924 3.92169 3.63754
# Velocity P-wave (km/s) = 6.78121 7.30344 7.04716
#
# Compressibility (1/GPa) = 0.01607079
#
# Stress axis : x y z
#
# Youngs Moduli (GPa) = 94.28893 68.11283 87.92009
#
# Poissons Ratio (x) = 0.35807 0.07802
# Poissons Ratio (y) = 0.49567 0.36494
# Poissons Ratio (z) = 0.08367 0.28273
#
# Static dielectric constant tensor:
#      x y z
#    x 1.715930 0.008100 -0.002480 
#    y 0.008100 1.739030 0.021000 
#    z -0.002480 0.021000 1.743110 
# 
# From -- ./inp_files/39919.got.cif
#   From: 2010.05.17/outbox.cif.g08.bks.cpg/sg2_20_cif.got.tgz:39919.got - 2010.06.03 11:33:40.
