data_PCOD9088855
_publ_section_title
;
Structure prediction by ZEFSAII (Michael W. Deem and Ramdas Pophale) SiO2 
 PCOD9088855
Probable space group: P -1
;
_chemical_formula_sum "Si O2"
_cell_formula_units_Z 16
_cell_length_a 14.568677
_cell_length_b 12.634782
_cell_length_c 14.243793
_cell_angle_alpha 118.207126
_cell_angle_beta 139.162521
_cell_angle_gamma 29.860276
_cell_volume 705.182290
_symmetry_space_group_name_H-M "P -1"
_symmetry_group_IT_number 2
_symmetry_cell_setting 'triclinic'
loop_
_space_group_symop_operation_xyz
x,y,z
-x,-y,-z
loop_
_atom_site_type_symbol
_atom_site_label
_atom_site_fract_x
_atom_site_fract_y
_atom_site_fract_z
Si Si1 0.526231 0.180846 0.127636
Si Si2 0.263678 0.788867 0.223626
Si Si3 0.499722 0.860869 0.417124
Si Si4 0.572442 0.520146 0.156249
Si Si5 0.052337 0.980352 0.743174
Si Si6 0.322293 0.289520 0.705543
Si Si7 0.671062 0.278173 0.405084
Si Si8 0.160511 0.295455 0.764835
O O1 0.471680 0.319752 0.225854
O O2 0.747890 0.907412 0.219852
O O3 0.242327 0.325934 0.924659
O O4 0.696421 0.124815 0.153063
O O5 0.283819 0.917680 0.308499
O O6 0.318252 0.723510 0.126767
O O7 0.996412 0.953440 0.156751
O O8 0.537615 0.503421 0.359074
O O9 0.451956 0.900501 0.284693
O O10 0.822910 0.566583 0.579810
O O11 0.500000 0.000000 0.500000
O O12 0.682472 0.564883 0.224861
O O13 0.500000 0.500000 0.000000
O O14 0.842313 0.235359 0.286020
O O15 0.743399 0.227275 0.549765
O O16 0.363859 0.183087 0.786574
O O17 0.000000 0.500000 0.500000
O O18 0.000000 0.000000 0.500000
#
# Coordination Sequence:
#
# PCOD9088855 Si02
#       8
#     2   2   2   2   2   2   2   2
#     4  10  21  39  65  94 123 174 210 272 332 381
#     4  11  23  40  64 100 128 165 219 273 319 389
#     4  10  22  39  62  94 128 167 217 269 317 389
#     4  11  23  41  63  95 131 170 213 266 334 384
#     4  11  23  38  68  93 129 167 216 268 326 384
#     4   9  21  36  62  87 119 171 217 256 310 395
#     4  10  19  37  63  91 125 166 213 262 321 379
#     4  10  21  39  64  89 128 165 219 261 322 396
#
# _framework density 22.689167999999999
#
# number of rings (size 3 to 8) (size 9 to 14) (size 15 to 20)
#    0.000    1.750    2.500    2.625    7.000    0.500 
#    0.000    3.750    0.000    3.750    0.000    0.000 
#    0.000    0.000    0.000    0.000    0.000    0.000 
#
# Total GULP energy -89222.708932 kJ/mol
# GULP energy per Si atom -5576.419308 kJ/mol
# Density = 2.263753 g / cm^3
# Si number density = 22.689168 Si / 1000 Ang^3
#
#
#
# Elastic Constant Matrix: (Units=GPa)
#
#
# Indices 1 2 3 4 5 6 
#
# 1 96.7170 32.3101 12.0485 7.0605 -6.4458 13.2120
# 2 32.3101 89.9468 -0.0103 14.2476 5.5024 16.2897
# 3 12.0485 -0.0103 61.7000 23.9911 -9.4767 -1.9250
# 4 7.0605 14.2476 23.9911 39.9440 2.3311 5.6051
# 5 -6.4458 5.5024 -9.4767 2.3311 32.6809 9.1478
# 6 13.2120 16.2897 -1.9250 5.6051 9.1478 38.4655
#
#
#
# Elastic Compliance Matrix: (Units=1/GPa)
#
#
# Indices 1 2 3 4 5 6 
#
# 1 0.012737 -0.004297 -0.002496 0.001092 0.003459 -0.003662
# 2 -0.004297 0.014185 0.002640 -0.005349 -0.001152 -0.003346
# 3 -0.002496 0.002640 0.023731 -0.015363 0.006594 0.001597
# 4 0.001092 -0.005349 -0.015363 0.036698 -0.005114 -0.003010
# 5 0.003459 -0.001152 0.006594 -0.005114 0.036046 -0.008197
# 6 -0.003662 -0.003346 0.001597 -0.003010 -0.008197 0.031140
#
#
# Mechanical properties :
#
#
# Convention : Reuss Voigt Hill
#
# Bulk Modulus (GPa) = 23.61357 37.45117 30.53237
# Shear Modulus (GPa) = 28.25509 35.81911 32.03710
#
# Velocity S-wave (km/s) = 3.53273 3.97758 3.76173
# Velocity P-wave (km/s) = 5.20290 6.13489 5.68802
#
# Compressibility (1/GPa) = 0.04234854
#
# Stress axis : x y z
#
# Youngs Moduli (GPa) = 78.51258 70.49583 42.13814
#
# Poissons Ratio (x) = 0.30292 0.10516
# Poissons Ratio (y) = 0.33737 -0.11125
# Poissons Ratio (z) = 0.19593 -0.18611
#
# Static dielectric constant tensor:
#      x y z
#    x 1.928220 0.012780 -0.041720 
#    y 0.012780 1.900990 -0.020260 
#    z -0.041720 -0.020260 1.978380 
# 
# From -- ./inp_files/532616.got.cif
#   From: 2010.05.17/outbox.cif.g08.bks.cpg/sg2_267_cif.got.tgz:532616.got - 2010.06.03 11:33:40.
