data_PCOD9088901
_publ_section_title
;
Structure prediction by ZEFSAII (Michael W. Deem and Ramdas Pophale) SiO2 
 PCOD9088901
Probable space group: P -1
;
_chemical_formula_sum "Si O2"
_cell_formula_units_Z 16
_cell_length_a 7.506902
_cell_length_b 22.057685
_cell_length_c 14.130387
_cell_angle_alpha 21.782419
_cell_angle_beta 119.076813
_cell_angle_gamma 108.383044
_cell_volume 688.974339
_symmetry_space_group_name_H-M "P -1"
_symmetry_group_IT_number 2
_symmetry_cell_setting 'triclinic'
loop_
_space_group_symop_operation_xyz
x,y,z
-x,-y,-z
loop_
_atom_site_type_symbol
_atom_site_label
_atom_site_fract_x
_atom_site_fract_y
_atom_site_fract_z
Si Si1 0.761448 0.626713 0.300169
Si Si2 0.601854 0.784111 0.842074
Si Si3 0.109913 0.051464 0.068456
Si Si4 0.490944 0.686879 0.760616
Si Si5 0.745908 0.812594 0.250716
Si Si6 0.047954 0.334590 0.175704
Si Si7 0.910477 0.426317 0.806812
Si Si8 0.243070 0.004489 0.828479
O O1 0.738065 0.509615 0.552912
O O2 0.000000 0.500000 0.500000
O O3 0.590059 0.698873 0.064209
O O4 0.792553 0.805511 0.079813
O O5 0.496786 0.707221 0.845102
O O6 0.500000 0.000000 0.500000
O O7 0.863091 0.715310 0.976942
O O8 0.270197 0.850239 0.430433
O O9 0.148442 0.065120 0.947273
O O10 0.882181 0.097173 0.000685
O O11 0.708854 0.702604 0.751359
O O12 0.500000 0.500000 0.000000
O O13 0.927110 0.612322 0.569551
O O14 0.720161 0.857516 0.288952
O O15 0.494855 0.866015 0.069190
O O16 0.087525 0.143097 0.509941
O O17 0.000000 0.500000 0.000000
O O18 0.886182 0.368793 0.991564
#
# Coordination Sequence:
#
# PCOD9088901 Si02
#       8
#     2   2   2   2   2   2   2   2
#     4   9  19  39  63  92 124 172 225 267 327 392
#     4  10  19  37  63  95 129 173 219 269 329 398
#     4  11  21  38  64  95 126 167 228 269 323 399
#     4  11  23  37  62 103 135 167 224 276 327 397
#     4  10  21  40  55  92 135 174 210 274 333 396
#     4  11  20  38  57  91 134 177 212 269 335 392
#     4   9  20  33  64  87 121 171 221 264 320 389
#     4  11  22  36  61  88 134 181 211 266 343 394
#
# _framework density 23.222923999999999
#
# number of rings (size 3 to 8) (size 9 to 14) (size 15 to 20)
#    0.000    1.750    3.750    1.125    1.750    0.000 
#    2.250    0.000    0.000   13.500    6.500    0.000 
#    0.000    0.000    0.000    0.000    0.000    0.000 
#
# Total GULP energy -89114.099481 kJ/mol
# GULP energy per Si atom -5569.631218 kJ/mol
# Density = 2.317007 g / cm^3
# Si number density = 23.222924 Si / 1000 Ang^3
#
#
#
# Elastic Constant Matrix: (Units=GPa)
#
#
# Indices 1 2 3 4 5 6 
#
# 1 110.3593 8.3084 29.6714 0.2997 3.5838 -5.5878
# 2 8.3084 65.9592 49.6575 6.8878 -3.9678 -27.6890
# 3 29.6714 49.6575 140.9207 19.7604 8.0867 -15.5146
# 4 0.2997 6.8878 19.7604 43.2427 -24.4110 -6.6969
# 5 3.5838 -3.9678 8.0867 -24.4110 29.0741 0.3395
# 6 -5.5878 -27.6890 -15.5146 -6.6969 0.3395 27.3434
#
#
#
# Elastic Compliance Matrix: (Units=1/GPa)
#
#
# Indices 1 2 3 4 5 6 
#
# 1 0.009776 0.002138 -0.002945 0.002553 0.002013 0.003093
# 2 0.002138 0.043516 -0.016264 0.023319 0.029303 0.040623
# 3 -0.002945 -0.016264 0.016069 -0.019280 -0.022369 -0.012397
# 4 0.002553 0.023319 -0.019280 0.070821 0.067346 0.029705
# 5 0.002013 0.029303 -0.022369 0.067346 0.100530 0.032639
# 6 0.003093 0.040623 -0.012397 0.029705 0.032639 0.078176
#
#
# Mechanical properties :
#
#
# Convention : Reuss Voigt Hill
#
# Bulk Modulus (GPa) = 28.39146 54.72376 41.55761
# Shear Modulus (GPa) = 13.70725 35.23884 24.47304
#
# Velocity S-wave (km/s) = 2.43213 3.89963 3.24980
# Velocity P-wave (km/s) = 4.48767 6.62509 5.65823
#
# Compressibility (1/GPa) = 0.03522186
#
# Stress axis : x y z
#
# Youngs Moduli (GPa) = 102.28716 22.97992 62.23018
#
# Poissons Ratio (x) = -0.04914 0.18327
# Poissons Ratio (y) = -0.21874 1.01208
# Poissons Ratio (z) = 0.30124 0.37373
#
# Static dielectric constant tensor:
#      x y z
#    x 1.954670 -0.029990 -0.017160 
#    y -0.029990 2.054970 0.118070 
#    z -0.017160 0.118070 1.889640 
# 
# From -- ./inp_files/508570.got.cif
#   From: 2010.05.17/outbox.cif.g08.bks.cpg/sg2_255_cif.got.tgz:508570.got - 2010.06.03 11:33:40.
