data_PCOD9088129
_publ_section_title
;
Structure prediction by ZEFSAII (Michael W. Deem and Ramdas Pophale) SiO2 
 PCOD9088129
Probable space group: P -1
;
_chemical_formula_sum "Si O2"
_cell_formula_units_Z 14
_cell_length_a 11.852686
_cell_length_b 21.906218
_cell_length_c 5.358638
_cell_angle_alpha 69.042124
_cell_angle_beta 106.980184
_cell_angle_gamma 150.593282
_cell_volume 637.388390
_symmetry_space_group_name_H-M "P -1"
_symmetry_group_IT_number 2
_symmetry_cell_setting 'triclinic'
loop_
_space_group_symop_operation_xyz
x,y,z
-x,-y,-z
loop_
_atom_site_type_symbol
_atom_site_label
_atom_site_fract_x
_atom_site_fract_y
_atom_site_fract_z
Si Si1 0.992567 0.574240 0.375039
Si Si2 0.197000 0.927762 0.848500
Si Si3 0.176243 0.035349 0.294677
Si Si4 0.729880 0.441543 0.895201
Si Si5 0.364375 0.753276 0.997157
Si Si6 0.800998 0.813896 0.011312
Si Si7 0.374440 0.894597 0.768860
O O1 0.860795 0.530885 0.604996
O O2 0.000000 0.500000 0.500000
O O3 0.845564 0.519985 0.111143
O O4 0.256016 0.714189 0.258908
O O5 0.180123 0.848675 0.824663
O O6 0.233290 0.005285 0.568177
O O7 0.966457 0.836713 0.979602
O O8 0.424089 0.027699 0.018112
O O9 0.365054 0.123290 0.063399
O O10 0.192563 0.118850 0.265097
O O11 0.931416 0.901730 0.213187
O O12 0.459315 0.328914 0.893204
O O13 0.733245 0.362538 0.995785
O O14 0.294762 0.787493 0.765551
O O15 0.500000 0.000000 0.500000
#
# Coordination Sequence:
#
# PCOD9088129 Si02
#       7
#     2   2   2   2   2   2   2
#     4  10  21  40  60  90 122 159 206 256 306 358
#     4  11  21  35  58  81 125 161 199 244 299 379
#     4  10  20  35  56  90 119 155 196 245 321 369
#     4  10  23  38  62  93 121 162 202 252 312 365
#     4  10  19  37  59  85 124 150 199 256 301 358
#     4  10  21  36  56  89 124 156 195 254 307 377
#     4  11  22  38  53  88 123 160 205 243 304 367
#
# _framework density 21.96463
#
# number of rings (size 3 to 8) (size 9 to 14) (size 15 to 20)
#    0.000    1.714    2.857    2.143    2.000    5.714 
#    0.000    0.000    0.000    1.714    0.000    0.000 
#    0.000    0.000    0.000    0.000    0.000    0.000 
#
# Total GULP energy -78063.094386 kJ/mol
# GULP energy per Si atom -5575.935313 kJ/mol
# Density = 2.191464 g / cm^3
# Si number density = 21.964630 Si / 1000 Ang^3
#
#
#
# Elastic Constant Matrix: (Units=GPa)
#
#
# Indices 1 2 3 4 5 6 
#
# 1 155.7738 27.6705 29.2680 -4.5855 -8.1905 24.3967
# 2 27.6705 102.0356 47.4290 -3.9458 -15.8062 34.0808
# 3 29.2680 47.4290 130.4915 2.9014 -5.6319 22.2480
# 4 -4.5855 -3.9458 2.9014 26.7011 3.7122 -3.1544
# 5 -8.1905 -15.8062 -5.6319 3.7122 38.5625 -7.4810
# 6 24.3967 34.0808 22.2480 -3.1544 -7.4810 32.9963
#
#
#
# Elastic Compliance Matrix: (Units=1/GPa)
#
#
# Indices 1 2 3 4 5 6 
#
# 1 0.007361 0.000112 -0.000871 0.000742 0.000481 -0.004791
# 2 0.000112 0.016698 -0.003561 0.000719 0.003552 -0.014054
# 3 -0.000871 -0.003561 0.009591 -0.001933 -0.000533 -0.002451
# 4 0.000742 0.000719 -0.001933 0.038666 -0.002963 0.003036
# 5 0.000481 0.003552 -0.000533 -0.002963 0.028170 0.002438
# 6 -0.004791 -0.014054 -0.002451 0.003036 0.002438 0.050861
#
#
# Mechanical properties :
#
#
# Convention : Reuss Voigt Hill
#
# Bulk Modulus (GPa) = 39.98303 66.33732 53.16017
# Shear Modulus (GPa) = 29.70511 38.58088 34.14300
#
# Velocity S-wave (km/s) = 3.68150 4.19561 3.94693
# Velocity P-wave (km/s) = 6.02612 7.33064 6.71016
#
# Compressibility (1/GPa) = 0.02501061
#
# Stress axis : x y z
#
# Youngs Moduli (GPa) = 135.85598 59.88916 104.26885
#
# Poissons Ratio (x) = -0.00671 0.09077
# Poissons Ratio (y) = -0.01522 0.37126
# Poissons Ratio (z) = 0.11827 0.21324
#
# Static dielectric constant tensor:
#      x y z
#    x 1.877200 -0.040510 -0.036750 
#    y -0.040510 1.875030 0.007320 
#    z -0.036750 0.007320 1.902270 
# 
# From -- ./inp_files/83976.got.cif
#   From: 2010.05.17/outbox.cif.g08.bks.cpg/sg2_42_cif.got.tgz:83976.got - 2010.06.03 11:33:40.
