data_PCOD9088760
_publ_section_title
;
Structure prediction by ZEFSAII (Michael W. Deem and Ramdas Pophale) SiO2 
 PCOD9088760
Probable space group: P -1
;
_chemical_formula_sum "Si O2"
_cell_formula_units_Z 16
_cell_length_a 24.020433
_cell_length_b 14.946030
_cell_length_c 18.212141
_cell_angle_alpha 31.147288
_cell_angle_beta 158.599944
_cell_angle_gamma 159.711153
_cell_volume 819.342443
_symmetry_space_group_name_H-M "P -1"
_symmetry_group_IT_number 2
_symmetry_cell_setting 'triclinic'
loop_
_space_group_symop_operation_xyz
x,y,z
-x,-y,-z
loop_
_atom_site_type_symbol
_atom_site_label
_atom_site_fract_x
_atom_site_fract_y
_atom_site_fract_z
Si Si1 0.195612 0.520678 0.732433
Si Si2 0.071335 0.870238 0.202260
Si Si3 0.366150 0.885450 0.150739
Si Si4 0.867511 0.787298 0.705731
Si Si5 0.409622 0.259253 0.474294
Si Si6 0.254787 0.726782 0.419725
Si Si7 0.066214 0.576779 0.133889
Si Si8 0.743973 0.622159 0.236520
O O1 0.154209 0.356719 0.730315
O O2 0.000000 0.500000 0.500000
O O3 0.149379 0.394252 0.841655
O O4 0.451934 0.808708 0.836135
O O5 0.151872 0.795244 0.295055
O O6 0.270589 0.075245 0.362654
O O7 0.000000 0.000000 0.000000
O O8 0.500735 0.842226 0.307418
O O9 0.287697 0.757511 0.225562
O O10 0.130116 0.712147 0.938923
O O11 0.647219 0.565735 0.538453
O O12 0.751277 0.771106 0.647058
O O13 0.070028 0.079288 0.717687
O O14 0.978314 0.698745 0.927674
O O15 0.111034 0.579217 0.271988
O O16 0.276469 0.565406 0.605302
O O17 0.500000 0.000000 0.500000
O O18 0.500000 0.500000 0.000000
#
# Coordination Sequence:
#
# PCOD9088760 Si02
#       8
#     2   2   2   2   2   2   2   2
#     4  12  21  41  65  90 120 164 215 250 310 368
#     4  12  25  40  62  92 127 163 204 264 312 360
#     4  10  20  40  68  88 116 167 204 254 306 374
#     4  10  20  37  63  89 116 161 206 249 300 370
#     4  10  19  37  63  85 120 157 204 249 303 363
#     4  12  25  41  62  93 127 163 206 260 311 364
#     4  10  22  41  64  89 124 159 209 249 313 369
#     4  12  24  39  65  93 126 166 206 256 304 371
#
# _framework density 19.527856
#
# number of rings (size 3 to 8) (size 9 to 14) (size 15 to 20)
#    0.000    1.000    3.750    3.750    1.750    0.000 
#    2.250    0.625    0.000    3.750    0.000    0.000 
#    0.000    0.000    0.000    0.000    0.000    0.000 
#
# Total GULP energy -89260.237059 kJ/mol
# GULP energy per Si atom -5578.764816 kJ/mol
# Density = 1.948341 g / cm^3
# Si number density = 19.527856 Si / 1000 Ang^3
#
#
#
# Elastic Constant Matrix: (Units=GPa)
#
#
# Indices 1 2 3 4 5 6 
#
# 1 97.5210 21.4448 32.2030 2.5981 -2.6322 -2.5034
# 2 21.4448 144.6013 39.3740 17.5785 -11.8061 6.0020
# 3 32.2030 39.3740 88.0031 -4.8241 3.4949 7.8868
# 4 2.5981 17.5785 -4.8241 37.3774 -4.7118 -3.9512
# 5 -2.6322 -11.8061 3.4949 -4.7118 30.4010 2.6251
# 6 -2.5034 6.0020 7.8868 -3.9512 2.6251 30.7207
#
#
#
# Elastic Compliance Matrix: (Units=1/GPa)
#
#
# Indices 1 2 3 4 5 6 
#
# 1 0.011918 -0.000457 -0.004424 -0.000840 0.001060 0.001998
# 2 -0.000457 0.008980 -0.004085 -0.004464 0.003364 -0.001605
# 3 -0.004424 -0.004085 0.015372 0.003545 -0.002945 -0.002801
# 4 -0.000840 -0.004464 0.003545 0.030016 0.002130 0.003572
# 5 0.001060 0.003364 -0.002945 0.002130 0.035180 -0.002547
# 6 0.001998 -0.001605 -0.002801 0.003572 -0.002547 0.034424
#
#
# Mechanical properties :
#
#
# Convention : Reuss Voigt Hill
#
# Bulk Modulus (GPa) = 54.53178 57.35214 55.94196
# Shear Modulus (GPa) = 31.26308 35.50672 33.38490
#
# Velocity S-wave (km/s) = 4.00553 4.26873 4.13922
# Velocity P-wave (km/s) = 7.02695 7.33002 7.18009
#
# Compressibility (1/GPa) = 0.01833793
#
# Stress axis : x y z
#
# Youngs Moduli (GPa) = 83.90834 111.36407 65.05363
#
# Poissons Ratio (x) = 0.05091 0.28778
# Poissons Ratio (y) = 0.03836 0.26573
# Poissons Ratio (z) = 0.37118 0.45490
#
# Static dielectric constant tensor:
#      x y z
#    x 1.678880 -0.005040 -0.038750 
#    y -0.005040 1.690860 0.125460 
#    z -0.038750 0.125460 1.441020 
# 
# From -- ./inp_files/331791.got.cif
#   From: 2010.05.17/outbox.cif.g08.bks.cpg/sg2_166_cif.got.tgz:331791.got - 2010.06.03 11:33:40.
