data_PCOD9088520
_publ_section_title
;
Structure prediction by ZEFSAII (Michael W. Deem and Ramdas Pophale) SiO2 
 PCOD9088520
Probable space group: P -1
;
_chemical_formula_sum "Si O2"
_cell_formula_units_Z 14
_cell_length_a 5.110435
_cell_length_b 18.228636
_cell_length_c 9.166111
_cell_angle_alpha 135.767490
_cell_angle_beta 69.874285
_cell_angle_gamma 112.062572
_cell_volume 548.304791
_symmetry_space_group_name_H-M "P -1"
_symmetry_group_IT_number 2
_symmetry_cell_setting 'triclinic'
loop_
_space_group_symop_operation_xyz
x,y,z
-x,-y,-z
loop_
_atom_site_type_symbol
_atom_site_label
_atom_site_fract_x
_atom_site_fract_y
_atom_site_fract_z
Si Si1 0.215260 0.288397 0.339765
Si Si2 0.121579 0.622834 0.705775
Si Si3 0.986018 0.094714 0.304795
Si Si4 0.590165 0.160778 0.703639
Si Si5 0.683310 0.639206 0.024658
Si Si6 0.625435 0.011824 0.728552
Si Si7 0.767928 0.558814 0.196611
O O1 0.026252 0.296973 0.248227
O O2 0.164339 0.174271 0.267880
O O3 0.111337 0.367178 0.588849
O O4 0.542480 0.340403 0.320876
O O5 0.000000 0.500000 0.500000
O O6 0.001529 0.638295 0.911485
O O7 0.873448 0.163831 0.556147
O O8 0.148080 0.011688 0.233749
O O9 0.311602 0.968854 0.792518
O O10 0.450131 0.262594 0.860801
O O11 0.638887 0.124647 0.807142
O O12 0.370029 0.066324 0.525459
O O13 0.658962 0.626103 0.184266
O O14 0.496647 0.532359 0.838256
O O15 0.000000 0.500000 0.000000
#
# Coordination Sequence:
#
# PCOD9088520 Si02
#       7
#     2   2   2   2   2   2   2
#     4  12  25  42  68  87 131 173 215 244 325 379
#     4  12  26  45  61  90 131 181 206 255 310 390
#     4  10  19  37  61  92 117 161 207 258 301 386
#     4   9  20  34  62  95 123 159 201 274 314 366
#     4  11  24  41  62  95 130 160 219 263 315 366
#     4   9  19  35  61  95 125 153 203 265 327 359
#     4  11  24  39  65  94 125 168 208 277 308 367
#
# _framework density 25.533242999999999
#
# number of rings (size 3 to 8) (size 9 to 14) (size 15 to 20)
#    0.857    0.571    1.429    4.286    6.000    0.000 
#    0.000    0.000    0.000    5.143    0.000    0.000 
#    0.000    0.000    0.000    0.000    0.000    0.000 
#
# Total GULP energy -78451.649568 kJ/mol
# GULP energy per Si atom -5603.689255 kJ/mol
# Density = 2.547513 g / cm^3
# Si number density = 25.533243 Si / 1000 Ang^3
#
#
#
# Elastic Constant Matrix: (Units=GPa)
#
#
# Indices 1 2 3 4 5 6 
#
# 1 107.7187 27.7651 13.9567 -7.7418 -32.7459 -7.7855
# 2 27.7651 147.0576 33.5762 0.3044 -26.1325 -11.0257
# 3 13.9567 33.5762 81.5789 2.9462 -12.6886 -2.1138
# 4 -7.7418 0.3044 2.9462 26.3330 0.8209 -5.0834
# 5 -32.7459 -26.1325 -12.6886 0.8209 32.0413 -2.0646
# 6 -7.7855 -11.0257 -2.1138 -5.0834 -2.0646 51.4905
#
#
#
# Elastic Compliance Matrix: (Units=1/GPa)
#
#
# Indices 1 2 3 4 5 6 
#
# 1 0.014308 0.000231 -0.000319 0.004402 0.014779 0.003227
# 2 0.000231 0.008630 -0.002562 0.000457 0.006383 0.002079
# 3 -0.000319 -0.002562 0.013915 -0.001733 0.003135 -0.000071
# 4 0.004402 0.000457 -0.001733 0.040278 0.003463 0.004808
# 5 0.014779 0.006383 0.003135 0.003463 0.053072 0.006200
# 6 0.003227 0.002079 -0.000071 0.004808 0.006200 0.021074
#
#
# Mechanical properties :
#
#
# Convention : Reuss Voigt Hill
#
# Bulk Modulus (GPa) = 31.69263 54.10567 42.89915
# Shear Modulus (GPa) = 29.92300 39.37676 34.64988
#
# Velocity S-wave (km/s) = 3.42705 3.93132 3.68781
# Velocity P-wave (km/s) = 5.30083 6.46864 5.91363
#
# Compressibility (1/GPa) = 0.03155308
#
# Stress axis : x y z
#
# Youngs Moduli (GPa) = 69.89232 115.86875 71.86340
#
# Poissons Ratio (x) = -0.02673 0.02295
# Poissons Ratio (y) = -0.01612 0.18408
# Poissons Ratio (z) = 0.02232 0.29680
#
# Static dielectric constant tensor:
#      x y z
#    x 1.986290 0.035970 0.032270 
#    y 0.035970 2.024580 -0.000340 
#    z 0.032270 -0.000340 2.040620 
# 
# From -- ./inp_files/99511.got.cif
#   From: 2010.05.17/outbox.cif.g08.bks.cpg/sg2_50_cif.got.tgz:99511.got - 2010.06.03 11:33:40.
