data_PCOD9088225
_publ_section_title
;
Structure prediction by ZEFSAII (Michael W. Deem and Ramdas Pophale) SiO2 
 PCOD9088225
Probable space group: P -1
;
_chemical_formula_sum "Si O2"
_cell_formula_units_Z 14
_cell_length_a 9.775334
_cell_length_b 15.527199
_cell_length_c 7.133520
_cell_angle_alpha 39.605791
_cell_angle_beta 64.939889
_cell_angle_gamma 46.742395
_cell_volume 489.824402
_symmetry_space_group_name_H-M "P -1"
_symmetry_group_IT_number 2
_symmetry_cell_setting 'triclinic'
loop_
_space_group_symop_operation_xyz
x,y,z
-x,-y,-z
loop_
_atom_site_type_symbol
_atom_site_label
_atom_site_fract_x
_atom_site_fract_y
_atom_site_fract_z
Si Si1 0.414979 0.735056 0.308279
Si Si2 0.779161 0.429588 0.436757
Si Si3 0.161564 0.530337 0.104561
Si Si4 0.889825 0.917378 0.221221
Si Si5 0.208825 0.808177 0.703054
Si Si6 0.520070 0.821823 0.583862
Si Si7 0.759790 0.814609 0.798816
O O1 0.639135 0.596441 0.364545
O O2 0.323483 0.658667 0.380185
O O3 0.324308 0.767080 0.511814
O O4 0.323130 0.927879 0.977565
O O5 0.797808 0.472268 0.139800
O O6 0.992739 0.263232 0.654221
O O7 0.195905 0.653592 0.982858
O O8 0.934450 0.628214 0.088897
O O9 0.316268 0.328214 0.395659
O O10 0.876767 0.864932 0.525376
O O11 0.000000 0.000000 0.000000
O O12 0.368667 0.785806 0.784448
O O13 0.376980 0.020572 0.266013
O O14 0.000000 0.000000 0.500000
O O15 0.633712 0.815415 0.708630
#
# Coordination Sequence:
#
# PCOD9088225 Si02
#       7
#     2   2   2   2   2   2   2
#     4   9  17  32  50  77 108 141 178 233 278 319
#     4   8  16  30  52  81 104 132 187 235 270 322
#     4  10  19  37  60  83 113 150 191 237 281 336
#     4   9  17  31  56  80 105 142 183 235 277 317
#     4  11  22  38  55  84 122 149 192 236 278 346
#     4  11  22  36  57  84 120 157 183 230 294 340
#     4  10  21  37  58  87 117 146 194 238 277 346
#
# _framework density 28.581674
#
# number of rings (size 3 to 8) (size 9 to 14) (size 15 to 20)
#    0.000    2.286    1.429    2.571    0.000    1.143 
#    2.571    0.714    0.000    3.429    0.000    0.000 
#    0.000    0.000    0.000    0.000    0.000    0.000 
#
# Total GULP energy -78305.640476 kJ/mol
# GULP energy per Si atom -5593.260034 kJ/mol
# Density = 2.851662 g / cm^3
# Si number density = 28.581674 Si / 1000 Ang^3
#
#
#
# Elastic Constant Matrix: (Units=GPa)
#
#
# Indices 1 2 3 4 5 6 
#
# 1 170.4936 55.4478 14.6593 -31.9840 -5.8770 -18.9284
# 2 55.4478 207.2078 84.1200 -73.0208 21.8378 -27.0611
# 3 14.6593 84.1200 98.6345 -58.1187 18.9438 -29.4803
# 4 -31.9840 -73.0208 -58.1187 89.1537 -26.1021 14.1590
# 5 -5.8770 21.8378 18.9438 -26.1021 33.6241 -6.3322
# 6 -18.9284 -27.0611 -29.4803 14.1590 -6.3322 47.6577
#
#
#
# Elastic Compliance Matrix: (Units=1/GPa)
#
#
# Indices 1 2 3 4 5 6 
#
# 1 0.007430 -0.001847 0.002753 0.003760 0.004446 0.003079
# 2 -0.001847 0.008450 -0.005266 0.002589 -0.000848 -0.000075
# 3 0.002753 -0.005266 0.022996 0.010413 0.000787 0.009339
# 4 0.003760 0.002589 0.010413 0.024669 0.012975 0.003799
# 5 0.004446 -0.000848 0.000787 0.012975 0.041339 0.003409
# 6 0.003079 -0.000075 0.009339 0.003799 0.003409 0.027264
#
#
# Mechanical properties :
#
#
# Convention : Reuss Voigt Hill
#
# Bulk Modulus (GPa) = 33.16219 87.19891 60.18055
# Shear Modulus (GPa) = 33.12964 55.56103 44.34533
#
# Velocity S-wave (km/s) = 3.40828 4.41380 3.94322
# Velocity P-wave (km/s) = 5.20733 7.52000 6.46787
#
# Compressibility (1/GPa) = 0.03015482
#
# Stress axis : x y z
#
# Youngs Moduli (GPa) = 134.59432 118.33893 43.48548
#
# Poissons Ratio (x) = 0.21861 -0.11971
# Poissons Ratio (y) = 0.24863 0.22900
# Poissons Ratio (z) = -0.37051 0.62320
#
# Static dielectric constant tensor:
#      x y z
#    x 2.329680 0.001280 0.024450 
#    y 0.001280 2.244460 -0.022420 
#    z 0.024450 -0.022420 2.300960 
# 
# From -- ./inp_files/159424.got.cif
#   From: 2010.05.17/outbox.cif.g08.bks.cpg/sg2_80_cif.got.tgz:159424.got - 2010.06.03 11:33:40.
