data_PCOD9088347
_publ_section_title
;
Structure prediction by ZEFSAII (Michael W. Deem and Ramdas Pophale) SiO2 
 PCOD9088347
Probable space group: P -1
;
_chemical_formula_sum "Si O2"
_cell_formula_units_Z 16
_cell_length_a 9.183060
_cell_length_b 11.453324
_cell_length_c 10.031464
_cell_angle_alpha 64.052821
_cell_angle_beta 85.619713
_cell_angle_gamma 45.899170
_cell_volume 637.361855
_symmetry_space_group_name_H-M "P -1"
_symmetry_group_IT_number 2
_symmetry_cell_setting 'triclinic'
loop_
_space_group_symop_operation_xyz
x,y,z
-x,-y,-z
loop_
_atom_site_type_symbol
_atom_site_label
_atom_site_fract_x
_atom_site_fract_y
_atom_site_fract_z
Si Si1 0.872887 0.957398 0.175029
Si Si2 0.777633 0.687453 0.061516
Si Si3 0.889491 0.334278 0.283770
Si Si4 0.608736 0.058805 0.519857
Si Si5 0.257147 0.610966 0.444810
Si Si6 0.145141 0.635646 0.144920
Si Si7 0.600158 0.301530 0.191459
Si Si8 0.569745 0.911493 0.232265
O O1 0.763262 0.888623 0.251836
O O2 0.076530 0.843512 0.316908
O O3 0.975669 0.866327 0.066872
O O4 0.693656 0.180708 0.108311
O O5 0.832750 0.502939 0.125658
O O6 0.622697 0.806208 0.142720
O O7 0.000634 0.612763 0.117536
O O8 0.643070 0.857100 0.878404
O O9 0.816853 0.407211 0.405431
O O10 0.755245 0.303752 0.248442
O O11 0.140703 0.132660 0.370410
O O12 0.500000 0.000000 0.500000
O O13 0.592904 0.182776 0.351756
O O14 0.477284 0.162364 0.614688
O O15 0.500000 0.500000 0.500000
O O16 0.228346 0.561050 0.328574
O O17 0.356012 0.515325 0.101545
#
# Coordination Sequence:
#
# PCOD9088347 Si02
#       8
#     2   2   2   2   2   2   2   2
#     4   9  20  39  63  91 129 163 218 267 318 382
#     4  10  24  43  67  91 129 175 228 262 318 390
#     4  12  24  38  59 100 134 167 209 268 335 399
#     4  12  23  39  65  98 127 166 218 275 330 381
#     4  10  19  37  60  94 130 167 208 265 332 382
#     4   9  21  39  65  92 125 175 215 270 315 385
#     4  12  22  40  65  97 137 165 209 274 339 390
#     4  10  22  45  68  90 126 177 223 274 313 382
#
# _framework density 25.103479
#
# number of rings (size 3 to 8) (size 9 to 14) (size 15 to 20)
#    0.750    0.750    3.750    1.125    1.750    1.000 
#    2.250    0.625    0.000    4.500    0.000    0.000 
#    0.000    0.000    0.000    0.000    0.000    0.000 
#
# Total GULP energy -89526.290362 kJ/mol
# GULP energy per Si atom -5595.393148 kJ/mol
# Density = 2.504634 g / cm^3
# Si number density = 25.103479 Si / 1000 Ang^3
#
#
#
# Elastic Constant Matrix: (Units=GPa)
#
#
# Indices 1 2 3 4 5 6 
#
# 1 150.2636 38.1884 19.9446 -12.0441 13.4185 -6.3811
# 2 38.1884 149.4824 20.8756 4.9438 -12.6719 -14.9083
# 3 19.9446 20.8756 74.1525 0.4776 -4.9278 5.2967
# 4 -12.0441 4.9438 0.4776 46.8087 4.3247 -5.7030
# 5 13.4185 -12.6719 -4.9278 4.3247 33.8218 -9.5904
# 6 -6.3811 -14.9083 5.2967 -5.7030 -9.5904 46.8013
#
#
#
# Elastic Compliance Matrix: (Units=1/GPa)
#
#
# Indices 1 2 3 4 5 6 
#
# 1 0.008136 -0.002317 -0.001865 0.002789 -0.004738 -0.000049
# 2 -0.002317 0.008309 -0.001617 -0.001506 0.004937 0.003342
# 3 -0.001865 -0.001617 0.014722 -0.000889 0.001775 -0.002180
# 4 0.002789 -0.001506 -0.000889 0.022871 -0.004177 0.001932
# 5 -0.004738 0.004937 0.001775 -0.004177 0.036257 0.007646
# 6 -0.000049 0.003342 -0.002180 0.001932 0.007646 0.024474
#
#
# Mechanical properties :
#
#
# Convention : Reuss Voigt Hill
#
# Bulk Modulus (GPa) = 51.10194 59.10175 55.10184
# Shear Modulus (GPa) = 37.62509 45.14570 41.38540
#
# Velocity S-wave (km/s) = 3.87563 4.24534 4.06469
# Velocity P-wave (km/s) = 6.35831 6.90108 6.63525
#
# Compressibility (1/GPa) = 0.01956873
#
# Stress axis : x y z
#
# Youngs Moduli (GPa) = 122.91136 120.35049 67.92517
#
# Poissons Ratio (x) = 0.27882 0.12671
# Poissons Ratio (y) = 0.28475 0.10983
# Poissons Ratio (z) = 0.22929 0.19461
#
# Static dielectric constant tensor:
#      x y z
#    x 1.927380 -0.001150 -0.013040 
#    y -0.001150 2.080530 0.015280 
#    z -0.013040 0.015280 1.987230 
# 
# From -- ./inp_files/389402.got.cif
#   From: 2010.05.17/outbox.cif.g08.bks.cpg/sg2_195_cif.got.tgz:389402.got - 2010.06.03 11:33:40.
