data_PCOD9088304
_publ_section_title
;
Structure prediction by ZEFSAII (Michael W. Deem and Ramdas Pophale) SiO2 
 PCOD9088304
Probable space group: P -1
;
_chemical_formula_sum "Si O2"
_cell_formula_units_Z 16
_cell_length_a 19.187184
_cell_length_b 8.520345
_cell_length_c 19.848367
_cell_angle_alpha 35.587126
_cell_angle_beta 159.293340
_cell_angle_gamma 135.010684
_cell_volume 644.744001
_symmetry_space_group_name_H-M "P -1"
_symmetry_group_IT_number 2
_symmetry_cell_setting 'triclinic'
loop_
_space_group_symop_operation_xyz
x,y,z
-x,-y,-z
loop_
_atom_site_type_symbol
_atom_site_label
_atom_site_fract_x
_atom_site_fract_y
_atom_site_fract_z
Si Si1 0.432901 0.870943 0.748591
Si Si2 0.850840 0.403060 0.658691
Si Si3 0.740573 0.211600 0.880721
Si Si4 0.715055 0.145867 0.093225
Si Si5 0.654036 0.052338 0.214376
Si Si6 0.399918 0.719395 0.626308
Si Si7 0.604379 0.216852 0.613314
Si Si8 0.986100 0.708893 0.781189
O O1 0.420250 0.686950 0.736655
O O2 0.644681 0.963374 0.908261
O O3 0.371985 0.780451 0.798068
O O4 0.252665 0.154076 0.471945
O O5 0.761912 0.732376 0.444866
O O6 0.826301 0.272243 0.608719
O O7 0.712727 0.247225 0.631231
O O8 0.013937 0.436253 0.852400
O O9 0.765484 0.164054 0.839596
O O10 0.557619 0.489356 0.625724
O O11 0.912918 0.284966 0.056995
O O12 0.906326 0.100403 0.233709
O O13 0.766755 0.130347 0.224374
O O14 0.573115 0.943146 0.018298
O O15 0.564624 0.452434 0.837904
O O16 0.480019 0.985281 0.587047
#
# Coordination Sequence:
#
# PCOD9088304 Si02
#       8
#     2   2   2   2   2   2   2   2
#     4  10  20  39  62  87 120 155 193 252 287 347
#     4  10  20  37  55  89 121 153 198 241 294 346
#     4  10  19  37  60  88 115 157 206 231 293 351
#     4  10  20  37  63  91 112 159 198 241 293 354
#     4   9  18  37  65  83 116 157 203 234 286 361
#     4  10  22  39  58  85 130 155 190 245 304 337
#     4  10  19  37  62  81 123 163 187 244 293 349
#     4  11  21  38  65  87 119 152 207 240 284 363
#
# _framework density 24.816051999999999
#
# number of rings (size 3 to 8) (size 9 to 14) (size 15 to 20)
#    0.000    2.000    3.750    1.125    0.000    3.000 
#    4.500    1.250    0.000    7.500    0.000    0.000 
#    0.000    0.000    0.000    0.000    0.000    0.000 
#
# Total GULP energy -89229.305484 kJ/mol
# GULP energy per Si atom -5576.831593 kJ/mol
# Density = 2.475957 g / cm^3
# Si number density = 24.816052 Si / 1000 Ang^3
#
#
#
# Elastic Constant Matrix: (Units=GPa)
#
#
# Indices 1 2 3 4 5 6 
#
# 1 83.9509 7.8009 1.8452 9.2565 -28.1109 -6.8410
# 2 7.8009 98.6490 20.1036 23.6200 -11.5005 -26.1364
# 3 1.8452 20.1036 56.3360 20.1793 -12.2737 -9.0490
# 4 9.2565 23.6200 20.1793 41.4122 -11.1980 -20.1151
# 5 -28.1109 -11.5005 -12.2737 -11.1980 28.6420 14.6296
# 6 -6.8410 -26.1364 -9.0490 -20.1151 14.6296 36.3030
#
#
#
# Elastic Compliance Matrix: (Units=1/GPa)
#
#
# Indices 1 2 3 4 5 6 
#
# 1 0.019356 -0.000851 0.004732 -0.003272 0.022889 -0.006822
# 2 -0.000851 0.013328 -0.002911 -0.002599 -0.001839 0.008010
# 3 0.004732 -0.002911 0.024307 -0.010837 0.012897 -0.006347
# 4 -0.003272 -0.002599 -0.010837 0.039591 -0.002486 0.017750
# 5 0.022889 -0.001839 0.012897 -0.002486 0.073951 -0.024975
# 6 -0.006822 0.008010 -0.006347 0.017750 -0.024975 0.050344
#
#
# Mechanical properties :
#
#
# Convention : Reuss Voigt Hill
#
# Bulk Modulus (GPa) = 16.96889 33.15948 25.06419
# Shear Modulus (GPa) = 20.95740 35.21719 28.08729
#
# Velocity S-wave (km/s) = 2.90920 3.77122 3.36790
# Velocity P-wave (km/s) = 4.25879 5.68805 5.02450
#
# Compressibility (1/GPa) = 0.05893136
#
# Stress axis : x y z
#
# Youngs Moduli (GPa) = 51.66398 75.03164 41.14119
#
# Poissons Ratio (x) = 0.06384 -0.19470
# Poissons Ratio (y) = 0.04395 0.11976
# Poissons Ratio (z) = -0.24450 0.21842
#
# Static dielectric constant tensor:
#      x y z
#    x 1.978490 -0.071480 -0.022470 
#    y -0.071480 2.024550 0.007950 
#    z -0.022470 0.007950 2.056340 
# 
# From -- ./inp_files/601123.got.cif
#   From: 2010.05.17/outbox.cif.g08.bks.cpg/sg2_301_cif.got.tgz:601123.got - 2010.06.03 11:33:40.
