data_PCOD9088254
_publ_section_title
;
Structure prediction by ZEFSAII (Michael W. Deem and Ramdas Pophale) SiO2 
 PCOD9088254
Probable space group: P -1
;
_chemical_formula_sum "Si O2"
_cell_formula_units_Z 10
_cell_length_a 10.461520
_cell_length_b 16.581950
_cell_length_c 10.317711
_cell_angle_alpha 141.561061
_cell_angle_beta 140.773853
_cell_angle_gamma 33.301142
_cell_volume 571.919609
_symmetry_space_group_name_H-M "P -1"
_symmetry_group_IT_number 2
_symmetry_cell_setting 'triclinic'
loop_
_space_group_symop_operation_xyz
x,y,z
-x,-y,-z
loop_
_atom_site_type_symbol
_atom_site_label
_atom_site_fract_x
_atom_site_fract_y
_atom_site_fract_z
Si Si1 0.866257 0.055563 0.601901
Si Si2 0.157479 0.019013 0.039673
Si Si3 0.406708 0.416125 0.732576
Si Si4 0.956022 0.660936 0.528621
Si Si5 0.658416 0.880807 0.353401
O O1 0.642291 0.242323 0.659645
O O2 0.754517 0.959284 0.437029
O O3 0.000000 0.000000 0.500000
O O4 0.054203 0.024965 0.825671
O O5 0.115576 0.187061 0.248460
O O6 0.448163 0.878384 0.110696
O O7 0.000000 0.000000 0.000000
O O8 0.220133 0.392823 0.637543
O O9 0.239824 0.524610 0.616526
O O10 0.500000 0.500000 0.000000
O O11 0.884217 0.724128 0.404754
O O12 0.500000 0.000000 0.500000
#
# Coordination Sequence:
#
# PCOD9088254 Si02
#       5
#     2   2   2   2   2
#     4  12  24  38  59  94 124 152 193 255 305 340
#     4  11  18  35  66  88 109 159 205 241 280 354
#     4  11  21  36  58  89 122 154 196 248 292 349
#     4  10  20  34  62  89 110 149 216 240 275 344
#     4  10  19  37  60  85 115 154 212 235 278 361
#
# _framework density 17.484974000000001
#
# number of rings (size 3 to 8) (size 9 to 14) (size 15 to 20)
#    0.000    1.200   10.000    0.000    0.000    0.800 
#    0.000    1.000    0.000    2.400    0.000    0.000 
#    0.000    0.000    0.000    0.000    0.000    0.000 
#
# Total GULP energy -55765.752900 kJ/mol
# GULP energy per Si atom -5576.575290 kJ/mol
# Density = 1.744518 g / cm^3
# Si number density = 17.484974 Si / 1000 Ang^3
#
#
#
# Elastic Constant Matrix: (Units=GPa)
#
#
# Indices 1 2 3 4 5 6 
#
# 1 114.3382 56.2382 61.5518 -12.6199 1.3766 11.8204
# 2 56.2382 156.8853 64.2577 -40.7998 -4.4446 2.9586
# 3 61.5518 64.2577 117.4748 -31.5838 15.6081 1.3999
# 4 -12.6199 -40.7998 -31.5838 38.7119 6.3688 6.5583
# 5 1.3766 -4.4446 15.6081 6.3688 29.3570 0.5122
# 6 11.8204 2.9586 1.3999 6.5583 0.5122 20.2149
#
#
#
# Elastic Compliance Matrix: (Units=1/GPa)
#
#
# Indices 1 2 3 4 5 6 
#
# 1 0.014336 -0.002920 -0.007436 -0.004045 0.003826 -0.006225
# 2 -0.002920 0.010627 -0.001967 0.008943 0.000897 -0.002636
# 3 -0.007436 -0.001967 0.018629 0.012866 -0.012636 -0.000508
# 4 -0.004045 0.008943 0.012866 0.049669 -0.015801 -0.015548
# 5 0.003826 0.000897 -0.012636 -0.015801 0.044122 0.002515
# 6 -0.006225 -0.002636 -0.000508 -0.015548 0.002515 0.058510
#
#
# Mechanical properties :
#
#
# Convention : Reuss Voigt Hill
#
# Bulk Modulus (GPa) = 52.77915 83.64374 68.21145
# Shear Modulus (GPa) = 22.04066 31.43346 26.73706
#
# Velocity S-wave (km/s) = 3.55427 4.24458 3.91467
# Velocity P-wave (km/s) = 6.86256 8.48312 7.71551
#
# Compressibility (1/GPa) = 0.01894687
#
# Stress axis : x y z
#
# Youngs Moduli (GPa) = 69.75362 94.10060 53.68092
#
# Poissons Ratio (x) = 0.27473 0.39919
# Poissons Ratio (y) = 0.20365 0.10557
# Poissons Ratio (z) = 0.51871 0.18506
#
# Static dielectric constant tensor:
#      x y z
#    x 1.672480 -0.023610 0.012980 
#    y -0.023610 1.664540 -0.022660 
#    z 0.012980 -0.022660 1.611770 
# 
# From -- ./inp_files/130072.got.cif
#   From: 2010.05.17/outbox.cif.g08.bks.cpg/sg2_66_cif.got.tgz:130072.got - 2010.06.03 11:33:40.
