data_PCOD9088358
_publ_section_title
;
Structure prediction by ZEFSAII (Michael W. Deem and Ramdas Pophale) SiO2 
 PCOD9088358
Probable space group: P -1
;
_chemical_formula_sum "Si O2"
_cell_formula_units_Z 16
_cell_length_a 11.784479
_cell_length_b 11.959572
_cell_length_c 7.535447
_cell_angle_alpha 123.675682
_cell_angle_beta 52.648635
_cell_angle_gamma 110.776787
_cell_volume 702.294996
_symmetry_space_group_name_H-M "P -1"
_symmetry_group_IT_number 2
_symmetry_cell_setting 'triclinic'
loop_
_space_group_symop_operation_xyz
x,y,z
-x,-y,-z
loop_
_atom_site_type_symbol
_atom_site_label
_atom_site_fract_x
_atom_site_fract_y
_atom_site_fract_z
Si Si1 0.288832 0.457441 0.830758
Si Si2 0.374759 0.923720 0.950146
Si Si3 0.849870 0.746102 0.937685
Si Si4 0.547215 0.314480 0.600202
Si Si5 0.859742 0.646269 0.476485
Si Si6 0.155376 0.738359 0.134701
Si Si7 0.377850 0.098738 0.769954
Si Si8 0.131074 0.646194 0.673048
O O1 0.451561 0.430528 0.709090
O O2 0.242692 0.397762 0.628235
O O3 0.242338 0.611203 0.012326
O O4 0.197346 0.368345 0.979355
O O5 0.432359 0.794304 0.673827
O O6 0.253946 0.871802 0.156420
O O7 0.328281 0.028354 0.937035
O O8 0.500000 0.000000 0.000000
O O9 0.790295 0.716839 0.771295
O O10 0.019682 0.734773 0.751920
O O11 0.768068 0.880231 0.185341
O O12 0.462315 0.240653 0.775205
O O13 0.705926 0.355936 0.547947
O O14 0.916314 0.507759 0.385481
O O15 0.996762 0.732565 0.357176
O O16 0.134046 0.709637 0.921016
O O17 0.500000 0.000000 0.500000
#
# Coordination Sequence:
#
# PCOD9088358 Si02
#       8
#     2   2   2   2   2   2   2   2
#     4  10  20  40  64  96 130 167 201 265 329 378
#     4  10  22  39  61  84 125 170 214 263 305 368
#     4  11  21  37  67  92 129 166 208 255 326 380
#     4   9  21  39  67  89 127 165 212 261 326 374
#     4  11  21  35  64  99 135 159 204 262 324 386
#     4  10  20  38  61  91 131 168 212 255 323 378
#     4   9  21  44  59  85 121 166 217 258 304 370
#     4  10  19  37  60  98 130 164 205 254 329 394
#
# _framework density 22.782447000000001
#
# number of rings (size 3 to 8) (size 9 to 14) (size 15 to 20)
#    0.000    2.000    2.500    1.125    1.750    5.500 
#    0.000    7.500    0.000    0.000    0.000    0.000 
#    0.000    0.000    0.000    0.000    0.000    0.000 
#
# Total GULP energy -89217.789611 kJ/mol
# GULP energy per Si atom -5576.111851 kJ/mol
# Density = 2.273059 g / cm^3
# Si number density = 22.782447 Si / 1000 Ang^3
#
#
#
# Elastic Constant Matrix: (Units=GPa)
#
#
# Indices 1 2 3 4 5 6 
#
# 1 89.1415 52.1157 40.6659 -2.2547 -38.9166 -14.7146
# 2 52.1157 98.7525 19.1801 -18.0364 -17.6906 -8.8925
# 3 40.6659 19.1801 65.5097 -18.9986 -20.9599 -2.8855
# 4 -2.2547 -18.0364 -18.9986 28.5222 2.0177 -8.0595
# 5 -38.9166 -17.6906 -20.9599 2.0177 43.3411 2.6390
# 6 -14.7146 -8.8925 -2.8855 -8.0595 2.6390 38.1352
#
#
#
# Elastic Compliance Matrix: (Units=1/GPa)
#
#
# Indices 1 2 3 4 5 6 
#
# 1 0.036798 -0.015767 -0.017559 -0.018988 0.018762 0.003882
# 2 -0.015767 0.019852 0.008360 0.017993 -0.003043 0.003191
# 3 -0.017559 0.008360 0.031879 0.025842 0.001681 0.002931
# 4 -0.018988 0.017993 0.025842 0.065846 -0.001053 0.012813
# 5 0.018762 -0.003043 0.001681 -0.001053 0.039313 0.003714
# 6 0.003882 0.003191 0.002931 0.012813 0.003714 0.031137
#
#
# Mechanical properties :
#
#
# Convention : Reuss Voigt Hill
#
# Bulk Modulus (GPa) = 25.90900 53.03633 39.47266
# Shear Modulus (GPa) = 17.38395 31.42916 24.40656
#
# Velocity S-wave (km/s) = 2.76532 3.71824 3.27660
# Velocity P-wave (km/s) = 4.64683 6.46249 5.62835
#
# Compressibility (1/GPa) = 0.03859663
#
# Stress axis : x y z
#
# Youngs Moduli (GPa) = 27.17562 50.37348 31.36878
#
# Poissons Ratio (x) = 0.79422 0.55081
# Poissons Ratio (y) = 0.42847 -0.26224
# Poissons Ratio (z) = 0.47718 -0.42113
#
# Static dielectric constant tensor:
#      x y z
#    x 1.889400 0.048260 0.025270 
#    y 0.048260 1.846430 -0.050330 
#    z 0.025270 -0.050330 1.855340 
# 
# From -- ./inp_files/262947.got.cif
#   From: 2010.05.17/outbox.cif.g08.bks.cpg/sg2_132_cif.got.tgz:262947.got - 2010.06.03 11:33:40.
