data_PCOD9088230
_publ_section_title
;
Structure prediction by ZEFSAII (Michael W. Deem and Ramdas Pophale) SiO2 
 PCOD9088230
Probable space group: P -1
;
_chemical_formula_sum "Si O2"
_cell_formula_units_Z 12
_cell_length_a 9.651656
_cell_length_b 22.826970
_cell_length_c 12.403391
_cell_angle_alpha 27.400845
_cell_angle_beta 126.468075
_cell_angle_gamma 145.534375
_cell_volume 604.271201
_symmetry_space_group_name_H-M "P -1"
_symmetry_group_IT_number 2
_symmetry_cell_setting 'triclinic'
loop_
_space_group_symop_operation_xyz
x,y,z
-x,-y,-z
loop_
_atom_site_type_symbol
_atom_site_label
_atom_site_fract_x
_atom_site_fract_y
_atom_site_fract_z
Si Si1 0.473886 0.366664 0.948058
Si Si2 0.322490 0.179359 0.400493
Si Si3 0.964752 0.754376 0.387187
Si Si4 0.634524 0.174630 0.690614
Si Si5 0.522115 0.361418 0.416431
Si Si6 0.899070 0.948032 0.895166
O O1 0.750349 0.555619 0.693034
O O2 0.353633 0.436977 0.805287
O O3 0.523626 0.329238 0.146550
O O4 0.253301 0.155618 0.119849
O O5 0.396968 0.087510 0.638351
O O6 0.390740 0.310754 0.319166
O O7 0.000000 0.000000 0.500000
O O8 0.122870 0.751690 0.385639
O O9 0.818944 0.776871 0.208075
O O10 0.168163 0.963254 0.215776
O O11 0.721089 0.356759 0.495026
O O12 0.500000 0.000000 0.000000
O O13 0.244337 0.154045 0.697201
#
# Coordination Sequence:
#
# PCOD9088230 Si02
#       6
#     2   2   2   2   2   2
#     4  11  20  36  59  89 113 153 202 228 286 353
#     4  10  20  37  64  85 114 156 194 237 286 343
#     4  10  21  36  57  86 121 153 187 241 291 337
#     4  10  20  39  61  84 118 151 189 245 292 333
#     4   9  20  36  63  82 113 152 193 240 282 334
#     4  10  19  37  60  83 118 158 190 232 289 349
#
# _framework density 19.858633000000001
#
# number of rings (size 3 to 8) (size 9 to 14) (size 15 to 20)
#    1.000    1.000    3.333    1.000    0.000    0.667 
#    0.000    5.000    0.000    0.000    0.000    0.000 
#    0.000    0.000    0.000    0.000    0.000    0.000 
#
# Total GULP energy -66828.198979 kJ/mol
# GULP energy per Si atom -5569.016582 kJ/mol
# Density = 1.981343 g / cm^3
# Si number density = 19.858633 Si / 1000 Ang^3
#
#
#
# Elastic Constant Matrix: (Units=GPa)
#
#
# Indices 1 2 3 4 5 6 
#
# 1 133.5022 8.6431 37.0078 6.1127 0.7187 -18.6460
# 2 8.6431 32.1807 17.8588 17.1884 -1.8743 -14.9262
# 3 37.0078 17.8588 94.2173 30.9777 -17.6182 0.2989
# 4 6.1127 17.1884 30.9777 32.2591 -12.8340 -0.1043
# 5 0.7187 -1.8743 -17.6182 -12.8340 37.0156 4.4095
# 6 -18.6460 -14.9262 0.2989 -0.1043 4.4095 28.3368
#
#
#
# Elastic Compliance Matrix: (Units=1/GPa)
#
#
# Indices 1 2 3 4 5 6 
#
# 1 0.010152 0.005467 -0.005423 -0.001250 -0.004157 0.010259
# 2 0.005467 0.077522 -0.006214 -0.044228 -0.020127 0.047466
# 3 -0.005423 -0.006214 0.018779 -0.011449 0.005709 -0.007970
# 4 -0.001250 -0.044228 -0.011449 0.074171 0.021273 -0.027035
# 5 -0.004157 -0.020127 0.005709 0.021273 0.038470 -0.019305
# 6 0.010259 0.047466 -0.007970 -0.027035 -0.019305 0.070031
#
#
# Mechanical properties :
#
#
# Convention : Reuss Voigt Hill
#
# Bulk Modulus (GPa) = 10.62563 42.99107 26.80835
# Shear Modulus (GPa) = 15.02237 32.61501 23.81869
#
# Velocity S-wave (km/s) = 2.75338 4.05700 3.46701
# Velocity P-wave (km/s) = 3.93324 6.60615 5.43652
#
# Compressibility (1/GPa) = 0.09411204
#
# Stress axis : x y z
#
# Youngs Moduli (GPa) = 98.49896 12.89962 53.25152
#
# Poissons Ratio (x) = -0.07052 0.28878
# Poissons Ratio (y) = -0.53846 0.33091
# Poissons Ratio (z) = 0.53416 0.08016
#
# Static dielectric constant tensor:
#      x y z
#    x 1.722350 -0.016540 -0.003820 
#    y -0.016540 1.710070 -0.001300 
#    z -0.003820 -0.001300 1.735210 
# 
# From -- ./inp_files/19119.got.cif
#   From: 2010.05.17/outbox.cif.g08.bks.cpg/sg2_10_cif.got.tgz:19119.got - 2010.06.03 11:33:40.
