data_PCOD9088586
_publ_section_title
;
Structure prediction by ZEFSAII (Michael W. Deem and Ramdas Pophale) SiO2 
 PCOD9088586
Probable space group: P -1
;
_chemical_formula_sum "Si O2"
_cell_formula_units_Z 16
_cell_length_a 19.376872
_cell_length_b 8.064999
_cell_length_c 18.991695
_cell_angle_alpha 136.459545
_cell_angle_beta 158.984564
_cell_angle_gamma 47.631150
_cell_volume 733.150869
_symmetry_space_group_name_H-M "P -1"
_symmetry_group_IT_number 2
_symmetry_cell_setting 'triclinic'
loop_
_space_group_symop_operation_xyz
x,y,z
-x,-y,-z
loop_
_atom_site_type_symbol
_atom_site_label
_atom_site_fract_x
_atom_site_fract_y
_atom_site_fract_z
Si Si1 0.042593 0.753844 0.373682
Si Si2 0.902983 0.332986 0.260277
Si Si3 0.039301 0.764163 0.866310
Si Si4 0.235991 0.011848 0.512385
Si Si5 0.282523 0.569083 0.324647
Si Si6 0.060151 0.707595 0.024405
Si Si7 0.743261 0.835723 0.215216
Si Si8 0.555196 0.225550 0.982557
O O1 0.093544 0.854026 0.377251
O O2 0.091475 0.474229 0.342278
O O3 0.819356 0.786891 0.194298
O O4 0.167166 0.915658 0.595512
O O5 0.847639 0.225139 0.096855
O O6 0.854333 0.616241 0.295162
O O7 0.773889 0.218263 0.163827
O O8 0.121178 0.252605 0.456758
O O9 0.134328 0.702266 0.013356
O O10 0.941592 0.016345 0.866468
O O11 0.276444 0.839679 0.432623
O O12 0.422571 0.070273 0.754970
O O13 0.500000 0.500000 0.500000
O O14 0.183517 0.557570 0.150443
O O15 0.157390 0.396003 0.203974
O O16 0.523782 0.823387 0.029043
O O17 0.500000 0.500000 0.000000
#
# Coordination Sequence:
#
# PCOD9088586 Si02
#       8
#     2   2   2   2   2   2   2   2
#     4   9  17  33  58  83 118 158 197 238 295 355
#     4  10  20  36  62  87 120 161 200 246 299 358
#     4  10  19  37  62  85 122 162 196 247 298 365
#     4  11  21  37  61  88 115 163 206 239 310 359
#     4  11  24  41  64  91 120 155 203 257 303 358
#     4  10  22  41  63  88 121 157 202 250 311 352
#     4   8  17  34  57  84 117 158 195 246 293 349
#     4   9  20  35  56  88 119 149 199 251 290 351
#
# _framework density 21.823613000000002
#
# number of rings (size 3 to 8) (size 9 to 14) (size 15 to 20)
#    0.000    2.250    2.500    0.000    1.750    4.500 
#    0.000    4.375    0.000    7.500    0.000    0.000 
#    0.000    0.000    0.000    0.000    0.000    0.000 
#
# Total GULP energy -89169.905356 kJ/mol
# GULP energy per Si atom -5573.119085 kJ/mol
# Density = 2.177394 g / cm^3
# Si number density = 21.823613 Si / 1000 Ang^3
#
#
#
# Elastic Constant Matrix: (Units=GPa)
#
#
# Indices 1 2 3 4 5 6 
#
# 1 99.4820 1.3794 13.2456 1.0388 -1.1740 -1.4438
# 2 1.3794 79.0439 22.5488 17.4182 5.0447 -3.9891
# 3 13.2456 22.5488 40.8602 -1.2186 10.0542 -12.5669
# 4 1.0388 17.4182 -1.2186 29.3643 -1.8932 -1.7479
# 5 -1.1740 5.0447 10.0542 -1.8932 23.1661 2.9175
# 6 -1.4438 -3.9891 -12.5669 -1.7479 2.9175 30.2022
#
#
#
# Elastic Compliance Matrix: (Units=1/GPa)
#
#
# Indices 1 2 3 4 5 6 
#
# 1 0.010804 0.001457 -0.005658 -0.001419 0.002822 -0.002000
# 2 0.001457 0.018465 -0.012243 -0.011658 0.000834 -0.003341
# 3 -0.005658 -0.012243 0.043465 0.009202 -0.018059 0.018475
# 4 -0.001419 -0.011658 0.009202 0.041756 0.001317 0.004510
# 5 0.002822 0.000834 -0.018059 0.001317 0.052619 -0.012276
# 6 -0.002000 -0.003341 0.018475 0.004510 -0.012276 0.041707
#
#
# Mechanical properties :
#
#
# Convention : Reuss Voigt Hill
#
# Bulk Modulus (GPa) = 25.09686 32.63708 28.86697
# Shear Modulus (GPa) = 19.60881 28.69402 24.15141
#
# Velocity S-wave (km/s) = 3.00077 3.62997 3.33027
# Velocity P-wave (km/s) = 4.85088 5.70582 5.29563
#
# Compressibility (1/GPa) = 0.03984562
#
# Stress axis : x y z
#
# Youngs Moduli (GPa) = 92.55528 54.15513 23.00722
#
# Poissons Ratio (x) = -0.07891 0.13019
# Poissons Ratio (y) = -0.13487 0.28168
# Poissons Ratio (z) = 0.52372 0.66303
#
# Static dielectric constant tensor:
#      x y z
#    x 1.881540 0.019180 0.006140 
#    y 0.019180 1.813950 0.000700 
#    z 0.006140 0.000700 1.814360 
# 
# From -- ./inp_files/601238.got.cif
#   From: 2010.05.17/outbox.cif.g08.bks.cpg/sg2_301_cif.got.tgz:601238.got - 2010.06.03 11:33:40.
