data_PCOD9088502
_publ_section_title
;
Structure prediction by ZEFSAII (Michael W. Deem and Ramdas Pophale) SiO2 
 PCOD9088502
Probable space group: P -1
;
_chemical_formula_sum "Si O2"
_cell_formula_units_Z 16
_cell_length_a 11.179223
_cell_length_b 22.787338
_cell_length_c 7.665158
_cell_angle_alpha 55.082414
_cell_angle_beta 42.399786
_cell_angle_gamma 33.289322
_cell_volume 717.345864
_symmetry_space_group_name_H-M "P -1"
_symmetry_group_IT_number 2
_symmetry_cell_setting 'triclinic'
loop_
_space_group_symop_operation_xyz
x,y,z
-x,-y,-z
loop_
_atom_site_type_symbol
_atom_site_label
_atom_site_fract_x
_atom_site_fract_y
_atom_site_fract_z
Si Si1 0.447442 0.617617 0.532957
Si Si2 0.201401 0.953753 0.514967
Si Si3 0.896440 0.916533 0.048594
Si Si4 0.849828 0.381265 0.421049
Si Si5 0.294149 0.623889 0.041844
Si Si6 0.262275 0.178526 0.769594
Si Si7 0.858216 0.167488 0.714170
Si Si8 0.545481 0.841708 0.786145
O O1 0.742548 0.494319 0.389002
O O2 0.271328 0.606381 0.654733
O O3 0.320128 0.721719 0.386188
O O4 0.401406 0.646866 0.739167
O O5 0.504464 0.871998 0.264533
O O6 0.000000 0.000000 0.500000
O O7 0.098471 0.058003 0.534929
O O8 0.130296 0.903872 0.785530
O O9 0.848404 0.868721 0.041423
O O10 0.994036 0.851702 0.235515
O O11 0.619300 0.042749 0.151133
O O12 0.737312 0.366089 0.730979
O O13 0.165816 0.270647 0.265224
O O14 0.999351 0.694759 0.168223
O O15 0.500000 0.500000 0.000000
O O16 0.410018 0.148685 0.478206
O O17 0.656305 0.163450 0.975129
#
# Coordination Sequence:
#
# PCOD9088502 Si02
#       8
#     2   2   2   2   2   2   2   2
#     4  10  21  37  60  90 122 160 215 259 309 371
#     4  11  25  40  54  92 135 161 206 257 311 381
#     4  11  22  39  64  91 122 163 213 253 313 376
#     4   9  20  38  62  88 118 165 212 259 309 374
#     4   9  20  38  61  90 121 159 212 260 307 372
#     4  11  21  38  68  88 121 171 204 257 322 369
#     4  11  21  38  60  88 128 162 199 270 306 367
#     4  10  19  37  61  90 121 160 208 256 312 370
#
# _framework density 22.304444
#
# number of rings (size 3 to 8) (size 9 to 14) (size 15 to 20)
#    0.000    1.750    2.500    2.625    3.500    3.000 
#    0.000    0.000    0.000    2.250    0.000    0.000 
#    0.000    0.000    0.000    0.000    0.000    0.000 
#
# Total GULP energy -89087.843196 kJ/mol
# GULP energy per Si atom -5567.990200 kJ/mol
# Density = 2.225368 g / cm^3
# Si number density = 22.304444 Si / 1000 Ang^3
#
#
#
# Elastic Constant Matrix: (Units=GPa)
#
#
# Indices 1 2 3 4 5 6 
#
# 1 51.5049 25.5396 14.4760 3.6326 -4.5730 -22.6185
# 2 25.5396 176.6888 45.2383 13.6131 -17.2880 -27.4222
# 3 14.4760 45.2383 46.4140 -3.6060 5.6307 7.6755
# 4 3.6326 13.6131 -3.6060 39.5392 -11.6501 2.1017
# 5 -4.5730 -17.2880 5.6307 -11.6501 28.8947 -3.5815
# 6 -22.6185 -27.4222 7.6755 2.1017 -3.5815 22.8189
#
#
#
# Elastic Compliance Matrix: (Units=1/GPa)
#
#
# Indices 1 2 3 4 5 6 
#
# 1 -0.030399 -0.032410 0.063625 0.012038 -0.043955 -0.098489
# 2 -0.032410 -0.009638 0.032326 0.005846 -0.022100 -0.058587
# 3 0.063625 0.032326 -0.058817 -0.014158 0.051410 0.131069
# 4 0.012038 0.005846 -0.014158 0.025959 0.021694 0.024734
# 5 -0.043955 -0.022100 0.051410 0.021694 0.002116 -0.089085
# 6 -0.098489 -0.058587 0.131069 0.024734 -0.089085 -0.184554
#
#
# Mechanical properties :
#
#
# Convention : Reuss Voigt Hill
#
# Bulk Modulus (GPa) = 35.42680 49.45727 42.44203
# Shear Modulus (GPa) = -13.40466 30.87416 8.73475
#
# Velocity S-wave (km/s) = -2.45416 3.72454 1.98107
# Velocity P-wave (km/s) = 2.80842 6.38108 4.92978
#
# Compressibility (1/GPa) = 0.02822722
#
# Stress axis : x y z
#
# Youngs Moduli (GPa) = -32.89583 -103.76008 -17.00186
#
# Poissons Ratio (x) = -3.36283 1.08174
# Poissons Ratio (y) = -1.06614 0.54959
# Poissons Ratio (z) = 2.09298 3.35410
#
# Static dielectric constant tensor:
#      x y z
#    x 1.526770 -0.407410 0.246820 
#    y -0.407410 1.545130 0.141220 
#    z 0.246820 0.141220 1.879960 
# 
# From -- ./inp_files/239093.got.cif
#   From: 2010.05.17/outbox.cif.g08.bks.cpg/sg2_120_cif.got.tgz:239093.got - 2010.06.03 11:33:40.
