data_PCOD9088705
_publ_section_title
;
Structure prediction by ZEFSAII (Michael W. Deem and Ramdas Pophale) SiO2 
 PCOD9088705
Probable space group: P -1
;
_chemical_formula_sum "Si O2"
_cell_formula_units_Z 16
_cell_length_a 9.419370
_cell_length_b 19.112514
_cell_length_c 7.550843
_cell_angle_alpha 36.870031
_cell_angle_beta 60.945756
_cell_angle_gamma 59.024342
_cell_volume 692.048043
_symmetry_space_group_name_H-M "P -1"
_symmetry_group_IT_number 2
_symmetry_cell_setting 'triclinic'
loop_
_space_group_symop_operation_xyz
x,y,z
-x,-y,-z
loop_
_atom_site_type_symbol
_atom_site_label
_atom_site_fract_x
_atom_site_fract_y
_atom_site_fract_z
Si Si1 0.985507 0.666492 0.189321
Si Si2 0.552186 0.998879 0.260147
Si Si3 0.848063 0.083599 0.027824
Si Si4 0.597422 0.545578 0.108343
Si Si5 0.719254 0.522877 0.690723
Si Si6 0.733255 0.747429 0.736285
Si Si7 0.799307 0.903228 0.713902
Si Si8 0.910721 0.345942 0.458045
O O1 0.139200 0.600612 0.106956
O O2 0.050785 0.619051 0.438826
O O3 0.821796 0.614643 0.367212
O O4 0.940670 0.810714 0.922949
O O5 0.650511 0.863517 0.430558
O O6 0.500000 0.000000 0.500000
O O7 0.682171 0.081423 0.019329
O O8 0.374587 0.048044 0.175975
O O9 0.840523 0.014903 0.358390
O O10 0.871025 0.216031 0.756395
O O11 0.000000 0.000000 0.000000
O O12 0.422740 0.507126 0.288371
O O13 0.752150 0.439306 0.287910
O O14 0.632801 0.573623 0.824831
O O15 0.606635 0.661318 0.984533
O O16 0.767932 0.811571 0.764881
O O17 0.913293 0.671698 0.715345
#
# Coordination Sequence:
#
# PCOD9088705 Si02
#       8
#     2   2   2   2   2   2   2   2
#     4  11  25  42  60  93 132 165 197 263 322 361
#     4   8  18  36  61  89 119 158 202 257 301 361
#     4  10  19  37  62  95 117 161 212 252 300 368
#     4  11  24  42  68  93 119 169 212 258 299 378
#     4  10  25  44  60  92 133 160 206 256 319 366
#     4  10  19  39  65  91 123 164 210 252 308 371
#     4  10  22  40  65  86 130 168 198 259 317 362
#     4  12  23  37  68  96 124 161 217 249 307 377
#
# _framework density 23.119781
#
# number of rings (size 3 to 8) (size 9 to 14) (size 15 to 20)
#    0.000    2.000    3.750    1.125    5.250    4.000 
#    0.000    0.625    0.000    0.000    0.000    0.000 
#    0.000    0.000    0.000    0.000    0.000    0.000 
#
# Total GULP energy -89367.516154 kJ/mol
# GULP energy per Si atom -5585.469760 kJ/mol
# Density = 2.306716 g / cm^3
# Si number density = 23.119781 Si / 1000 Ang^3
#
#
#
# Elastic Constant Matrix: (Units=GPa)
#
#
# Indices 1 2 3 4 5 6 
#
# 1 84.5958 13.5746 39.9078 -0.0765 -21.1093 -4.3187
# 2 13.5746 36.0725 -3.0656 -1.7694 -8.8062 -9.0677
# 3 39.9078 -3.0656 87.9219 -20.3453 -16.5853 3.2050
# 4 -0.0765 -1.7694 -20.3453 28.2411 0.1310 -8.4363
# 5 -21.1093 -8.8062 -16.5853 0.1310 43.9728 -7.5720
# 6 -4.3187 -9.0677 3.2050 -8.4363 -7.5720 36.0283
#
#
#
# Elastic Compliance Matrix: (Units=1/GPa)
#
#
# Indices 1 2 3 4 5 6 
#
# 1 0.018456 -0.007032 -0.009549 -0.007155 0.003948 0.000446
# 2 -0.007032 0.037187 0.008654 0.012268 0.009470 0.012610
# 3 -0.009549 0.008654 0.020805 0.016764 0.005687 0.004303
# 4 -0.007155 0.012268 0.016764 0.052583 0.007715 0.014673
# 5 0.003948 0.009470 0.005687 0.007715 0.030474 0.010562
# 6 0.000446 0.012610 0.004303 0.014673 0.010562 0.036256
#
#
# Mechanical properties :
#
#
# Convention : Reuss Voigt Hill
#
# Bulk Modulus (GPa) = 16.50346 34.38040 25.44193
# Shear Modulus (GPa) = 21.56921 32.19333 26.88127
#
# Velocity S-wave (km/s) = 3.05771 3.73561 3.41353
# Velocity P-wave (km/s) = 4.42943 5.78872 5.15408
#
# Compressibility (1/GPa) = 0.06059335
#
# Stress axis : x y z
#
# Youngs Moduli (GPa) = 54.18411 26.89114 48.06541
#
# Poissons Ratio (x) = 0.18909 0.45900
# Poissons Ratio (y) = 0.38100 -0.41596
# Poissons Ratio (z) = 0.51743 -0.23272
#
# Static dielectric constant tensor:
#      x y z
#    x 1.931610 -0.079370 0.142960 
#    y -0.079370 1.861810 0.077780 
#    z 0.142960 0.077780 1.759000 
# 
# From -- ./inp_files/222836.got.cif
#   From: 2010.05.17/outbox.cif.g08.bks.cpg/sg2_112_cif.got.tgz:222836.got - 2010.06.03 11:33:40.
