data_PCOD9088331
_publ_section_title
;
Structure prediction by ZEFSAII (Michael W. Deem and Ramdas Pophale) SiO2 
 PCOD9088331
Probable space group: P -1
;
_chemical_formula_sum "Si O2"
_cell_formula_units_Z 14
_cell_length_a 5.048434
_cell_length_b 26.541142
_cell_length_c 5.522143
_cell_angle_alpha 130.094923
_cell_angle_beta 80.521969
_cell_angle_gamma 94.042613
_cell_volume 557.674642
_symmetry_space_group_name_H-M "P -1"
_symmetry_group_IT_number 2
_symmetry_cell_setting 'triclinic'
loop_
_space_group_symop_operation_xyz
x,y,z
-x,-y,-z
loop_
_atom_site_type_symbol
_atom_site_label
_atom_site_fract_x
_atom_site_fract_y
_atom_site_fract_z
Si Si1 0.197968 0.353932 0.536547
Si Si2 0.715936 0.513325 0.217019
Si Si3 0.275502 0.760129 0.291768
Si Si4 0.639595 0.378242 0.930123
Si Si5 0.808291 0.788355 0.104483
Si Si6 0.969545 0.873301 0.954166
Si Si7 0.490504 0.958836 0.123081
O O1 0.287420 0.408081 0.492391
O O2 0.358663 0.370725 0.809617
O O3 0.879698 0.364223 0.654241
O O4 0.262486 0.278141 0.233175
O O5 0.500000 0.500000 0.000000
O O6 0.686051 0.454225 0.231629
O O7 0.000000 0.500000 0.000000
O O8 0.301154 0.682247 0.087126
O O9 0.569320 0.788384 0.335015
O O10 0.094459 0.801247 0.638537
O O11 0.106198 0.775856 0.125192
O O12 0.809866 0.855787 0.166400
O O13 0.752069 0.909204 0.926956
O O14 0.219204 0.919486 0.066967
O O15 0.500000 0.000000 0.500000
O O16 0.500000 0.000000 0.000000
#
# Coordination Sequence:
#
# PCOD9088331 Si02
#       7
#     2   2   2   2   2   2   2
#     4  10  19  37  60  90 132 178 234 291 353 419
#     4   8  16  30  56  84 120 179 229 284 354 415
#     4  12  26  42  69 104 142 183 237 292 357 424
#     4  10  19  37  60  90 132 178 234 291 353 419
#     4  12  26  42  69 104 142 183 237 292 357 424
#     4  12  28  50  78 105 152 188 232 292 356 437
#     4  12  30  54  84 116 154 197 244 297 362 440
#
# _framework density 25.104246
#
# number of rings (size 3 to 8) (size 9 to 14) (size 15 to 20)
#    0.000    1.143    1.429    4.286    8.000    0.000 
#    0.000    1.429    0.000    0.000    0.000    0.000 
#    0.000    0.000    0.000    0.000    0.000    0.000 
#
# Total GULP energy -78299.594347 kJ/mol
# GULP energy per Si atom -5592.828168 kJ/mol
# Density = 2.504711 g / cm^3
# Si number density = 25.104246 Si / 1000 Ang^3
#
#
#
# Elastic Constant Matrix: (Units=GPa)
#
#
# Indices 1 2 3 4 5 6 
#
# 1 130.8196 46.0946 17.1400 22.9409 -2.6824 4.5809
# 2 46.0946 205.3538 22.5224 16.3376 7.7655 -1.8984
# 3 17.1400 22.5224 80.0979 12.7869 -1.4221 -0.7111
# 4 22.9409 16.3376 12.7869 22.1285 0.6084 0.1597
# 5 -2.6824 7.7655 -1.4221 0.6084 38.0982 4.7459
# 6 4.5809 -1.8984 -0.7111 0.1597 4.7459 46.3121
#
#
#
# Elastic Compliance Matrix: (Units=1/GPa)
#
#
# Indices 1 2 3 4 5 6 
#
# 1 0.009855 -0.001531 -0.000232 -0.008979 0.001283 -0.001142
# 2 -0.001531 0.005522 -0.000938 -0.001916 -0.001301 0.000503
# 3 -0.000232 -0.000938 0.013956 -0.007154 0.000792 0.000142
# 4 -0.008979 -0.001916 -0.007154 0.060085 -0.001549 0.000651
# 5 0.001283 -0.001301 0.000792 -0.001549 0.027023 -0.002932
# 6 -0.001142 0.000503 0.000142 0.000651 -0.002932 0.022027
#
#
# Mechanical properties :
#
#
# Convention : Reuss Voigt Hill
#
# Bulk Modulus (GPa) = 41.78863 65.30946 53.54905
# Shear Modulus (GPa) = 32.92785 43.34206 38.13496
#
# Velocity S-wave (km/s) = 3.62559 4.15961 3.90175
# Velocity P-wave (km/s) = 5.84882 7.01010 6.45563
#
# Compressibility (1/GPa) = 0.02392995
#
# Stress axis : x y z
#
# Youngs Moduli (GPa) = 101.47163 181.07793 71.65630
#
# Poissons Ratio (x) = 0.27729 0.01664
# Poissons Ratio (y) = 0.15539 0.06721
# Poissons Ratio (z) = 0.02356 0.16985
#
# Static dielectric constant tensor:
#      x y z
#    x 1.889200 -0.002880 -0.051340 
#    y -0.002880 1.999250 -0.010670 
#    z -0.051340 -0.010670 2.073810 
# 
# From -- ./inp_files/14772.got.cif
#   From: 2010.05.17/outbox.cif.g08.bks.cpg/sg2_8_cif.got.tgz:14772.got - 2010.06.03 11:33:40.
