data_PCOD9088251
_publ_section_title
;
Structure prediction by ZEFSAII (Michael W. Deem and Ramdas Pophale) SiO2 
 PCOD9088251
Probable space group: P -1
;
_chemical_formula_sum "Si O2"
_cell_formula_units_Z 16
_cell_length_a 8.188126
_cell_length_b 7.707096
_cell_length_c 15.980866
_cell_angle_alpha 56.689916
_cell_angle_beta 75.357031
_cell_angle_gamma 50.372093
_cell_volume 641.652307
_symmetry_space_group_name_H-M "P -1"
_symmetry_group_IT_number 2
_symmetry_cell_setting 'triclinic'
loop_
_space_group_symop_operation_xyz
x,y,z
-x,-y,-z
loop_
_atom_site_type_symbol
_atom_site_label
_atom_site_fract_x
_atom_site_fract_y
_atom_site_fract_z
Si Si1 0.171419 0.623377 0.451162
Si Si2 0.566713 0.496103 0.818419
Si Si3 0.783488 0.847161 0.726668
Si Si4 0.853154 0.447857 0.926585
Si Si5 0.841964 0.177953 0.291019
Si Si6 0.314311 0.227927 0.403918
Si Si7 0.703996 0.932406 0.940492
Si Si8 0.418944 0.388478 0.648259
O O1 0.157329 0.458246 0.426657
O O2 0.254468 0.493806 0.565027
O O3 0.379248 0.611393 0.399934
O O4 0.941138 0.910361 0.399736
O O5 0.675503 0.433656 0.912282
O O6 0.309746 0.717079 0.797152
O O7 0.610561 0.647591 0.704109
O O8 0.636631 0.218028 0.848138
O O9 0.898701 0.543295 0.810541
O O10 0.773464 0.880803 0.618833
O O11 0.938890 0.879961 0.747355
O O12 0.540298 0.076060 0.725885
O O13 0.757807 0.700981 0.931559
O O14 0.073717 0.204228 0.000905
O O15 0.713152 0.416807 0.310128
O O16 0.500000 0.000000 0.500000
O O17 0.500000 0.000000 0.000000
#
# Coordination Sequence:
#
# PCOD9088251 Si02
#       8
#     2   2   2   2   2   2   2   2
#     4  10  21  36  59  87 125 182 226 279 329 382
#     4  11  24  45  70  99 143 181 223 281 340 404
#     4  10  22  40  65  95 134 177 223 281 340 395
#     4  10  24  45  70 104 139 172 220 282 345 419
#     4  11  22  38  61  96 125 179 230 274 333 396
#     4  11  22  43  63  95 139 185 232 279 332 400
#     4  11  24  47  76 106 133 171 223 282 354 413
#     4  10  19  37  60  84 127 178 232 278 325 389
#
# _framework density 24.935621999999999
#
# number of rings (size 3 to 8) (size 9 to 14) (size 15 to 20)
#    0.000    1.500    2.500    2.250    1.750    1.500 
#   11.250    1.250    0.000    0.000    0.000    0.000 
#    0.000    0.000    0.000    0.000    0.000    0.000 
#
# Total GULP energy -89226.178496 kJ/mol
# GULP energy per Si atom -5576.636156 kJ/mol
# Density = 2.487887 g / cm^3
# Si number density = 24.935622 Si / 1000 Ang^3
#
#
#
# Elastic Constant Matrix: (Units=GPa)
#
#
# Indices 1 2 3 4 5 6 
#
# 1 95.0553 42.9557 37.6542 -9.7248 37.7890 2.1359
# 2 42.9557 129.1524 57.6701 -28.0021 28.9316 -2.2565
# 3 37.6542 57.6701 118.2504 -43.6166 36.4271 -6.7065
# 4 -9.7248 -28.0021 -43.6166 45.2719 -5.2290 7.5455
# 5 37.7890 28.9316 36.4271 -5.2290 57.8084 -2.2424
# 6 2.1359 -2.2565 -6.7065 7.5455 -2.2424 29.6218
#
#
#
# Elastic Compliance Matrix: (Units=1/GPa)
#
#
# Indices 1 2 3 4 5 6 
#
# 1 0.015545 -0.002894 -0.001289 -0.000255 -0.008009 -0.002174
# 2 -0.002894 0.011024 -0.002686 0.003516 -0.001637 -0.000579
# 3 -0.001289 -0.002686 0.017889 0.014452 -0.007791 -0.000333
# 4 -0.000255 0.003516 0.014452 0.038399 -0.007490 -0.006790
# 5 -0.008009 -0.001637 -0.007791 -0.007490 0.027689 0.002693
# 6 -0.002174 -0.000579 -0.000333 -0.006790 0.002693 0.035730
#
#
# Mechanical properties :
#
#
# Convention : Reuss Voigt Hill
#
# Bulk Modulus (GPa) = 32.55298 68.77980 50.66639
# Shear Modulus (GPa) = 29.36780 40.15231 34.76005
#
# Velocity S-wave (km/s) = 3.43555 4.01713 3.73767
# Velocity P-wave (km/s) = 5.36847 7.01137 6.24419
#
# Compressibility (1/GPa) = 0.03071915
#
# Stress axis : x y z
#
# Youngs Moduli (GPa) = 64.32873 90.71277 55.90027
#
# Poissons Ratio (x) = 0.26252 0.07206
# Poissons Ratio (y) = 0.18617 0.15017
# Poissons Ratio (z) = 0.08293 0.24368
#
# Static dielectric constant tensor:
#      x y z
#    x 2.351250 0.010150 -0.152150 
#    y 0.010150 1.947640 0.044980 
#    z -0.152150 0.044980 2.081170 
# 
# From -- ./inp_files/556990.got.cif
#   From: 2010.05.17/outbox.cif.g08.bks.cpg/sg2_279_cif.got.tgz:556990.got - 2010.06.03 11:33:40.
