data_PCOD9088231
_publ_section_title
;
Structure prediction by ZEFSAII (Michael W. Deem and Ramdas Pophale) SiO2 
 PCOD9088231
Probable space group: P -1
;
_chemical_formula_sum "Si O2"
_cell_formula_units_Z 10
_cell_length_a 5.291013
_cell_length_b 13.090503
_cell_length_c 9.618093
_cell_angle_alpha 144.489820
_cell_angle_beta 102.402412
_cell_angle_gamma 80.229086
_cell_volume 377.897024
_symmetry_space_group_name_H-M "P -1"
_symmetry_group_IT_number 2
_symmetry_cell_setting 'triclinic'
loop_
_space_group_symop_operation_xyz
x,y,z
-x,-y,-z
loop_
_atom_site_type_symbol
_atom_site_label
_atom_site_fract_x
_atom_site_fract_y
_atom_site_fract_z
Si Si1 0.859804 0.700048 0.634062
Si Si2 0.319874 0.689280 0.527568
Si Si3 0.266912 0.914876 0.032224
Si Si4 0.418861 0.171721 0.767202
Si Si5 0.138500 0.685429 0.195008
O O1 0.591236 0.598545 0.486187
O O2 0.073978 0.590332 0.455300
O O3 0.006007 0.793663 0.883906
O O4 0.794223 0.878963 0.734693
O O5 0.333946 0.856601 0.818165
O O6 0.257948 0.736504 0.415702
O O7 0.486259 0.857020 0.097620
O O8 0.618337 0.314875 0.881656
O O9 0.112449 0.201067 0.751599
O O10 0.500000 0.000000 0.500000
O O11 0.000000 0.500000 0.000000
#
# Coordination Sequence:
#
# PCOD9088231 Si02
#       5
#     2   2   2   2   2
#     4   9  19  31  63  88 129 155 213 255 343 362
#     4  10  19  37  60  83 120 175 211 243 322 397
#     4   9  21  34  62  91 125 162 212 271 313 382
#     4  12  26  42  71 104 131 162 232 282 318 374
#     4  12  27  46  65  94 142 182 208 265 347 399
#
# _framework density 26.462236000000001
#
# number of rings (size 3 to 8) (size 9 to 14) (size 15 to 20)
#    1.200    0.400    0.000    5.400    2.800    0.000 
#    0.000    2.000    0.000    0.000    0.000    0.000 
#    0.000    0.000    0.000    0.000    0.000    0.000 
#
# Total GULP energy -55851.518412 kJ/mol
# GULP energy per Si atom -5585.151841 kJ/mol
# Density = 2.640201 g / cm^3
# Si number density = 26.462236 Si / 1000 Ang^3
#
#
#
# Elastic Constant Matrix: (Units=GPa)
#
#
# Indices 1 2 3 4 5 6 
#
# 1 187.6166 35.3629 6.3383 -14.0690 21.4724 -35.7549
# 2 35.3629 129.7398 52.7100 -36.3582 12.9912 -35.3470
# 3 6.3383 52.7100 70.5054 -9.4955 19.3093 -1.0106
# 4 -14.0690 -36.3582 -9.4955 51.4121 1.6030 12.3016
# 5 21.4724 12.9912 19.3093 1.6030 31.8903 -1.8002
# 6 -35.7549 -35.3470 -1.0106 12.3016 -1.8002 55.0019
#
#
#
# Elastic Compliance Matrix: (Units=1/GPa)
#
#
# Indices 1 2 3 4 5 6 
#
# 1 0.006734 -0.000689 0.001447 0.000918 -0.004973 0.003593
# 2 -0.000689 0.017098 -0.011767 0.007640 0.000727 0.008639
# 3 0.001447 -0.011767 0.025923 -0.001260 -0.012167 -0.006262
# 4 0.000918 0.007640 -0.001260 0.025067 -0.004242 -0.000262
# 5 -0.004973 0.000727 -0.012167 -0.004242 0.041952 -0.000667
# 6 0.003593 0.008639 -0.006262 -0.000262 -0.000667 0.025990
#
#
# Mechanical properties :
#
#
# Convention : Reuss Voigt Hill
#
# Bulk Modulus (GPa) = 36.05414 64.07602 50.06508
# Shear Modulus (GPa) = 28.73102 47.22423 37.97762
#
# Velocity S-wave (km/s) = 3.29863 4.22902 3.79246
# Velocity P-wave (km/s) = 5.30681 6.93635 6.17556
#
# Compressibility (1/GPa) = 0.02773606
#
# Stress axis : x y z
#
# Youngs Moduli (GPa) = 148.50665 58.48625 38.57592
#
# Poissons Ratio (x) = 0.04031 -0.05581
# Poissons Ratio (y) = 0.10235 0.45392
# Poissons Ratio (z) = -0.21486 0.68821
#
# Static dielectric constant tensor:
#      x y z
#    x 2.423780 0.047780 0.060010 
#    y 0.047780 2.121320 0.030410 
#    z 0.060010 0.030410 2.050320 
# 
# From -- ./inp_files/21877.got.cif
#   From: 2010.05.17/outbox.cif.g08.bks.cpg/sg2_11_cif.got.tgz:21877.got - 2010.06.03 11:33:40.
