data_PCOD9088925
_publ_section_title
;
Structure prediction by ZEFSAII (Michael W. Deem and Ramdas Pophale) SiO2 
 PCOD9088925
Probable space group: P -1
;
_chemical_formula_sum "Si O2"
_cell_formula_units_Z 16
_cell_length_a 14.453244
_cell_length_b 9.431210
_cell_length_c 7.993922
_cell_angle_alpha 69.590828
_cell_angle_beta 97.269358
_cell_angle_gamma 47.896450
_cell_volume 648.033254
_symmetry_space_group_name_H-M "P -1"
_symmetry_group_IT_number 2
_symmetry_cell_setting 'triclinic'
loop_
_space_group_symop_operation_xyz
x,y,z
-x,-y,-z
loop_
_atom_site_type_symbol
_atom_site_label
_atom_site_fract_x
_atom_site_fract_y
_atom_site_fract_z
Si Si1 0.231772 0.092376 0.117427
Si Si2 0.577823 0.739729 0.653695
Si Si3 0.158825 0.521999 0.949812
Si Si4 0.226468 0.596966 0.482205
Si Si5 0.498210 0.826272 0.098875
Si Si6 0.390493 0.766462 0.804952
Si Si7 0.868016 0.968428 0.579247
Si Si8 0.990017 0.832654 0.108900
O O1 0.172702 0.333800 0.966336
O O2 0.404184 0.891045 0.211379
O O3 0.179179 0.115395 0.282042
O O4 0.168069 0.043126 0.999183
O O5 0.682513 0.621304 0.891810
O O6 0.678385 0.561069 0.596373
O O7 0.461979 0.755196 0.663843
O O8 0.500000 0.000000 0.500000
O O9 0.074771 0.638028 0.061298
O O10 0.044417 0.752587 0.708672
O O11 0.333710 0.424182 0.729473
O O12 0.186987 0.819577 0.414573
O O13 0.074759 0.704992 0.354437
O O14 0.406791 0.870328 0.908797
O O15 0.500000 0.000000 0.000000
O O16 0.228528 0.916289 0.657265
O O17 0.500000 0.500000 0.000000
O O18 0.000000 0.000000 0.000000
#
# Coordination Sequence:
#
# PCOD9088925 Si02
#       8
#     2   2   2   2   2   2   2   2
#     4  11  23  41  71  98 129 172 220 270 330 400
#     4  11  24  43  70  99 131 178 226 272 333 403
#     4  10  21  39  67 100 133 166 216 278 324 394
#     4  11  22  41  70  97 129 167 223 276 324 396
#     4  12  27  45  65  94 136 178 222 272 332 398
#     4  12  26  43  64  97 137 173 222 279 335 391
#     4  11  22  42  68 101 127 171 220 274 336 386
#     4  10  19  37  64 103 130 155 212 280 329 378
#
# _framework density 24.690090000000001
#
# number of rings (size 3 to 8) (size 9 to 14) (size 15 to 20)
#    0.000    1.000    3.750    5.250    1.750    4.000 
#    0.000    4.375    0.000    0.000    0.000    0.000 
#    0.000    0.000    0.000    0.000    0.000    0.000 
#
# Total GULP energy -89409.407302 kJ/mol
# GULP energy per Si atom -5588.087956 kJ/mol
# Density = 2.463389 g / cm^3
# Si number density = 24.690090 Si / 1000 Ang^3
#
#
#
# Elastic Constant Matrix: (Units=GPa)
#
#
# Indices 1 2 3 4 5 6 
#
# 1 103.0263 35.8623 35.0673 -14.6286 36.3958 2.3267
# 2 35.8623 96.4708 49.2998 -10.5852 10.8752 22.5164
# 3 35.0673 49.2998 166.5211 -7.5517 56.7101 5.4915
# 4 -14.6286 -10.5852 -7.5517 52.0375 0.1214 4.4269
# 5 36.3958 10.8752 56.7101 0.1214 51.7499 3.6322
# 6 2.3267 22.5164 5.4915 4.4269 3.6322 45.8728
#
#
#
# Elastic Compliance Matrix: (Units=1/GPa)
#
#
# Indices 1 2 3 4 5 6 
#
# 1 0.016093 -0.006316 0.003225 0.003514 -0.013719 0.002645
# 2 -0.006316 0.016975 -0.006147 0.001452 0.008174 -0.008063
# 3 0.003225 -0.006147 0.011986 0.001222 -0.014285 0.002432
# 4 0.003514 0.001452 0.001222 0.020920 -0.003973 -0.002742
# 5 -0.013719 0.008174 -0.014285 -0.003973 0.043244 -0.004647
# 6 0.002645 -0.008063 0.002432 -0.002742 -0.004647 0.025964
#
#
# Mechanical properties :
#
#
# Convention : Reuss Voigt Hill
#
# Bulk Modulus (GPa) = 37.62538 67.38633 52.50586
# Shear Modulus (GPa) = 30.76595 46.31798 38.54197
#
# Velocity S-wave (km/s) = 3.53382 4.33595 3.95527
# Velocity P-wave (km/s) = 5.65002 7.24013 6.49392
#
# Compressibility (1/GPa) = 0.02657781
#
# Stress axis : x y z
#
# Youngs Moduli (GPa) = 62.14049 58.91008 83.42984
#
# Poissons Ratio (x) = 0.37205 -0.26907
# Poissons Ratio (y) = 0.39245 0.51288
# Poissons Ratio (z) = -0.20041 0.36215
#
# Static dielectric constant tensor:
#      x y z
#    x 2.068250 -0.114540 -0.034760 
#    y -0.114540 1.975490 0.041840 
#    z -0.034760 0.041840 2.021380 
# 
# From -- ./inp_files/297899.got.cif
#   From: 2010.05.17/outbox.cif.g08.bks.cpg/sg2_149_cif.got.tgz:297899.got - 2010.06.03 11:33:40.
