data_PCOD9088165
_publ_section_title
;
Structure prediction by ZEFSAII (Michael W. Deem and Ramdas Pophale) SiO2 
 PCOD9088165
Probable space group: P -1
;
_chemical_formula_sum "Si O2"
_cell_formula_units_Z 16
_cell_length_a 10.817483
_cell_length_b 22.755055
_cell_length_c 16.228554
_cell_angle_alpha 29.437295
_cell_angle_beta 33.347294
_cell_angle_gamma 22.179364
_cell_volume 732.104701
_symmetry_space_group_name_H-M "P -1"
_symmetry_group_IT_number 2
_symmetry_cell_setting 'triclinic'
loop_
_space_group_symop_operation_xyz
x,y,z
-x,-y,-z
loop_
_atom_site_type_symbol
_atom_site_label
_atom_site_fract_x
_atom_site_fract_y
_atom_site_fract_z
Si Si1 0.185760 0.461416 0.603334
Si Si2 0.858954 0.759103 0.759598
Si Si3 0.576765 0.499021 0.722803
Si Si4 0.888423 0.081356 0.206454
Si Si5 0.823606 0.276809 0.537750
Si Si6 0.266858 0.820376 0.018402
Si Si7 0.347107 0.160259 0.515269
Si Si8 0.837796 0.363365 0.926366
O O1 0.351179 0.413698 0.479990
O O2 0.425628 0.437214 0.564011
O O3 0.843708 0.668726 0.533463
O O4 0.094421 0.366625 0.802408
O O5 0.630682 0.734410 0.933287
O O6 0.181016 0.641568 0.780595
O O7 0.017342 0.703834 0.646680
O O8 0.603700 0.970618 0.647398
O O9 0.747596 0.428005 0.802534
O O10 0.703047 0.334324 0.800572
O O11 0.828452 0.125604 0.089701
O O12 0.554848 0.157324 0.338244
O O13 0.971832 0.175818 0.084558
O O14 0.142472 0.874293 0.327716
O O15 0.071312 0.192169 0.579890
O O16 0.000000 0.000000 0.000000
O O17 0.500000 0.500000 0.000000
#
# Coordination Sequence:
#
# PCOD9088165 Si02
#       8
#     2   2   2   2   2   2   2   2
#     4  11  23  39  64  90 121 166 205 253 297 362
#     4  10  19  37  59  88 125 161 190 251 309 364
#     4  10  24  39  61  91 121 161 208 249 302 359
#     4  10  20  38  62  89 121 162 195 253 301 359
#     4  10  20  36  63  93 124 153 202 251 310 360
#     4  11  20  36  58  90 128 160 195 244 313 367
#     4  11  18  37  66  91 127 154 203 245 312 363
#     4  11  23  44  64  84 121 164 212 250 298 358
#
# _framework density 21.854797000000001
#
# number of rings (size 3 to 8) (size 9 to 14) (size 15 to 20)
#    0.000    1.500    3.750    2.625    0.000    0.500 
#    2.250    0.625    2.750    0.000    0.000    0.000 
#    0.000    0.000    0.000    0.000    0.000    0.000 
#
# Total GULP energy -89306.480893 kJ/mol
# GULP energy per Si atom -5581.655056 kJ/mol
# Density = 2.180505 g / cm^3
# Si number density = 21.854797 Si / 1000 Ang^3
#
#
#
# Elastic Constant Matrix: (Units=GPa)
#
#
# Indices 1 2 3 4 5 6 
#
# 1 37.0371 4.6629 11.0044 5.2039 -12.4240 -6.0385
# 2 4.6629 74.3584 12.0887 3.7212 -15.4662 -7.8558
# 3 11.0044 12.0887 109.7099 8.6071 -22.2499 5.0649
# 4 5.2039 3.7212 8.6071 33.4174 -4.7791 -2.0336
# 5 -12.4240 -15.4662 -22.2499 -4.7791 27.9095 -2.5699
# 6 -6.0385 -7.8558 5.0649 -2.0336 -2.5699 24.7258
#
#
#
# Elastic Compliance Matrix: (Units=1/GPa)
#
#
# Indices 1 2 3 4 5 6 
#
# 1 0.034718 0.002771 -0.000644 -0.002433 0.017079 0.011066
# 2 0.002771 0.016282 -0.000207 -0.000237 0.010694 0.006984
# 3 -0.000644 -0.000207 0.011027 -0.001691 0.007935 -0.001796
# 4 -0.002433 -0.000237 -0.001691 0.031357 0.003043 0.002572
# 5 0.017079 0.010694 0.007935 0.003043 0.057325 0.012152
# 6 0.011066 0.006984 -0.001796 0.002572 0.012152 0.047208
#
#
# Mechanical properties :
#
#
# Convention : Reuss Voigt Hill
#
# Bulk Modulus (GPa) = 15.18215 30.73524 22.95869
# Shear Modulus (GPa) = 23.14468 30.10051 26.62259
#
# Velocity S-wave (km/s) = 3.25779 3.71522 3.49400
# Velocity P-wave (km/s) = 4.59487 5.70068 5.17738
#
# Compressibility (1/GPa) = 0.06586683
#
# Stress axis : x y z
#
# Youngs Moduli (GPa) = 28.80386 61.41639 90.68502
#
# Poissons Ratio (x) = -0.17017 0.05839
# Poissons Ratio (y) = -0.07981 0.01878
# Poissons Ratio (z) = 0.01855 0.01272
#
# Static dielectric constant tensor:
#      x y z
#    x 1.788930 0.021360 -0.029600 
#    y 0.021360 1.879510 -0.017160 
#    z -0.029600 -0.017160 1.811090 
# 
# From -- ./inp_files/218975.got.cif
#   From: 2010.05.17/outbox.cif.g08.bks.cpg/sg2_110_cif.got.tgz:218975.got - 2010.06.03 11:33:40.
