data_PCOD9088591
_publ_section_title
;
Structure prediction by ZEFSAII (Michael W. Deem and Ramdas Pophale) SiO2 
 PCOD9088591
Probable space group: P -1
;
_chemical_formula_sum "Si O2"
_cell_formula_units_Z 16
_cell_length_a 11.205649
_cell_length_b 9.160409
_cell_length_c 11.309783
_cell_angle_alpha 134.433052
_cell_angle_beta 106.938915
_cell_angle_gamma 94.761984
_cell_volume 719.637451
_symmetry_space_group_name_H-M "P -1"
_symmetry_group_IT_number 2
_symmetry_cell_setting 'triclinic'
loop_
_space_group_symop_operation_xyz
x,y,z
-x,-y,-z
loop_
_atom_site_type_symbol
_atom_site_label
_atom_site_fract_x
_atom_site_fract_y
_atom_site_fract_z
Si Si1 0.614236 0.987754 0.193737
Si Si2 0.496924 0.445879 0.606111
Si Si3 0.650139 0.280264 0.146550
Si Si4 0.002921 0.335818 0.013380
Si Si5 0.144614 0.120508 0.770050
Si Si6 0.891090 0.729338 0.410295
Si Si7 0.262375 0.659473 0.361869
Si Si8 0.742800 0.011209 0.658363
O O1 0.654587 0.100703 0.140074
O O2 0.670127 0.184221 0.417851
O O3 0.698492 0.839498 0.157684
O O4 0.449880 0.847618 0.063225
O O5 0.500000 0.500000 0.500000
O O6 0.432929 0.591946 0.740761
O O7 0.647177 0.480648 0.710071
O O8 0.397068 0.184278 0.449723
O O9 0.799168 0.471696 0.268680
O O10 0.088461 0.202949 0.912221
O O11 0.100343 0.495344 0.232597
O O12 0.845789 0.154918 0.873875
O O13 0.000000 0.500000 0.000000
O O14 0.116411 0.239777 0.714468
O O15 0.047259 0.855304 0.571026
O O16 0.819927 0.881235 0.535377
O O17 0.278010 0.820282 0.345108
#
# Coordination Sequence:
#
# PCOD9088591 Si02
#       8
#     2   2   2   2   2   2   2   2
#     4  11  22  38  59  81 116 151 192 232 276 337
#     4  11  21  38  60  82 116 155 187 229 285 331
#     4  10  23  41  55  81 117 153 189 233 280 333
#     4   9  20  37  60  87 116 142 182 237 284 331
#     4  10  19  37  62  86 110 147 187 233 282 335
#     4   9  19  36  62  84 111 146 189 232 280 335
#     4  11  20  38  58  87 112 149 192 231 282 330
#     4   9  19  38  59  86 114 145 189 235 276 335
#
# _framework density 22.233416999999999
#
# number of rings (size 3 to 8) (size 9 to 14) (size 15 to 20)
#    0.000    2.000    2.500    1.125    1.750    1.000 
#    6.750    0.625    2.750    0.000    0.000    0.000 
#    0.000    0.000    0.000    0.000    0.000    0.000 
#
# Total GULP energy -89384.719984 kJ/mol
# GULP energy per Si atom -5586.544999 kJ/mol
# Density = 2.218281 g / cm^3
# Si number density = 22.233417 Si / 1000 Ang^3
#
#
#
# Elastic Constant Matrix: (Units=GPa)
#
#
# Indices 1 2 3 4 5 6 
#
# 1 38.8900 -4.4853 14.1760 -6.5920 6.0974 -2.4531
# 2 -4.4853 44.4881 21.0216 5.7423 17.1418 4.7805
# 3 14.1760 21.0216 137.7004 -6.0855 17.2401 11.8670
# 4 -6.5920 5.7423 -6.0855 23.4666 0.5573 4.6408
# 5 6.0974 17.1418 17.2401 0.5573 40.0623 8.9704
# 6 -2.4531 4.7805 11.8670 4.6408 8.9704 21.8713
#
#
#
# Elastic Compliance Matrix: (Units=1/GPa)
#
#
# Indices 1 2 3 4 5 6 
#
# 1 0.029979 0.006072 -0.003396 0.005098 -0.007043 0.005685
# 2 0.006072 0.030639 -0.004287 -0.007209 -0.012779 0.003081
# 3 -0.003396 -0.004287 0.008883 0.003357 -0.000445 -0.004794
# 4 0.005098 -0.007209 0.003357 0.048818 0.002677 -0.011131
# 5 -0.007043 -0.012779 -0.000445 0.002677 0.034443 -0.012450
# 6 0.005685 0.003081 -0.004794 -0.011131 -0.012450 0.055755
#
#
# Mechanical properties :
#
#
# Convention : Reuss Voigt Hill
#
# Bulk Modulus (GPa) = 15.08754 31.38923 23.23838
# Shear Modulus (GPa) = 21.38288 29.77111 25.57700
#
# Velocity S-wave (km/s) = 3.10457 3.66324 3.39541
# Velocity P-wave (km/s) = 4.43304 5.66049 5.08394
#
# Compressibility (1/GPa) = 0.06627985
#
# Stress axis : x y z
#
# Youngs Moduli (GPa) = 33.35695 32.63822 112.56969
#
# Poissons Ratio (x) = -0.19818 0.38229
# Poissons Ratio (y) = -0.20255 0.48255
# Poissons Ratio (z) = 0.11328 0.13991
#
# Static dielectric constant tensor:
#      x y z
#    x 1.836490 -0.019210 -0.031580 
#    y -0.019210 1.761620 0.028850 
#    z -0.031580 0.028850 1.885390 
# 
# From -- ./inp_files/187544.got.cif
#   From: 2010.05.17/outbox.cif.g08.bks.cpg/sg2_94_cif.got.tgz:187544.got - 2010.06.03 11:33:40.
