data_PCOD9088444
_publ_section_title
;
Structure prediction by ZEFSAII (Michael W. Deem and Ramdas Pophale) SiO2 
 PCOD9088444
Probable space group: P -1
;
_chemical_formula_sum "Si O2"
_cell_formula_units_Z 12
_cell_length_a 21.998513
_cell_length_b 7.019730
_cell_length_c 16.525760
_cell_angle_alpha 133.983006
_cell_angle_beta 162.217478
_cell_angle_gamma 56.105948
_cell_volume 494.560652
_symmetry_space_group_name_H-M "P -1"
_symmetry_group_IT_number 2
_symmetry_cell_setting 'triclinic'
loop_
_space_group_symop_operation_xyz
x,y,z
-x,-y,-z
loop_
_atom_site_type_symbol
_atom_site_label
_atom_site_fract_x
_atom_site_fract_y
_atom_site_fract_z
Si Si1 0.237264 0.859147 0.149663
Si Si2 0.861177 0.268386 0.559265
Si Si3 0.732446 0.996486 0.135381
Si Si4 0.659303 0.853723 0.325322
Si Si5 0.819313 0.503305 0.169029
Si Si6 0.336090 0.294920 0.543950
O O1 0.500000 0.000000 0.500000
O O2 0.236776 0.110601 0.282121
O O3 0.133664 0.733468 0.892194
O O4 0.107803 0.557262 0.951257
O O5 0.792526 0.119732 0.340196
O O6 0.694212 0.410644 0.406901
O O7 0.818041 0.027553 0.502818
O O8 0.942636 0.239970 0.421174
O O9 0.740020 0.685135 0.057724
O O10 0.503253 0.995111 0.822926
O O11 0.776960 0.870581 0.564719
O O12 0.500000 0.500000 0.000000
O O13 0.597594 0.365062 0.901727
#
# Coordination Sequence:
#
# PCOD9088444 Si02
#       6
#     2   2   2   2   2   2
#     4   9  21  40  64  85 113 164 205 236 299 355
#     4  11  21  39  64  86 122 156 197 253 290 350
#     4  10  19  37  61  87 118 159 192 245 301 342
#     4  12  23  35  61  96 122 152 199 245 301 352
#     4   9  19  37  63  83 119 159 196 240 296 351
#     4  11  21  38  61  89 119 157 201 242 296 353
#
# _framework density 24.263959
#
# number of rings (size 3 to 8) (size 9 to 14) (size 15 to 20)
#    0.000    1.667    3.333    2.000    0.000    1.333 
#    0.000    0.833    0.000    0.000    0.000    0.000 
#    0.000    0.000    0.000    0.000    0.000    0.000 
#
# Total GULP energy -66970.092755 kJ/mol
# GULP energy per Si atom -5580.841063 kJ/mol
# Density = 2.420873 g / cm^3
# Si number density = 24.263959 Si / 1000 Ang^3
#
#
#
# Elastic Constant Matrix: (Units=GPa)
#
#
# Indices 1 2 3 4 5 6 
#
# 1 137.9216 41.0541 22.2097 11.0112 9.8343 -13.0525
# 2 41.0541 80.8341 14.3370 2.8996 3.9718 2.1265
# 3 22.2097 14.3370 90.1065 14.8579 22.6695 13.7503
# 4 11.0112 2.8996 14.8579 32.6798 7.2365 9.5772
# 5 9.8343 3.9718 22.6695 7.2365 38.4367 15.0487
# 6 -13.0525 2.1265 13.7503 9.5772 15.0487 51.3170
#
#
#
# Elastic Compliance Matrix: (Units=1/GPa)
#
#
# Indices 1 2 3 4 5 6 
#
# 1 0.009604 -0.004553 -0.001196 -0.002997 -0.002363 0.004204
# 2 -0.004553 0.014891 -0.001397 0.001192 0.000973 -0.001908
# 3 -0.001196 -0.001397 0.014150 -0.004050 -0.006606 -0.001345
# 4 -0.002997 0.001192 -0.004050 0.035376 -0.001300 -0.005948
# 5 -0.002363 0.000973 -0.006606 -0.001300 0.034032 -0.008609
# 6 0.004204 -0.001908 -0.001345 -0.005948 -0.008609 0.024630
#
#
# Mechanical properties :
#
#
# Convention : Reuss Voigt Hill
#
# Bulk Modulus (GPa) = 41.06143 51.56265 46.31204
# Shear Modulus (GPa) = 32.23907 39.90414 36.07160
#
# Velocity S-wave (km/s) = 3.64906 4.05975 3.85987
# Velocity P-wave (km/s) = 5.89184 6.57816 6.24444
#
# Compressibility (1/GPa) = 0.02435376
#
# Stress axis : x y z
#
# Youngs Moduli (GPa) = 104.12540 67.15641 70.67142
#
# Poissons Ratio (x) = 0.30573 0.08449
# Poissons Ratio (y) = 0.47403 0.09875
# Poissons Ratio (z) = 0.12449 0.09383
#
# Static dielectric constant tensor:
#      x y z
#    x 1.975960 -0.011950 0.070740 
#    y -0.011950 1.950520 0.028600 
#    z 0.070740 0.028600 1.984000 
# 
# From -- ./inp_files/25788.got.cif
#   From: 2010.05.17/outbox.cif.g08.bks.cpg/sg2_13_cif.got.tgz:25788.got - 2010.06.03 11:33:40.
