data_PCOD9088828
_publ_section_title
;
Structure prediction by ZEFSAII (Michael W. Deem and Ramdas Pophale) SiO2 
 PCOD9088828
Probable space group: P -1
;
_chemical_formula_sum "Si O2"
_cell_formula_units_Z 14
_cell_length_a 27.216918
_cell_length_b 12.093246
_cell_length_c 8.946535
_cell_angle_alpha 143.867609
_cell_angle_beta 29.672960
_cell_angle_gamma 152.175607
_cell_volume 670.539697
_symmetry_space_group_name_H-M "P -1"
_symmetry_group_IT_number 2
_symmetry_cell_setting 'triclinic'
loop_
_space_group_symop_operation_xyz
x,y,z
-x,-y,-z
loop_
_atom_site_type_symbol
_atom_site_label
_atom_site_fract_x
_atom_site_fract_y
_atom_site_fract_z
Si Si1 0.548079 0.314202 0.299012
Si Si2 0.812690 0.506883 0.263064
Si Si3 0.414710 0.899109 0.761814
Si Si4 0.755457 0.437816 0.672262
Si Si5 0.854904 0.891003 0.745574
Si Si6 0.340542 0.155148 0.435138
Si Si7 0.896287 0.272192 0.241334
O O1 0.529678 0.179454 0.351006
O O2 0.420414 0.221425 0.450081
O O3 0.630418 0.599020 0.422709
O O4 0.630103 0.282856 0.933720
O O5 0.724890 0.336462 0.176236
O O6 0.755013 0.371602 0.428533
O O7 0.811609 0.733468 0.537716
O O8 0.956992 0.601676 0.976910
O O9 0.500000 0.000000 0.500000
O O10 0.400257 0.083738 0.078558
O O11 0.784288 0.692028 0.846480
O O12 0.863149 0.448063 0.485327
O O13 0.000000 0.000000 0.500000
O O14 0.855149 0.108038 0.020507
O O15 0.197401 0.918831 0.591876
#
# Coordination Sequence:
#
# PCOD9088828 Si02
#       7
#     2   2   2   2   2   2   2
#     4  11  24  43  65  92 117 162 217 253 290 377
#     4   9  22  39  59  96 129 153 202 252 298 374
#     4  12  26  44  61  88 131 162 198 256 322 356
#     4  10  19  37  63  90 120 159 210 248 287 365
#     4   8  18  34  58  90 122 155 201 247 290 356
#     4  11  24  42  68  90 118 163 212 251 306 361
#     4  11  19  37  68  90 121 161 207 249 299 356
#
# _framework density 20.878703999999999
#
# number of rings (size 3 to 8) (size 9 to 14) (size 15 to 20)
#    0.857    0.857    2.857    1.714    2.000    1.143 
#    2.571    0.714    0.000    0.000    0.000    0.000 
#    0.000    0.000    0.000    0.000    0.000    0.000 
#
# Total GULP energy -78047.494310 kJ/mol
# GULP energy per Si atom -5574.821022 kJ/mol
# Density = 2.083118 g / cm^3
# Si number density = 20.878704 Si / 1000 Ang^3
#
#
#
# Elastic Constant Matrix: (Units=GPa)
#
#
# Indices 1 2 3 4 5 6 
#
# 1 61.3496 37.6520 31.1468 -4.7815 6.0652 -3.9683
# 2 37.6520 64.8512 25.4210 -1.1856 2.7613 5.2114
# 3 31.1468 25.4210 92.2180 -7.9366 2.6365 -6.7988
# 4 -4.7815 -1.1856 -7.9366 41.2326 -4.2119 6.2201
# 5 6.0652 2.7613 2.6365 -4.2119 25.3925 -2.8024
# 6 -3.9683 5.2114 -6.7988 6.2201 -2.8024 30.4998
#
#
#
# Elastic Compliance Matrix: (Units=1/GPa)
#
#
# Indices 1 2 3 4 5 6 
#
# 1 0.028800 -0.014908 -0.005090 0.000817 -0.004084 0.004618
# 2 -0.014908 0.025609 -0.002568 -0.000442 0.000221 -0.006777
# 3 -0.005090 -0.002568 0.013580 0.001633 0.000635 0.002529
# 4 0.000817 -0.000442 0.001633 0.025661 0.003457 -0.004370
# 5 -0.004084 0.000221 0.000635 0.003457 0.041133 0.002647
# 6 0.004618 -0.006777 0.002529 -0.004370 0.002647 0.036244
#
#
# Mechanical properties :
#
#
# Convention : Reuss Voigt Hill
#
# Bulk Modulus (GPa) = 43.75161 45.20648 44.47904
# Shear Modulus (GPa) = 22.34355 27.70493 25.02424
#
# Velocity S-wave (km/s) = 3.27488 3.64668 3.46577
# Velocity P-wave (km/s) = 5.94141 6.27933 6.11271
#
# Compressibility (1/GPa) = 0.02285630
#
# Stress axis : x y z
#
# Youngs Moduli (GPa) = 34.72256 39.04855 73.63834
#
# Poissons Ratio (x) = 0.58213 0.37483
# Poissons Ratio (y) = 0.51764 0.18913
# Poissons Ratio (z) = 0.17674 0.10029
#
# Static dielectric constant tensor:
#      x y z
#    x 1.701580 0.000870 0.010770 
#    y 0.000870 1.847210 -0.010190 
#    z 0.010770 -0.010190 1.788330 
# 
# From -- ./inp_files/356993.got.cif
#   From: 2010.05.17/outbox.cif.g08.bks.cpg/sg2_179_cif.got.tgz:356993.got - 2010.06.03 11:33:40.
