data_PCOD9088161
_publ_section_title
;
Structure prediction by ZEFSAII (Michael W. Deem and Ramdas Pophale) SiO2 
 PCOD9088161
Probable space group: P -1
;
_chemical_formula_sum "Si O2"
_cell_formula_units_Z 16
_cell_length_a 11.226792
_cell_length_b 8.233954
_cell_length_c 9.454108
_cell_angle_alpha 79.492703
_cell_angle_beta 115.187210
_cell_angle_gamma 97.892160
_cell_volume 775.839496
_symmetry_space_group_name_H-M "P -1"
_symmetry_group_IT_number 2
_symmetry_cell_setting 'triclinic'
loop_
_space_group_symop_operation_xyz
x,y,z
-x,-y,-z
loop_
_atom_site_type_symbol
_atom_site_label
_atom_site_fract_x
_atom_site_fract_y
_atom_site_fract_z
Si Si1 0.283962 0.890948 0.352072
Si Si2 0.955321 0.275609 0.921253
Si Si3 0.506325 0.670115 0.382492
Si Si4 0.794464 0.636902 0.567560
Si Si5 0.767132 0.759313 0.831843
Si Si6 0.737116 0.330247 0.378897
Si Si7 0.067766 0.622353 0.789420
Si Si8 0.461359 0.449301 0.142764
O O1 0.159809 0.817883 0.209122
O O2 0.413513 0.800097 0.383339
O O3 0.251603 0.841462 0.505616
O O4 0.295178 0.084069 0.293477
O O5 0.009365 0.436470 0.830926
O O6 0.902681 0.310153 0.048265
O O7 0.091052 0.191296 0.038518
O O8 0.500000 0.500000 0.500000
O O9 0.662463 0.723392 0.440212
O O10 0.452319 0.608159 0.213437
O O11 0.777132 0.625395 0.731208
O O12 0.787611 0.472921 0.494026
O O13 0.946432 0.707970 0.635125
O O14 0.670400 0.667841 0.907042
O O15 0.813759 0.360626 0.265329
O O16 0.582708 0.352429 0.278234
O O17 0.500000 0.500000 0.000000
#
# Coordination Sequence:
#
# PCOD9088161 Si02
#       8
#     2   2   2   2   2   2   2   2
#     4  12  23  38  64  88 124 160 199 247 303 360
#     4  10  22  38  61  90 120 163 201 246 297 355
#     4  11  19  39  62  88 118 153 203 252 287 355
#     4  10  19  37  59  88 118 152 204 245 289 350
#     4  11  23  40  60  88 125 164 196 242 309 362
#     4  11  21  37  63  95 115 152 203 262 291 344
#     4  10  20  36  67  90 117 154 209 252 289 351
#     4  11  23  39  63  89 121 153 205 251 294 353
#
# _framework density 20.622821999999999
#
# number of rings (size 3 to 8) (size 9 to 14) (size 15 to 20)
#    0.000    1.250    5.000    1.500    5.250    2.000 
#    0.000    3.125    8.250    0.000    0.000    0.000 
#    0.000    0.000    0.000    0.000    0.000    0.000 
#
# Total GULP energy -89207.325441 kJ/mol
# GULP energy per Si atom -5575.457840 kJ/mol
# Density = 2.057588 g / cm^3
# Si number density = 20.622822 Si / 1000 Ang^3
#
#
#
# Elastic Constant Matrix: (Units=GPa)
#
#
# Indices 1 2 3 4 5 6 
#
# 1 111.3953 24.0547 16.8636 -11.2581 -9.0384 -10.3260
# 2 24.0547 42.9291 17.2298 -16.4274 -13.5189 -7.4520
# 3 16.8636 17.2298 71.3273 -8.0791 -2.8085 -7.8873
# 4 -11.2581 -16.4274 -8.0791 23.4383 6.7265 8.0492
# 5 -9.0384 -13.5189 -2.8085 6.7265 46.8349 -3.3496
# 6 -10.3260 -7.4520 -7.8873 8.0492 -3.3496 14.0707
#
#
#
# Elastic Compliance Matrix: (Units=1/GPa)
#
#
# Indices 1 2 3 4 5 6 
#
# 1 0.010629 -0.004512 -0.000828 -0.000594 0.001183 0.005568
# 2 -0.004512 0.038471 -0.005211 0.019122 0.007532 0.004996
# 3 -0.000828 -0.005211 0.016060 -0.000460 -0.000217 0.005846
# 4 -0.000594 0.019122 -0.000460 0.068245 -0.006655 -0.031190
# 5 0.001183 0.007532 -0.000217 -0.006655 0.025746 0.014671
# 6 0.005568 0.004996 0.005846 -0.031190 0.014671 0.102414
#
#
# Mechanical properties :
#
#
# Convention : Reuss Voigt Hill
#
# Bulk Modulus (GPa) = 22.69746 37.99422 30.34584
# Shear Modulus (GPa) = 16.81508 28.03569 22.42539
#
# Velocity S-wave (km/s) = 2.85855 3.69107 3.30116
# Velocity P-wave (km/s) = 4.68241 6.05217 5.41081
#
# Compressibility (1/GPa) = 0.04405779
#
# Stress axis : x y z
#
# Youngs Moduli (GPa) = 94.08498 25.99389 62.26517
#
# Poissons Ratio (x) = 0.11727 0.05156
# Poissons Ratio (y) = 0.42447 0.32448
# Poissons Ratio (z) = 0.07791 0.13546
#
# Static dielectric constant tensor:
#      x y z
#    x 1.793980 -0.034810 0.054640 
#    y -0.034810 1.760160 -0.014880 
#    z 0.054640 -0.014880 1.769120 
# 
# From -- ./inp_files/218652.got.cif
#   From: 2010.05.17/outbox.cif.g08.bks.cpg/sg2_110_cif.got.tgz:218652.got - 2010.06.03 11:33:40.
