data_PCOD9088685
_publ_section_title
;
Structure prediction by ZEFSAII (Michael W. Deem and Ramdas Pophale) SiO2 
 PCOD9088685
Probable space group: P -1
;
_chemical_formula_sum "Si O2"
_cell_formula_units_Z 12
_cell_length_a 8.106872
_cell_length_b 9.424690
_cell_length_c 12.378970
_cell_angle_alpha 41.459001
_cell_angle_beta 80.639355
_cell_angle_gamma 104.197558
_cell_volume 511.047274
_symmetry_space_group_name_H-M "P -1"
_symmetry_group_IT_number 2
_symmetry_cell_setting 'triclinic'
loop_
_space_group_symop_operation_xyz
x,y,z
-x,-y,-z
loop_
_atom_site_type_symbol
_atom_site_label
_atom_site_fract_x
_atom_site_fract_y
_atom_site_fract_z
Si Si1 0.594476 0.910013 0.226738
Si Si2 0.167386 0.140644 0.489054
Si Si3 0.419781 0.436642 0.919340
Si Si4 0.146523 0.936723 0.084752
Si Si5 0.663151 0.166547 0.293293
Si Si6 0.191603 0.388229 0.550057
O O1 0.367621 0.684742 0.350632
O O2 0.698709 0.758404 0.339763
O O3 0.585385 0.067798 0.236645
O O4 0.717857 0.073391 0.016111
O O5 0.382205 0.371731 0.284973
O O6 0.102214 0.258014 0.520062
O O7 0.179324 0.908971 0.666624
O O8 0.000000 0.000000 0.500000
O O9 0.277770 0.545845 0.864162
O O10 0.500000 0.500000 0.000000
O O11 0.291306 0.158088 0.032066
O O12 0.982355 0.676183 0.312033
O O13 0.000000 0.000000 0.000000
O O14 0.500000 0.000000 0.500000
#
# Coordination Sequence:
#
# PCOD9088685 Si02
#       6
#     2   2   2   2   2   2
#     4   9  17  35  58  86 117 159 205 253 303 369
#     4  10  19  37  62  92 123 163 206 253 315 374
#     4  11  22  40  63  91 129 164 208 263 310 369
#     4  10  20  34  61  92 118 167 209 251 312 375
#     4   9  21  37  65  90 121 165 208 254 314 371
#     4   9  17  31  59  85 118 160 202 244 311 367
#
# _framework density 23.481192
#
# number of rings (size 3 to 8) (size 9 to 14) (size 15 to 20)
#    0.000    2.333    1.667    1.000    7.000    0.000 
#    0.000   14.167    3.667    3.000    0.000    0.000 
#    0.000    0.000    0.000    0.000    0.000    0.000 
#
# Total GULP energy -67006.458407 kJ/mol
# GULP energy per Si atom -5583.871534 kJ/mol
# Density = 2.342775 g / cm^3
# Si number density = 23.481192 Si / 1000 Ang^3
#
#
#
# Elastic Constant Matrix: (Units=GPa)
#
#
# Indices 1 2 3 4 5 6 
#
# 1 53.0017 33.6080 23.4498 -4.6868 -5.2834 5.4820
# 2 33.6080 134.5340 34.0803 27.8887 -13.5361 -0.0087
# 3 23.4498 34.0803 89.3954 26.3501 -30.4666 -13.8057
# 4 -4.6868 27.8887 26.3501 35.4956 -7.0882 -4.8887
# 5 -5.2834 -13.5361 -30.4666 -7.0882 38.2010 1.7537
# 6 5.4820 -0.0087 -13.8057 -4.8887 1.7537 43.2446
#
#
#
# Elastic Compliance Matrix: (Units=1/GPa)
#
#
# Indices 1 2 3 4 5 6 
#
# 1 0.032766 -0.009414 -0.013826 0.019983 -0.005844 -0.006074
# 2 -0.009414 0.011881 0.002365 -0.011745 0.002591 0.000518
# 3 -0.013826 0.002365 0.025965 -0.018799 0.015812 0.007276
# 4 0.019983 -0.011745 -0.018799 0.052359 -0.006568 -0.002352
# 5 -0.005844 0.002591 0.015812 -0.006568 0.037517 0.003525
# 6 -0.006074 0.000518 0.007276 -0.002352 0.003525 0.025808
#
#
# Mechanical properties :
#
#
# Convention : Reuss Voigt Hill
#
# Bulk Modulus (GPa) = 34.64730 51.02304 42.83517
# Shear Modulus (GPa) = 21.03775 35.77445 28.40610
#
# Velocity S-wave (km/s) = 2.99647 3.90748 3.48190
# Velocity P-wave (km/s) = 5.17293 6.49110 5.86914
#
# Compressibility (1/GPa) = 0.02886228
#
# Stress axis : x y z
#
# Youngs Moduli (GPa) = 30.51902 84.16768 38.51312
#
# Poissons Ratio (x) = 0.79234 0.53249
# Poissons Ratio (y) = 0.28730 -0.09108
# Poissons Ratio (z) = 0.42196 -0.19904
#
# Static dielectric constant tensor:
#      x y z
#    x 1.970140 -0.023390 0.073990 
#    y -0.023390 1.919500 0.042990 
#    z 0.073990 0.042990 1.904630 
# 
# From -- ./inp_files/152991.got.cif
#   From: 2010.05.17/outbox.cif.g08.bks.cpg/sg2_77_cif.got.tgz:152991.got - 2010.06.03 11:33:40.
