data_PCOD9088611
_publ_section_title
;
Structure prediction by ZEFSAII (Michael W. Deem and Ramdas Pophale) SiO2 
 PCOD9088611
Probable space group: P -1
;
_chemical_formula_sum "Si O2"
_cell_formula_units_Z 14
_cell_length_a 21.821815
_cell_length_b 5.138433
_cell_length_c 5.731251
_cell_angle_alpha 90.161437
_cell_angle_beta 72.770019
_cell_angle_gamma 108.968233
_cell_volume 577.359039
_symmetry_space_group_name_H-M "P -1"
_symmetry_group_IT_number 2
_symmetry_cell_setting 'triclinic'
loop_
_space_group_symop_operation_xyz
x,y,z
-x,-y,-z
loop_
_atom_site_type_symbol
_atom_site_label
_atom_site_fract_x
_atom_site_fract_y
_atom_site_fract_z
Si Si1 0.606053 0.172480 0.963509
Si Si2 0.921692 0.803015 0.589593
Si Si3 0.703158 0.602891 0.181124
Si Si4 0.734989 0.327449 0.558248
Si Si5 0.205976 0.085016 0.279244
Si Si6 0.950854 0.680609 0.055167
Si Si7 0.562018 0.597978 0.253097
O O1 0.668009 0.329544 0.065910
O O2 0.560540 0.364099 0.061419
O O3 0.569091 0.871239 0.101414
O O4 0.651533 0.203395 0.680754
O O5 0.874249 0.994419 0.647896
O O6 0.911666 0.644210 0.349474
O O7 0.911140 0.641293 0.850286
O O8 0.000000 0.000000 0.500000
O O9 0.746460 0.495835 0.308561
O O10 0.632633 0.656820 0.321610
O O11 0.751271 0.882489 0.006034
O O12 0.771075 0.588662 0.685052
O O13 0.765511 0.087827 0.574697
O O14 0.000000 0.500000 0.000000
O O15 0.000000 0.000000 0.000000
O O16 0.500000 0.500000 0.500000
#
# Coordination Sequence:
#
# PCOD9088611 Si02
#       7
#     2   2   2   2   2   2   2
#     4   9  19  38  56  87 123 157 209 261 314 380
#     4  10  24  46  68 103 135 179 225 288 347 410
#     4   9  23  38  65  86 128 168 210 265 326 384
#     4  11  22  41  64  91 125 170 219 265 329 391
#     4  11  25  41  64  95 129 165 221 271 325 405
#     4  10  22  42  68  93 132 173 214 272 340 407
#     4  10  19  37  62  87 126 165 206 265 324 378
#
# _framework density 24.248342000000001
#
# number of rings (size 3 to 8) (size 9 to 14) (size 15 to 20)
#    0.857    1.143    1.429    0.857    4.000    4.571 
#    0.000    1.429    0.000    0.000    0.000    0.000 
#    0.000    0.000    0.000    0.000    0.000    0.000 
#
# Total GULP energy -77979.376114 kJ/mol
# GULP energy per Si atom -5569.955437 kJ/mol
# Density = 2.419315 g / cm^3
# Si number density = 24.248342 Si / 1000 Ang^3
#
#
#
# Elastic Constant Matrix: (Units=GPa)
#
#
# Indices 1 2 3 4 5 6 
#
# 1 213.5968 62.7116 99.7455 -45.6673 10.5121 -100.8903
# 2 62.7116 123.6758 34.1706 -22.3192 -5.0581 -56.1891
# 3 99.7455 34.1706 111.4071 -15.3162 16.4164 -41.0543
# 4 -45.6673 -22.3192 -15.3162 44.9914 -8.3160 27.8965
# 5 10.5121 -5.0581 16.4164 -8.3160 56.6369 -21.2328
# 6 -100.8903 -56.1891 -41.0543 27.8965 -21.2328 91.5350
#
#
#
# Elastic Compliance Matrix: (Units=1/GPa)
#
#
# Indices 1 2 3 4 5 6 
#
# 1 0.017366 0.002753 -0.010747 0.007019 0.006975 0.015489
# 2 0.002753 0.012842 -0.003185 0.002998 0.005711 0.009900
# 3 -0.010747 -0.003185 0.017710 -0.003805 -0.006290 -0.006157
# 4 0.007019 0.002998 -0.003805 0.030632 0.004399 -0.000445
# 5 0.006975 0.005711 -0.006290 0.004399 0.024070 0.012615
# 6 0.015489 0.009900 -0.006157 -0.000445 0.012615 0.034374
#
#
# Mechanical properties :
#
#
# Convention : Reuss Voigt Hill
#
# Bulk Modulus (GPa) = 39.12447 93.54835 66.33641
# Shear Modulus (GPa) = 29.78448 55.43614 42.61031
#
# Velocity S-wave (km/s) = 3.50853 4.78659 4.19650
# Velocity P-wave (km/s) = 5.70815 8.31935 7.13423
#
# Compressibility (1/GPa) = 0.02555945
#
# Stress axis : x y z
#
# Youngs Moduli (GPa) = 57.58445 77.86904 56.46472
#
# Poissons Ratio (x) = -0.21436 0.60685
# Poissons Ratio (y) = -0.15852 0.17983
# Poissons Ratio (z) = 0.61888 0.24799
#
# Static dielectric constant tensor:
#      x y z
#    x 1.925290 0.058300 -0.093800 
#    y 0.058300 1.933370 0.173110 
#    z -0.093800 0.173110 2.214080 
# 
# From -- ./inp_files/12423.got.cif
#   From: 2010.05.17/outbox.cif.g08.bks.cpg/sg2_7_cif.got.tgz:12423.got - 2010.06.03 11:33:40.
