data_PCOD9088101
_publ_section_title
;
Structure prediction by ZEFSAII (Michael W. Deem and Ramdas Pophale) SiO2 
 PCOD9088101
Probable space group: P -1
;
_chemical_formula_sum "Si O2"
_cell_formula_units_Z 16
_cell_length_a 17.484484
_cell_length_b 8.075928
_cell_length_c 9.296031
_cell_angle_alpha 44.456356
_cell_angle_beta 129.741564
_cell_angle_gamma 100.821786
_cell_volume 612.709529
_symmetry_space_group_name_H-M "P -1"
_symmetry_group_IT_number 2
_symmetry_cell_setting 'triclinic'
loop_
_space_group_symop_operation_xyz
x,y,z
-x,-y,-z
loop_
_atom_site_type_symbol
_atom_site_label
_atom_site_fract_x
_atom_site_fract_y
_atom_site_fract_z
Si Si1 0.278540 0.497123 0.325180
Si Si2 0.822974 0.869557 0.536931
Si Si3 0.626826 0.065049 0.644222
Si Si4 0.474045 0.079168 0.657090
Si Si5 0.583543 0.343965 0.019003
Si Si6 0.065081 0.861010 0.309978
Si Si7 0.711515 0.394729 0.411726
Si Si8 0.077063 0.084958 0.637350
O O1 0.213197 0.331853 0.308816
O O2 0.399285 0.364470 0.470240
O O3 0.300302 0.452265 0.549325
O O4 0.191782 0.809386 0.992045
O O5 0.704062 0.160473 0.196876
O O6 0.903104 0.933796 0.694916
O O7 0.884438 0.762100 0.524322
O O8 0.604874 0.969756 0.831211
O O9 0.729353 0.105134 0.683794
O O10 0.595929 0.916546 0.574064
O O11 0.520029 0.378077 0.336720
O O12 0.462029 0.865034 0.876426
O O13 0.618952 0.430109 0.157777
O O14 0.186044 0.621304 0.549002
O O15 0.996002 0.784641 0.387960
O O16 0.000000 0.000000 0.000000
O O17 0.000000 0.000000 0.500000
#
# Coordination Sequence:
#
# PCOD9088101 Si02
#       8
#     2   2   2   2   2   2   2   2
#     4  11  21  38  58  86 121 144 196 243 290 342
#     4   9  21  38  63  88 113 157 193 232 294 347
#     4  10  19  37  59  82 116 153 196 229 283 349
#     4   9  19  33  57  86 108 150 193 226 284 349
#     4   9  18  38  60  82 118 154 191 229 287 346
#     4  10  19  38  61  82 112 153 193 239 291 341
#     4  10  20  34  57  83 115 155 185 241 293 332
#     4  10  21  38  62  82 112 153 196 237 290 342
#
# _framework density 26.113513999999999
#
# number of rings (size 3 to 8) (size 9 to 14) (size 15 to 20)
#    0.000    2.250    1.250    3.000    0.000    2.500 
#    0.000   11.250    5.500    0.000    0.000    0.000 
#    0.000    0.000    0.000    0.000    0.000    0.000 
#
# Total GULP energy -89375.899286 kJ/mol
# GULP energy per Si atom -5585.993705 kJ/mol
# Density = 2.605408 g / cm^3
# Si number density = 26.113514 Si / 1000 Ang^3
#
#
#
# Elastic Constant Matrix: (Units=GPa)
#
#
# Indices 1 2 3 4 5 6 
#
# 1 162.3513 27.2893 4.1018 5.7416 -1.3230 -48.1857
# 2 27.2893 80.9827 7.0159 12.0558 1.9593 -18.8874
# 3 4.1018 7.0159 67.4885 12.8157 7.0750 -9.2532
# 4 5.7416 12.0558 12.8157 26.1441 -6.1975 -5.1648
# 5 -1.3230 1.9593 7.0750 -6.1975 28.8243 -1.7304
# 6 -48.1857 -18.8874 -9.2532 -5.1648 -1.7304 46.6969
#
#
#
# Elastic Compliance Matrix: (Units=1/GPa)
#
#
# Indices 1 2 3 4 5 6 
#
# 1 0.009007 -0.001026 0.000676 0.000167 0.000897 0.009064
# 2 -0.001026 0.014648 0.000603 -0.006558 -0.002350 0.004173
# 3 0.000676 0.000603 0.017698 -0.009984 -0.006314 0.003111
# 4 0.000167 -0.006558 -0.009984 0.049678 0.013678 0.001543
# 5 0.000897 -0.002350 -0.006314 0.013678 0.039487 0.001700
# 6 0.009064 0.004173 0.003111 0.001543 0.001700 0.033306
#
#
# Mechanical properties :
#
#
# Convention : Reuss Voigt Hill
#
# Bulk Modulus (GPa) = 23.88913 43.07071 33.47992
# Shear Modulus (GPa) = 28.20559 38.49410 33.34985
#
# Velocity S-wave (km/s) = 3.29008 3.84357 3.57755
# Velocity P-wave (km/s) = 4.85807 6.01888 5.46936
#
# Compressibility (1/GPa) = 0.04186004
#
# Stress axis : x y z
#
# Youngs Moduli (GPa) = 111.02988 68.26762 56.50392
#
# Poissons Ratio (x) = 0.07005 -0.03821
# Poissons Ratio (y) = 0.11393 -0.03410
# Poissons Ratio (z) = -0.07509 -0.04120
#
# Static dielectric constant tensor:
#      x y z
#    x 2.169920 0.029760 0.007850 
#    y 0.029760 2.055880 -0.034640 
#    z 0.007850 -0.034640 2.187760 
# 
# From -- ./inp_files/328487.got.cif
#   From: 2010.05.17/outbox.cif.g08.bks.cpg/sg2_165_cif.got.tgz:328487.got - 2010.06.03 11:33:40.
