data_PCOD9088494
_publ_section_title
;
Structure prediction by ZEFSAII (Michael W. Deem and Ramdas Pophale) SiO2 
 PCOD9088494
Probable space group: P -1
;
_chemical_formula_sum "Si O2"
_cell_formula_units_Z 10
_cell_length_a 13.991943
_cell_length_b 5.339655
_cell_length_c 5.415070
_cell_angle_alpha 74.238702
_cell_angle_beta 71.305359
_cell_angle_gamma 78.013162
_cell_volume 365.574951
_symmetry_space_group_name_H-M "P -1"
_symmetry_group_IT_number 2
_symmetry_cell_setting 'triclinic'
loop_
_space_group_symop_operation_xyz
x,y,z
-x,-y,-z
loop_
_atom_site_type_symbol
_atom_site_label
_atom_site_fract_x
_atom_site_fract_y
_atom_site_fract_z
Si Si1 0.929525 0.660482 0.311653
Si Si2 0.617218 0.940778 0.795463
Si Si3 0.116515 0.774141 0.829002
Si Si4 0.516083 0.327652 0.290827
Si Si5 0.286992 0.652699 0.091439
O O1 0.854136 0.468848 0.316085
O O2 0.000000 0.500000 0.500000
O O3 0.878109 0.943030 0.369772
O O4 0.999966 0.744663 0.006506
O O5 0.572679 0.854617 0.595944
O O6 0.688778 0.665349 0.867798
O O7 0.500000 0.000000 0.000000
O O8 0.677857 0.183404 0.745662
O O9 0.177561 0.742557 0.042480
O O10 0.500000 0.500000 0.500000
O O11 0.635739 0.244110 0.196188
O O12 0.500000 0.500000 0.000000
#
# Coordination Sequence:
#
# PCOD9088494 Si02
#       5
#     2   2   2   2   2
#     4  10  21  40  64  88 129 161 209 260 345 390
#     4   9  18  35  59  87 123 169 204 263 314 376
#     4  10  21  38  65  92 122 169 205 274 317 396
#     4   9  19  38  62  86 128 173 209 258 323 375
#     4  10  19  37  61  89 127 158 225 258 316 388
#
# _framework density 27.354171999999998
#
# number of rings (size 3 to 8) (size 9 to 14) (size 15 to 20)
#    0.000    2.400    0.000    3.600    0.000    0.000 
#    7.200   36.000    8.800    0.000    0.000    0.000 
#    0.000    0.000    0.000    0.000    0.000    0.000 
#
# Total GULP energy -55720.614621 kJ/mol
# GULP energy per Si atom -5572.061462 kJ/mol
# Density = 2.729191 g / cm^3
# Si number density = 27.354172 Si / 1000 Ang^3
#
#
#
# Elastic Constant Matrix: (Units=GPa)
#
#
# Indices 1 2 3 4 5 6 
#
# 1 104.3143 59.0607 17.2643 5.1364 19.3756 20.7109
# 2 59.0607 239.6372 46.7470 4.3064 21.2533 33.4369
# 3 17.2643 46.7470 95.7946 4.9918 23.9825 14.7518
# 4 5.1364 4.3064 4.9918 51.4488 7.7965 15.7587
# 5 19.3756 21.2533 23.9825 7.7965 55.0392 3.2119
# 6 20.7109 33.4369 14.7518 15.7587 3.2119 53.3505
#
#
#
# Elastic Compliance Matrix: (Units=1/GPa)
#
#
# Indices 1 2 3 4 5 6 
#
# 1 0.012087 -0.002283 0.000256 0.000470 -0.003361 -0.003268
# 2 -0.002283 0.005425 -0.001817 0.000691 -0.000469 -0.002187
# 3 0.000256 -0.001817 0.012845 0.000332 -0.004897 -0.002315
# 4 0.000470 0.000691 0.000332 0.021937 -0.003276 -0.006990
# 5 -0.003361 -0.000469 -0.004897 -0.003276 0.021980 0.002597
# 6 -0.003268 -0.002187 -0.002315 -0.006990 0.002597 0.023932
#
#
# Mechanical properties :
#
#
# Convention : Reuss Voigt Hill
#
# Bulk Modulus (GPa) = 44.11650 76.21001 60.16325
# Shear Modulus (GPa) = 44.07232 53.07933 48.57582
#
# Velocity S-wave (km/s) = 4.01830 4.40983 4.21861
# Velocity P-wave (km/s) = 6.13937 7.33824 6.76541
#
# Compressibility (1/GPa) = 0.02266725
#
# Stress axis : x y z
#
# Youngs Moduli (GPa) = 82.73537 184.34731 77.85112
#
# Poissons Ratio (x) = 0.42090 -0.01994
# Poissons Ratio (y) = 0.18890 0.14149
# Poissons Ratio (z) = -0.02119 0.33504
#
# Static dielectric constant tensor:
#      x y z
#    x 2.206890 0.008880 -0.065550 
#    y 0.008880 3.047550 -0.421040 
#    z -0.065550 -0.421040 2.567190 
# 
# From -- ./inp_files/85991.got.cif
#   From: 2010.05.17/outbox.cif.g08.bks.cpg/sg2_43_cif.got.tgz:85991.got - 2010.06.03 11:33:40.
