data_PCOD9088524
_publ_section_title
;
Structure prediction by ZEFSAII (Michael W. Deem and Ramdas Pophale) SiO2 
 PCOD9088524
Probable space group: P -1
;
_chemical_formula_sum "Si O2"
_cell_formula_units_Z 16
_cell_length_a 20.764316
_cell_length_b 9.706803
_cell_length_c 13.098809
_cell_angle_alpha 36.767485
_cell_angle_beta 142.175953
_cell_angle_gamma 147.661879
_cell_volume 790.864171
_symmetry_space_group_name_H-M "P -1"
_symmetry_group_IT_number 2
_symmetry_cell_setting 'triclinic'
loop_
_space_group_symop_operation_xyz
x,y,z
-x,-y,-z
loop_
_atom_site_type_symbol
_atom_site_label
_atom_site_fract_x
_atom_site_fract_y
_atom_site_fract_z
Si Si1 0.343840 0.734693 0.085490
Si Si2 0.117934 0.742503 0.200172
Si Si3 0.620068 0.922984 0.385822
Si Si4 0.898286 0.776274 0.587769
Si Si5 0.369598 0.323546 0.238930
Si Si6 0.350012 0.244127 0.700057
Si Si7 0.887504 0.301242 0.553263
Si Si8 0.101737 0.206928 0.188452
O O1 0.487973 0.887223 0.219238
O O2 0.336107 0.545857 0.092575
O O3 0.233887 0.516611 0.155738
O O4 0.323659 0.966213 0.884578
O O5 0.115078 0.516599 0.259327
O O6 0.084599 0.599633 0.355105
O O7 0.011857 0.792444 0.005309
O O8 0.255464 0.042609 0.207616
O O9 0.605906 0.760325 0.568882
O O10 0.649201 0.806174 0.391363
O O11 0.751286 0.229522 0.387780
O O12 0.759706 0.716893 0.430983
O O13 0.932842 0.882486 0.684378
O O14 0.000000 0.000000 0.500000
O O15 0.505404 0.491626 0.251475
O O16 0.000000 0.500000 0.500000
O O17 0.876821 0.009542 0.711308
#
# Coordination Sequence:
#
# PCOD9088524 Si02
#       8
#     2   2   2   2   2   2   2   2
#     4  11  21  36  65  96 123 159 213 264 304 374
#     4  11  25  40  63  94 131 164 205 264 314 369
#     4  10  19  37  61  92 125 158 208 259 309 364
#     4  12  25  45  63  89 126 171 214 251 313 387
#     4  10  20  39  62  94 125 160 208 263 320 359
#     4  11  22  37  63  91 125 168 212 255 308 378
#     4  11  23  38  64  93 128 163 203 265 316 364
#     4  12  23  42  65  92 124 166 213 256 312 379
#
# _framework density 20.231034000000001
#
# number of rings (size 3 to 8) (size 9 to 14) (size 15 to 20)
#    0.000    1.000    3.750    6.000    1.750    1.500 
#    0.000    0.000    0.000    4.500    0.000    0.000 
#    0.000    0.000    0.000    0.000    0.000    0.000 
#
# Total GULP energy -89422.679267 kJ/mol
# GULP energy per Si atom -5588.917454 kJ/mol
# Density = 2.018499 g / cm^3
# Si number density = 20.231034 Si / 1000 Ang^3
#
#
#
# Elastic Constant Matrix: (Units=GPa)
#
#
# Indices 1 2 3 4 5 6 
#
# 1 52.0186 17.7887 -8.3900 11.6989 0.7835 17.3946
# 2 17.7887 61.4898 32.9659 6.4628 -6.0258 26.8859
# 3 -8.3900 32.9659 61.9357 12.3068 11.2412 4.7845
# 4 11.6989 6.4628 12.3068 25.2255 3.6833 2.3385
# 5 0.7835 -6.0258 11.2412 3.6833 20.3987 -6.8917
# 6 17.3946 26.8859 4.7845 2.3385 -6.8917 41.6868
#
#
#
# Elastic Compliance Matrix: (Units=1/GPa)
#
#
# Indices 1 2 3 4 5 6 
#
# 1 0.037270 -0.020119 0.023868 -0.020264 -0.019362 -0.007379
# 2 -0.020119 0.048839 -0.034692 0.011195 0.027139 -0.015263
# 3 0.023868 -0.034692 0.047748 -0.020938 -0.032788 0.002689
# 4 -0.020264 0.011195 -0.020938 0.055344 0.006154 0.001551
# 5 -0.019362 0.027139 -0.032788 0.006154 0.077013 0.006725
# 6 -0.007379 -0.015263 0.002689 0.001551 0.006725 0.037628
#
#
# Mechanical properties :
#
#
# Convention : Reuss Voigt Hill
#
# Bulk Modulus (GPa) = 13.89448 28.90815 21.40132
# Shear Modulus (GPa) = 12.82979 26.33416 19.58198
#
# Velocity S-wave (km/s) = 2.52099 3.61178 3.11451
# Velocity P-wave (km/s) = 3.91876 5.63146 4.85129
#
# Compressibility (1/GPa) = 0.07197101
#
# Stress axis : x y z
#
# Youngs Moduli (GPa) = 26.83112 20.47560 20.94343
#
# Poissons Ratio (x) = 0.41195 -0.49988
# Poissons Ratio (y) = 0.53982 0.72656
# Poissons Ratio (z) = -0.64041 0.71033
#
# Static dielectric constant tensor:
#      x y z
#    x 1.689950 0.019120 -0.015250 
#    y 0.019120 1.766630 -0.005940 
#    z -0.015250 -0.005940 1.710580 
# 
# From -- ./inp_files/579088.got.cif
#   From: 2010.05.17/outbox.cif.g08.bks.cpg/sg2_290_cif.got.tgz:579088.got - 2010.06.03 11:33:40.
