data_PCOD9088623
_publ_section_title
;
Structure prediction by ZEFSAII (Michael W. Deem and Ramdas Pophale) SiO2 
 PCOD9088623
Probable space group: P -1
;
_chemical_formula_sum "Si O2"
_cell_formula_units_Z 10
_cell_length_a 11.449527
_cell_length_b 7.503629
_cell_length_c 7.359061
_cell_angle_alpha 56.121091
_cell_angle_beta 72.034190
_cell_angle_gamma 62.596922
_cell_volume 464.841478
_symmetry_space_group_name_H-M "P -1"
_symmetry_group_IT_number 2
_symmetry_cell_setting 'triclinic'
loop_
_space_group_symop_operation_xyz
x,y,z
-x,-y,-z
loop_
_atom_site_type_symbol
_atom_site_label
_atom_site_fract_x
_atom_site_fract_y
_atom_site_fract_z
Si Si1 0.929406 0.334136 0.698405
Si Si2 0.721045 0.359771 0.495436
Si Si3 0.564361 0.235667 0.178067
Si Si4 0.857334 0.171850 0.169454
Si Si5 0.506171 0.173206 0.663976
O O1 0.795133 0.390900 0.619715
O O2 0.000000 0.500000 0.500000
O O3 0.898280 0.341709 0.922769
O O4 0.025892 0.074433 0.755127
O O5 0.822835 0.255732 0.343090
O O6 0.638332 0.195623 0.666637
O O7 0.617111 0.605552 0.339402
O O8 0.722737 0.156827 0.158641
O O9 0.518691 0.215714 0.417532
O O10 0.500000 0.500000 0.000000
O O11 0.517695 0.064560 0.175531
#
# Coordination Sequence:
#
# PCOD9088623 Si02
#       5
#     2   2   2   2   2
#     4  11  23  41  61  83 120 162 198 247 295 342
#     4  10  20  40  63  89 123 156 194 246 299 349
#     4  10  19  37  62  88 120 156 193 241 298 352
#     4  10  23  39  59  89 117 153 206 240 288 362
#     4   9  20  37  60  90 122 152 192 243 295 357
#
# _framework density 21.512709999999998
#
# number of rings (size 3 to 8) (size 9 to 14) (size 15 to 20)
#    0.000    2.000    0.000    3.000    0.000    4.000 
#    0.000   28.000    0.000    0.000    0.000    0.000 
#    0.000    0.000    0.000    0.000    0.000    0.000 
#
# Total GULP energy -55926.942448 kJ/mol
# GULP energy per Si atom -5592.694245 kJ/mol
# Density = 2.146375 g / cm^3
# Si number density = 21.512710 Si / 1000 Ang^3
#
#
#
# Elastic Constant Matrix: (Units=GPa)
#
#
# Indices 1 2 3 4 5 6 
#
# 1 57.6549 -0.7611 2.2208 -20.2273 4.5672 6.6903
# 2 -0.7611 41.3708 8.6816 -12.4062 -16.4057 8.5117
# 3 2.2208 8.6816 87.0796 -15.2368 -18.3769 1.6646
# 4 -20.2273 -12.4062 -15.2368 35.1393 1.1209 -15.5120
# 5 4.5672 -16.4057 -18.3769 1.1209 25.2596 0.9182
# 6 6.6903 8.5117 1.6646 -15.5120 0.9182 39.7236
#
#
#
# Elastic Compliance Matrix: (Units=1/GPa)
#
#
# Indices 1 2 3 4 5 6 
#
# 1 0.022861 0.004165 0.001544 0.015976 -0.001067 0.001456
# 2 0.004165 0.039964 0.004691 0.015929 0.028050 -0.003889
# 3 0.001544 0.004691 0.015463 0.009467 0.013544 0.001471
# 4 0.015976 0.015929 0.009467 0.053202 0.011475 0.014009
# 5 -0.001067 0.028050 0.013544 0.011475 0.067470 -0.003477
# 6 0.001456 -0.003889 0.001471 0.014009 -0.003477 0.031251
#
#
# Mechanical properties :
#
#
# Convention : Reuss Voigt Hill
#
# Bulk Modulus (GPa) = 10.09211 22.93198 16.51204
# Shear Modulus (GPa) = 20.62350 31.75544 26.18947
#
# Velocity S-wave (km/s) = 3.09959 3.84620 3.49290
# Velocity P-wave (km/s) = 4.18466 5.51428 4.89483
#
# Compressibility (1/GPa) = 0.09908732
#
# Stress axis : x y z
#
# Youngs Moduli (GPa) = 43.74343 25.02225 64.66923
#
# Poissons Ratio (x) = -0.10421 -0.09986
# Poissons Ratio (y) = -0.18218 -0.30334
# Poissons Ratio (z) = -0.06755 -0.11737
#
# Static dielectric constant tensor:
#      x y z
#    x 1.769380 0.018790 0.001460 
#    y 0.018790 1.756740 0.019530 
#    z 0.001460 0.019530 1.817430 
# 
# From -- ./inp_files/58140.got.cif
#   From: 2010.05.17/outbox.cif.g08.bks.cpg/sg2_30_cif.got.tgz:58140.got - 2010.06.03 11:33:40.
