data_PCOD9088291
_publ_section_title
;
Structure prediction by ZEFSAII (Michael W. Deem and Ramdas Pophale) SiO2 
 PCOD9088291
Probable space group: P -1
;
_chemical_formula_sum "Si O2"
_cell_formula_units_Z 16
_cell_length_a 17.395348
_cell_length_b 11.875538
_cell_length_c 16.388170
_cell_angle_alpha 55.302622
_cell_angle_beta 31.541746
_cell_angle_gamma 30.469913
_cell_volume 702.322874
_symmetry_space_group_name_H-M "P -1"
_symmetry_group_IT_number 2
_symmetry_cell_setting 'triclinic'
loop_
_space_group_symop_operation_xyz
x,y,z
-x,-y,-z
loop_
_atom_site_type_symbol
_atom_site_label
_atom_site_fract_x
_atom_site_fract_y
_atom_site_fract_z
Si Si1 0.349258 0.088060 0.937196
Si Si2 0.229191 0.057344 0.480360
Si Si3 0.391347 0.648385 0.449286
Si Si4 0.939349 0.800504 0.004419
Si Si5 0.740993 0.525051 0.865088
Si Si6 0.118973 0.863683 0.038590
Si Si7 0.456787 0.308152 0.503016
Si Si8 0.064174 0.406008 0.770457
O O1 0.636533 0.941024 0.704089
O O2 0.458438 0.852009 0.967250
O O3 0.179467 0.311175 0.069597
O O4 0.137314 0.224501 0.995371
O O5 0.944183 0.338613 0.676293
O O6 0.171061 0.956750 0.532748
O O7 0.512357 0.790871 0.396067
O O8 0.500000 0.500000 0.500000
O O9 0.699836 0.458361 0.209068
O O10 0.280263 0.596169 0.532861
O O11 0.779607 0.079234 0.033978
O O12 0.843679 0.794649 0.172379
O O13 0.937303 0.449890 0.784199
O O14 0.667818 0.439432 0.010367
O O15 0.803673 0.068222 0.277219
O O16 0.000000 0.000000 0.000000
O O17 0.332025 0.295950 0.561118
#
# Coordination Sequence:
#
# PCOD9088291 Si02
#       8
#     2   2   2   2   2   2   2   2
#     4  12  23  39  62  92 124 163 205 248 300 369
#     4  10  19  37  60  87 122 159 200 249 305 358
#     4   9  17  34  59  93 114 149 207 261 288 344
#     4  11  21  37  68  90 114 162 214 249 292 362
#     4  11  26  39  58  90 132 162 194 249 321 361
#     4  10  21  41  62  91 126 162 196 256 311 360
#     4   9  20  34  62  95 115 151 212 254 294 348
#     4  12  22  40  63  92 123 160 206 256 299 358
#
# _framework density 22.781545999999999
#
# number of rings (size 3 to 8) (size 9 to 14) (size 15 to 20)
#    0.000    1.500    3.750    3.375    0.000    3.500 
#    0.000    0.000    0.000    1.500    0.000    0.000 
#    0.000    0.000    0.000    0.000    0.000    0.000 
#
# Total GULP energy -89313.070160 kJ/mol
# GULP energy per Si atom -5582.066885 kJ/mol
# Density = 2.272969 g / cm^3
# Si number density = 22.781546 Si / 1000 Ang^3
#
#
#
# Elastic Constant Matrix: (Units=GPa)
#
#
# Indices 1 2 3 4 5 6 
#
# 1 46.7533 19.8388 10.0676 -4.9236 -4.8339 22.2684
# 2 19.8388 116.9333 35.6728 -19.6211 8.7600 23.1966
# 3 10.0676 35.6728 50.6194 -16.2170 0.8707 12.5406
# 4 -4.9236 -19.6211 -16.2170 25.2715 6.0757 -4.0666
# 5 -4.8339 8.7600 0.8707 6.0757 25.9890 -5.1080
# 6 22.2684 23.1966 12.5406 -4.0666 -5.1080 32.2308
#
#
#
# Elastic Compliance Matrix: (Units=1/GPa)
#
#
# Indices 1 2 3 4 5 6 
#
# 1 0.032210 -0.001234 0.000109 0.001559 0.001930 -0.020906
# 2 -0.001234 0.013627 -0.004858 0.007958 -0.007960 -0.007323
# 3 0.000109 -0.004858 0.029861 0.015326 -0.004291 -0.006944
# 4 0.001559 0.007958 0.015326 0.058965 -0.018308 -0.008230
# 5 0.001930 -0.007960 -0.004291 -0.018308 0.048182 0.011391
# 6 -0.020906 -0.007323 -0.006944 -0.008230 0.011391 0.054209
#
#
# Mechanical properties :
#
#
# Convention : Reuss Voigt Hill
#
# Bulk Modulus (GPa) = 15.69024 38.38494 27.03759
# Shear Modulus (GPa) = 18.50040 26.61338 22.55689
#
# Velocity S-wave (km/s) = 2.85279 3.42160 3.15006
# Velocity P-wave (km/s) = 4.21348 5.70048 5.01243
#
# Compressibility (1/GPa) = 0.06373388
#
# Stress axis : x y z
#
# Youngs Moduli (GPa) = 31.04624 73.38156 33.48845
#
# Poissons Ratio (x) = 0.09053 -0.00365
# Poissons Ratio (y) = 0.03830 0.16267
# Poissons Ratio (z) = -0.00338 0.35645
#
# Static dielectric constant tensor:
#      x y z
#    x 1.893600 0.058920 0.041110 
#    y 0.058920 1.957690 -0.011410 
#    z 0.041110 -0.011410 1.901340 
# 
# From -- ./inp_files/254515.got.cif
#   From: 2010.05.17/outbox.cif.g08.bks.cpg/sg2_128_cif.got.tgz:254515.got - 2010.06.03 11:33:40.
