data_PCOD9088706
_publ_section_title
;
Structure prediction by ZEFSAII (Michael W. Deem and Ramdas Pophale) SiO2 
 PCOD9088706
Probable space group: P -1
;
_chemical_formula_sum "Si O2"
_cell_formula_units_Z 16
_cell_length_a 14.264903
_cell_length_b 13.809982
_cell_length_c 12.054457
_cell_angle_alpha 60.263034
_cell_angle_beta 148.197047
_cell_angle_gamma 138.672380
_cell_volume 754.302968
_symmetry_space_group_name_H-M "P -1"
_symmetry_group_IT_number 2
_symmetry_cell_setting 'triclinic'
loop_
_space_group_symop_operation_xyz
x,y,z
-x,-y,-z
loop_
_atom_site_type_symbol
_atom_site_label
_atom_site_fract_x
_atom_site_fract_y
_atom_site_fract_z
Si Si1 0.592357 0.030468 0.950349
Si Si2 0.950505 0.384269 0.606957
Si Si3 0.173377 0.216589 0.213566
Si Si4 0.119528 0.389635 0.210207
Si Si5 0.377011 0.123509 0.107514
Si Si6 0.140473 0.600146 0.251206
Si Si7 0.638522 0.935954 0.494603
Si Si8 0.834790 0.752724 0.067241
O O1 0.610512 0.912155 0.987904
O O2 0.403004 0.006580 0.686632
O O3 0.500000 0.000000 0.000000
O O4 0.859989 0.217042 0.097032
O O5 0.650210 0.217361 0.383004
O O6 0.974358 0.449184 0.715054
O O7 0.143014 0.365644 0.804730
O O8 0.000000 0.500000 0.500000
O O9 0.275523 0.148427 0.405780
O O10 0.248938 0.346070 0.301600
O O11 0.251544 0.273173 0.132446
O O12 0.863552 0.058453 0.987900
O O13 0.226273 0.517327 0.341243
O O14 0.056609 0.442748 0.013407
O O15 0.312916 0.223034 0.018810
O O16 0.372914 0.793288 0.370509
O O17 0.866911 0.077207 0.722329
#
# Coordination Sequence:
#
# PCOD9088706 Si02
#       8
#     2   2   2   2   2   2   2   2
#     4  10  21  38  62  85 120 164 205 246 297 360
#     4  12  25  38  62  87 122 167 202 244 311 360
#     4  10  19  37  62  95 118 152 198 256 303 351
#     4   9  20  35  58  83 121 158 200 248 294 351
#     4  10  22  40  60  92 119 153 203 250 300 357
#     4  10  20  37  55  86 119 158 204 245 295 360
#     4  10  20  36  63  91 116 155 203 247 310 356
#     4  11  21  39  64  91 123 150 200 260 298 360
#
# _framework density 21.211635000000001
#
# number of rings (size 3 to 8) (size 9 to 14) (size 15 to 20)
#    0.000    1.750    2.500    3.000    1.750    2.000 
#    0.000    6.875    0.000    0.000    0.000    0.000 
#    0.000    0.000    0.000    0.000    0.000    0.000 
#
# Total GULP energy -89226.026367 kJ/mol
# GULP energy per Si atom -5576.626648 kJ/mol
# Density = 2.116336 g / cm^3
# Si number density = 21.211635 Si / 1000 Ang^3
#
#
#
# Elastic Constant Matrix: (Units=GPa)
#
#
# Indices 1 2 3 4 5 6 
#
# 1 184.5004 59.7184 51.2477 -36.0619 -16.7539 -19.6072
# 2 59.7184 58.5505 35.6783 -16.1533 -6.7711 -21.1756
# 3 51.2477 35.6783 78.5399 -12.5928 2.0132 -7.5425
# 4 -36.0619 -16.1533 -12.5928 36.8149 -7.8103 5.3290
# 5 -16.7539 -6.7711 2.0132 -7.8103 32.7783 -10.0056
# 6 -19.6072 -21.1756 -7.5425 5.3290 -10.0056 30.1791
#
#
#
# Elastic Compliance Matrix: (Units=1/GPa)
#
#
# Indices 1 2 3 4 5 6 
#
# 1 0.010497 -0.003363 -0.003692 0.008635 0.008422 0.004805
# 2 -0.003363 0.046849 -0.014609 0.012199 0.021538 0.032023
# 3 -0.003692 -0.014609 0.020460 -0.003701 -0.010174 -0.010255
# 4 0.008635 0.012199 -0.003701 0.042345 0.021152 0.012780
# 5 0.008422 0.021538 -0.010174 0.021152 0.054844 0.032489
# 6 0.004805 0.032023 -0.010255 0.012780 0.032489 0.064679
#
#
# Mechanical properties :
#
#
# Convention : Reuss Voigt Hill
#
# Bulk Modulus (GPa) = 29.00252 68.31995 48.66124
# Shear Modulus (GPa) = 16.97827 31.61757 24.29792
#
# Velocity S-wave (km/s) = 2.83224 3.86499 3.38819
# Velocity P-wave (km/s) = 4.93944 7.22469 6.18847
#
# Compressibility (1/GPa) = 0.03447976
#
# Stress axis : x y z
#
# Youngs Moduli (GPa) = 95.26374 21.34519 48.87588
#
# Poissons Ratio (x) = 0.07178 0.18044
# Poissons Ratio (y) = 0.32036 0.71401
# Poissons Ratio (z) = 0.35169 0.31182
#
# Static dielectric constant tensor:
#      x y z
#    x 1.801100 -0.045060 0.069400 
#    y -0.045060 1.847890 0.037240 
#    z 0.069400 0.037240 1.800250 
# 
# From -- ./inp_files/454687.got.cif
#   From: 2010.05.17/outbox.cif.g08.bks.cpg/sg2_228_cif.got.tgz:454687.got - 2010.06.03 11:33:40.
