data_PCOD9088019
_publ_section_title
;
Structure prediction by ZEFSAII (Michael W. Deem and Ramdas Pophale) SiO2 
 PCOD9088019
Probable space group: P -1
;
_chemical_formula_sum "Si O2"
_cell_formula_units_Z 16
_cell_length_a 6.919729
_cell_length_b 19.921398
_cell_length_c 6.534213
_cell_angle_alpha 119.135600
_cell_angle_beta 69.112928
_cell_angle_gamma 79.343224
_cell_volume 660.339348
_symmetry_space_group_name_H-M "P -1"
_symmetry_group_IT_number 2
_symmetry_cell_setting 'triclinic'
loop_
_space_group_symop_operation_xyz
x,y,z
-x,-y,-z
loop_
_atom_site_type_symbol
_atom_site_label
_atom_site_fract_x
_atom_site_fract_y
_atom_site_fract_z
Si Si1 0.927988 0.754357 0.559805
Si Si2 0.346733 0.705696 0.602524
Si Si3 0.347498 0.805909 0.115906
Si Si4 0.399049 0.082041 0.875437
Si Si5 0.864052 0.940966 0.447516
Si Si6 0.117031 0.636876 0.934134
Si Si7 0.248190 0.465100 0.751133
Si Si8 0.240473 0.353881 0.227515
O O1 0.166267 0.745038 0.551136
O O2 0.974597 0.707761 0.258027
O O3 0.072016 0.852746 0.317107
O O4 0.746440 0.852501 0.797485
O O5 0.567718 0.619380 0.330933
O O6 0.850474 0.698237 0.660399
O O7 0.384876 0.778919 0.819154
O O8 0.466892 0.868109 0.211175
O O9 0.233484 0.672269 0.776265
O O10 0.505339 0.716705 0.033857
O O11 0.613887 0.993249 0.723700
O O12 0.221457 0.072052 0.766530
O O13 0.000000 0.000000 0.500000
O O14 0.293123 0.548769 0.843138
O O15 0.934275 0.616279 0.846508
O O16 0.247046 0.428615 0.470945
O O17 0.000000 0.500000 0.000000
#
# Coordination Sequence:
#
# PCOD9088019 Si02
#       8
#     2   2   2   2   2   2   2   2
#     4  10  19  37  58  84 118 154 201 247 293 353
#     4  10  22  38  57  83 117 155 203 248 297 354
#     4   9  17  34  56  83 120 157 194 242 294 353
#     4   9  17  30  57  93 119 153 199 242 290 362
#     4   9  16  29  57  94 120 152 195 240 299 350
#     4  11  22  38  58  84 116 160 205 246 301 358
#     4  11  21  40  59  83 118 158 200 255 306 349
#     4   9  20  37  58  84 116 158 200 246 297 353
#
# _framework density 24.229966000000001
#
# number of rings (size 3 to 8) (size 9 to 14) (size 15 to 20)
#    0.000    2.250    2.500    0.750    0.000    0.500 
#    6.750    0.000    0.000    1.500    0.000    0.000 
#    0.000    0.000    0.000    0.000    0.000    0.000 
#
# Total GULP energy -89332.754291 kJ/mol
# GULP energy per Si atom -5583.297143 kJ/mol
# Density = 2.417482 g / cm^3
# Si number density = 24.229966 Si / 1000 Ang^3
#
#
#
# Elastic Constant Matrix: (Units=GPa)
#
#
# Indices 1 2 3 4 5 6 
#
# 1 145.1620 19.8196 49.4960 12.1285 -15.9123 -5.0305
# 2 19.8196 67.1978 38.1492 7.1875 -7.1808 -1.4175
# 3 49.4960 38.1492 144.8423 24.0585 -36.6861 -1.1208
# 4 12.1285 7.1875 24.0585 36.1583 2.8667 -9.2008
# 5 -15.9123 -7.1808 -36.6861 2.8667 50.7222 14.1224
# 6 -5.0305 -1.4175 -1.1208 -9.2008 14.1224 26.3950
#
#
#
# Elastic Compliance Matrix: (Units=1/GPa)
#
#
# Indices 1 2 3 4 5 6 
#
# 1 0.007918 -0.000942 -0.002126 -0.000935 0.000676 0.000680
# 2 -0.000942 0.017717 -0.004922 0.000680 -0.001890 0.001811
# 3 -0.002126 -0.004922 0.013753 -0.011073 0.012112 -0.010426
# 4 -0.000935 0.000680 -0.011073 0.042503 -0.017112 0.023359
# 5 0.000676 -0.001890 0.012112 -0.017112 0.036306 -0.024848
# 6 0.000680 0.001811 -0.010426 0.023359 -0.024848 0.059108
#
#
# Mechanical properties :
#
#
# Convention : Reuss Voigt Hill
#
# Bulk Modulus (GPa) = 42.71925 63.57021 53.14473
# Shear Modulus (GPa) = 24.86478 39.30425 32.08451
#
# Velocity S-wave (km/s) = 3.20691 4.03194 3.64286
# Velocity P-wave (km/s) = 5.60191 6.92593 6.29881
#
# Compressibility (1/GPa) = 0.02340865
#
# Stress axis : x y z
#
# Youngs Moduli (GPa) = 126.29213 56.44247 72.70973
#
# Poissons Ratio (x) = 0.05316 0.15457
# Poissons Ratio (y) = 0.11896 0.35789
# Poissons Ratio (z) = 0.26848 0.27782
#
# Static dielectric constant tensor:
#      x y z
#    x 1.978160 0.044050 -0.033540 
#    y 0.044050 1.985140 0.037110 
#    z -0.033540 0.037110 1.935020 
# 
# From -- ./inp_files/116849.got.cif
#   From: 2010.05.17/outbox.cif.g08.bks.cpg/sg2_59_cif.got.tgz:116849.got - 2010.06.03 11:33:40.
