data_PCOD9088048
_publ_section_title
;
Structure prediction by ZEFSAII (Michael W. Deem and Ramdas Pophale) SiO2 
 PCOD9088048
Probable space group: P -1
;
_chemical_formula_sum "Si O2"
_cell_formula_units_Z 16
_cell_length_a 12.879993
_cell_length_b 11.850880
_cell_length_c 12.547663
_cell_angle_alpha 59.216559
_cell_angle_beta 156.775879
_cell_angle_gamma 123.322508
_cell_volume 630.935298
_symmetry_space_group_name_H-M "P -1"
_symmetry_group_IT_number 2
_symmetry_cell_setting 'triclinic'
loop_
_space_group_symop_operation_xyz
x,y,z
-x,-y,-z
loop_
_atom_site_type_symbol
_atom_site_label
_atom_site_fract_x
_atom_site_fract_y
_atom_site_fract_z
Si Si1 0.470946 0.880299 0.686892
Si Si2 0.239825 0.606703 0.119278
Si Si3 0.871371 0.768782 0.258960
Si Si4 0.242580 0.394511 0.038813
Si Si5 0.288534 0.089608 0.755721
Si Si6 0.828075 0.516426 0.487375
Si Si7 0.788296 0.692949 0.575370
Si Si8 0.838725 0.114362 0.826225
O O1 0.354776 0.862292 0.464880
O O2 0.190578 0.838385 0.509636
O O3 0.639191 0.038367 0.768029
O O4 0.693287 0.799413 0.976094
O O5 0.286090 0.520032 0.101911
O O6 0.081039 0.724843 0.889889
O O7 0.530317 0.639261 0.434963
O O8 0.000000 0.500000 0.000000
O O9 0.736153 0.839422 0.190787
O O10 0.847366 0.620068 0.358246
O O11 0.065215 0.438073 0.756153
O O12 0.060098 0.255934 0.983090
O O13 0.545648 0.408028 0.278249
O O14 0.334072 0.196917 0.652854
O O15 0.000000 0.000000 0.500000
O O16 0.500000 0.000000 0.000000
O O17 0.840091 0.600532 0.568956
O O18 0.000000 0.000000 0.000000
#
# Coordination Sequence:
#
# PCOD9088048 Si02
#       8
#     2   2   2   2   2   2   2   2
#     4  11  24  42  68  90 125 175 210 263 323 385
#     4  10  19  37  58  88 117 157 203 262 304 363
#     4  11  22  43  66  95 128 164 220 265 326 377
#     4  10  22  39  64  91 119 166 216 249 327 388
#     4  11  22  39  61  92 127 169 205 257 319 386
#     4   9  20  38  65  88 119 160 199 262 310 380
#     4   9  19  36  56  78 120 161 195 238 317 364
#     4  11  25  46  67  89 133 176 212 263 335 383
#
# _framework density 25.359176000000001
#
# number of rings (size 3 to 8) (size 9 to 14) (size 15 to 20)
#    0.000    1.750    1.250    2.625    3.500    4.000 
#    6.750    3.750    0.000    0.000    0.000    0.000 
#    0.000    0.000    0.000    0.000    0.000    0.000 
#
# Total GULP energy -89325.521972 kJ/mol
# GULP energy per Si atom -5582.845123 kJ/mol
# Density = 2.530146 g / cm^3
# Si number density = 25.359176 Si / 1000 Ang^3
#
#
#
# Elastic Constant Matrix: (Units=GPa)
#
#
# Indices 1 2 3 4 5 6 
#
# 1 33.7906 -3.4375 13.4200 -3.3839 8.2795 16.6091
# 2 -3.4375 92.9898 51.3510 -17.3230 9.3985 14.3048
# 3 13.4200 51.3510 195.3489 -15.2106 26.1200 11.2073
# 4 -3.3839 -17.3230 -15.2106 45.8333 3.6188 4.4473
# 5 8.2795 9.3985 26.1200 3.6188 35.9171 7.8369
# 6 16.6091 14.3048 11.2073 4.4473 7.8369 35.9572
#
#
#
# Elastic Compliance Matrix: (Units=1/GPa)
#
#
# Indices 1 2 3 4 5 6 
#
# 1 0.045596 0.009026 -0.002575 0.008733 -0.006762 -0.023456
# 2 0.009026 0.015964 -0.003426 0.006694 -0.002308 -0.009777
# 3 -0.002575 -0.003426 0.006700 0.000920 -0.003729 0.001163
# 4 0.008733 0.006694 0.000920 0.026591 -0.005115 -0.009158
# 5 -0.006762 -0.002308 -0.003729 -0.005115 0.033554 -0.001477
# 6 -0.023456 -0.009777 0.001163 -0.009158 -0.001477 0.043627
#
#
# Mechanical properties :
#
#
# Convention : Reuss Voigt Hill
#
# Bulk Modulus (GPa) = 13.45724 49.42182 31.43953
# Shear Modulus (GPa) = 26.21231 40.92792 33.57011
#
# Velocity S-wave (km/s) = 3.21852 4.02173 3.64233
# Velocity P-wave (km/s) = 4.37378 6.41068 5.48757
#
# Compressibility (1/GPa) = 0.07430946
#
# Stress axis : x y z
#
# Youngs Moduli (GPa) = 21.93198 62.64263 149.25455
#
# Poissons Ratio (x) = -0.56542 0.38436
# Poissons Ratio (y) = -0.19796 0.51130
# Poissons Ratio (z) = 0.05648 0.21459
#
# Static dielectric constant tensor:
#      x y z
#    x 2.110270 0.031770 -0.019530 
#    y 0.031770 2.173590 0.030750 
#    z -0.019530 0.030750 2.028660 
# 
# From -- ./inp_files/522091.got.cif
#   From: 2010.05.17/outbox.cif.g08.bks.cpg/sg2_262_cif.got.tgz:522091.got - 2010.06.03 11:33:40.
