data_PCOD9088200
_publ_section_title
;
Structure prediction by ZEFSAII (Michael W. Deem and Ramdas Pophale) SiO2 
 PCOD9088200
Probable space group: P -1
;
_chemical_formula_sum "Si O2"
_cell_formula_units_Z 16
_cell_length_a 13.977990
_cell_length_b 9.832631
_cell_length_c 9.861247
_cell_angle_alpha 85.615088
_cell_angle_beta 137.986026
_cell_angle_gamma 63.783256
_cell_volume 601.230465
_symmetry_space_group_name_H-M "P -1"
_symmetry_group_IT_number 2
_symmetry_cell_setting 'triclinic'
loop_
_space_group_symop_operation_xyz
x,y,z
-x,-y,-z
loop_
_atom_site_type_symbol
_atom_site_label
_atom_site_fract_x
_atom_site_fract_y
_atom_site_fract_z
Si Si1 0.413481 0.754351 0.450506
Si Si2 0.664403 0.009352 0.989515
Si Si3 0.623592 0.109233 0.227498
Si Si4 0.680137 0.443073 0.507434
Si Si5 0.848091 0.790691 0.943549
Si Si6 0.212862 0.245892 0.412825
Si Si7 0.778258 0.513076 0.080780
Si Si8 0.287407 0.744052 0.892611
O O1 0.515250 0.613805 0.435118
O O2 0.270242 0.747182 0.380840
O O3 0.282791 0.979251 0.252058
O O4 0.615257 0.630581 0.772652
O O5 0.411870 0.194593 0.674660
O O6 0.780178 0.075224 0.101792
O O7 0.754007 0.836758 0.991607
O O8 0.671818 0.977286 0.159563
O O9 0.719949 0.959260 0.466105
O O10 0.370894 0.316680 0.971472
O O11 0.722517 0.181861 0.272960
O O12 0.539218 0.546730 0.214443
O O13 0.901213 0.364621 0.758349
O O14 0.810001 0.726148 0.775741
O O15 0.997510 0.417992 0.259704
O O16 0.817515 0.325958 0.180994
#
# Coordination Sequence:
#
# PCOD9088200 Si02
#       8
#     2   2   2   2   2   2   2   2
#     4  10  19  37  59  97 132 158 209 269 319 377
#     4  10  25  45  62  93 138 172 212 267 319 386
#     4  10  23  46  68  89 135 170 215 267 319 384
#     4  10  20  36  64  93 128 168 207 261 328 380
#     4  12  22  40  65  95 128 172 215 265 319 380
#     4  12  25  42  67  99 126 175 220 261 324 380
#     4  11  22  41  69  98 127 164 220 269 320 380
#     4   9  22  43  64  96 131 165 209 271 320 378
#
# _framework density 26.612093000000002
#
# number of rings (size 3 to 8) (size 9 to 14) (size 15 to 20)
#    0.750    0.750    3.750    1.500    0.000    3.000 
#    2.250    1.250    0.000    0.000    0.000    0.000 
#    0.000    0.000    0.000    0.000    0.000    0.000 
#
# Total GULP energy -89449.537745 kJ/mol
# GULP energy per Si atom -5590.596109 kJ/mol
# Density = 2.655152 g / cm^3
# Si number density = 26.612093 Si / 1000 Ang^3
#
#
#
# Elastic Constant Matrix: (Units=GPa)
#
#
# Indices 1 2 3 4 5 6 
#
# 1 131.5007 48.6405 19.3762 3.4069 7.0352 -4.5745
# 2 48.6405 111.2029 18.7866 -15.3664 -5.6162 -7.6247
# 3 19.3762 18.7866 91.1767 -1.0020 14.1054 -7.8886
# 4 3.4069 -15.3664 -1.0020 35.3930 4.4560 -6.2013
# 5 7.0352 -5.6162 14.1054 4.4560 40.4891 0.5413
# 6 -4.5745 -7.6247 -7.8886 -6.2013 0.5413 49.4858
#
#
#
# Elastic Compliance Matrix: (Units=1/GPa)
#
#
# Indices 1 2 3 4 5 6 
#
# 1 0.009556 -0.004510 -0.000898 -0.002743 -0.001668 -0.000280
# 2 -0.004510 0.012305 -0.001726 0.005754 0.002433 0.001898
# 3 -0.000898 -0.001726 0.012363 0.000555 -0.004475 0.001740
# 4 -0.002743 0.005754 0.000555 0.032188 -0.002525 0.004783
# 5 -0.001668 0.002433 -0.004475 -0.002525 0.027177 -0.001106
# 6 -0.000280 0.001898 0.001740 0.004783 -0.001106 0.021363
#
#
# Mechanical properties :
#
#
# Convention : Reuss Voigt Hill
#
# Bulk Modulus (GPa) = 50.11056 56.38740 53.24898
# Shear Modulus (GPa) = 36.79927 41.54537 39.17232
#
# Velocity S-wave (km/s) = 3.72264 3.95542 3.84079
# Velocity P-wave (km/s) = 6.11132 6.48807 6.30251
#
# Compressibility (1/GPa) = 0.01995588
#
# Stress axis : x y z
#
# Youngs Moduli (GPa) = 104.64971 81.26653 80.88618
#
# Poissons Ratio (x) = 0.36655 0.07261
# Poissons Ratio (y) = 0.47202 0.13960
# Poissons Ratio (z) = 0.09395 0.14025
#
# Static dielectric constant tensor:
#      x y z
#    x 2.100410 0.049750 -0.022860 
#    y 0.049750 2.120110 -0.034310 
#    z -0.022860 -0.034310 1.999600 
# 
# From -- ./inp_files/452409.got.cif
#   From: 2010.05.17/outbox.cif.g08.bks.cpg/sg2_227_cif.got.tgz:452409.got - 2010.06.03 11:33:40.
