data_PCOD9088918
_publ_section_title
;
Structure prediction by ZEFSAII (Michael W. Deem and Ramdas Pophale) SiO2 
 PCOD9088918
Probable space group: P -1
;
_chemical_formula_sum "Si O2"
_cell_formula_units_Z 16
_cell_length_a 11.207965
_cell_length_b 14.186466
_cell_length_c 7.331558
_cell_angle_alpha 131.281484
_cell_angle_beta 126.237065
_cell_angle_gamma 51.769735
_cell_volume 654.292695
_symmetry_space_group_name_H-M "P -1"
_symmetry_group_IT_number 2
_symmetry_cell_setting 'triclinic'
loop_
_space_group_symop_operation_xyz
x,y,z
-x,-y,-z
loop_
_atom_site_type_symbol
_atom_site_label
_atom_site_fract_x
_atom_site_fract_y
_atom_site_fract_z
Si Si1 0.939233 0.098139 0.324484
Si Si2 0.817377 0.474932 0.768246
Si Si3 0.380586 0.698410 0.617425
Si Si4 0.275900 0.079241 0.727664
Si Si5 0.919522 0.203006 0.047379
Si Si6 0.572215 0.225263 0.607349
Si Si7 0.628680 0.722570 0.155545
Si Si8 0.090730 0.323262 0.084590
O O1 0.782419 0.170437 0.391575
O O2 0.102940 0.073069 0.540288
O O3 0.919356 0.196253 0.257086
O O4 0.959122 0.949250 0.087531
O O5 0.677870 0.421162 0.541591
O O6 0.968979 0.356359 0.842275
O O7 0.760623 0.584676 0.022171
O O8 0.856581 0.549055 0.724982
O O9 0.466907 0.676397 0.474504
O O10 0.478211 0.735929 0.908835
O O11 0.315693 0.156017 0.690132
O O12 0.243763 0.186231 0.001557
O O13 0.399050 0.925663 0.633348
O O14 0.740060 0.223849 0.844618
O O15 0.992843 0.301106 0.139059
O O16 0.432483 0.271514 0.688393
#
# Coordination Sequence:
#
# PCOD9088918 Si02
#       8
#     2   2   2   2   2   2   2   2
#     4  10  20  36  66  93 125 153 199 260 311 358
#     4  10  22  39  63  84 123 167 205 256 292 352
#     4  12  22  41  65  89 121 167 207 249 307 360
#     4  10  21  41  63  90 125 157 197 260 310 359
#     4  10  19  37  63  98 120 155 203 257 308 367
#     4  11  22  39  65  93 122 162 201 247 317 373
#     4  11  25  42  59  88 130 164 202 253 298 368
#     4  10  19  39  65  88 119 159 209 252 305 353
#
# _framework density 24.453890000000001
#
# number of rings (size 3 to 8) (size 9 to 14) (size 15 to 20)
#    0.000    1.500    3.750    1.500    0.000    3.000 
#    4.500    0.625    2.750    0.000    0.000    0.000 
#    0.000    0.000    0.000    0.000    0.000    0.000 
#
# Total GULP energy -89494.086090 kJ/mol
# GULP energy per Si atom -5593.380381 kJ/mol
# Density = 2.439823 g / cm^3
# Si number density = 24.453890 Si / 1000 Ang^3
#
#
#
# Elastic Constant Matrix: (Units=GPa)
#
#
# Indices 1 2 3 4 5 6 
#
# 1 155.2202 39.1816 6.1488 10.4042 -7.1527 20.7224
# 2 39.1816 92.2655 19.7717 8.0224 1.0234 7.6244
# 3 6.1488 19.7717 25.7718 -5.1574 1.8372 0.5766
# 4 10.4042 8.0224 -5.1574 23.9923 -3.8317 1.6135
# 5 -7.1527 1.0234 1.8372 -3.8317 23.9973 -9.3625
# 6 20.7224 7.6244 0.5766 1.6135 -9.3625 40.7591
#
#
#
# Elastic Compliance Matrix: (Units=1/GPa)
#
#
# Indices 1 2 3 4 5 6 
#
# 1 0.007763 -0.002852 -0.000073 -0.002076 0.000890 -0.003125
# 2 -0.002852 0.015437 -0.012336 -0.006833 -0.002243 -0.001508
# 3 -0.000073 -0.012336 0.051319 0.015020 -0.000689 0.000866
# 4 -0.002076 -0.006833 0.015020 0.049101 0.007065 0.001800
# 5 0.000890 -0.002243 -0.000689 0.007065 0.047337 0.010571
# 6 -0.003125 -0.001508 0.000866 0.001800 0.010571 0.028750
#
#
# Mechanical properties :
#
#
# Convention : Reuss Voigt Hill
#
# Bulk Modulus (GPa) = 22.72929 44.82906 33.77918
# Shear Modulus (GPa) = 20.41694 31.62675 26.02185
#
# Velocity S-wave (km/s) = 2.89263 3.60018 3.26562
# Velocity P-wave (km/s) = 4.52452 5.97106 5.29740
#
# Compressibility (1/GPa) = 0.04399610
#
# Stress axis : x y z
#
# Youngs Moduli (GPa) = 128.82126 64.78125 19.48594
#
# Poissons Ratio (x) = 0.18475 0.00142
# Poissons Ratio (y) = 0.36739 0.24038
# Poissons Ratio (z) = 0.00941 0.79915
#
# Static dielectric constant tensor:
#      x y z
#    x 1.935950 -0.018310 0.011410 
#    y -0.018310 1.963490 0.028310 
#    z 0.011410 0.028310 1.962080 
# 
# From -- ./inp_files/202066.got.cif
#   From: 2010.05.17/outbox.cif.g08.bks.cpg/sg2_102_cif.got.tgz:202066.got - 2010.06.03 11:33:40.
