data_PCOD9088397
_publ_section_title
;
Structure prediction by ZEFSAII (Michael W. Deem and Ramdas Pophale) SiO2 
 PCOD9088397
Probable space group: P -1
;
_chemical_formula_sum "Si O2"
_cell_formula_units_Z 16
_cell_length_a 15.436963
_cell_length_b 8.037919
_cell_length_c 13.747168
_cell_angle_alpha 137.909043
_cell_angle_beta 40.448194
_cell_angle_gamma 141.070803
_cell_volume 646.518027
_symmetry_space_group_name_H-M "P -1"
_symmetry_group_IT_number 2
_symmetry_cell_setting 'triclinic'
loop_
_space_group_symop_operation_xyz
x,y,z
-x,-y,-z
loop_
_atom_site_type_symbol
_atom_site_label
_atom_site_fract_x
_atom_site_fract_y
_atom_site_fract_z
Si Si1 0.528956 0.293154 0.649270
Si Si2 0.385889 0.282516 0.422251
Si Si3 0.374488 0.851832 0.868245
Si Si4 0.026221 0.244105 0.222107
Si Si5 0.850348 0.549753 0.503239
Si Si6 0.237058 0.317724 0.899475
Si Si7 0.157180 0.455301 0.719803
Si Si8 0.851850 0.984985 0.811579
O O1 0.583732 0.536374 0.624120
O O2 0.679715 0.380117 0.621911
O O3 0.371833 0.270538 0.809563
O O4 0.500000 0.000000 0.500000
O O5 0.500000 0.500000 0.500000
O O6 0.447595 0.059221 0.259498
O O7 0.219697 0.225719 0.573268
O O8 0.311572 0.585091 0.879950
O O9 0.276843 0.723656 0.796932
O O10 0.316778 0.055239 0.051535
O O11 0.109652 0.164198 0.198909
O O12 0.969455 0.458731 0.399327
O O13 0.140218 0.362503 0.084809
O O14 0.877744 0.957667 0.185064
O O15 0.840709 0.475739 0.365207
O O16 0.885703 0.867409 0.632615
O O17 0.984293 0.314123 0.843493
#
# Coordination Sequence:
#
# PCOD9088397 Si02
#       8
#     2   2   2   2   2   2   2   2
#     4  10  19  37  61  84 111 152 194 238 285 340
#     4   8  18  33  56  88 114 139 193 243 281 329
#     4  10  20  38  60  88 116 150 199 239 283 343
#     4  11  23  37  58  85 120 150 195 241 288 342
#     4  11  24  40  58  88 121 153 192 238 295 350
#     4  10  21  37  62  89 110 149 200 248 279 331
#     4  10  20  37  61  87 115 155 196 235 286 344
#     4  12  24  38  58  87 124 157 187 237 296 347
#
# _framework density 24.747955999999999
#
# number of rings (size 3 to 8) (size 9 to 14) (size 15 to 20)
#    0.000    1.750    2.500    1.875    3.500    1.000 
#    0.000    7.500    0.000    0.000    0.000    0.000 
#    0.000    0.000    0.000    0.000    0.000    0.000 
#
# Total GULP energy -89403.111703 kJ/mol
# GULP energy per Si atom -5587.694481 kJ/mol
# Density = 2.469163 g / cm^3
# Si number density = 24.747956 Si / 1000 Ang^3
#
#
#
# Elastic Constant Matrix: (Units=GPa)
#
#
# Indices 1 2 3 4 5 6 
#
# 1 67.6394 6.2871 39.3719 -12.7289 -6.7654 -15.8163
# 2 6.2871 22.9292 8.1599 -5.1698 -0.8209 3.3522
# 3 39.3719 8.1599 154.1081 -3.8542 -36.4645 0.2615
# 4 -12.7289 -5.1698 -3.8542 27.4354 6.7660 -5.0083
# 5 -6.7654 -0.8209 -36.4645 6.7660 53.3878 -8.9796
# 6 -15.8163 3.3522 0.2615 -5.0083 -8.9796 24.4358
#
#
#
# Elastic Compliance Matrix: (Units=1/GPa)
#
#
# Indices 1 2 3 4 5 6 
#
# 1 0.026363 -0.004993 -0.005924 0.014061 0.000977 0.021053
# 2 -0.004993 0.048280 -0.001985 0.005569 -0.003639 -0.010030
# 3 -0.005924 -0.001985 0.009366 -0.003632 0.005687 -0.002317
# 4 0.014061 0.005569 -0.003632 0.047505 -0.003824 0.016707
# 5 0.000977 -0.003639 0.005687 -0.003824 0.024745 0.009380
# 6 0.021053 -0.010030 -0.002317 0.016707 0.009380 0.062822
#
#
# Mechanical properties :
#
#
# Convention : Reuss Voigt Hill
#
# Bulk Modulus (GPa) = 17.18093 39.14606 28.16350
# Shear Modulus (GPa) = 18.91879 33.77566 26.34723
#
# Velocity S-wave (km/s) = 2.76788 3.69831 3.26639
# Velocity P-wave (km/s) = 4.14395 5.83857 5.06267
#
# Compressibility (1/GPa) = 0.05820406
#
# Stress axis : x y z
#
# Youngs Moduli (GPa) = 37.93166 20.71262 106.76741
#
# Poissons Ratio (x) = 0.10342 0.63247
# Poissons Ratio (y) = 0.18940 0.21198
# Poissons Ratio (z) = 0.22470 0.04112
#
# Static dielectric constant tensor:
#      x y z
#    x 1.982790 0.035590 -0.013330 
#    y 0.035590 2.033830 0.030550 
#    z -0.013330 0.030550 2.024500 
# 
# From -- ./inp_files/239158.got.cif
#   From: 2010.05.17/outbox.cif.g08.bks.cpg/sg2_120_cif.got.tgz:239158.got - 2010.06.03 11:33:40.
