data_PCOD9088226
_publ_section_title
;
Structure prediction by ZEFSAII (Michael W. Deem and Ramdas Pophale) SiO2 
 PCOD9088226
Probable space group: P -1
;
_chemical_formula_sum "Si O2"
_cell_formula_units_Z 14
_cell_length_a 11.922509
_cell_length_b 17.271627
_cell_length_c 9.523203
_cell_angle_alpha 39.948588
_cell_angle_beta 46.733265
_cell_angle_gamma 25.186990
_cell_volume 535.623047
_symmetry_space_group_name_H-M "P -1"
_symmetry_group_IT_number 2
_symmetry_cell_setting 'triclinic'
loop_
_space_group_symop_operation_xyz
x,y,z
-x,-y,-z
loop_
_atom_site_type_symbol
_atom_site_label
_atom_site_fract_x
_atom_site_fract_y
_atom_site_fract_z
Si Si1 0.439456 0.934969 0.832114
Si Si2 0.410878 0.264580 0.491957
Si Si3 0.988346 0.927014 0.421600
Si Si4 0.063763 0.250114 0.491574
Si Si5 0.332678 0.403520 0.067366
Si Si6 0.776734 0.679572 0.147639
Si Si7 0.663905 0.327000 0.257158
O O1 0.681144 0.857738 0.661844
O O2 0.474342 0.777527 0.959122
O O3 0.174849 0.154418 0.685918
O O4 0.518237 0.876745 0.007969
O O5 0.719873 0.039641 0.560932
O O6 0.345084 0.307629 0.325597
O O7 0.251206 0.289175 0.704468
O O8 0.411153 0.404407 0.342968
O O9 0.118328 0.866220 0.771670
O O10 0.027843 0.818948 0.402060
O O11 0.218966 0.772144 0.550734
O O12 0.853860 0.490514 0.320551
O O13 0.035745 0.588439 0.006908
O O14 0.395696 0.495480 0.939019
#
# Coordination Sequence:
#
# PCOD9088226 Si02
#       7
#     2   2   2   2   2   2   2
#     4  10  20  36  61  81 119 156 195 224 286 351
#     4  10  21  37  57  87 119 143 188 245 292 323
#     4   9  18  37  60  82 109 152 200 230 271 350
#     4  10  19  37  60  83 114 158 195 228 278 355
#     4  11  19  38  61  84 110 157 198 226 279 356
#     4  11  23  37  58  93 120 143 185 251 297 322
#     4   9  19  35  63  81 109 155 203 225 274 351
#
# _framework density 26.137784
#
# number of rings (size 3 to 8) (size 9 to 14) (size 15 to 20)
#    0.857    1.143    1.429    4.286    0.000    0.000 
#    2.571    4.286    0.000    2.571    0.000    0.000 
#    0.000    0.000    0.000    0.000    0.000    0.000 
#
# Total GULP energy -78177.872766 kJ/mol
# GULP energy per Si atom -5584.133769 kJ/mol
# Density = 2.607829 g / cm^3
# Si number density = 26.137784 Si / 1000 Ang^3
#
#
#
# Elastic Constant Matrix: (Units=GPa)
#
#
# Indices 1 2 3 4 5 6 
#
# 1 131.7664 9.2012 28.5733 -25.8680 -8.5715 29.9560
# 2 9.2012 28.3054 13.5186 -19.6941 -11.1948 -0.6705
# 3 28.5733 13.5186 82.9945 -27.7314 16.7443 7.1552
# 4 -25.8680 -19.6941 -27.7314 31.8343 5.8121 -2.7712
# 5 -8.5715 -11.1948 16.7443 5.8121 54.4713 -22.7728
# 6 29.9560 -0.6705 7.1552 -2.7712 -22.7728 32.7521
#
#
#
# Elastic Compliance Matrix: (Units=1/GPa)
#
#
# Indices 1 2 3 4 5 6 
#
# 1 0.012562 0.000541 0.002354 0.012420 -0.006394 -0.015387
# 2 0.000541 0.073941 -0.004814 0.039921 0.020836 0.019936
# 3 0.002354 -0.004814 0.024751 0.022232 -0.018349 -0.018535
# 4 0.012420 0.039921 0.022232 0.086462 -0.013084 -0.017181
# 5 -0.006394 0.020836 -0.018349 -0.013084 0.045829 0.041041
# 6 -0.015387 0.019936 -0.018535 -0.017181 0.041041 0.076146
#
#
# Mechanical properties :
#
#
# Convention : Reuss Voigt Hill
#
# Bulk Modulus (GPa) = 9.30966 38.40583 23.85775
# Shear Modulus (GPa) = 13.91468 36.59640 25.25554
#
# Velocity S-wave (km/s) = 2.30979 3.74590 3.11182
# Velocity P-wave (km/s) = 3.26849 5.78226 4.69667
#
# Compressibility (1/GPa) = 0.10741531
#
# Stress axis : x y z
#
# Youngs Moduli (GPa) = 79.60828 13.52438 40.40219
#
# Poissons Ratio (x) = -0.00731 -0.09510
# Poissons Ratio (y) = -0.04305 0.19448
# Poissons Ratio (z) = -0.18738 0.06510
#
# Static dielectric constant tensor:
#      x y z
#    x 2.073130 0.061520 -0.048360 
#    y 0.061520 2.071710 0.015530 
#    z -0.048360 0.015530 2.064490 
# 
# From -- ./inp_files/237822.got.cif
#   From: 2010.05.17/outbox.cif.g08.bks.cpg/sg2_119_cif.got.tgz:237822.got - 2010.06.03 11:33:40.
