data_PCOD9088039
_publ_section_title
;
Structure prediction by ZEFSAII (Michael W. Deem and Ramdas Pophale) SiO2 
 PCOD9088039
Probable space group: P -1
;
_chemical_formula_sum "Si O2"
_cell_formula_units_Z 16
_cell_length_a 7.494884
_cell_length_b 16.060966
_cell_length_c 7.347324
_cell_angle_alpha 67.071694
_cell_angle_beta 122.772012
_cell_angle_gamma 83.697469
_cell_volume 623.431898
_symmetry_space_group_name_H-M "P -1"
_symmetry_group_IT_number 2
_symmetry_cell_setting 'triclinic'
loop_
_space_group_symop_operation_xyz
x,y,z
-x,-y,-z
loop_
_atom_site_type_symbol
_atom_site_label
_atom_site_fract_x
_atom_site_fract_y
_atom_site_fract_z
Si Si1 0.063458 0.337837 0.304235
Si Si2 0.162782 0.776848 0.558543
Si Si3 0.126016 0.070733 0.460496
Si Si4 0.391292 0.260024 0.992614
Si Si5 0.532720 0.869619 0.208816
Si Si6 0.077385 0.863215 0.068499
Si Si7 0.770736 0.542705 0.462024
Si Si8 0.126085 0.657231 0.195279
O O1 0.905762 0.316321 0.393239
O O2 0.295404 0.234745 0.511729
O O3 0.144638 0.421670 0.339632
O O4 0.921854 0.361175 0.022041
O O5 0.065202 0.825440 0.657769
O O6 0.030792 0.855204 0.261652
O O7 0.427399 0.761461 0.724692
O O8 0.353364 0.057507 0.713774
O O9 0.131670 0.083643 0.234963
O O10 0.000000 0.000000 0.500000
O O11 0.448445 0.169702 0.957222
O O12 0.401263 0.355262 0.813406
O O13 0.132565 0.295290 0.897471
O O14 0.270314 0.904987 0.102657
O O15 0.205445 0.745592 0.190171
O O16 0.712056 0.448696 0.540119
O O17 0.000000 0.500000 0.500000
#
# Coordination Sequence:
#
# PCOD9088039 Si02
#       8
#     2   2   2   2   2   2   2   2
#     4  10  19  37  58  86 128 168 211 263 308 359
#     4  11  22  41  64  93 126 170 210 254 316 380
#     4  11  25  46  69  95 128 157 204 267 315 381
#     4  10  20  38  64  89 132 171 210 259 308 371
#     4  10  20  42  65  92 124 164 208 251 316 377
#     4  12  23  41  69  93 127 170 209 250 321 378
#     4   9  19  33  54  88 125 169 215 260 304 354
#     4  11  19  36  60  91 124 169 215 259 308 363
#
# _framework density 25.664394000000001
#
# number of rings (size 3 to 8) (size 9 to 14) (size 15 to 20)
#    0.000    1.500    3.750    4.125    0.000    1.000 
#    0.000   13.125    0.000    0.000    0.000    0.000 
#    0.000    0.000    0.000    0.000    0.000    0.000 
#
# Total GULP energy -89405.203709 kJ/mol
# GULP energy per Si atom -5587.825232 kJ/mol
# Density = 2.560598 g / cm^3
# Si number density = 25.664394 Si / 1000 Ang^3
#
#
#
# Elastic Constant Matrix: (Units=GPa)
#
#
# Indices 1 2 3 4 5 6 
#
# 1 60.9927 -6.4391 25.4763 13.3790 -3.0146 7.7678
# 2 -6.4391 117.4859 38.9358 -4.9226 -6.3076 25.8915
# 3 25.4763 38.9358 114.2920 19.9223 -17.3154 12.0955
# 4 13.3790 -4.9226 19.9223 36.8305 4.3578 4.1666
# 5 -3.0146 -6.3076 -17.3154 4.3578 39.2387 5.2890
# 6 7.7678 25.8915 12.0955 4.1666 5.2890 35.5335
#
#
#
# Elastic Compliance Matrix: (Units=1/GPa)
#
#
# Indices 1 2 3 4 5 6 
#
# 1 0.020192 0.003579 -0.004217 -0.004145 0.001443 -0.005316
# 2 0.003579 0.012380 -0.004570 0.003704 0.001028 -0.008835
# 3 -0.004217 -0.004570 0.013342 -0.006928 0.005641 -0.000317
# 4 -0.004145 0.003704 -0.006928 0.033916 -0.006211 -0.002487
# 5 0.001443 0.001028 0.005641 -0.006211 0.029843 -0.006698
# 6 -0.005316 -0.008835 -0.000317 -0.002487 -0.006698 0.037138
#
#
# Mechanical properties :
#
#
# Convention : Reuss Voigt Hill
#
# Bulk Modulus (GPa) = 28.17002 45.41296 36.79149
# Shear Modulus (GPa) = 29.57534 37.97370 33.77452
#
# Velocity S-wave (km/s) = 3.39837 3.85076 3.63162
# Velocity P-wave (km/s) = 5.13796 6.12409 5.65257
#
# Compressibility (1/GPa) = 0.03549873
#
# Stress axis : x y z
#
# Youngs Moduli (GPa) = 49.52443 80.77646 74.95022
#
# Poissons Ratio (x) = -0.28912 0.31604
# Poissons Ratio (y) = -0.17726 0.34255
# Poissons Ratio (z) = 0.20883 0.36918
#
# Static dielectric constant tensor:
#      x y z
#    x 2.024100 0.067990 -0.037340 
#    y 0.067990 2.108680 0.000480 
#    z -0.037340 0.000480 2.012930 
# 
# From -- ./inp_files/212371.got.cif
#   From: 2010.05.17/outbox.cif.g08.bks.cpg/sg2_107_cif.got.tgz:212371.got - 2010.06.03 11:33:40.
