data_PCOD9088666
_publ_section_title
;
Structure prediction by ZEFSAII (Michael W. Deem and Ramdas Pophale) SiO2 
 PCOD9088666
Probable space group: P -1
;
_chemical_formula_sum "Si O2"
_cell_formula_units_Z 14
_cell_length_a 16.009113
_cell_length_b 6.889636
_cell_length_c 16.856019
_cell_angle_alpha 131.382725
_cell_angle_beta 155.405557
_cell_angle_gamma 62.574101
_cell_volume 518.478385
_symmetry_space_group_name_H-M "P -1"
_symmetry_group_IT_number 2
_symmetry_cell_setting 'triclinic'
loop_
_space_group_symop_operation_xyz
x,y,z
-x,-y,-z
loop_
_atom_site_type_symbol
_atom_site_label
_atom_site_fract_x
_atom_site_fract_y
_atom_site_fract_z
Si Si1 0.461494 0.706210 0.433301
Si Si2 0.072631 0.329666 0.907300
Si Si3 0.772853 0.152088 0.121437
Si Si4 0.141262 0.909747 0.034963
Si Si5 0.735388 0.534921 0.497758
Si Si6 0.267073 0.536740 0.691508
Si Si7 0.661795 0.981063 0.367636
O O1 0.588219 0.575854 0.450841
O O2 0.500000 0.000000 0.500000
O O3 0.200950 0.473001 0.139198
O O4 0.608483 0.827280 0.672380
O O5 0.135198 0.613802 0.983806
O O6 0.804021 0.129244 0.610768
O O7 0.177078 0.123124 0.908791
O O8 0.656792 0.190556 0.112776
O O9 0.012749 0.435596 0.412793
O O10 0.606312 0.137156 0.902517
O O11 0.979833 0.812318 0.792496
O O12 0.000000 0.000000 0.000000
O O13 0.620201 0.482619 0.299005
O O14 0.754135 0.246346 0.457964
O O15 0.277633 0.272000 0.675477
#
# Coordination Sequence:
#
# PCOD9088666 Si02
#       7
#     2   2   2   2   2   2   2
#     4   9  16  32  59  88 116 151 191 244 297 342
#     4   9  17  32  58  84 110 156 195 226 295 354
#     4  10  20  40  58  81 126 159 185 250 300 338
#     4   8  16  30  56  87 113 147 192 241 293 341
#     4  10  19  37  62  91 114 153 204 240 285 362
#     4  10  23  39  59  88 120 154 202 240 291 356
#     4  10  20  38  59  83 122 157 190 244 296 337
#
# _framework density 27.002092000000001
#
# number of rings (size 3 to 8) (size 9 to 14) (size 15 to 20)
#    0.000    2.571    1.429    0.429    0.000    0.571 
#    7.714   11.429    0.000   73.714    0.000    0.000 
#    0.000    0.000    0.000    0.000    0.000    0.000 
#
# Total GULP energy -78222.615372 kJ/mol
# GULP energy per Si atom -5587.329669 kJ/mol
# Density = 2.694063 g / cm^3
# Si number density = 27.002092 Si / 1000 Ang^3
#
#
#
# Elastic Constant Matrix: (Units=GPa)
#
#
# Indices 1 2 3 4 5 6 
#
# 1 70.5668 32.5763 37.7238 2.4214 -3.5615 -15.0467
# 2 32.5763 170.9174 48.0067 10.2795 -14.8978 -18.4809
# 3 37.7238 48.0067 237.2017 0.6918 10.9985 -23.0458
# 4 2.4214 10.2795 0.6918 48.0449 -5.9237 0.2981
# 5 -3.5615 -14.8978 10.9985 -5.9237 60.1361 -2.2310
# 6 -15.0467 -18.4809 -23.0458 0.2981 -2.2310 31.5262
#
#
#
# Elastic Compliance Matrix: (Units=1/GPa)
#
#
# Indices 1 2 3 4 5 6 
#
# 1 0.017411 -0.002063 -0.001832 -0.000318 0.001040 0.005838
# 2 -0.002063 0.007006 -0.000917 -0.001181 0.001761 0.002588
# 3 -0.001832 -0.000917 0.004953 0.000061 -0.001156 0.002127
# 4 -0.000318 -0.001181 0.000061 0.021302 0.001743 -0.000877
# 5 0.001040 0.001761 -0.001156 0.001743 0.017581 0.001911
# 6 0.005838 0.002588 0.002127 -0.000877 0.001911 0.037721
#
#
# Mechanical properties :
#
#
# Convention : Reuss Voigt Hill
#
# Bulk Modulus (GPa) = 50.64054 79.47772 65.05913
# Shear Modulus (GPa) = 40.92410 51.96671 46.44541
#
# Velocity S-wave (km/s) = 3.89728 4.39172 4.15187
# Velocity P-wave (km/s) = 6.24874 7.43062 6.86516
#
# Compressibility (1/GPa) = 0.01974703
#
# Stress axis : x y z
#
# Youngs Moduli (GPa) = 57.43615 142.74050 201.91214
#
# Poissons Ratio (x) = 0.29446 0.36980
# Poissons Ratio (y) = 0.11849 0.18506
# Poissons Ratio (z) = 0.10520 0.13083
#
# Static dielectric constant tensor:
#      x y z
#    x 2.222620 0.020990 0.042270 
#    y 0.020990 2.000080 -0.076500 
#    z 0.042270 -0.076500 2.171730 
# 
# From -- ./inp_files/601817.got.cif
#   From: 2010.05.17/outbox.cif.g08.bks.cpg/sg2_301_cif.got.tgz:601817.got - 2010.06.03 11:33:40.
