data_PCOD9088367
_publ_section_title
;
Structure prediction by ZEFSAII (Michael W. Deem and Ramdas Pophale) SiO2 
 PCOD9088367
Probable space group: P -1
;
_chemical_formula_sum "Si O2"
_cell_formula_units_Z 16
_cell_length_a 11.473284
_cell_length_b 14.575276
_cell_length_c 11.020202
_cell_angle_alpha 41.791443
_cell_angle_beta 142.361192
_cell_angle_gamma 147.413776
_cell_volume 588.655765
_symmetry_space_group_name_H-M "P -1"
_symmetry_group_IT_number 2
_symmetry_cell_setting 'triclinic'
loop_
_space_group_symop_operation_xyz
x,y,z
-x,-y,-z
loop_
_atom_site_type_symbol
_atom_site_label
_atom_site_fract_x
_atom_site_fract_y
_atom_site_fract_z
Si Si1 0.893676 0.831394 0.826458
Si Si2 0.089820 0.377141 0.760927
Si Si3 0.738139 0.025781 0.541343
Si Si4 0.884374 0.675914 0.734666
Si Si5 0.590504 0.131129 0.118254
Si Si6 0.680610 0.405420 0.471802
Si Si7 0.522144 0.306378 0.706496
Si Si8 0.425420 0.760334 0.762465
O O1 0.953548 0.019506 0.690594
O O2 0.979649 0.771401 0.848777
O O3 0.602994 0.710480 0.680883
O O4 0.946494 0.781579 0.044994
O O5 0.204794 0.415909 0.684457
O O6 0.293509 0.559669 0.820913
O O7 0.843849 0.356846 0.593497
O O8 0.615161 0.898883 0.682546
O O9 0.574750 0.978761 0.328959
O O10 0.765671 0.196670 0.433089
O O11 0.684197 0.465843 0.778495
O O12 0.729753 0.731466 0.494383
O O13 0.119024 0.734060 0.797034
O O14 0.485361 0.188249 0.077052
O O15 0.486340 0.139411 0.897306
O O16 0.681846 0.391052 0.631315
#
# Coordination Sequence:
#
# PCOD9088367 Si02
#       8
#     2   2   2   2   2   2   2   2
#     4  11  21  39  60  89 117 149 190 247 287 331
#     4  11  20  36  65  87 110 154 197 237 294 327
#     4   9  21  37  60  86 118 151 195 234 286 347
#     4  10  21  34  58  87 116 144 194 241 273 345
#     4  10  19  37  61  77 112 163 181 226 290 344
#     4  10  22  34  57  92 120 142 194 248 278 345
#     4  10  20  37  53  88 119 146 187 238 288 336
#     4   9  19  38  62  83 112 157 193 236 283 341
#
# _framework density 27.180574
#
# number of rings (size 3 to 8) (size 9 to 14) (size 15 to 20)
#    0.750    1.250    1.250    3.000    0.000    0.500 
#    0.000    3.750    0.000    4.500    0.000    0.000 
#    0.000    0.000    0.000    0.000    0.000    0.000 
#
# Total GULP energy -89305.358085 kJ/mol
# GULP energy per Si atom -5581.584880 kJ/mol
# Density = 2.711871 g / cm^3
# Si number density = 27.180574 Si / 1000 Ang^3
#
#
#
# Elastic Constant Matrix: (Units=GPa)
#
#
# Indices 1 2 3 4 5 6 
#
# 1 118.7483 12.1571 59.9080 -15.6694 -33.7433 3.9648
# 2 12.1571 40.1832 22.2324 -1.7766 -4.1028 11.1230
# 3 59.9080 22.2324 149.3599 -19.5209 -12.7354 21.9447
# 4 -15.6694 -1.7766 -19.5209 31.1567 12.6377 10.7015
# 5 -33.7433 -4.1028 -12.7354 12.6377 41.7932 -10.8886
# 6 3.9648 11.1230 21.9447 10.7015 -10.8886 35.9612
#
#
#
# Elastic Compliance Matrix: (Units=1/GPa)
#
#
# Indices 1 2 3 4 5 6 
#
# 1 0.014728 -0.002146 -0.006357 -0.005108 0.013511 0.008530
# 2 -0.002146 0.029105 -0.001731 0.004254 -0.003287 -0.009971
# 3 -0.006357 -0.001731 0.012151 0.011948 -0.008412 -0.012282
# 4 -0.005108 0.004254 0.011948 0.059940 -0.027069 -0.034077
# 5 0.013511 -0.003287 -0.008412 -0.027069 0.047169 0.026998
# 6 0.008530 -0.009971 -0.012282 -0.034077 0.026998 0.055762
#
#
# Mechanical properties :
#
#
# Convention : Reuss Voigt Hill
#
# Bulk Modulus (GPa) = 28.15563 55.20960 41.68261
# Shear Modulus (GPa) = 19.90743 36.04847 27.97795
#
# Velocity S-wave (km/s) = 2.70925 3.64573 3.21181
# Velocity P-wave (km/s) = 4.49087 6.17074 5.39657
#
# Compressibility (1/GPa) = 0.03551688
#
# Stress axis : x y z
#
# Youngs Moduli (GPa) = 67.89677 34.35783 82.29481
#
# Poissons Ratio (x) = 0.07375 0.52314
# Poissons Ratio (y) = 0.14573 0.14244
# Poissons Ratio (z) = 0.43161 0.05947
#
# Static dielectric constant tensor:
#      x y z
#    x 2.185760 -0.105330 -0.046260 
#    y -0.105330 2.223240 -0.022000 
#    z -0.046260 -0.022000 2.153090 
# 
# From -- ./inp_files/417828.got.cif
#   From: 2010.05.17/outbox.cif.g08.bks.cpg/sg2_209_cif.got.tgz:417828.got - 2010.06.03 11:33:40.
