data_PCOD9088676
_publ_section_title
;
Structure prediction by ZEFSAII (Michael W. Deem and Ramdas Pophale) SiO2 
 PCOD9088676
Probable space group: P -1
;
_chemical_formula_sum "Si O2"
_cell_formula_units_Z 16
_cell_length_a 9.990221
_cell_length_b 17.550935
_cell_length_c 13.159367
_cell_angle_alpha 151.326615
_cell_angle_beta 50.786590
_cell_angle_gamma 131.954491
_cell_volume 816.553795
_symmetry_space_group_name_H-M "P -1"
_symmetry_group_IT_number 2
_symmetry_cell_setting 'triclinic'
loop_
_space_group_symop_operation_xyz
x,y,z
-x,-y,-z
loop_
_atom_site_type_symbol
_atom_site_label
_atom_site_fract_x
_atom_site_fract_y
_atom_site_fract_z
Si Si1 0.399942 0.103476 0.234448
Si Si2 0.319531 0.644234 0.262835
Si Si3 0.150707 0.319545 0.243756
Si Si4 0.298488 0.374209 0.465024
Si Si5 0.032454 0.889053 0.261701
Si Si6 0.978700 0.484302 0.112009
Si Si7 0.701925 0.732060 0.093712
Si Si8 0.244421 0.709042 0.594498
O O1 0.325632 0.223062 0.339680
O O2 0.560392 0.205065 0.350408
O O3 0.227509 0.983935 0.233764
O O4 0.500000 0.000000 0.000000
O O5 0.510697 0.743846 0.238547
O O6 0.269346 0.727931 0.484219
O O7 0.161770 0.608683 0.215629
O O8 0.313921 0.459083 0.089180
O O9 0.207169 0.315133 0.329270
O O10 0.193710 0.516339 0.428422
O O11 0.934538 0.238180 0.231944
O O12 0.261250 0.253747 0.028124
O O13 0.500000 0.500000 0.500000
O O14 0.181816 0.465370 0.695367
O O15 0.870325 0.855055 0.217251
O O16 0.033012 0.705103 0.078233
O O17 0.000000 0.000000 0.500000
O O18 0.000000 0.500000 0.000000
#
# Coordination Sequence:
#
# PCOD9088676 Si02
#       8
#     2   2   2   2   2   2   2   2
#     4  12  25  41  65  93 133 173 209 256 333 393
#     4   9  18  35  60  90 119 156 218 263 307 362
#     4  10  20  36  65  93 125 158 219 271 307 363
#     4  12  24  41  65  99 130 164 220 272 313 369
#     4  11  23  42  64  94 132 170 209 256 329 394
#     4  11  24  41  67  95 125 166 217 274 314 370
#     4   9  19  34  60  91 121 163 209 259 310 375
#     4  10  19  37  62  91 124 167 207 262 314 376
#
# _framework density 19.594543999999999
#
# number of rings (size 3 to 8) (size 9 to 14) (size 15 to 20)
#    0.000    1.500    2.500    3.000    3.500    2.000 
#    0.000    2.500    0.000    2.250    0.000    0.000 
#    0.000    0.000    0.000    0.000    0.000    0.000 
#
# Total GULP energy -89308.647002 kJ/mol
# GULP energy per Si atom -5581.790438 kJ/mol
# Density = 1.954995 g / cm^3
# Si number density = 19.594544 Si / 1000 Ang^3
#
#
#
# Elastic Constant Matrix: (Units=GPa)
#
#
# Indices 1 2 3 4 5 6 
#
# 1 136.7017 73.2923 49.5432 -16.9070 22.4267 7.8164
# 2 73.2923 127.2447 50.0906 -29.4391 10.8223 28.1204
# 3 49.5432 50.0906 101.0004 -25.1597 9.3905 0.8493
# 4 -16.9070 -29.4391 -25.1597 34.4802 -1.5727 -0.3806
# 5 22.4267 10.8223 9.3905 -1.5727 32.7513 -7.1867
# 6 7.8164 28.1204 0.8493 -0.3806 -7.1867 39.8735
#
#
#
# Elastic Compliance Matrix: (Units=1/GPa)
#
#
# Indices 1 2 3 4 5 6 
#
# 1 0.012232 -0.005971 -0.002903 -0.001457 -0.005448 0.000879
# 2 -0.005971 0.017480 -0.002994 0.009553 -0.002899 -0.011525
# 3 -0.002903 -0.002994 0.014460 0.006583 -0.000332 0.002376
# 4 -0.001457 0.009553 0.006583 0.041008 -0.003579 -0.006845
# 5 -0.005448 -0.002899 -0.000332 -0.003579 0.037297 0.009808
# 6 0.000879 -0.011525 0.002376 -0.006845 0.009808 0.034687
#
#
# Mechanical properties :
#
#
# Convention : Reuss Voigt Hill
#
# Bulk Modulus (GPa) = 48.93094 78.97767 63.95431
# Shear Modulus (GPa) = 26.63654 34.22238 30.42946
#
# Velocity S-wave (km/s) = 3.69098 4.18368 3.94503
# Velocity P-wave (km/s) = 6.57194 7.98317 7.31168
#
# Compressibility (1/GPa) = 0.02043697
#
# Stress axis : x y z
#
# Youngs Moduli (GPa) = 81.75555 57.20692 69.15394
#
# Poissons Ratio (x) = 0.34157 0.20072
# Poissons Ratio (y) = 0.48814 0.20708
# Poissons Ratio (z) = 0.23730 0.17130
#
# Static dielectric constant tensor:
#      x y z
#    x 1.693730 -0.042160 -0.008360 
#    y -0.042160 1.617980 -0.032290 
#    z -0.008360 -0.032290 1.626320 
# 
# From -- ./inp_files/346005.got.cif
#   From: 2010.05.17/outbox.cif.g08.bks.cpg/sg2_174_cif.got.tgz:346005.got - 2010.06.03 11:33:40.
