data_PCOD9088125
_publ_section_title
;
Structure prediction by ZEFSAII (Michael W. Deem and Ramdas Pophale) SiO2 
 PCOD9088125
Probable space group: P -1
;
_chemical_formula_sum "Si O2"
_cell_formula_units_Z 14
_cell_length_a 8.787077
_cell_length_b 10.068596
_cell_length_c 12.285632
_cell_angle_alpha 42.086128
_cell_angle_beta 123.942291
_cell_angle_gamma 106.546102
_cell_volume 587.742523
_symmetry_space_group_name_H-M "P -1"
_symmetry_group_IT_number 2
_symmetry_cell_setting 'triclinic'
loop_
_space_group_symop_operation_xyz
x,y,z
-x,-y,-z
loop_
_atom_site_type_symbol
_atom_site_label
_atom_site_fract_x
_atom_site_fract_y
_atom_site_fract_z
Si Si1 0.441343 0.973017 0.298556
Si Si2 0.419058 0.587374 0.670046
Si Si3 0.176284 0.499596 0.146755
Si Si4 0.837304 0.928734 0.543269
Si Si5 0.942732 0.900300 0.860070
Si Si6 0.409946 0.186755 0.771030
Si Si7 0.013032 0.709538 0.431365
O O1 0.423637 0.797135 0.483396
O O2 0.624823 0.054025 0.355614
O O3 0.475691 0.866666 0.261072
O O4 0.109025 0.076523 0.304222
O O5 0.634769 0.521814 0.836770
O O6 0.414491 0.401710 0.697898
O O7 0.215932 0.643582 0.614429
O O8 0.182038 0.304056 0.343584
O O9 0.000000 0.500000 0.000000
O O10 0.121578 0.713854 0.057186
O O11 0.000000 0.000000 0.500000
O O12 0.240626 0.131320 0.131209
O O13 0.976424 0.123239 0.759887
O O14 0.188789 0.196463 0.652480
O O15 0.500000 0.000000 0.000000
O O16 0.000000 0.500000 0.500000
#
# Coordination Sequence:
#
# PCOD9088125 Si02
#       7
#     2   2   2   2   2   2   2
#     4  10  21  37  56  82 115 156 194 229 288 357
#     4   9  19  37  58  80 113 156 194 233 286 350
#     4   9  19  36  60  87 116 153 193 236 290 345
#     4  10  20  36  60  85 113 152 195 242 290 341
#     4  10  19  37  59  85 117 153 190 236 286 348
#     4  11  21  36  57  86 117 150 193 247 289 330
#     4   9  19  35  58  87 115 148 192 237 285 339
#
# _framework density 23.819953999999999
#
# number of rings (size 3 to 8) (size 9 to 14) (size 15 to 20)
#    0.000    2.286    0.000    2.571    0.000    2.286 
#    0.000   20.000    0.000    0.000    0.000    0.000 
#    0.000    0.000    0.000    0.000    0.000    0.000 
#
# Total GULP energy -78042.510081 kJ/mol
# GULP energy per Si atom -5574.465006 kJ/mol
# Density = 2.376574 g / cm^3
# Si number density = 23.819954 Si / 1000 Ang^3
#
#
#
# Elastic Constant Matrix: (Units=GPa)
#
#
# Indices 1 2 3 4 5 6 
#
# 1 128.5314 15.3482 36.9222 7.0045 39.5947 19.7914
# 2 15.3482 77.2936 19.6575 -8.5540 7.3855 20.9367
# 3 36.9222 19.6575 68.6164 -8.7106 35.9927 7.5257
# 4 7.0045 -8.5540 -8.7106 37.9687 1.8044 4.9279
# 5 39.5947 7.3855 35.9927 1.8044 40.1236 9.2625
# 6 19.7914 20.9367 7.5257 4.9279 9.2625 36.3721
#
#
#
# Elastic Compliance Matrix: (Units=1/GPa)
#
#
# Indices 1 2 3 4 5 6 
#
# 1 0.011705 -0.000484 -0.000792 -0.001564 -0.009946 -0.003182
# 2 -0.000484 0.017131 -0.005248 0.003857 0.004190 -0.010102
# 3 -0.000792 -0.005248 0.031527 0.007119 -0.027541 0.002978
# 4 -0.001564 0.003857 0.007119 0.030108 -0.005640 -0.005485
# 5 -0.009946 0.004190 -0.027541 -0.005640 0.060285 -0.005890
# 6 -0.003182 -0.010102 0.002978 -0.005485 -0.005890 0.036667
#
#
# Mechanical properties :
#
#
# Convention : Reuss Voigt Hill
#
# Bulk Modulus (GPa) = 21.13473 46.47746 33.80610
# Shear Modulus (GPa) = 23.12219 36.39378 29.75798
#
# Velocity S-wave (km/s) = 3.11900 3.91304 3.53836
# Velocity P-wave (km/s) = 4.67577 6.32220 5.56026
#
# Compressibility (1/GPa) = 0.04731548
#
# Stress axis : x y z
#
# Youngs Moduli (GPa) = 85.43685 58.37345 31.71837
#
# Poissons Ratio (x) = 0.02823 0.02513
# Poissons Ratio (y) = 0.04132 0.16646
# Poissons Ratio (z) = 0.06769 0.30634
#
# Static dielectric constant tensor:
#      x y z
#    x 1.962520 -0.014830 0.077300 
#    y -0.014830 2.122490 -0.024020 
#    z 0.077300 -0.024020 1.983410 
# 
# From -- ./inp_files/560327.got.cif
#   From: 2010.05.17/outbox.cif.g08.bks.cpg/sg2_281_cif.got.tgz:560327.got - 2010.06.03 11:33:40.
