data_PCOD9088771
_publ_section_title
;
Structure prediction by ZEFSAII (Michael W. Deem and Ramdas Pophale) SiO2 
 PCOD9088771
Probable space group: P -1
;
_chemical_formula_sum "Si O2"
_cell_formula_units_Z 12
_cell_length_a 9.592848
_cell_length_b 7.885502
_cell_length_c 14.581795
_cell_angle_alpha 52.979327
_cell_angle_beta 42.956792
_cell_angle_gamma 68.147700
_cell_volume 595.369134
_symmetry_space_group_name_H-M "P -1"
_symmetry_group_IT_number 2
_symmetry_cell_setting 'triclinic'
loop_
_space_group_symop_operation_xyz
x,y,z
-x,-y,-z
loop_
_atom_site_type_symbol
_atom_site_label
_atom_site_fract_x
_atom_site_fract_y
_atom_site_fract_z
Si Si1 0.519541 0.578923 0.568506
Si Si2 0.733771 0.097960 0.948516
Si Si3 0.168733 0.012891 0.752575
Si Si4 0.552977 0.340381 0.804870
Si Si5 0.329403 0.669603 0.923962
Si Si6 0.944953 0.387356 0.161235
O O1 0.500000 0.500000 0.500000
O O2 0.656566 0.807689 0.425087
O O3 0.616487 0.433887 0.644250
O O4 0.284044 0.576261 0.714339
O O5 0.717948 0.231576 0.819820
O O6 0.607584 0.210217 0.050756
O O7 0.970924 0.101540 0.863432
O O8 0.630558 0.854607 0.060899
O O9 0.267263 0.856769 0.826180
O O10 0.069000 0.864839 0.765929
O O11 0.476874 0.530115 0.841749
O O12 0.126989 0.500219 0.098994
O O13 0.000000 0.500000 0.000000
#
# Coordination Sequence:
#
# PCOD9088771 Si02
#       6
#     2   2   2   2   2   2
#     4  12  23  38  62  94 124 161 201 253 311 364
#     4  11  23  39  63  92 121 166 206 250 303 363
#     4  11  21  37  63  89 126 157 203 254 308 355
#     4  11  23  41  60  90 129 160 205 253 301 366
#     4  11  20  40  66  90 120 162 209 253 298 359
#     4  10  19  37  63  86 118 156 205 251 291 348
#
# _framework density 20.155563999999998
#
# number of rings (size 3 to 8) (size 9 to 14) (size 15 to 20)
#    0.000    1.000    5.000    4.500    0.000    0.667 
#    0.000    0.000    0.000    2.000    0.000    0.000 
#    0.000    0.000    0.000    0.000    0.000    0.000 
#
# Total GULP energy -66961.361489 kJ/mol
# GULP energy per Si atom -5580.113457 kJ/mol
# Density = 2.010969 g / cm^3
# Si number density = 20.155564 Si / 1000 Ang^3
#
#
#
# Elastic Constant Matrix: (Units=GPa)
#
#
# Indices 1 2 3 4 5 6 
#
# 1 49.8406 24.5037 30.9565 -12.8304 21.0868 -7.6767
# 2 24.5037 101.0336 40.6211 -0.3252 15.2308 3.8258
# 3 30.9565 40.6211 111.4047 -16.4808 10.8137 -4.9949
# 4 -12.8304 -0.3252 -16.4808 37.0864 -1.6252 5.4788
# 5 21.0868 15.2308 10.8137 -1.6252 34.5318 0.7386
# 6 -7.6767 3.8258 -4.9949 5.4788 0.7386 19.7703
#
#
#
# Elastic Compliance Matrix: (Units=1/GPa)
#
#
# Indices 1 2 3 4 5 6 
#
# 1 0.037720 -0.004619 -0.005174 0.007983 -0.019273 0.012741
# 2 -0.004619 0.012999 -0.003878 -0.002618 -0.001725 -0.004499
# 3 -0.005174 -0.003878 0.012277 0.003564 0.001176 0.000812
# 4 0.007983 -0.002618 0.003564 0.031761 -0.003252 -0.004173
# 5 -0.019273 -0.001725 0.001176 -0.003252 0.041128 -0.007488
# 6 0.012741 -0.004499 0.000812 -0.004173 -0.007488 0.058040
#
#
# Mechanical properties :
#
#
# Convention : Reuss Voigt Hill
#
# Bulk Modulus (GPa) = 28.04720 50.49350 39.27035
# Shear Modulus (GPa) = 21.44517 29.35754 25.40136
#
# Velocity S-wave (km/s) = 3.26541 3.82062 3.55387
# Velocity P-wave (km/s) = 5.30686 6.67601 6.03042
#
# Compressibility (1/GPa) = 0.03565418
#
# Stress axis : x y z
#
# Youngs Moduli (GPa) = 26.51092 76.92801 81.45006
#
# Poissons Ratio (x) = 0.35536 0.42144
# Poissons Ratio (y) = 0.12246 0.31585
# Poissons Ratio (z) = 0.13717 0.29831
#
# Static dielectric constant tensor:
#      x y z
#    x 1.776970 0.014590 -0.018620 
#    y 0.014590 1.789240 0.031780 
#    z -0.018620 0.031780 1.704440 
# 
# From -- ./inp_files/72586.got.cif
#   From: 2010.05.17/outbox.cif.g08.bks.cpg/sg2_37_cif.got.tgz:72586.got - 2010.06.03 11:33:40.
