data_PCOD9088040
_publ_section_title
;
Structure prediction by ZEFSAII (Michael W. Deem and Ramdas Pophale) SiO2 
 PCOD9088040
Probable space group: P -1
;
_chemical_formula_sum "Si O2"
_cell_formula_units_Z 16
_cell_length_a 7.573551
_cell_length_b 19.855007
_cell_length_c 7.842055
_cell_angle_alpha 98.952953
_cell_angle_beta 124.855729
_cell_angle_gamma 119.725128
_cell_volume 661.945550
_symmetry_space_group_name_H-M "P -1"
_symmetry_group_IT_number 2
_symmetry_cell_setting 'triclinic'
loop_
_space_group_symop_operation_xyz
x,y,z
-x,-y,-z
loop_
_atom_site_type_symbol
_atom_site_label
_atom_site_fract_x
_atom_site_fract_y
_atom_site_fract_z
Si Si1 0.055684 0.286561 0.292513
Si Si2 0.387158 0.822714 0.303240
Si Si3 0.118853 0.197735 0.872915
Si Si4 0.461614 0.897538 0.874561
Si Si5 0.223478 0.449361 0.693272
Si Si6 0.621903 0.388758 0.392902
Si Si7 0.195628 0.115314 0.159958
Si Si8 0.745664 0.020535 0.387139
O O1 0.130955 0.360077 0.504750
O O2 0.371483 0.339410 0.387208
O O3 0.865669 0.182594 0.240769
O O4 0.804217 0.250436 0.991704
O O5 0.628109 0.832115 0.545237
O O6 0.588798 0.934681 0.401088
O O7 0.121118 0.794311 0.267116
O O8 0.454221 0.305986 0.119856
O O9 0.041875 0.142849 0.989325
O O10 0.054739 0.126428 0.668105
O O11 0.527866 0.841884 0.800660
O O12 0.457107 0.959871 0.768895
O O13 0.735710 0.975451 0.191032
O O14 0.313141 0.523793 0.623155
O O15 0.934498 0.419390 0.619130
O O16 0.500000 0.500000 0.000000
O O17 0.000000 0.000000 0.000000
#
# Coordination Sequence:
#
# PCOD9088040 Si02
#       8
#     2   2   2   2   2   2   2   2
#     4  10  23  44  71 100 139 175 222 279 340 403
#     4  10  21  41  61  90 136 180 215 276 325 375
#     4  11  21  36  65  90 129 171 220 269 323 392
#     4  10  22  36  61  94 133 181 228 265 329 392
#     4  11  25  48  77 100 131 168 220 283 345 415
#     4  10  25  46  70 104 131 172 221 274 348 410
#     4  12  22  36  61  92 131 185 238 266 319 384
#     4  10  19  37  58  86 134 179 214 268 320 374
#
# _framework density 24.171173
#
# number of rings (size 3 to 8) (size 9 to 14) (size 15 to 20)
#    0.000    1.500    2.500    2.250    1.750    4.000 
#    2.250    5.000    2.750    0.000    0.000    0.000 
#    0.000    0.000    0.000    0.000    0.000    0.000 
#
# Total GULP energy -89417.540217 kJ/mol
# GULP energy per Si atom -5588.596264 kJ/mol
# Density = 2.411616 g / cm^3
# Si number density = 24.171173 Si / 1000 Ang^3
#
#
#
# Elastic Constant Matrix: (Units=GPa)
#
#
# Indices 1 2 3 4 5 6 
#
# 1 101.4887 24.0986 40.8951 2.3022 13.4679 7.0383
# 2 24.0986 56.0048 30.0993 7.7073 4.4687 -2.5807
# 3 40.8951 30.0993 168.9199 -3.8976 -9.0487 -9.3859
# 4 2.3022 7.7073 -3.8976 40.4884 -3.5705 3.0810
# 5 13.4679 4.4687 -9.0487 -3.5705 47.5793 7.5793
# 6 7.0383 -2.5807 -9.3859 3.0810 7.5793 30.8436
#
#
#
# Elastic Compliance Matrix: (Units=1/GPa)
#
#
# Indices 1 2 3 4 5 6 
#
# 1 0.012493 -0.003769 -0.002708 -0.000296 -0.003214 -0.003171
# 2 -0.003769 0.022121 -0.003110 -0.004724 -0.002407 0.002828
# 3 -0.002708 -0.003110 0.007392 0.001514 0.002276 0.001897
# 4 -0.000296 -0.004724 0.001514 0.026304 0.003316 -0.003310
# 5 -0.003214 -0.002407 0.002276 0.003316 0.023617 -0.004910
# 6 -0.003171 0.002828 0.001897 -0.003310 -0.004910 0.035496
#
#
# Mechanical properties :
#
#
# Convention : Reuss Voigt Hill
#
# Bulk Modulus (GPa) = 43.79884 57.39995 50.59940
# Shear Modulus (GPa) = 32.42358 39.20363 35.81361
#
# Velocity S-wave (km/s) = 3.66651 4.03167 3.85342
# Velocity P-wave (km/s) = 6.00699 6.74324 6.38574
#
# Compressibility (1/GPa) = 0.02283165
#
# Stress axis : x y z
#
# Youngs Moduli (GPa) = 80.04710 45.20524 135.28170
#
# Poissons Ratio (x) = 0.17038 0.36635
# Poissons Ratio (y) = 0.30170 0.42073
# Poissons Ratio (z) = 0.21677 0.14059
#
# Static dielectric constant tensor:
#      x y z
#    x 1.972830 0.046020 0.003550 
#    y 0.046020 1.926370 -0.036700 
#    z 0.003550 -0.036700 1.955800 
# 
# From -- ./inp_files/223719.got.cif
#   From: 2010.05.17/outbox.cif.g08.bks.cpg/sg2_112_cif.got.tgz:223719.got - 2010.06.03 11:33:40.
