data_PCOD9088665
_publ_section_title
;
Structure prediction by ZEFSAII (Michael W. Deem and Ramdas Pophale) SiO2 
 PCOD9088665
Probable space group: P -1
;
_chemical_formula_sum "Si O2"
_cell_formula_units_Z 16
_cell_length_a 15.658850
_cell_length_b 12.309729
_cell_length_c 9.805490
_cell_angle_alpha 96.239506
_cell_angle_beta 94.495112
_cell_angle_gamma 153.245194
_cell_volume 778.123046
_symmetry_space_group_name_H-M "P -1"
_symmetry_group_IT_number 2
_symmetry_cell_setting 'triclinic'
loop_
_space_group_symop_operation_xyz
x,y,z
-x,-y,-z
loop_
_atom_site_type_symbol
_atom_site_label
_atom_site_fract_x
_atom_site_fract_y
_atom_site_fract_z
Si Si1 0.867597 0.105849 0.789818
Si Si2 0.302279 0.255809 0.846347
Si Si3 0.241825 0.961167 0.941186
Si Si4 0.232412 0.884610 0.491706
Si Si5 0.930483 0.540141 0.642491
Si Si6 0.318164 0.550098 0.270432
Si Si7 0.268110 0.458559 0.931693
Si Si8 0.413235 0.427637 0.332249
O O1 0.769269 0.050518 0.640088
O O2 0.105549 0.351338 0.828915
O O3 0.738806 0.845727 0.767725
O O4 0.849037 0.149586 0.934278
O O5 0.199810 0.029741 0.868455
O O6 0.204334 0.261986 0.849469
O O7 0.397289 0.345075 0.720945
O O8 0.500000 0.500000 0.000000
O O9 0.489331 0.239330 0.024383
O O10 0.118940 0.735760 0.798133
O O11 0.202137 0.722272 0.431485
O O12 0.039180 0.695202 0.534751
O O13 0.438892 0.143400 0.639143
O O14 0.796973 0.483494 0.678198
O O15 0.294026 0.403961 0.316907
O O16 0.253503 0.456795 0.092975
O O17 0.500000 0.500000 0.500000
#
# Coordination Sequence:
#
# PCOD9088665 Si02
#       8
#     2   2   2   2   2   2   2   2
#     4  12  25  40  67 101 133 165 214 268 330 373
#     4  10  19  37  62  90 132 170 204 255 314 385
#     4  11  21  42  64  94 131 171 214 268 310 383
#     4  11  26  47  64  96 134 163 222 281 311 381
#     4  11  25  44  73  90 123 183 221 259 329 377
#     4  12  22  43  71  96 127 172 223 255 325 396
#     4  11  22  39  66  98 131 170 218 256 315 399
#     4  12  23  39  64 101 136 168 200 271 330 379
#
# _framework density 20.562301000000001
#
# number of rings (size 3 to 8) (size 9 to 14) (size 15 to 20)
#    0.000    0.750    8.750    0.375    1.750    3.500 
#    0.000    1.875    0.000    0.000    0.000    0.000 
#    0.000    0.000    0.000    0.000    0.000    0.000 
#
# Total GULP energy -89359.073849 kJ/mol
# GULP energy per Si atom -5584.942116 kJ/mol
# Density = 2.051550 g / cm^3
# Si number density = 20.562301 Si / 1000 Ang^3
#
#
#
# Elastic Constant Matrix: (Units=GPa)
#
#
# Indices 1 2 3 4 5 6 
#
# 1 80.4436 24.3572 19.2345 -17.3482 -17.0632 18.9163
# 2 24.3572 62.3652 7.5065 3.3198 -3.3144 -2.5773
# 3 19.2345 7.5065 68.5150 1.2466 -8.5499 6.3884
# 4 -17.3482 3.3198 1.2466 28.9185 1.8636 -12.4294
# 5 -17.0632 -3.3144 -8.5499 1.8636 29.4709 4.5242
# 6 18.9163 -2.5773 6.3884 -12.4294 4.5242 25.0356
#
#
#
# Elastic Compliance Matrix: (Units=1/GPa)
#
#
# Indices 1 2 3 4 5 6 
#
# 1 0.025159 -0.009879 -0.002518 0.007451 0.015080 -0.018410
# 2 -0.009879 0.020312 -0.000747 -0.004287 -0.004680 0.008464
# 3 -0.002518 -0.000747 0.016545 -0.004826 0.004422 -0.005591
# 4 0.007451 -0.004287 -0.004826 0.048557 -0.003699 0.019936
# 5 0.015080 -0.004680 0.004422 -0.003699 0.047242 -0.023378
# 6 -0.018410 0.008464 -0.005591 0.019936 -0.023378 0.070273
#
#
# Mechanical properties :
#
#
# Convention : Reuss Voigt Hill
#
# Bulk Modulus (GPa) = 27.98930 34.83557 31.41244
# Shear Modulus (GPa) = 18.77682 27.36672 23.07177
#
# Velocity S-wave (km/s) = 3.02514 3.65213 3.35332
# Velocity P-wave (km/s) = 5.08365 5.89596 5.50481
#
# Compressibility (1/GPa) = 0.03572794
#
# Stress axis : x y z
#
# Youngs Moduli (GPa) = 39.74721 49.23187 60.44137
#
# Poissons Ratio (x) = 0.48636 0.15218
# Poissons Ratio (y) = 0.39266 0.04517
# Poissons Ratio (z) = 0.10008 0.03679
#
# Static dielectric constant tensor:
#      x y z
#    x 1.714090 -0.010890 -0.004370 
#    y -0.010890 1.770170 0.022130 
#    z -0.004370 0.022130 1.697250 
# 
# From -- ./inp_files/307518.got.cif
#   From: 2010.05.17/outbox.cif.g08.bks.cpg/sg2_154_cif.got.tgz:307518.got - 2010.06.03 11:33:40.
