data_PCOD9088958
_publ_section_title
;
Structure prediction by ZEFSAII (Michael W. Deem and Ramdas Pophale) SiO2 
 PCOD9088958
Probable space group: P -1
;
_chemical_formula_sum "Si O2"
_cell_formula_units_Z 16
_cell_length_a 21.176878
_cell_length_b 9.303296
_cell_length_c 22.134085
_cell_angle_alpha 144.755677
_cell_angle_beta 18.241473
_cell_angle_gamma 142.518057
_cell_volume 783.826207
_symmetry_space_group_name_H-M "P -1"
_symmetry_group_IT_number 2
_symmetry_cell_setting 'triclinic'
loop_
_space_group_symop_operation_xyz
x,y,z
-x,-y,-z
loop_
_atom_site_type_symbol
_atom_site_label
_atom_site_fract_x
_atom_site_fract_y
_atom_site_fract_z
Si Si1 0.980071 0.473527 0.274757
Si Si2 0.763933 0.877322 0.930213
Si Si3 0.994218 0.575626 0.436605
Si Si4 0.659881 0.142069 0.624218
Si Si5 0.998153 0.229929 0.936366
Si Si6 0.635491 0.045614 0.471483
Si Si7 0.807210 0.959099 0.118214
Si Si8 0.987939 0.925408 0.331092
O O1 0.774973 0.286289 0.402704
O O2 0.971981 0.674196 0.298081
O O3 0.003022 0.592147 0.361477
O O4 0.159081 0.297723 0.036122
O O5 0.831190 0.600266 0.764603
O O6 0.541357 0.860276 0.153993
O O7 0.919230 0.017976 0.886442
O O8 0.810756 0.030004 0.878213
O O9 0.791839 0.410658 0.587954
O O10 0.014457 0.841853 0.541086
O O11 0.608487 0.066243 0.576053
O O12 0.803702 0.957935 0.463418
O O13 0.218743 0.176412 0.742261
O O14 0.000000 0.500000 0.000000
O O15 0.839661 0.186134 0.119562
O O16 0.406361 0.038368 0.654818
O O17 0.000000 0.000000 0.000000
#
# Coordination Sequence:
#
# PCOD9088958 Si02
#       8
#     2   2   2   2   2   2   2   2
#     4  10  22  41  60  89 129 159 202 252 301 356
#     4  11  20  40  60  88 125 155 202 253 301 364
#     4  10  20  40  62  85 123 166 203 247 305 358
#     4  10  19  37  64  87 119 164 200 247 310 354
#     4  11  23  40  64  94 120 156 200 255 305 360
#     4  10  20  44  64  86 123 167 196 245 310 360
#     4  11  24  42  65  89 121 165 203 245 305 369
#     4  11  23  35  61  96 121 159 205 254 296 360
#
# _framework density 20.412686999999998
#
# number of rings (size 3 to 8) (size 9 to 14) (size 15 to 20)
#    0.000    1.500    6.250    1.875    1.750    5.500 
#    2.250    0.000    0.000    6.000    0.000    0.000 
#    0.000    0.000    0.000    0.000    0.000    0.000 
#
# Total GULP energy -89335.063404 kJ/mol
# GULP energy per Si atom -5583.441463 kJ/mol
# Density = 2.036623 g / cm^3
# Si number density = 20.412687 Si / 1000 Ang^3
#
#
#
# Elastic Constant Matrix: (Units=GPa)
#
#
# Indices 1 2 3 4 5 6 
#
# 1 69.9634 30.3379 23.4533 -7.4097 11.7311 -25.5026
# 2 30.3379 92.0158 46.8318 -4.0743 -2.5299 -46.3860
# 3 23.4533 46.8318 157.8159 -35.0838 3.9041 -13.7548
# 4 -7.4097 -4.0743 -35.0838 23.2825 -3.5517 8.4878
# 5 11.7311 -2.5299 3.9041 -3.5517 33.7334 -2.6937
# 6 -25.5026 -46.3860 -13.7548 8.4878 -2.6937 36.5595
#
#
#
# Elastic Compliance Matrix: (Units=1/GPa)
#
#
# Indices 1 2 3 4 5 6 
#
# 1 0.021494 0.006305 -0.004828 -0.008462 -0.005519 0.022734
# 2 0.006305 0.065699 -0.025270 -0.057049 0.007000 0.092009
# 3 -0.004828 -0.025270 0.019533 0.036616 -0.001552 -0.036696
# 4 -0.008462 -0.057049 0.036616 0.118987 -0.000405 -0.092164
# 5 -0.005519 0.007000 -0.001552 -0.000405 0.032781 0.006957
# 6 0.022734 0.092009 -0.036696 -0.092164 0.006957 0.168054
#
#
# Mechanical properties :
#
#
# Convention : Reuss Voigt Hill
#
# Bulk Modulus (GPa) = 16.90904 57.89346 37.40125
# Shear Modulus (GPa) = 10.12459 33.32658 21.72558
#
# Velocity S-wave (km/s) = 2.22951 4.04498 3.26593
# Velocity P-wave (km/s) = 3.86383 7.08794 5.70824
#
# Compressibility (1/GPa) = 0.05913996
#
# Stress axis : x y z
#
# Youngs Moduli (GPa) = 46.52483 15.22092 51.19561
#
# Poissons Ratio (x) = -0.09597 0.24719
# Poissons Ratio (y) = -0.29334 1.29369
# Poissons Ratio (z) = 0.22464 0.38463
#
# Static dielectric constant tensor:
#      x y z
#    x 1.813970 0.011550 -0.001960 
#    y 0.011550 1.716830 0.032420 
#    z -0.001960 0.032420 1.782920 
# 
# From -- ./inp_files/285807.got.cif
#   From: 2010.05.17/outbox.cif.g08.bks.cpg/sg2_143_cif.got.tgz:285807.got - 2010.06.03 11:33:40.
