data_PCOD9088061
_publ_section_title
;
Structure prediction by ZEFSAII (Michael W. Deem and Ramdas Pophale) SiO2 
 PCOD9088061
Probable space group: P -1
;
_chemical_formula_sum "Si O2"
_cell_formula_units_Z 16
_cell_length_a 10.742011
_cell_length_b 10.441610
_cell_length_c 9.349492
_cell_angle_alpha 120.577371
_cell_angle_beta 48.408854
_cell_angle_gamma 118.221223
_cell_volume 660.190203
_symmetry_space_group_name_H-M "P -1"
_symmetry_group_IT_number 2
_symmetry_cell_setting 'triclinic'
loop_
_space_group_symop_operation_xyz
x,y,z
-x,-y,-z
loop_
_atom_site_type_symbol
_atom_site_label
_atom_site_fract_x
_atom_site_fract_y
_atom_site_fract_z
Si Si1 0.790565 0.066394 0.799490
Si Si2 0.615604 0.357716 0.520895
Si Si3 0.008087 0.336765 0.238452
Si Si4 0.149489 0.860780 0.494247
Si Si5 0.660173 0.589271 0.842680
Si Si6 0.947015 0.909592 0.135284
Si Si7 0.481604 0.157204 0.782097
Si Si8 0.515847 0.150616 0.239479
O O1 0.661949 0.922505 0.743682
O O2 0.916635 0.132595 0.611179
O O3 0.906404 0.051285 0.836855
O O4 0.660067 0.165065 0.016275
O O5 0.817253 0.352320 0.355818
O O6 0.627554 0.525169 0.671942
O O7 0.510119 0.235326 0.647437
O O8 0.531200 0.303175 0.404007
O O9 0.972417 0.238157 0.356227
O O10 0.171842 0.454570 0.240091
O O11 0.075932 0.260041 0.003696
O O12 0.321229 0.803477 0.300801
O O13 0.197828 0.021855 0.635731
O O14 0.500000 0.500000 0.000000
O O15 0.646153 0.761696 0.985869
O O16 0.000000 0.000000 0.000000
O O17 0.437841 0.978038 0.756491
#
# Coordination Sequence:
#
# PCOD9088061 Si02
#       8
#     2   2   2   2   2   2   2   2
#     4  10  20  36  55  92 128 157 193 245 305 355
#     4  10  19  37  58  90 120 159 208 246 298 356
#     4  10  20  35  59  87 119 159 204 253 297 351
#     4   9  20  35  56  87 123 157 196 244 303 353
#     4  10  22  36  57  89 121 159 202 255 304 353
#     4  10  20  34  58  94 121 152 198 250 298 355
#     4   9  20  35  56  88 124 155 202 249 296 350
#     4  10  20  34  61  87 124 162 193 249 298 353
#
# _framework density 24.235439
#
# number of rings (size 3 to 8) (size 9 to 14) (size 15 to 20)
#    0.000    2.250    1.250    1.125    3.500    4.000 
#    0.000    0.000    0.000    7.500   13.000    0.000 
#    0.000    0.000    0.000    0.000    0.000    0.000 
#
# Total GULP energy -89104.778683 kJ/mol
# GULP energy per Si atom -5569.048668 kJ/mol
# Density = 2.418028 g / cm^3
# Si number density = 24.235439 Si / 1000 Ang^3
#
#
#
# Elastic Constant Matrix: (Units=GPa)
#
#
# Indices 1 2 3 4 5 6 
#
# 1 92.4392 9.6772 42.0731 6.3465 17.4764 24.9859
# 2 9.6772 39.9866 33.1125 10.4821 -3.2254 21.2001
# 3 42.0731 33.1125 157.9819 17.9709 24.1228 9.9978
# 4 6.3465 10.4821 17.9709 40.4619 7.5243 8.4709
# 5 17.4764 -3.2254 24.1228 7.5243 38.8690 4.7609
# 6 24.9859 21.2001 9.9978 8.4709 4.7609 27.4541
#
#
#
# Elastic Compliance Matrix: (Units=1/GPa)
#
#
# Indices 1 2 3 4 5 6 
#
# 1 0.019729 0.014892 -0.006787 0.001897 -0.000422 -0.027496
# 2 0.014892 0.073666 -0.017775 -0.003214 0.019192 -0.066302
# 3 -0.006787 -0.017775 0.012162 -0.001940 -0.007729 0.017413
# 4 0.001897 -0.003214 -0.001940 0.028324 -0.004605 -0.006479
# 5 -0.000422 0.019192 -0.007729 -0.004605 0.035195 -0.016304
# 6 -0.027496 -0.066302 0.017413 -0.006479 -0.016304 0.111132
#
#
# Mechanical properties :
#
#
# Convention : Reuss Voigt Hill
#
# Bulk Modulus (GPa) = 11.59863 51.12592 31.36228
# Shear Modulus (GPa) = 15.23054 35.05998 25.14526
#
# Velocity S-wave (km/s) = 2.50959 3.80760 3.22458
# Velocity P-wave (km/s) = 3.63230 6.36174 5.18003
#
# Compressibility (1/GPa) = 0.08621704
#
# Stress axis : x y z
#
# Youngs Moduli (GPa) = 50.68563 13.57472 82.22517
#
# Poissons Ratio (x) = -0.20215 0.55804
# Poissons Ratio (y) = -0.75479 1.46157
# Poissons Ratio (z) = 0.34399 0.24129
#
# Static dielectric constant tensor:
#      x y z
#    x 2.021010 -0.095000 -0.037170 
#    y -0.095000 2.044900 0.046090 
#    z -0.037170 0.046090 1.975180 
# 
# From -- ./inp_files/274287.got.cif
#   From: 2010.05.17/outbox.cif.g08.bks.cpg/sg2_138_cif.got.tgz:274287.got - 2010.06.03 11:33:40.
