data_PCOD9088401
_publ_section_title
;
Structure prediction by ZEFSAII (Michael W. Deem and Ramdas Pophale) SiO2 
 PCOD9088401
Probable space group: P -1
;
_chemical_formula_sum "Si O2"
_cell_formula_units_Z 16
_cell_length_a 18.092443
_cell_length_b 11.512136
_cell_length_c 21.146196
_cell_angle_alpha 157.637594
_cell_angle_beta 26.292666
_cell_angle_gamma 145.425736
_cell_volume 741.837155
_symmetry_space_group_name_H-M "P -1"
_symmetry_group_IT_number 2
_symmetry_cell_setting 'triclinic'
loop_
_space_group_symop_operation_xyz
x,y,z
-x,-y,-z
loop_
_atom_site_type_symbol
_atom_site_label
_atom_site_fract_x
_atom_site_fract_y
_atom_site_fract_z
Si Si1 0.605670 0.686895 0.245433
Si Si2 0.792977 0.278708 0.992132
Si Si3 0.261761 0.770593 0.325010
Si Si4 0.234054 0.880919 0.814628
Si Si5 0.129913 0.854550 0.749633
Si Si6 0.914690 0.601689 0.550084
Si Si7 0.175653 0.449574 0.758222
Si Si8 0.466575 0.440701 0.900547
O O1 0.647232 0.448239 0.148901
O O2 0.531989 0.533157 0.162337
O O3 0.500000 0.000000 0.500000
O O4 0.785295 0.819158 0.155602
O O5 0.780024 0.384554 0.127583
O O6 0.975707 0.392075 0.885520
O O7 0.802999 0.910922 0.797178
O O8 0.356665 0.570897 0.205772
O O9 0.069989 0.689115 0.430575
O O10 0.264802 0.119578 0.518789
O O11 0.352779 0.693521 0.150921
O O12 0.212643 0.716446 0.680373
O O13 0.233592 0.647714 0.754831
O O14 0.383752 0.113707 0.814192
O O15 0.065444 0.088291 0.059530
O O16 0.162753 0.672887 0.568063
O O17 0.000000 0.500000 0.500000
#
# Coordination Sequence:
#
# PCOD9088401 Si02
#       8
#     2   2   2   2   2   2   2   2
#     4  11  23  40  64  84 123 160 193 247 300 359
#     4  10  22  36  57  93 119 153 203 240 297 358
#     4  10  22  38  59  88 119 154 201 242 296 353
#     4  10  19  37  61  84 119 153 196 245 290 353
#     4  10  21  37  59  89 113 157 201 236 298 354
#     4  11  23  37  64  89 120 159 196 251 295 346
#     4  10  20  36  59  87 119 153 195 251 290 345
#     4  10  22  39  59  88 118 160 196 236 300 354
#
# _framework density 21.568075
#
# number of rings (size 3 to 8) (size 9 to 14) (size 15 to 20)
#    0.000    1.750    2.500    1.500    5.250    1.500 
#    0.000    3.125    0.000    0.000    0.000    0.000 
#    0.000    0.000    0.000    0.000    0.000    0.000 
#
# Total GULP energy -89371.159046 kJ/mol
# GULP energy per Si atom -5585.697440 kJ/mol
# Density = 2.151898 g / cm^3
# Si number density = 21.568075 Si / 1000 Ang^3
#
#
#
# Elastic Constant Matrix: (Units=GPa)
#
#
# Indices 1 2 3 4 5 6 
#
# 1 110.5663 -4.2336 52.9203 0.2029 16.0718 -21.9101
# 2 -4.2336 33.5337 -11.7005 -3.9860 -7.3618 -1.6502
# 3 52.9203 -11.7005 118.1750 2.0978 7.3388 -6.0947
# 4 0.2029 -3.9860 2.0978 18.3183 1.6848 -3.6820
# 5 16.0718 -7.3618 7.3388 1.6848 36.6772 6.0018
# 6 -21.9101 -1.6502 -6.0947 -3.6820 6.0018 32.1702
#
#
#
# Elastic Compliance Matrix: (Units=1/GPa)
#
#
# Indices 1 2 3 4 5 6 
#
# 1 0.015057 -0.000882 -0.005859 0.003189 -0.007528 0.010869
# 2 -0.000882 0.032970 0.003252 0.006551 0.005828 0.001369
# 3 -0.005859 0.003252 0.011235 -0.001055 0.001359 -0.002069
# 4 0.003189 0.006551 -0.001055 0.058448 -0.004156 0.009773
# 5 -0.007528 0.005828 0.001359 -0.004156 0.033501 -0.011296
# 6 0.010869 0.001369 -0.002069 0.009773 -0.011296 0.041392
#
#
# Mechanical properties :
#
#
# Convention : Reuss Voigt Hill
#
# Bulk Modulus (GPa) = 19.12636 37.36083 28.24359
# Shear Modulus (GPa) = 23.04070 32.45240 27.74655
#
# Velocity S-wave (km/s) = 3.27200 3.88319 3.59062
# Velocity P-wave (km/s) = 4.81267 6.12090 5.50578
#
# Compressibility (1/GPa) = 0.05228388
#
# Stress axis : x y z
#
# Youngs Moduli (GPa) = 66.41492 30.33103 89.00652
#
# Poissons Ratio (x) = 0.02675 0.52145
# Poissons Ratio (y) = 0.05857 -0.28941
# Poissons Ratio (z) = 0.38909 -0.09862
#
# Static dielectric constant tensor:
#      x y z
#    x 1.796120 0.012330 -0.000410 
#    y 0.012330 1.810330 -0.029090 
#    z -0.000410 -0.029090 1.780830 
# 
# From -- ./inp_files/176276.got.cif
#   From: 2010.05.17/outbox.cif.g08.bks.cpg/sg2_89_cif.got.tgz:176276.got - 2010.06.03 11:33:40.
