data_PCOD9088996
_publ_section_title
;
Structure prediction by ZEFSAII (Michael W. Deem and Ramdas Pophale) SiO2 
 PCOD9088996
Probable space group: P -1
;
_chemical_formula_sum "Si O2"
_cell_formula_units_Z 16
_cell_length_a 7.886082
_cell_length_b 20.738828
_cell_length_c 12.094496
_cell_angle_alpha 31.147099
_cell_angle_beta 40.684650
_cell_angle_gamma 52.451824
_cell_volume 662.354076
_symmetry_space_group_name_H-M "P -1"
_symmetry_group_IT_number 2
_symmetry_cell_setting 'triclinic'
loop_
_space_group_symop_operation_xyz
x,y,z
-x,-y,-z
loop_
_atom_site_type_symbol
_atom_site_label
_atom_site_fract_x
_atom_site_fract_y
_atom_site_fract_z
Si Si1 0.303394 0.061269 0.651655
Si Si2 0.585139 0.173924 0.165927
Si Si3 0.527012 0.174572 0.677309
Si Si4 0.045786 0.128048 0.357494
Si Si5 0.576508 0.440333 0.164782
Si Si6 0.361788 0.559657 0.314953
Si Si7 0.724152 0.072589 0.921360
Si Si8 0.113884 0.397105 0.861689
O O1 0.266088 0.946253 0.752395
O O2 0.504587 0.168651 0.342060
O O3 0.395985 0.987539 0.818816
O O4 0.028761 0.111500 0.736632
O O5 0.306722 0.150079 0.272476
O O6 0.729173 0.304157 0.862097
O O7 0.467655 0.296316 0.461673
O O8 0.590002 0.181240 0.767779
O O9 0.800686 0.140068 0.541816
O O10 0.314351 0.054421 0.945927
O O11 0.057815 0.247641 0.094881
O O12 0.000000 0.000000 0.500000
O O13 0.473027 0.514013 0.211378
O O14 0.500000 0.500000 0.000000
O O15 0.888402 0.438813 0.992859
O O16 0.148621 0.468834 0.622140
O O17 0.614982 0.578342 0.241774
#
# Coordination Sequence:
#
# PCOD9088996 Si02
#       8
#     2   2   2   2   2   2   2   2
#     4  10  21  38  60  93 122 155 206 256 311 368
#     4  10  21  38  60  91 124 159 205 253 315 366
#     4  10  22  39  58  90 126 162 206 246 315 375
#     4  10  19  37  64  91 127 164 198 255 314 374
#     4  11  25  42  63  94 129 168 212 265 315 371
#     4  10  22  43  67  89 127 170 216 263 307 378
#     4  10  21  38  62  89 123 162 199 255 309 376
#     4   9  22  43  66  97 120 169 222 254 315 380
#
# _framework density 24.156264
#
# number of rings (size 3 to 8) (size 9 to 14) (size 15 to 20)
#    0.000    2.000    1.250    1.125    1.750    6.500 
#    4.500    0.000    0.000    0.000    0.000    0.000 
#    0.000    0.000    0.000    0.000    0.000    0.000 
#
# Total GULP energy -89347.473820 kJ/mol
# GULP energy per Si atom -5584.217114 kJ/mol
# Density = 2.410128 g / cm^3
# Si number density = 24.156264 Si / 1000 Ang^3
#
#
#
# Elastic Constant Matrix: (Units=GPa)
#
#
# Indices 1 2 3 4 5 6 
#
# 1 53.4373 8.2415 47.5502 4.7721 18.1177 1.3868
# 2 8.2415 47.1333 24.0661 -1.5253 5.4675 4.0470
# 3 47.5502 24.0661 188.3052 -9.9370 49.4375 4.0748
# 4 4.7721 -1.5253 -9.9370 32.8718 -4.2232 2.5613
# 5 18.1177 5.4675 49.4375 -4.2232 49.0211 9.0361
# 6 1.3868 4.0470 4.0748 2.5613 9.0361 26.9006
#
#
#
# Elastic Compliance Matrix: (Units=1/GPa)
#
#
# Indices 1 2 3 4 5 6 
#
# 1 0.025955 -0.001559 -0.005466 -0.006260 -0.004802 0.001933
# 2 -0.001559 0.023099 -0.002859 0.000923 0.001625 -0.003595
# 3 -0.005466 -0.002859 0.008910 0.002386 -0.006696 0.001384
# 4 -0.006260 0.000923 0.002386 0.032887 0.003462 -0.004472
# 5 -0.004802 0.001625 -0.006696 0.003462 0.030826 -0.009667
# 6 0.001933 -0.003595 0.001384 -0.004472 -0.009667 0.041078
#
#
# Mechanical properties :
#
#
# Convention : Reuss Voigt Hill
#
# Bulk Modulus (GPa) = 26.18053 49.84348 38.01201
# Shear Modulus (GPa) = 25.60746 35.69324 30.65035
#
# Velocity S-wave (km/s) = 3.25941 3.84812 3.56594
# Velocity P-wave (km/s) = 5.00265 6.35788 5.72054
#
# Compressibility (1/GPa) = 0.03819632
#
# Stress axis : x y z
#
# Youngs Moduli (GPa) = 38.52816 43.29259 112.23021
#
# Poissons Ratio (x) = 0.06749 0.61350
# Poissons Ratio (y) = 0.06006 0.32082
# Poissons Ratio (z) = 0.21061 0.12375
#
# Static dielectric constant tensor:
#      x y z
#    x 2.094060 0.078400 0.077850 
#    y 0.078400 1.974050 0.039160 
#    z 0.077850 0.039160 1.935060 
# 
# From -- ./inp_files/405228.got.cif
#   From: 2010.05.17/outbox.cif.g08.bks.cpg/sg2_203_cif.got.tgz:405228.got - 2010.06.03 11:33:40.
