data_PCOD9088928
_publ_section_title
;
Structure prediction by ZEFSAII (Michael W. Deem and Ramdas Pophale) SiO2 
 PCOD9088928
Probable space group: P -1
;
_chemical_formula_sum "Si O2"
_cell_formula_units_Z 14
_cell_length_a 11.933041
_cell_length_b 13.995387
_cell_length_c 14.679677
_cell_angle_alpha 26.525962
_cell_angle_beta 34.550953
_cell_angle_gamma 42.143863
_cell_volume 620.860574
_symmetry_space_group_name_H-M "P -1"
_symmetry_group_IT_number 2
_symmetry_cell_setting 'triclinic'
loop_
_space_group_symop_operation_xyz
x,y,z
-x,-y,-z
loop_
_atom_site_type_symbol
_atom_site_label
_atom_site_fract_x
_atom_site_fract_y
_atom_site_fract_z
Si Si1 0.390688 0.158569 0.599447
Si Si2 0.735099 0.248770 0.874130
Si Si3 0.382857 0.448936 0.839562
Si Si4 0.082241 0.153570 0.954012
Si Si5 0.895380 0.557565 0.797004
Si Si6 0.284638 0.414355 0.735089
Si Si7 0.674667 0.625444 0.722781
O O1 0.559787 0.300996 0.409890
O O2 0.187656 0.236858 0.720156
O O3 0.394564 0.200479 0.453673
O O4 0.390793 0.914224 0.839210
O O5 0.590664 0.324939 0.824639
O O6 0.775704 0.449447 0.738419
O O7 0.918232 0.098946 0.847514
O O8 0.273299 0.387268 0.873705
O O9 0.249319 0.413192 0.047210
O O10 0.236946 0.201937 0.890720
O O11 0.900441 0.307664 0.970745
O O12 0.821249 0.695157 0.644594
O O13 0.117927 0.576854 0.667757
O O14 0.500000 0.500000 0.500000
O O15 0.500000 0.500000 0.000000
#
# Coordination Sequence:
#
# PCOD9088928 Si02
#       7
#     2   2   2   2   2   2   2
#     4   9  19  38  58  86 117 155 189 233 288 352
#     4   9  20  37  59  86 116 156 190 232 292 348
#     4  11  18  37  66  82 117 154 194 239 286 339
#     4   8  20  37  54  87 117 147 195 234 285 343
#     4  10  21  35  57  95 110 149 206 228 288 350
#     4  10  19  37  64  82 117 159 188 242 291 333
#     4  11  20  36  62  86 120 153 184 242 294 336
#
# _framework density 22.549344999999999
#
# number of rings (size 3 to 8) (size 9 to 14) (size 15 to 20)
#    1.714    0.571    4.286    0.429    0.000    2.286 
#    0.000    0.000    9.429    2.571    0.000    0.000 
#    0.000    0.000    0.000    0.000    0.000    0.000 
#
# Total GULP energy -77994.355826 kJ/mol
# GULP energy per Si atom -5571.025416 kJ/mol
# Density = 2.249802 g / cm^3
# Si number density = 22.549345 Si / 1000 Ang^3
#
#
#
# Elastic Constant Matrix: (Units=GPa)
#
#
# Indices 1 2 3 4 5 6 
#
# 1 152.1645 14.0546 18.9032 9.8817 16.2476 21.3757
# 2 14.0546 74.2845 4.5444 11.7246 5.8890 15.6096
# 3 18.9032 4.5444 66.7586 5.8045 16.4936 9.2953
# 4 9.8817 11.7246 5.8045 27.9116 4.9590 -1.0261
# 5 16.2476 5.8890 16.4936 4.9590 25.4352 8.6261
# 6 21.3757 15.6096 9.2953 -1.0261 8.6261 31.8979
#
#
#
# Elastic Compliance Matrix: (Units=1/GPa)
#
#
# Indices 1 2 3 4 5 6 
#
# 1 0.007690 0.000072 -0.000754 -0.002311 -0.002509 -0.004365
# 2 0.000072 0.016349 0.000678 -0.007354 0.000044 -0.008495
# 3 -0.000754 0.000678 0.018196 -0.002070 -0.010249 -0.002424
# 4 -0.002311 -0.007354 -0.002070 0.041667 -0.006614 0.008879
# 5 -0.002509 0.000044 -0.010249 -0.006614 0.052121 -0.009661
# 6 -0.004365 -0.008495 -0.002424 0.008879 -0.009661 0.042036
#
#
# Mechanical properties :
#
#
# Convention : Reuss Voigt Hill
#
# Bulk Modulus (GPa) = 23.68107 40.91242 32.29674
# Shear Modulus (GPa) = 26.02239 34.09598 30.05919
#
# Velocity S-wave (km/s) = 3.40077 3.89274 3.65504
# Velocity P-wave (km/s) = 5.09363 6.19576 5.67153
#
# Compressibility (1/GPa) = 0.04222782
#
# Stress axis : x y z
#
# Youngs Moduli (GPa) = 130.03992 61.16600 54.95599
#
# Poissons Ratio (x) = -0.00440 0.04142
# Poissons Ratio (y) = -0.00935 -0.03727
# Poissons Ratio (z) = 0.09802 -0.04148
#
# Static dielectric constant tensor:
#      x y z
#    x 1.847350 -0.013590 0.009030 
#    y -0.013590 1.866210 0.003670 
#    z 0.009030 0.003670 1.854430 
# 
# From -- ./inp_files/521294.got.cif
#   From: 2010.05.17/outbox.cif.g08.bks.cpg/sg2_261_cif.got.tgz:521294.got - 2010.06.03 11:33:40.
