data_PCOD9088279
_publ_section_title
;
Structure prediction by ZEFSAII (Michael W. Deem and Ramdas Pophale) SiO2 
 PCOD9088279
Probable space group: P -1
;
_chemical_formula_sum "Si O2"
_cell_formula_units_Z 16
_cell_length_a 18.070438
_cell_length_b 24.484183
_cell_length_c 7.386834
_cell_angle_alpha 127.151525
_cell_angle_beta 56.301774
_cell_angle_gamma 166.364401
_cell_volume 605.079134
_symmetry_space_group_name_H-M "P -1"
_symmetry_group_IT_number 2
_symmetry_cell_setting 'triclinic'
loop_
_space_group_symop_operation_xyz
x,y,z
-x,-y,-z
loop_
_atom_site_type_symbol
_atom_site_label
_atom_site_fract_x
_atom_site_fract_y
_atom_site_fract_z
Si Si1 0.339399 0.193473 0.874348
Si Si2 0.551321 0.153557 0.260375
Si Si3 0.354072 0.060032 0.981585
Si Si4 0.627868 0.537334 0.032416
Si Si5 0.209514 0.834463 0.529767
Si Si6 0.906183 0.747188 0.456405
Si Si7 0.371468 0.589688 0.753776
Si Si8 0.045845 0.421443 0.285055
O O1 0.703132 0.430101 0.895276
O O2 0.090299 0.951033 0.680199
O O3 0.412809 0.309322 0.872230
O O4 0.317432 0.202357 0.125146
O O5 0.723479 0.212835 0.219454
O O6 0.763062 0.372647 0.485699
O O7 0.191593 0.909115 0.312733
O O8 0.546918 0.156438 0.055601
O O9 0.358542 0.021679 0.710028
O O10 0.470243 0.223267 0.163111
O O11 0.985373 0.789182 0.987902
O O12 0.677217 0.593672 0.289616
O O13 0.500000 0.500000 0.000000
O O14 0.006067 0.667067 0.652720
O O15 0.995770 0.658067 0.296534
O O16 0.500000 0.000000 0.500000
O O17 0.721511 0.559802 0.468765
#
# Coordination Sequence:
#
# PCOD9088279 Si02
#       8
#     2   2   2   2   2   2   2   2
#     4  10  21  41  67  89 127 174 209 262 316 367
#     4   9  19  35  60  85 118 168 213 254 298 368
#     4  11  23  40  63  91 131 170 204 269 326 358
#     4  10  22  42  70 100 121 157 219 271 320 382
#     4  12  25  37  57  94 130 170 216 257 309 375
#     4   9  20  40  62  92 126 167 211 255 313 383
#     4  11  23  40  59  92 134 169 209 258 313 380
#     4  10  19  37  60  86 123 166 218 252 299 370
#
# _framework density 26.442820999999999
#
# number of rings (size 3 to 8) (size 9 to 14) (size 15 to 20)
#    0.000    1.750    2.500    1.500    1.750    3.500 
#    0.000    2.500    0.000    4.500    0.000    0.000 
#    0.000    0.000    0.000    0.000    0.000    0.000 
#
# Total GULP energy -89148.886044 kJ/mol
# GULP energy per Si atom -5571.805378 kJ/mol
# Density = 2.638264 g / cm^3
# Si number density = 26.442821 Si / 1000 Ang^3
#
#
#
# Elastic Constant Matrix: (Units=GPa)
#
#
# Indices 1 2 3 4 5 6 
#
# 1 191.1627 43.0891 34.1558 43.1772 -19.0654 -23.9240
# 2 43.0891 77.1945 45.3034 26.6299 -15.0426 1.9279
# 3 34.1558 45.3034 194.4868 21.8315 11.5477 3.9372
# 4 43.1772 26.6299 21.8315 54.7308 -28.9077 -23.5676
# 5 -19.0654 -15.0426 11.5477 -28.9077 56.5416 18.6937
# 6 -23.9240 1.9279 3.9372 -23.5676 18.6937 43.8875
#
#
#
# Elastic Compliance Matrix: (Units=1/GPa)
#
#
# Indices 1 2 3 4 5 6 
#
# 1 0.006883 -0.002805 -0.000159 -0.003463 -0.000971 0.002444
# 2 -0.002805 0.020044 -0.003402 -0.007515 0.003805 -0.007761
# 3 -0.000159 -0.003402 0.006525 -0.002989 -0.003626 -0.000583
# 4 -0.003463 -0.007515 -0.002989 0.038500 0.012475 0.014072
# 5 -0.000971 0.003805 -0.003626 0.012475 0.027232 -0.005272
# 6 0.002444 -0.007761 -0.000583 0.014072 -0.005272 0.034313
#
#
# Mechanical properties :
#
#
# Convention : Reuss Voigt Hill
#
# Bulk Modulus (GPa) = 48.25889 78.66009 63.45949
# Shear Modulus (GPa) = 32.65135 53.71837 43.18486
#
# Velocity S-wave (km/s) = 3.51777 4.51210 4.04560
# Velocity P-wave (km/s) = 5.89826 7.54700 6.77299
#
# Compressibility (1/GPa) = 0.02072157
#
# Stress axis : x y z
#
# Youngs Moduli (GPa) = 145.29224 49.89034 153.26716
#
# Poissons Ratio (x) = 0.13992 0.02430
# Poissons Ratio (y) = 0.40748 0.52137
# Poissons Ratio (z) = 0.02304 0.16971
#
# Static dielectric constant tensor:
#      x y z
#    x 2.071350 0.142710 -0.135350 
#    y 0.142710 1.904220 0.245940 
#    z -0.135350 0.245940 1.628580 
# 
# From -- ./inp_files/201636.got.cif
#   From: 2010.05.17/outbox.cif.g08.bks.cpg/sg2_101_cif.got.tgz:201636.got - 2010.06.03 11:33:40.
