data_PCOD9088759
_publ_section_title
;
Structure prediction by ZEFSAII (Michael W. Deem and Ramdas Pophale) SiO2 
 PCOD9088759
Probable space group: P -1
;
_chemical_formula_sum "Si O2"
_cell_formula_units_Z 16
_cell_length_a 14.304699
_cell_length_b 22.901284
_cell_length_c 8.802847
_cell_angle_alpha 146.836538
_cell_angle_beta 124.536946
_cell_angle_gamma 32.320873
_cell_volume 739.772449
_symmetry_space_group_name_H-M "P -1"
_symmetry_group_IT_number 2
_symmetry_cell_setting 'triclinic'
loop_
_space_group_symop_operation_xyz
x,y,z
-x,-y,-z
loop_
_atom_site_type_symbol
_atom_site_label
_atom_site_fract_x
_atom_site_fract_y
_atom_site_fract_z
Si Si1 0.164947 0.448303 0.107666
Si Si2 0.521534 0.236168 0.781057
Si Si3 0.349748 0.585664 0.256470
Si Si4 0.675265 0.634004 0.632332
Si Si5 0.036570 0.174311 0.176800
Si Si6 0.411873 0.953017 0.850330
Si Si7 0.795449 0.314522 0.983105
Si Si8 0.290069 0.842132 0.914629
O O1 0.210906 0.380147 0.174988
O O2 0.103064 0.621889 0.445177
O O3 0.361258 0.289041 0.839105
O O4 0.000000 0.500000 0.000000
O O5 0.626052 0.086766 0.421957
O O6 0.392215 0.433339 0.020110
O O7 0.676999 0.158237 0.879765
O O8 0.573178 0.448746 0.115068
O O9 0.281513 0.722326 0.617880
O O10 0.201413 0.714556 0.256257
O O11 0.585990 0.759419 0.679877
O O12 0.805484 0.434897 0.262888
O O13 0.492151 0.726159 0.762412
O O14 0.939238 0.176380 0.956954
O O15 0.220657 0.093223 0.088320
O O16 0.120774 0.037067 0.092098
O O17 0.500000 0.000000 0.000000
#
# Coordination Sequence:
#
# PCOD9088759 Si02
#       8
#     2   2   2   2   2   2   2   2
#     4  10  21  40  62  83 116 163 201 239 297 355
#     4  11  22  40  61  89 118 156 205 239 288 361
#     4  10  19  37  63  85 117 164 199 226 299 365
#     4   8  17  37  57  79 114 161 192 225 294 372
#     4  10  22  41  58  89 123 152 199 247 296 348
#     4  11  22  39  61  88 118 154 200 253 295 337
#     4   9  18  36  62  84 115 161 195 232 291 364
#     4   9  20  36  59  84 121 156 184 241 300 354
#
# _framework density 21.628273
#
# number of rings (size 3 to 8) (size 9 to 14) (size 15 to 20)
#    0.000    2.250    1.250    1.875    1.750    1.500 
#    4.500    6.875    0.000    0.000    0.000    0.000 
#    0.000    0.000    0.000    0.000    0.000    0.000 
#
# Total GULP energy -89258.306892 kJ/mol
# GULP energy per Si atom -5578.644181 kJ/mol
# Density = 2.157905 g / cm^3
# Si number density = 21.628273 Si / 1000 Ang^3
#
#
#
# Elastic Constant Matrix: (Units=GPa)
#
#
# Indices 1 2 3 4 5 6 
#
# 1 43.0003 3.7685 12.6887 -8.9514 -1.8228 -1.3303
# 2 3.7685 129.2608 15.0401 -28.4337 1.4783 10.8937
# 3 12.6887 15.0401 51.8063 -15.6304 -6.1741 11.7369
# 4 -8.9514 -28.4337 -15.6304 40.9274 0.1827 1.4228
# 5 -1.8228 1.4783 -6.1741 0.1827 19.9889 1.5074
# 6 -1.3303 10.8937 11.7369 1.4228 1.5074 29.5693
#
#
#
# Elastic Compliance Matrix: (Units=1/GPa)
#
#
# Indices 1 2 3 4 5 6 
#
# 1 0.025862 0.000458 -0.006121 0.003523 0.000157 0.003247
# 2 0.000458 0.009562 -0.000003 0.006876 -0.000442 -0.003809
# 3 -0.006121 -0.000003 0.027455 0.009525 0.008746 -0.012076
# 4 0.003523 0.006876 0.009525 0.033881 0.003044 -0.007941
# 5 0.000157 -0.000442 0.008746 0.003044 0.053213 -0.006161
# 6 0.003247 -0.003809 -0.012076 -0.007941 -0.006161 0.040858
#
#
# Mechanical properties :
#
#
# Convention : Reuss Voigt Hill
#
# Bulk Modulus (GPa) = 19.40013 31.89576 25.64794
# Shear Modulus (GPa) = 22.79503 30.93516 26.86509
#
# Velocity S-wave (km/s) = 3.24997 3.78605 3.52821
# Velocity P-wave (km/s) = 4.80337 5.82164 5.33685
#
# Compressibility (1/GPa) = 0.05154604
#
# Stress axis : x y z
#
# Youngs Moduli (GPa) = 38.66628 104.58039 36.42363
#
# Poissons Ratio (x) = -0.04788 0.22296
# Poissons Ratio (y) = -0.01770 0.00011
# Poissons Ratio (z) = 0.23668 0.00032
#
# Static dielectric constant tensor:
#      x y z
#    x 1.791100 0.016350 -0.003520 
#    y 0.016350 1.837730 0.006620 
#    z -0.003520 0.006620 1.772750 
# 
# From -- ./inp_files/298280.got.cif
#   From: 2010.05.17/outbox.cif.g08.bks.cpg/sg2_150_cif.got.tgz:298280.got - 2010.06.03 11:33:40.
