data_PCOD9088953
_publ_section_title
;
Structure prediction by ZEFSAII (Michael W. Deem and Ramdas Pophale) SiO2 
 PCOD9088953
Probable space group: P -1
;
_chemical_formula_sum "Si O2"
_cell_formula_units_Z 16
_cell_length_a 9.707657
_cell_length_b 27.806058
_cell_length_c 9.747255
_cell_angle_alpha 133.805033
_cell_angle_beta 46.060165
_cell_angle_gamma 154.121301
_cell_volume 807.394825
_symmetry_space_group_name_H-M "P -1"
_symmetry_group_IT_number 2
_symmetry_cell_setting 'triclinic'
loop_
_space_group_symop_operation_xyz
x,y,z
-x,-y,-z
loop_
_atom_site_type_symbol
_atom_site_label
_atom_site_fract_x
_atom_site_fract_y
_atom_site_fract_z
Si Si1 0.226193 0.367335 0.909081
Si Si2 0.262000 0.192300 0.888573
Si Si3 0.265270 0.006668 0.929486
Si Si4 0.779666 0.346307 0.061660
Si Si5 0.523205 0.792583 0.520408
Si Si6 0.789265 0.429973 0.642771
Si Si7 0.213226 0.148125 0.255422
Si Si8 0.154539 0.806566 0.933267
O O1 0.432130 0.359520 0.718764
O O2 0.500000 0.500000 0.000000
O O3 0.969985 0.329401 0.909546
O O4 0.038923 0.298347 0.042080
O O5 0.325478 0.171981 0.663256
O O6 0.017875 0.084510 0.943868
O O7 0.590506 0.297240 0.953208
O O8 0.089506 0.213248 0.012326
O O9 0.292830 0.093322 0.054893
O O10 0.602801 0.083006 0.918263
O O11 0.128783 0.933439 0.742423
O O12 0.502688 0.269513 0.220847
O O13 0.034525 0.476351 0.176784
O O14 0.255043 0.658623 0.457276
O O15 0.767277 0.845306 0.581660
O O16 0.369553 0.821337 0.713960
O O17 0.000000 0.500000 0.500000
#
# Coordination Sequence:
#
# PCOD9088953 Si02
#       8
#     2   2   2   2   2   2   2   2
#     4  10  19  37  64  87 116 157 204 245 296 357
#     4  11  24  39  59  92 127 162 192 255 306 351
#     4   9  19  36  63  85 121 161 203 246 302 347
#     4  10  20  39  61  88 124 155 202 249 299 355
#     4  11  21  38  61  88 125 156 204 242 305 357
#     4  11  20  37  66  90 117 160 202 249 299 358
#     4   9  17  35  62  88 114 159 206 249 288 357
#     4  11  21  41  63  88 121 164 202 245 301 364
#
# _framework density 19.816821999999998
#
# number of rings (size 3 to 8) (size 9 to 14) (size 15 to 20)
#    0.000    1.750    5.000    1.125    0.000    2.500 
#    2.250    1.250    0.000    0.000    0.000    0.000 
#    0.000    0.000    0.000    0.000    0.000    0.000 
#
# Total GULP energy -89226.081410 kJ/mol
# GULP energy per Si atom -5576.630088 kJ/mol
# Density = 1.977172 g / cm^3
# Si number density = 19.816822 Si / 1000 Ang^3
#
#
#
# Elastic Constant Matrix: (Units=GPa)
#
#
# Indices 1 2 3 4 5 6 
#
# 1 127.4482 30.2414 48.2249 5.9436 10.0762 35.1263
# 2 30.2414 72.3044 13.3013 11.1012 12.6810 13.2231
# 3 48.2249 13.3013 80.0291 -6.4605 15.4665 18.6091
# 4 5.9436 11.1012 -6.4605 24.7034 -3.2276 6.5747
# 5 10.0762 12.6810 15.4665 -3.2276 36.2161 2.4663
# 6 35.1263 13.2231 18.6091 6.5747 2.4663 29.5880
#
#
#
# Elastic Compliance Matrix: (Units=1/GPa)
#
#
# Indices 1 2 3 4 5 6 
#
# 1 0.013639 -0.002576 -0.005088 -0.000313 0.000054 -0.011775
# 2 -0.002576 0.017576 -0.000267 -0.007446 -0.005817 -0.002489
# 3 -0.005088 -0.000267 0.018852 0.007401 -0.005413 -0.006890
# 4 -0.000313 -0.007446 0.007401 0.049771 0.004815 -0.012416
# 5 0.000054 -0.005817 -0.005413 0.004815 0.032226 0.002184
# 6 -0.011775 -0.002489 -0.006890 -0.012416 0.002184 0.055799
#
#
# Mechanical properties :
#
#
# Convention : Reuss Voigt Hill
#
# Bulk Modulus (GPa) = 29.23683 51.47967 40.35825
# Shear Modulus (GPa) = 23.24233 30.63576 26.93905
#
# Velocity S-wave (km/s) = 3.42842 3.93612 3.69101
# Velocity P-wave (km/s) = 5.51884 6.83312 6.21084
#
# Compressibility (1/GPa) = 0.03420343
#
# Stress axis : x y z
#
# Youngs Moduli (GPa) = 73.32171 56.89676 53.04614
#
# Poissons Ratio (x) = 0.14659 0.26990
# Poissons Ratio (y) = 0.18890 0.01415
# Poissons Ratio (z) = 0.37307 0.01518
#
# Static dielectric constant tensor:
#      x y z
#    x 1.722090 0.027180 0.001820 
#    y 0.027180 1.726080 0.014040 
#    z 0.001820 0.014040 1.711220 
# 
# From -- ./inp_files/200373.got.cif
#   From: 2010.05.17/outbox.cif.g08.bks.cpg/sg2_101_cif.got.tgz:200373.got - 2010.06.03 11:33:40.
