data_PCOD9088640
_publ_section_title
;
Structure prediction by ZEFSAII (Michael W. Deem and Ramdas Pophale) SiO2 
 PCOD9088640
Probable space group: P -1
;
_chemical_formula_sum "Si O2"
_cell_formula_units_Z 14
_cell_length_a 20.344196
_cell_length_b 11.080426
_cell_length_c 13.866082
_cell_angle_alpha 138.433842
_cell_angle_beta 156.409527
_cell_angle_gamma 28.751157
_cell_volume 576.368766
_symmetry_space_group_name_H-M "P -1"
_symmetry_group_IT_number 2
_symmetry_cell_setting 'triclinic'
loop_
_space_group_symop_operation_xyz
x,y,z
-x,-y,-z
loop_
_atom_site_type_symbol
_atom_site_label
_atom_site_fract_x
_atom_site_fract_y
_atom_site_fract_z
Si Si1 0.423373 0.551327 0.317895
Si Si2 0.511076 0.099071 0.173677
Si Si3 0.025987 0.857753 0.709439
Si Si4 0.762482 0.005572 0.793979
Si Si5 0.469819 0.270063 0.910870
Si Si6 0.182595 0.784855 0.521368
Si Si7 0.299605 0.354458 0.516914
O O1 0.500000 0.500000 0.500000
O O2 0.271131 0.845516 0.257550
O O3 0.633933 0.391068 0.426139
O O4 0.338237 0.409827 0.114429
O O5 0.477668 0.980993 0.142319
O O6 0.777495 0.962506 0.460951
O O7 0.500000 0.000000 0.000000
O O8 0.236601 0.543988 0.811811
O O9 0.071211 0.999729 0.920171
O O10 0.013340 0.941490 0.632681
O O11 0.520180 0.182952 0.636629
O O12 0.814900 0.753439 0.693619
O O13 0.412348 0.324246 0.752615
O O14 0.677842 0.217030 0.209968
O O15 0.121659 0.641303 0.401304
#
# Coordination Sequence:
#
# PCOD9088640 Si02
#       7
#     2   2   2   2   2   2   2
#     4  10  19  37  62  89 121 163 198 248 309 358
#     4  11  21  40  61  89 129 159 199 260 307 358
#     4  11  22  39  66  88 127 163 200 258 311 355
#     4  10  21  42  63  92 126 163 204 254 307 364
#     4  12  21  41  65  93 123 166 205 250 309 369
#     4  10  22  40  61  93 128 154 207 262 298 357
#     4  10  22  40  66  89 126 167 203 252 307 362
#
# _framework density 24.290004
#
# number of rings (size 3 to 8) (size 9 to 14) (size 15 to 20)
#    0.000    1.429    5.714    1.714    0.000    1.143 
#    0.000    9.286    0.000    0.000    0.000    0.000 
#    0.000    0.000    0.000    0.000    0.000    0.000 
#
# Total GULP energy -78232.307832 kJ/mol
# GULP energy per Si atom -5588.021988 kJ/mol
# Density = 2.423472 g / cm^3
# Si number density = 24.290004 Si / 1000 Ang^3
#
#
#
# Elastic Constant Matrix: (Units=GPa)
#
#
# Indices 1 2 3 4 5 6 
#
# 1 123.3855 54.4794 43.0850 1.5727 -23.3845 27.2245
# 2 54.4794 122.6333 39.7596 24.0904 9.4652 53.1946
# 3 43.0850 39.7596 103.4898 24.0102 9.5648 8.6273
# 4 1.5727 24.0904 24.0102 35.8317 -0.8205 -0.2244
# 5 -23.3845 9.4652 9.5648 -0.8205 30.4126 -2.1093
# 6 27.2245 53.1946 8.6273 -0.2244 -2.1093 53.5602
#
#
#
# Elastic Compliance Matrix: (Units=1/GPa)
#
#
# Indices 1 2 3 4 5 6 
#
# 1 0.020018 -0.012474 -0.009381 0.014349 0.022937 0.004688
# 2 -0.012474 0.029019 0.003088 -0.021682 -0.021839 -0.023929
# 3 -0.009381 0.003088 0.016898 -0.013317 -0.013961 -0.001626
# 4 0.014349 -0.021682 -0.013317 0.051452 0.024576 0.017569
# 5 0.022937 -0.021839 -0.013961 0.024576 0.063400 0.014879
# 6 0.004688 -0.023929 -0.001626 0.017569 0.014879 0.040974
#
#
# Mechanical properties :
#
#
# Convention : Reuss Voigt Hill
#
# Bulk Modulus (GPa) = 35.21160 69.35074 52.28117
# Shear Modulus (GPa) = 18.60370 38.10655 28.35512
#
# Velocity S-wave (km/s) = 2.77049 3.96513 3.42037
# Velocity P-wave (km/s) = 4.97614 7.04103 6.09664
#
# Compressibility (1/GPa) = 0.02839973
#
# Stress axis : x y z
#
# Youngs Moduli (GPa) = 49.95451 34.45972 59.18027
#
# Poissons Ratio (x) = 0.42986 0.55519
# Poissons Ratio (y) = 0.62315 -0.18274
# Poissons Ratio (z) = 0.46864 -0.10641
#
# Static dielectric constant tensor:
#      x y z
#    x 1.951680 -0.082700 0.008190 
#    y -0.082700 2.195690 -0.008090 
#    z 0.008190 -0.008090 1.908670 
# 
# From -- ./inp_files/500595.got.cif
#   From: 2010.05.17/outbox.cif.g08.bks.cpg/sg2_251_cif.got.tgz:500595.got - 2010.06.03 11:33:40.
