data_PCOD9088422
_publ_section_title
;
Structure prediction by ZEFSAII (Michael W. Deem and Ramdas Pophale) SiO2 
 PCOD9088422
Probable space group: P -1
;
_chemical_formula_sum "Si O2"
_cell_formula_units_Z 16
_cell_length_a 12.138100
_cell_length_b 8.843018
_cell_length_c 10.340723
_cell_angle_alpha 61.636642
_cell_angle_beta 128.086494
_cell_angle_gamma 137.928737
_cell_volume 585.060970
_symmetry_space_group_name_H-M "P -1"
_symmetry_group_IT_number 2
_symmetry_cell_setting 'triclinic'
loop_
_space_group_symop_operation_xyz
x,y,z
-x,-y,-z
loop_
_atom_site_type_symbol
_atom_site_label
_atom_site_fract_x
_atom_site_fract_y
_atom_site_fract_z
Si Si1 0.947721 0.217011 0.127092
Si Si2 0.652219 0.135695 0.753392
Si Si3 0.201090 0.328882 0.029515
Si Si4 0.814972 0.029670 0.728494
Si Si5 0.071168 0.689951 0.660398
Si Si6 0.325257 0.624032 0.789206
Si Si7 0.781793 0.739350 0.330134
Si Si8 0.630371 0.837089 0.396926
O O1 0.992763 0.383163 0.208800
O O2 0.882662 0.984899 0.239288
O O3 0.111617 0.312916 0.106729
O O4 0.785087 0.170923 0.945887
O O5 0.742055 0.156249 0.672567
O O6 0.473634 0.870966 0.741170
O O7 0.571082 0.259954 0.669252
O O8 0.342551 0.576104 0.970554
O O9 0.269626 0.190821 0.155666
O O10 0.028716 0.183938 0.862111
O O11 0.749683 0.937751 0.574328
O O12 0.129031 0.569479 0.671210
O O13 0.933214 0.720880 0.492482
O O14 0.272219 0.940431 0.711563
O O15 0.326170 0.451041 0.778563
O O16 0.661665 0.697399 0.385940
#
# Coordination Sequence:
#
# PCOD9088422 Si02
#       8
#     2   2   2   2   2   2   2   2
#     4  10  21  40  63  87 113 153 201 236 280 343
#     4  10  23  39  59  87 120 154 188 238 292 346
#     4  10  20  35  61  88 115 151 195 243 284 338
#     4  10  19  37  61  86 114 152 201 237 279 342
#     4  10  21  37  61  88 117 149 193 245 289 338
#     4  11  23  37  57  89 123 152 184 237 300 344
#     4  11  21  36  60  88 117 150 195 243 287 337
#     4  10  20  36  59  83 113 155 197 235 279 345
#
# _framework density 27.347577000000001
#
# number of rings (size 3 to 8) (size 9 to 14) (size 15 to 20)
#    0.000    1.750    0.000    6.750    0.000    8.000 
#    0.000    0.625    0.000    3.000    0.000    0.875 
#    0.000    0.000    0.000    0.000    0.000    0.000 
#
# Total GULP energy -89599.085860 kJ/mol
# GULP energy per Si atom -5599.942866 kJ/mol
# Density = 2.728533 g / cm^3
# Si number density = 27.347577 Si / 1000 Ang^3
#
#
#
# Elastic Constant Matrix: (Units=GPa)
#
#
# Indices 1 2 3 4 5 6 
#
# 1 215.7256 31.8671 66.1339 16.5372 17.9416 -33.4798
# 2 31.8671 72.7387 21.4175 -10.5412 -10.2070 -16.5192
# 3 66.1339 21.4175 115.0476 -2.3138 -2.7580 -12.3982
# 4 16.5372 -10.5412 -2.3138 26.7062 -11.0126 3.5319
# 5 17.9416 -10.2070 -2.7580 -11.0126 45.0855 -1.9012
# 6 -33.4798 -16.5192 -12.3982 3.5319 -1.9012 32.4293
#
#
#
# Elastic Compliance Matrix: (Units=1/GPa)
#
#
# Indices 1 2 3 4 5 6 
#
# 1 0.008922 -0.003852 -0.004110 -0.011201 -0.007137 0.006479
# 2 -0.003852 0.020040 -0.000461 0.013517 0.009560 0.005143
# 3 -0.004110 -0.000461 0.011264 0.004794 0.003370 -0.000496
# 4 -0.011201 0.013517 0.004794 0.060365 0.022213 -0.008118
# 5 -0.007137 0.009560 0.003370 0.022213 0.032744 -0.001709
# 6 0.006479 0.005143 -0.000496 -0.008118 -0.001709 0.040740
#
#
# Mechanical properties :
#
#
# Convention : Reuss Voigt Hill
#
# Bulk Modulus (GPa) = 42.77121 71.37210 57.07165
# Shear Modulus (GPa) = 25.16170 39.78376 32.47273
#
# Velocity S-wave (km/s) = 3.03656 3.81825 3.44962
# Velocity P-wave (km/s) = 5.28848 6.75230 6.06472
#
# Compressibility (1/GPa) = 0.02338022
#
# Stress axis : x y z
#
# Youngs Moduli (GPa) = 112.07859 49.90112 88.77702
#
# Poissons Ratio (x) = 0.19222 0.36486
# Poissons Ratio (y) = 0.43173 0.04093
# Poissons Ratio (z) = 0.46063 0.02301
#
# Static dielectric constant tensor:
#      x y z
#    x 2.188980 0.012900 0.012690 
#    y 0.012900 2.218300 -0.019930 
#    z 0.012690 -0.019930 2.130450 
# 
# From -- ./inp_files/419241.got.cif
#   From: 2010.05.17/outbox.cif.g08.bks.cpg/sg2_210_cif.got.tgz:419241.got - 2010.06.03 11:33:40.
