data_PCOD9088537
_publ_section_title
;
Structure prediction by ZEFSAII (Michael W. Deem and Ramdas Pophale) SiO2 
 PCOD9088537
Probable space group: P -1
;
_chemical_formula_sum "Si O2"
_cell_formula_units_Z 16
_cell_length_a 18.125996
_cell_length_b 12.450340
_cell_length_c 7.972364
_cell_angle_alpha 53.272323
_cell_angle_beta 58.118167
_cell_angle_gamma 28.924515
_cell_volume 697.383011
_symmetry_space_group_name_H-M "P -1"
_symmetry_group_IT_number 2
_symmetry_cell_setting 'triclinic'
loop_
_space_group_symop_operation_xyz
x,y,z
-x,-y,-z
loop_
_atom_site_type_symbol
_atom_site_label
_atom_site_fract_x
_atom_site_fract_y
_atom_site_fract_z
Si Si1 0.234616 0.668744 0.380136
Si Si2 0.517602 0.101177 0.219211
Si Si3 0.229615 0.183277 0.562738
Si Si4 0.868583 0.993285 0.098149
Si Si5 0.563425 0.245706 0.784699
Si Si6 0.162549 0.559231 0.298793
Si Si7 0.254553 0.781172 0.597839
Si Si8 0.490262 0.851101 0.354610
O O1 0.150301 0.650841 0.406629
O O2 0.194845 0.761418 0.534171
O O3 0.409773 0.391727 0.444643
O O4 0.205061 0.825256 0.132750
O O5 0.337501 0.351717 0.222975
O O6 0.609867 0.973040 0.399747
O O7 0.551613 0.921568 0.247078
O O8 0.593389 0.139274 0.021866
O O9 0.127018 0.445095 0.463944
O O10 0.175322 0.108381 0.758081
O O11 0.306493 0.074680 0.389856
O O12 0.828648 0.092850 0.243247
O O13 0.052520 0.762294 0.101825
O O14 0.423468 0.524799 0.697806
O O15 0.706772 0.133403 0.632467
O O16 0.490980 0.214692 0.797841
#
# Coordination Sequence:
#
# PCOD9088537 Si02
#       8
#     2   2   2   2   2   2   2   2
#     4  11  22  41  65  92 130 167 212 260 316 379
#     4  11  20  37  69  91 122 166 215 263 317 373
#     4  11  21  40  67  90 123 166 215 263 313 371
#     4  12  25  41  68  92 134 172 205 260 325 383
#     4  10  20  36  59  95 130 158 212 270 316 363
#     4  11  23  42  63  95 128 168 213 258 321 383
#     4  10  23  39  60  97 131 166 212 263 314 381
#     4  10  19  37  61  94 126 155 213 269 311 368
#
# _framework density 22.942917999999999
#
# number of rings (size 3 to 8) (size 9 to 14) (size 15 to 20)
#    0.000    1.250    3.750    3.375    0.000    1.000 
#    0.000    1.250    2.750    2.250    0.000    0.000 
#    0.000    0.000    0.000    0.000    0.000    0.000 
#
# Total GULP energy -89084.462093 kJ/mol
# GULP energy per Si atom -5567.778881 kJ/mol
# Density = 2.289070 g / cm^3
# Si number density = 22.942918 Si / 1000 Ang^3
#
#
#
# Elastic Constant Matrix: (Units=GPa)
#
#
# Indices 1 2 3 4 5 6 
#
# 1 103.3287 30.8214 19.3026 -15.0480 -5.1878 18.1077
# 2 30.8214 51.5364 26.0736 -18.2400 6.4271 4.4246
# 3 19.3026 26.0736 130.3943 -20.0530 -9.1332 5.1677
# 4 -15.0480 -18.2400 -20.0530 21.7633 1.7733 0.9098
# 5 -5.1878 6.4271 -9.1332 1.7733 33.4824 -3.8191
# 6 18.1077 4.4246 5.1677 0.9098 -3.8191 23.5806
#
#
#
# Elastic Compliance Matrix: (Units=1/GPa)
#
#
# Indices 1 2 3 4 5 6 
#
# 1 0.013966 -0.006249 0.000493 0.005097 0.002143 -0.009510
# 2 -0.006249 0.034151 -0.003005 0.022484 -0.009925 -0.003426
# 3 0.000493 -0.003005 0.009431 0.006363 0.002696 -0.001690
# 4 0.005097 0.022484 0.006363 0.075347 -0.007335 -0.013622
# 5 0.002143 -0.009925 0.002696 -0.007335 0.033842 0.005390
# 6 -0.009510 -0.003426 -0.001690 -0.013622 0.005390 0.052122
#
#
# Mechanical properties :
#
#
# Convention : Reuss Voigt Hill
#
# Bulk Modulus (GPa) = 24.98386 48.62830 36.80608
# Shear Modulus (GPa) = 20.02204 29.70271 24.86237
#
# Velocity S-wave (km/s) = 2.95734 3.60201 3.29547
# Velocity P-wave (km/s) = 4.75125 6.20811 5.52788
#
# Compressibility (1/GPa) = 0.04002585
#
# Stress axis : x y z
#
# Youngs Moduli (GPa) = 71.60232 29.28174 106.02809
#
# Poissons Ratio (x) = 0.18298 -0.05226
# Poissons Ratio (y) = 0.44743 0.31866
# Poissons Ratio (z) = -0.03529 0.08800
#
# Static dielectric constant tensor:
#      x y z
#    x 1.983070 0.096040 0.033150 
#    y 0.096040 2.017900 0.011930 
#    z 0.033150 0.011930 1.924670 
# 
# From -- ./inp_files/332868.got.cif
#   From: 2010.05.17/outbox.cif.g08.bks.cpg/sg2_167_cif.got.tgz:332868.got - 2010.06.03 11:33:40.
