data_PCOD9088746
_publ_section_title
;
Structure prediction by ZEFSAII (Michael W. Deem and Ramdas Pophale) SiO2 
 PCOD9088746
Probable space group: P -1
;
_chemical_formula_sum "Si O2"
_cell_formula_units_Z 14
_cell_length_a 8.453511
_cell_length_b 10.112625
_cell_length_c 12.667895
_cell_angle_alpha 76.303469
_cell_angle_beta 103.577686
_cell_angle_gamma 45.351688
_cell_volume 609.564465
_symmetry_space_group_name_H-M "P -1"
_symmetry_group_IT_number 2
_symmetry_cell_setting 'triclinic'
loop_
_space_group_symop_operation_xyz
x,y,z
-x,-y,-z
loop_
_atom_site_type_symbol
_atom_site_label
_atom_site_fract_x
_atom_site_fract_y
_atom_site_fract_z
Si Si1 0.254004 0.188585 0.664901
Si Si2 0.295052 0.358395 0.805805
Si Si3 0.103629 0.057570 0.068331
Si Si4 0.762386 0.746199 0.968622
Si Si5 0.760199 0.088568 0.378801
Si Si6 0.487249 0.163000 0.509493
Si Si7 0.914036 0.210524 0.239592
O O1 0.537361 0.938836 0.808990
O O2 0.136897 0.127528 0.608373
O O3 0.297406 0.267475 0.562229
O O4 0.129961 0.357054 0.711896
O O5 0.161383 0.592717 0.761373
O O6 0.575429 0.189646 0.817902
O O7 0.354779 0.254282 0.949506
O O8 0.108757 0.198128 0.983576
O O9 0.926253 0.199571 0.117967
O O10 0.000000 0.000000 0.000000
O O11 0.000000 0.500000 0.000000
O O12 0.722699 0.219688 0.252856
O O13 0.500915 0.238587 0.387184
O O14 0.000000 0.000000 0.500000
O O15 0.772113 0.019260 0.633447
O O16 0.500000 0.000000 0.500000
#
# Coordination Sequence:
#
# PCOD9088746 Si02
#       7
#     2   2   2   2   2   2   2
#     4  10  19  37  63  84 118 156 194 246 291 348
#     4  11  23  39  61  90 121 156 203 236 292 369
#     4  11  24  38  59  88 126 159 193 245 294 351
#     4  11  21  39  60  91 119 159 199 233 292 367
#     4   9  21  36  62  85 114 156 195 247 301 340
#     4   9  17  38  63  83 111 154 197 245 294 343
#     4  11  21  40  60  88 122 154 194 246 302 344
#
# _framework density 22.967217999999999
#
# number of rings (size 3 to 8) (size 9 to 14) (size 15 to 20)
#    0.000    1.714    4.286    1.714    4.000    1.714 
#    0.000    7.143    0.000    0.000    0.000    0.000 
#    0.000    0.000    0.000    0.000    0.000    0.000 
#
# Total GULP energy -78041.806701 kJ/mol
# GULP energy per Si atom -5574.414764 kJ/mol
# Density = 2.291494 g / cm^3
# Si number density = 22.967218 Si / 1000 Ang^3
#
#
#
# Elastic Constant Matrix: (Units=GPa)
#
#
# Indices 1 2 3 4 5 6 
#
# 1 119.4985 39.8228 34.6105 13.1278 -23.2287 18.7588
# 2 39.8228 119.1033 27.7361 33.5417 -9.4641 11.8610
# 3 34.6105 27.7361 70.7320 12.5533 -15.1862 -5.7243
# 4 13.1278 33.5417 12.5533 40.4291 5.1030 4.1436
# 5 -23.2287 -9.4641 -15.1862 5.1030 49.1511 16.4329
# 6 18.7588 11.8610 -5.7243 4.1436 16.4329 35.8057
#
#
#
# Elastic Compliance Matrix: (Units=1/GPa)
#
#
# Indices 1 2 3 4 5 6 
#
# 1 0.013986 -0.001047 -0.005098 -0.002023 0.008943 -0.011666
# 2 -0.001047 0.012736 -0.002366 -0.009488 0.003778 -0.004684
# 3 -0.005098 -0.002366 0.018859 -0.003030 0.001177 0.006280
# 4 -0.002023 -0.009488 -0.003030 0.034914 -0.008548 0.003601
# 5 0.008943 0.003778 0.001177 -0.008548 0.033243 -0.020016
# 6 -0.011666 -0.004684 0.006280 0.003601 -0.020016 0.045365
#
#
# Mechanical properties :
#
#
# Convention : Reuss Voigt Hill
#
# Bulk Modulus (GPa) = 35.01529 57.07475 46.04502
# Shear Modulus (GPa) = 26.93339 38.88815 32.91077
#
# Velocity S-wave (km/s) = 3.42817 4.11932 3.78953
# Velocity P-wave (km/s) = 5.56315 6.89417 6.26411
#
# Compressibility (1/GPa) = 0.02855896
#
# Stress axis : x y z
#
# Youngs Moduli (GPa) = 71.50202 78.51839 53.02591
#
# Poissons Ratio (x) = 0.08220 0.27032
# Poissons Ratio (y) = 0.07486 0.12545
# Poissons Ratio (z) = 0.36451 0.18576
#
# Static dielectric constant tensor:
#      x y z
#    x 1.967520 -0.078570 -0.023860 
#    y -0.078570 1.933040 0.037970 
#    z -0.023860 0.037970 2.029310 
# 
# From -- ./inp_files/178550.got.cif
#   From: 2010.05.17/outbox.cif.g08.bks.cpg/sg2_90_cif.got.tgz:178550.got - 2010.06.03 11:33:40.
