data_PCOD9088968
_publ_section_title
;
Structure prediction by ZEFSAII (Michael W. Deem and Ramdas Pophale) SiO2 
 PCOD9088968
Probable space group: P -1
;
_chemical_formula_sum "Si O2"
_cell_formula_units_Z 16
_cell_length_a 12.974399
_cell_length_b 12.342851
_cell_length_c 9.048909
_cell_angle_alpha 70.827104
_cell_angle_beta 106.000320
_cell_angle_gamma 46.482347
_cell_volume 675.587123
_symmetry_space_group_name_H-M "P -1"
_symmetry_group_IT_number 2
_symmetry_cell_setting 'triclinic'
loop_
_space_group_symop_operation_xyz
x,y,z
-x,-y,-z
loop_
_atom_site_type_symbol
_atom_site_label
_atom_site_fract_x
_atom_site_fract_y
_atom_site_fract_z
Si Si1 0.839153 0.872591 0.292861
Si Si2 0.666143 0.062092 0.464435
Si Si3 0.629270 0.209542 0.805096
Si Si4 0.730080 0.473288 0.295531
Si Si5 0.711216 0.752866 0.265527
Si Si6 0.330051 0.338127 0.417515
Si Si7 0.992590 0.184344 0.054856
Si Si8 0.388815 0.513902 0.056580
O O1 0.870422 0.712747 0.325245
O O2 0.043090 0.763006 0.445687
O O3 0.728833 0.970638 0.364786
O O4 0.704675 0.055310 0.032712
O O5 0.471013 0.172130 0.407976
O O6 0.566090 0.280847 0.314358
O O7 0.864775 0.887796 0.729092
O O8 0.445734 0.439692 0.724651
O O9 0.485697 0.279285 0.595496
O O10 0.843531 0.037779 0.880439
O O11 0.726739 0.613389 0.260904
O O12 0.713714 0.473656 0.114857
O O13 0.706777 0.728560 0.450082
O O14 0.500000 0.000000 0.000000
O O15 0.129983 0.599056 0.175426
O O16 0.805158 0.279629 0.006252
O O17 0.500000 0.500000 0.000000
#
# Coordination Sequence:
#
# PCOD9088968 Si02
#       8
#     2   2   2   2   2   2   2   2
#     4  12  21  37  65  97 128 174 215 259 312 378
#     4  10  21  40  65  90 131 168 207 264 325 376
#     4  10  19  37  64  88 128 168 210 257 319 366
#     4  11  22  38  59  96 126 165 211 264 311 377
#     4  11  20  38  63  94 129 171 218 261 310 371
#     4   9  20  37  60  91 130 173 211 258 316 375
#     4  10  21  41  64  91 129 173 203 264 326 377
#     4  11  23  43  69  96 124 163 216 267 323 388
#
# _framework density 23.683104
#
# number of rings (size 3 to 8) (size 9 to 14) (size 15 to 20)
#    0.000    1.500    5.000    1.875    0.000    1.000 
#    0.000    1.250    0.000   22.500    0.000    0.000 
#    0.000    0.000    0.000    0.000    0.000    0.000 
#
# Total GULP energy -89175.698093 kJ/mol
# GULP energy per Si atom -5573.481131 kJ/mol
# Density = 2.362920 g / cm^3
# Si number density = 23.683104 Si / 1000 Ang^3
#
#
#
# Elastic Constant Matrix: (Units=GPa)
#
#
# Indices 1 2 3 4 5 6 
#
# 1 77.3289 24.3014 32.8036 -7.6015 -3.8834 -29.9704
# 2 24.3014 120.5635 18.0181 3.2985 6.7989 -33.4961
# 3 32.8036 18.0181 165.8898 -0.7338 4.3540 -10.3463
# 4 -7.6015 3.2985 -0.7338 32.6968 -13.4068 4.8581
# 5 -3.8834 6.7989 4.3540 -13.4068 24.0223 -2.8040
# 6 -29.9704 -33.4961 -10.3463 4.8581 -2.8040 38.1203
#
#
#
# Elastic Compliance Matrix: (Units=1/GPa)
#
#
# Indices 1 2 3 4 5 6 
#
# 1 0.021785 -0.000187 -0.003525 0.006656 0.009781 0.015878
# 2 -0.000187 0.011623 -0.000489 -0.004639 -0.004631 0.010184
# 3 -0.003525 -0.000489 0.006756 -0.001503 -0.002655 -0.001371
# 4 0.006656 -0.004639 -0.001503 0.044021 0.026893 -0.002883
# 5 0.009781 -0.004631 -0.002655 0.026893 0.060468 0.003921
# 6 0.015878 0.010184 -0.001371 -0.002883 0.003921 0.047948
#
#
# Mechanical properties :
#
#
# Convention : Reuss Voigt Hill
#
# Bulk Modulus (GPa) = 31.48392 57.11427 44.29909
# Shear Modulus (GPa) = 23.63076 38.21180 30.92128
#
# Velocity S-wave (km/s) = 3.16221 4.02115 3.61727
# Velocity P-wave (km/s) = 5.16289 6.76224 6.01595
#
# Compressibility (1/GPa) = 0.03176225
#
# Stress axis : x y z
#
# Youngs Moduli (GPa) = 45.90325 86.03969 148.02282
#
# Poissons Ratio (x) = 0.01606 0.52171
# Poissons Ratio (y) = 0.00857 0.07243
# Poissons Ratio (z) = 0.16179 0.04210
#
# Static dielectric constant tensor:
#      x y z
#    x 2.063290 -0.047560 0.074210 
#    y -0.047560 2.037640 -0.030930 
#    z 0.074210 -0.030930 1.949030 
# 
# From -- ./inp_files/313694.got.cif
#   From: 2010.05.17/outbox.cif.g08.bks.cpg/sg2_157_cif.got.tgz:313694.got - 2010.06.03 11:33:40.
