data_PCOD9088594
_publ_section_title
;
Structure prediction by ZEFSAII (Michael W. Deem and Ramdas Pophale) SiO2 
 PCOD9088594
Probable space group: P -1
;
_chemical_formula_sum "Si O2"
_cell_formula_units_Z 16
_cell_length_a 14.893918
_cell_length_b 7.854138
_cell_length_c 8.494723
_cell_angle_alpha 126.420307
_cell_angle_beta 74.775522
_cell_angle_gamma 70.421582
_cell_volume 597.692386
_symmetry_space_group_name_H-M "P -1"
_symmetry_group_IT_number 2
_symmetry_cell_setting 'triclinic'
loop_
_space_group_symop_operation_xyz
x,y,z
-x,-y,-z
loop_
_atom_site_type_symbol
_atom_site_label
_atom_site_fract_x
_atom_site_fract_y
_atom_site_fract_z
Si Si1 0.553364 0.203821 0.382093
Si Si2 0.051952 0.766574 0.617475
Si Si3 0.523095 0.091131 0.876689
Si Si4 0.282323 0.959820 0.063481
Si Si5 0.061522 0.378341 0.201448
Si Si6 0.260663 0.638556 0.277706
Si Si7 0.812100 0.357934 0.029463
Si Si8 0.230222 0.117560 0.672925
O O1 0.500000 0.500000 0.500000
O O2 0.654675 0.022565 0.104842
O O3 0.633401 0.110315 0.449226
O O4 0.474404 0.104390 0.358046
O O5 0.022799 0.671430 0.419744
O O6 0.189157 0.644761 0.463508
O O7 0.032846 0.666712 0.733981
O O8 0.949864 0.092843 0.843753
O O9 0.639289 0.068699 0.843227
O O10 0.403811 0.404390 0.084005
O O11 0.500000 0.000000 0.000000
O O12 0.272403 0.719050 0.922214
O O13 0.148788 0.221576 0.228961
O O14 0.132477 0.244129 0.932072
O O15 0.217728 0.587211 0.111940
O O16 0.213875 0.945447 0.470611
O O17 0.784409 0.630146 0.252704
#
# Coordination Sequence:
#
# PCOD9088594 Si02
#       8
#     2   2   2   2   2   2   2   2
#     4  10  19  38  61  89 118 155 197 250 292 343
#     4  10  20  39  65  84 118 161 197 249 301 340
#     4  10  19  37  62  86 116 153 199 241 291 351
#     4   9  20  38  63  86 120 158 197 242 297 352
#     4   9  19  38  64  89 115 154 203 252 291 348
#     4  12  23  38  62  88 119 162 198 239 302 357
#     4  11  23  42  58  87 126 158 195 246 296 358
#     4  11  22  38  60  87 123 154 201 244 297 353
#
# _framework density 26.769621000000001
#
# number of rings (size 3 to 8) (size 9 to 14) (size 15 to 20)
#    0.000    1.750    2.500    3.375    0.000    1.500 
#    2.250    1.250    8.250    0.000    0.000    0.000 
#    0.000    0.000    0.000    0.000    0.000    0.000 
#
# Total GULP energy -89379.098097 kJ/mol
# GULP energy per Si atom -5586.193631 kJ/mol
# Density = 2.670869 g / cm^3
# Si number density = 26.769621 Si / 1000 Ang^3
#
#
#
# Elastic Constant Matrix: (Units=GPa)
#
#
# Indices 1 2 3 4 5 6 
#
# 1 109.0552 44.8843 35.5290 5.9092 -1.7621 -3.7183
# 2 44.8843 79.4763 22.4309 16.7946 -7.1167 19.1019
# 3 35.5290 22.4309 108.3818 32.4974 7.9385 -0.9776
# 4 5.9092 16.7946 32.4974 49.6489 19.1790 -8.7675
# 5 -1.7621 -7.1167 7.9385 19.1790 24.1393 -1.6677
# 6 -3.7183 19.1019 -0.9776 -8.7675 -1.6677 47.3310
#
#
#
# Elastic Compliance Matrix: (Units=1/GPa)
#
#
# Indices 1 2 3 4 5 6 
#
# 1 0.015151 -0.011718 -0.004790 0.009657 -0.007940 0.007330
# 2 -0.011718 0.028918 0.002542 -0.021717 0.023001 -0.015751
# 3 -0.004790 0.002542 0.013314 -0.011439 0.004897 -0.003073
# 4 0.009657 -0.021717 -0.011439 0.053713 -0.043388 0.017708
# 5 -0.007940 0.023001 0.004897 -0.043388 0.079451 -0.015043
# 6 0.007330 -0.015751 -0.003073 0.017708 -0.015043 0.030747
#
#
# Mechanical properties :
#
#
# Convention : Reuss Voigt Hill
#
# Bulk Modulus (GPa) = 33.95533 55.84464 44.89998
# Shear Modulus (GPa) = 19.30175 37.16178 28.23177
#
# Velocity S-wave (km/s) = 2.68812 3.72991 3.25101
# Velocity P-wave (km/s) = 4.72720 6.28141 5.55889
#
# Compressibility (1/GPa) = 0.02945046
#
# Stress axis : x y z
#
# Youngs Moduli (GPa) = 66.00053 34.58100 75.10819
#
# Poissons Ratio (x) = 0.40524 0.35973
# Poissons Ratio (y) = 0.77342 -0.19090
# Poissons Ratio (z) = 0.31611 -0.08789
#
# Static dielectric constant tensor:
#      x y z
#    x 2.278900 0.058440 -0.004900 
#    y 0.058440 2.132010 0.051530 
#    z -0.004900 0.051530 2.150900 
# 
# From -- ./inp_files/448326.got.cif
#   From: 2010.05.17/outbox.cif.g08.bks.cpg/sg2_225_cif.got.tgz:448326.got - 2010.06.03 11:33:40.
