data_PCOD9088241
_publ_section_title
;
Structure prediction by ZEFSAII (Michael W. Deem and Ramdas Pophale) SiO2 
 PCOD9088241
Probable space group: P -1
;
_chemical_formula_sum "Si O2"
_cell_formula_units_Z 16
_cell_length_a 10.871316
_cell_length_b 15.464914
_cell_length_c 5.057805
_cell_angle_alpha 61.428468
_cell_angle_beta 79.376317
_cell_angle_gamma 94.289012
_cell_volume 720.785275
_symmetry_space_group_name_H-M "P -1"
_symmetry_group_IT_number 2
_symmetry_cell_setting 'triclinic'
loop_
_space_group_symop_operation_xyz
x,y,z
-x,-y,-z
loop_
_atom_site_type_symbol
_atom_site_label
_atom_site_fract_x
_atom_site_fract_y
_atom_site_fract_z
Si Si1 0.383012 0.299910 0.002139
Si Si2 0.017669 0.752144 0.248869
Si Si3 0.660989 0.579271 0.648101
Si Si4 0.827162 0.377507 0.349052
Si Si5 0.076204 0.428867 0.736435
Si Si6 0.074543 0.935318 0.251650
Si Si7 0.649356 0.351381 0.970473
Si Si8 0.151582 0.136423 0.140633
O O1 0.410530 0.365736 0.625466
O O2 0.516458 0.276835 0.087785
O O3 0.333216 0.364688 0.157899
O O4 0.273362 0.205348 0.119412
O O5 0.009469 0.682096 0.093534
O O6 0.115009 0.851563 0.167901
O O7 0.799630 0.585033 0.454801
O O8 0.892215 0.801600 0.181618
O O9 0.610400 0.460575 0.867438
O O10 0.948922 0.327036 0.435567
O O11 0.737094 0.356745 0.670940
O O12 0.871225 0.498896 0.144224
O O13 0.738025 0.337097 0.200603
O O14 0.000000 0.500000 0.500000
O O15 0.973397 0.882786 0.589632
O O16 0.172705 0.025083 0.219407
O O17 0.000000 0.000000 0.000000
#
# Coordination Sequence:
#
# PCOD9088241 Si02
#       8
#     2   2   2   2   2   2   2   2
#     4  12  23  37  63  86 119 158 202 249 285 346
#     4  10  19  37  60  84 117 153 196 241 299 356
#     4  11  21  37  57  87 118 163 205 233 292 338
#     4  10  23  39  57  84 122 165 198 236 285 349
#     4   9  18  35  53  86 122 156 190 236 281 350
#     4   9  20  38  58  90 117 144 188 247 316 356
#     4  11  23  40  55  85 124 162 205 237 282 337
#     4  10  21  35  62  91 115 147 193 250 308 349
#
# _framework density 22.198008999999999
#
# number of rings (size 3 to 8) (size 9 to 14) (size 15 to 20)
#    0.000    1.750    1.250    3.750    3.500    0.000 
#    0.000    3.750    0.000    1.500    0.000    0.000 
#    0.000    0.000    0.000    0.000    0.000    0.000 
#
# Total GULP energy -89162.120699 kJ/mol
# GULP energy per Si atom -5572.632544 kJ/mol
# Density = 2.214749 g / cm^3
# Si number density = 22.198009 Si / 1000 Ang^3
#
#
#
# Elastic Constant Matrix: (Units=GPa)
#
#
# Indices 1 2 3 4 5 6 
#
# 1 86.9415 47.4784 21.4981 4.2160 4.4190 27.0935
# 2 47.4784 171.4784 47.4232 -10.3374 11.1566 26.5365
# 3 21.4981 47.4232 73.1355 13.7196 9.6551 6.2693
# 4 4.2160 -10.3374 13.7196 39.5205 0.0226 7.8769
# 5 4.4190 11.1566 9.6551 0.0226 25.0940 0.9467
# 6 27.0935 26.5365 6.2693 7.8769 0.9467 35.7422
#
#
#
# Elastic Compliance Matrix: (Units=1/GPa)
#
#
# Indices 1 2 3 4 5 6 
#
# 1 0.016660 -0.002141 -0.002651 0.000720 -0.000558 -0.010718
# 2 -0.002141 0.009339 -0.005869 0.005811 -0.001313 -0.005527
# 3 -0.002651 -0.005869 0.020212 -0.009261 -0.004881 0.004992
# 4 0.000720 0.005811 -0.009261 0.032018 0.001214 -0.010324
# 5 -0.000558 -0.001313 -0.004881 0.001214 0.042376 0.000864
# 6 -0.010718 -0.005527 0.004992 -0.010324 0.000864 0.041582
#
#
# Mechanical properties :
#
#
# Convention : Reuss Voigt Hill
#
# Bulk Modulus (GPa) = 40.18052 62.70611 51.44331
# Shear Modulus (GPa) = 26.06785 34.41504 30.24145
#
# Velocity S-wave (km/s) = 3.43057 3.94174 3.69501
# Velocity P-wave (km/s) = 5.81653 7.00188 6.43655
#
# Compressibility (1/GPa) = 0.02488768
#
# Stress axis : x y z
#
# Youngs Moduli (GPa) = 60.02232 107.08258 49.47596
#
# Poissons Ratio (x) = 0.22930 0.13118
# Poissons Ratio (y) = 0.12853 0.29037
# Poissons Ratio (z) = 0.15914 0.62846
#
# Static dielectric constant tensor:
#      x y z
#    x 1.840130 0.014540 -0.034950 
#    y 0.014540 1.934310 0.036660 
#    z -0.034950 0.036660 1.919290 
# 
# From -- ./inp_files/80215.got.cif
#   From: 2010.05.17/outbox.cif.g08.bks.cpg/sg2_41_cif.got.tgz:80215.got - 2010.06.03 11:33:40.
