data_PCOD9088630
_publ_section_title
;
Structure prediction by ZEFSAII (Michael W. Deem and Ramdas Pophale) SiO2 
 PCOD9088630
Probable space group: P -1
;
_chemical_formula_sum "Si O2"
_cell_formula_units_Z 16
_cell_length_a 17.800057
_cell_length_b 7.734928
_cell_length_c 8.104378
_cell_angle_alpha 88.650567
_cell_angle_beta 123.754730
_cell_angle_gamma 53.956344
_cell_volume 640.115757
_symmetry_space_group_name_H-M "P -1"
_symmetry_group_IT_number 2
_symmetry_cell_setting 'triclinic'
loop_
_space_group_symop_operation_xyz
x,y,z
-x,-y,-z
loop_
_atom_site_type_symbol
_atom_site_label
_atom_site_fract_x
_atom_site_fract_y
_atom_site_fract_z
Si Si1 0.165998 0.902662 0.582318
Si Si2 0.828037 0.925598 0.756985
Si Si3 0.921643 0.465057 0.304985
Si Si4 0.562268 0.214767 0.557912
Si Si5 0.887741 0.464648 0.880183
Si Si6 0.614985 0.769242 0.462531
Si Si7 0.302638 0.371649 0.789762
Si Si8 0.421905 0.533137 0.063933
O O1 0.189221 0.666907 0.593947
O O2 0.207348 0.928903 0.457754
O O3 0.273708 0.809110 0.852936
O O4 0.020388 0.163880 0.438854
O O5 0.969466 0.799034 0.992083
O O6 0.709421 0.086411 0.736798
O O7 0.854452 0.688813 0.741032
O O8 0.900981 0.509978 0.083787
O O9 0.777072 0.651946 0.200114
O O10 0.000000 0.500000 0.500000
O O11 0.482193 0.254330 0.616890
O O12 0.482700 0.444598 0.323502
O O13 0.581908 0.996271 0.502666
O O14 0.761909 0.517850 0.710950
O O15 0.627948 0.784430 0.285083
O O16 0.399121 0.360302 0.007962
O O17 0.500000 0.500000 0.000000
#
# Coordination Sequence:
#
# PCOD9088630 Si02
#       8
#     2   2   2   2   2   2   2   2
#     4   9  21  40  60  89 129 162 196 263 317 364
#     4   9  17  35  63  82 119 164 206 244 311 367
#     4  11  23  39  67  95 123 160 213 262 316 377
#     4  10  19  37  62  88 124 167 206 258 304 368
#     4   9  20  36  62  89 123 163 202 264 319 362
#     4  10  22  38  62  90 128 165 209 260 315 365
#     4  10  23  39  64  91 129 162 210 259 313 381
#     4  10  20  38  65  86 125 176 202 252 320 366
#
# _framework density 24.995479
#
# number of rings (size 3 to 8) (size 9 to 14) (size 15 to 20)
#    0.750    1.500    1.250    1.125    8.750    0.500 
#    0.000   10.000    0.000    0.000    0.000    0.000 
#    0.000    0.000    0.000    0.000    0.000    0.000 
#
# Total GULP energy -89279.951820 kJ/mol
# GULP energy per Si atom -5579.996989 kJ/mol
# Density = 2.493859 g / cm^3
# Si number density = 24.995479 Si / 1000 Ang^3
#
#
#
# Elastic Constant Matrix: (Units=GPa)
#
#
# Indices 1 2 3 4 5 6 
#
# 1 144.8066 8.7659 17.0956 -6.5448 15.6691 -38.1530
# 2 8.7659 40.9336 -15.6575 -9.5818 -0.8233 -9.4743
# 3 17.0956 -15.6575 71.4348 -15.8236 -2.0784 -13.5697
# 4 -6.5448 -9.5818 -15.8236 39.2650 -2.3172 0.2608
# 5 15.6691 -0.8233 -2.0784 -2.3172 24.5687 -4.4578
# 6 -38.1530 -9.4743 -13.5697 0.2608 -4.4578 39.2052
#
#
#
# Elastic Compliance Matrix: (Units=1/GPa)
#
#
# Indices 1 2 3 4 5 6 
#
# 1 0.009858 -0.000179 -0.000640 0.001008 -0.004657 0.008793
# 2 -0.000179 0.036990 0.014426 0.015105 0.006613 0.014410
# 3 -0.000640 0.014426 0.022445 0.012740 0.006030 0.011233
# 4 0.001008 0.015105 0.012740 0.034744 0.005939 0.009485
# 5 -0.004657 0.006613 0.006030 0.005939 0.045747 0.004316
# 6 0.008793 0.014410 0.011233 0.009485 0.004316 0.041861
#
#
# Mechanical properties :
#
#
# Convention : Reuss Voigt Hill
#
# Bulk Modulus (GPa) = 10.36175 30.84255 20.60215
# Shear Modulus (GPa) = 25.43216 37.07251 31.25234
#
# Velocity S-wave (km/s) = 3.19324 3.85537 3.53982
# Velocity P-wave (km/s) = 4.21310 5.67314 4.99674
#
# Compressibility (1/GPa) = 0.09650881
#
# Stress axis : x y z
#
# Youngs Moduli (GPa) = 101.43701 27.03407 44.55256
#
# Poissons Ratio (x) = 0.00483 0.02853
# Poissons Ratio (y) = 0.01811 -0.64272
# Poissons Ratio (z) = 0.06495 -0.39000
#
# Static dielectric constant tensor:
#      x y z
#    x 1.975750 -0.002710 -0.014880 
#    y -0.002710 2.052160 -0.020230 
#    z -0.014880 -0.020230 1.998960 
# 
# From -- ./inp_files/327601.got.cif
#   From: 2010.05.17/outbox.cif.g08.bks.cpg/sg2_164_cif.got.tgz:327601.got - 2010.06.03 11:33:40.
