data_PCOD9088034
_publ_section_title
;
Structure prediction by ZEFSAII (Michael W. Deem and Ramdas Pophale) SiO2 
 PCOD9088034
Probable space group: P -1
;
_chemical_formula_sum "Si O2"
_cell_formula_units_Z 14
_cell_length_a 11.608785
_cell_length_b 6.483455
_cell_length_c 9.676355
_cell_angle_alpha 105.335708
_cell_angle_beta 74.313672
_cell_angle_gamma 122.863177
_cell_volume 582.680298
_symmetry_space_group_name_H-M "P -1"
_symmetry_group_IT_number 2
_symmetry_cell_setting 'triclinic'
loop_
_space_group_symop_operation_xyz
x,y,z
-x,-y,-z
loop_
_atom_site_type_symbol
_atom_site_label
_atom_site_fract_x
_atom_site_fract_y
_atom_site_fract_z
Si Si1 0.891829 0.223509 0.043777
Si Si2 0.147902 0.340966 0.648560
Si Si3 0.549034 0.670566 0.731783
Si Si4 0.847859 0.967843 0.638185
Si Si5 0.589003 0.287891 0.497614
Si Si6 0.284109 0.575709 0.930030
Si Si7 0.903218 0.760674 0.829495
O O1 0.745076 0.205145 0.066117
O O2 0.952635 0.220803 0.173537
O O3 0.000000 0.500000 0.000000
O O4 0.900534 0.005197 0.926471
O O5 0.171177 0.132644 0.529280
O O6 0.250550 0.592004 0.577467
O O7 0.198504 0.380065 0.797904
O O8 0.983966 0.233383 0.663780
O O9 0.700612 0.915526 0.731136
O O10 0.573718 0.440515 0.656432
O O11 0.475533 0.673132 0.614409
O O12 0.441761 0.640964 0.878990
O O13 0.879392 0.777475 0.680114
O O14 0.500000 0.000000 0.500000
O O15 0.214926 0.459674 0.078831
#
# Coordination Sequence:
#
# PCOD9088034 Si02
#       7
#     2   2   2   2   2   2   2
#     4   9  18  34  55  80 109 147 197 238 273 335
#     4   9  19  35  58  84 114 149 190 236 285 334
#     4   9  20  36  56  84 123 151 184 244 294 338
#     4  10  19  37  58  86 123 152 182 240 304 340
#     4   9  18  37  59  82 114 159 201 231 276 349
#     4  10  20  37  59  84 111 154 199 233 280 346
#     4  10  20  35  59  82 111 153 194 237 284 342
#
# _framework density 24.026900000000001
#
# number of rings (size 3 to 8) (size 9 to 14) (size 15 to 20)
#    0.000    2.571    0.000    3.429    0.000    2.857 
#    0.000   19.286    0.000    0.000    0.000    0.000 
#    0.000    0.000    0.000    0.000    0.000    0.000 
#
# Total GULP energy -78089.810400 kJ/mol
# GULP energy per Si atom -5577.843600 kJ/mol
# Density = 2.397221 g / cm^3
# Si number density = 24.026900 Si / 1000 Ang^3
#
#
#
# Elastic Constant Matrix: (Units=GPa)
#
#
# Indices 1 2 3 4 5 6 
#
# 1 105.8637 47.9896 23.0450 -3.1540 -30.0327 29.7356
# 2 47.9896 104.1437 12.3679 -4.6728 -21.9485 18.6335
# 3 23.0450 12.3679 58.9426 -6.3941 -3.9688 1.7297
# 4 -3.1540 -4.6728 -6.3941 26.9104 11.3506 -4.6803
# 5 -30.0327 -21.9485 -3.9688 11.3506 40.0125 -9.7872
# 6 29.7356 18.6335 1.7297 -4.6803 -9.7872 49.1717
#
#
#
# Elastic Compliance Matrix: (Units=1/GPa)
#
#
# Indices 1 2 3 4 5 6 
#
# 1 0.017188 -0.004139 -0.005567 -0.005437 0.009864 -0.007184
# 2 -0.004139 0.012590 -0.000769 -0.000186 0.003388 -0.001584
# 3 -0.005567 -0.000769 0.019616 0.005899 -0.003642 0.002804
# 4 -0.005437 -0.000186 0.005899 0.045120 -0.015322 0.004396
# 5 0.009864 0.003388 -0.003642 -0.015322 0.037991 -0.001018
# 6 -0.007184 -0.001584 0.002804 0.004396 -0.001018 0.025399
#
#
# Mechanical properties :
#
#
# Convention : Reuss Voigt Hill
#
# Bulk Modulus (GPa) = 35.15577 48.41722 41.78649
# Shear Modulus (GPa) = 26.54850 35.58876 31.06863
#
# Velocity S-wave (km/s) = 3.32768 3.85282 3.59984
# Velocity P-wave (km/s) = 5.42478 6.32355 5.89133
#
# Compressibility (1/GPa) = 0.02844483
#
# Stress axis : x y z
#
# Youngs Moduli (GPa) = 58.17866 79.42831 50.97935
#
# Poissons Ratio (x) = 0.32876 0.28378
# Poissons Ratio (y) = 0.24081 0.03921
# Poissons Ratio (z) = 0.32385 0.06108
#
# Static dielectric constant tensor:
#      x y z
#    x 2.007130 0.044660 -0.018580 
#    y 0.044660 1.956220 0.018270 
#    z -0.018580 0.018270 2.012710 
# 
# From -- ./inp_files/410773.got.cif
#   From: 2010.05.17/outbox.cif.g08.bks.cpg/sg2_206_cif.got.tgz:410773.got - 2010.06.03 11:33:40.
