data_PCOD9088296
_publ_section_title
;
Structure prediction by ZEFSAII (Michael W. Deem and Ramdas Pophale) SiO2 
 PCOD9088296
Probable space group: P -1
;
_chemical_formula_sum "Si O2"
_cell_formula_units_Z 16
_cell_length_a 11.345827
_cell_length_b 10.956684
_cell_length_c 13.060424
_cell_angle_alpha 80.112402
_cell_angle_beta 55.575158
_cell_angle_gamma 125.805604
_cell_volume 717.076961
_symmetry_space_group_name_H-M "P -1"
_symmetry_group_IT_number 2
_symmetry_cell_setting 'triclinic'
loop_
_space_group_symop_operation_xyz
x,y,z
-x,-y,-z
loop_
_atom_site_type_symbol
_atom_site_label
_atom_site_fract_x
_atom_site_fract_y
_atom_site_fract_z
Si Si1 0.416530 0.495360 0.767196
Si Si2 0.435282 0.839069 0.913954
Si Si3 0.473310 0.672492 0.386522
Si Si4 0.908160 0.066381 0.987681
Si Si5 0.740727 0.241398 0.206720
Si Si6 0.677147 0.892347 0.473610
Si Si7 0.130385 0.359417 0.115874
Si Si8 0.888672 0.198492 0.788089
O O1 0.513209 0.446710 0.665487
O O2 0.617585 0.750655 0.612268
O O3 0.139152 0.326708 0.871725
O O4 0.322052 0.417556 0.941491
O O5 0.290902 0.600110 0.030084
O O6 0.269469 0.818346 0.062795
O O7 0.434135 0.884577 0.791287
O O8 0.723295 0.047390 0.790727
O O9 0.627236 0.788900 0.402816
O O10 0.168286 0.463430 0.589771
O O11 0.625397 0.876394 0.206314
O O12 0.903571 0.084877 0.866771
O O13 0.000000 0.000000 0.000000
O O14 0.559647 0.180989 0.385949
O O15 0.872846 0.219852 0.198404
O O16 0.000000 0.500000 0.000000
O O17 0.969684 0.159926 0.303201
#
# Coordination Sequence:
#
# PCOD9088296 Si02
#       8
#     2   2   2   2   2   2   2   2
#     4  11  21  37  60  95 127 152 207 274 310 358
#     4  10  23  44  62  89 131 174 200 260 317 372
#     4  11  23  36  65  96 120 161 213 255 321 369
#     4  10  22  38  63  95 126 155 209 266 305 363
#     4  10  19  37  60  87 124 156 208 259 306 366
#     4  12  21  34  64  93 121 162 201 264 319 363
#     4  11  22  38  61  92 127 162 212 260 316 370
#     4  11  23  44  65  88 132 167 208 256 319 379
#
# _framework density 22.312805999999998
#
# number of rings (size 3 to 8) (size 9 to 14) (size 15 to 20)
#    0.000    1.250    5.000    3.000    1.750    0.000 
#    2.250    1.875    0.000    3.750    0.000    0.000 
#    0.000    0.000    0.000    0.000    0.000    0.000 
#
# Total GULP energy -89224.624127 kJ/mol
# GULP energy per Si atom -5576.539008 kJ/mol
# Density = 2.226202 g / cm^3
# Si number density = 22.312806 Si / 1000 Ang^3
#
#
#
# Elastic Constant Matrix: (Units=GPa)
#
#
# Indices 1 2 3 4 5 6 
#
# 1 29.7608 15.9720 9.8420 -3.5652 4.7694 4.2419
# 2 15.9720 78.7696 12.5079 -0.9943 -2.1662 -2.8712
# 3 9.8420 12.5079 117.9714 -10.4269 10.2724 -4.2646
# 4 -3.5652 -0.9943 -10.4269 43.2758 -12.1702 -6.6790
# 5 4.7694 -2.1662 10.2724 -12.1702 21.4508 2.9531
# 6 4.2419 -2.8712 -4.2646 -6.6790 2.9531 37.3570
#
#
#
# Elastic Compliance Matrix: (Units=1/GPa)
#
#
# Indices 1 2 3 4 5 6 
#
# 1 0.040764 -0.008370 -0.001988 -0.000475 -0.008550 -0.004908
# 2 -0.008370 0.014752 -0.001085 0.000812 0.004086 0.001783
# 3 -0.001988 -0.001085 0.009247 0.001292 -0.003599 0.001713
# 4 -0.000475 0.000812 0.001292 0.028264 0.015037 0.004128
# 5 -0.008550 0.004086 -0.003599 0.015037 0.059342 -0.001129
# 6 -0.004908 0.001783 0.001713 0.004128 -0.001129 0.028486
#
#
# Mechanical properties :
#
#
# Convention : Reuss Voigt Hill
#
# Bulk Modulus (GPa) = 23.88007 33.68284 28.78146
# Shear Modulus (GPa) = 22.96731 32.96206 27.96469
#
# Velocity S-wave (km/s) = 3.21180 3.84770 3.54404
# Velocity P-wave (km/s) = 4.94771 5.90493 5.44739
#
# Compressibility (1/GPa) = 0.04187592
#
# Stress axis : x y z
#
# Youngs Moduli (GPa) = 24.53167 67.78584 108.14256
#
# Poissons Ratio (x) = 0.56736 0.21501
# Poissons Ratio (y) = 0.20533 0.11738
# Poissons Ratio (z) = 0.04877 0.07358
#
# Static dielectric constant tensor:
#      x y z
#    x 1.895920 -0.052300 0.014340 
#    y -0.052300 1.877090 0.016700 
#    z 0.014340 0.016700 1.878700 
# 
# From -- ./inp_files/428115.got.cif
#   From: 2010.05.17/outbox.cif.g08.bks.cpg/sg2_215_cif.got.tgz:428115.got - 2010.06.03 11:33:40.
