data_PCOD9088318
_publ_section_title
;
Structure prediction by ZEFSAII (Michael W. Deem and Ramdas Pophale) SiO2 
 PCOD9088318
Probable space group: P -1
;
_chemical_formula_sum "Si O2"
_cell_formula_units_Z 14
_cell_length_a 16.505403
_cell_length_b 9.831855
_cell_length_c 10.514194
_cell_angle_alpha 152.626119
_cell_angle_beta 129.964789
_cell_angle_gamma 52.315719
_cell_volume 597.217324
_symmetry_space_group_name_H-M "P -1"
_symmetry_group_IT_number 2
_symmetry_cell_setting 'triclinic'
loop_
_space_group_symop_operation_xyz
x,y,z
-x,-y,-z
loop_
_atom_site_type_symbol
_atom_site_label
_atom_site_fract_x
_atom_site_fract_y
_atom_site_fract_z
Si Si1 0.331969 0.895902 0.177223
Si Si2 0.354898 0.255888 0.755489
Si Si3 0.153015 0.335524 0.805768
Si Si4 0.753553 0.506458 0.460316
Si Si5 0.025481 0.317153 0.247098
Si Si6 0.207146 0.712501 0.401359
Si Si7 0.552928 0.167676 0.302888
O O1 0.317631 0.051625 0.433592
O O2 0.342423 0.222266 0.392642
O O3 0.393327 0.571540 0.013760
O O4 0.265125 0.738331 0.869069
O O5 0.250760 0.349638 0.816647
O O6 0.445230 0.044139 0.746538
O O7 0.052386 0.544284 0.825921
O O8 0.128085 0.997780 0.515182
O O9 0.187935 0.441077 0.066310
O O10 0.852774 0.676031 0.659869
O O11 0.788446 0.356584 0.503785
O O12 0.000000 0.500000 0.500000
O O13 0.000000 0.000000 0.000000
O O14 0.322501 0.808407 0.566665
O O15 0.500000 0.500000 0.500000
O O16 0.500000 0.000000 0.000000
#
# Coordination Sequence:
#
# PCOD9088318 Si02
#       7
#     2   2   2   2   2   2   2
#     4  10  20  36  61  85 115 159 199 236 287 348
#     4  10  19  37  60  89 119 151 196 244 299 349
#     4  11  22  37  59  87 123 159 196 243 293 349
#     4  11  23  39  61  87 122 164 198 240 291 347
#     4  12  24  38  59  90 120 155 208 251 281 330
#     4  11  24  41  61  88 122 160 194 234 308 366
#     4  11  22  38  64  92 116 147 194 252 296 350
#
# _framework density 23.442052
#
# number of rings (size 3 to 8) (size 9 to 14) (size 15 to 20)
#    0.000    1.143    0.000    9.429    0.000    2.286 
#    0.000    0.000    0.000   17.143    0.000    0.000 
#    0.000    0.000    0.000    0.000    0.000    0.000 
#
# Total GULP energy -77980.204453 kJ/mol
# GULP energy per Si atom -5570.014604 kJ/mol
# Density = 2.338870 g / cm^3
# Si number density = 23.442052 Si / 1000 Ang^3
#
#
#
# Elastic Constant Matrix: (Units=GPa)
#
#
# Indices 1 2 3 4 5 6 
#
# 1 -11.1052 -12.1811 -20.1047 5.1515 -23.2169 -21.3494
# 2 -12.1811 163.3760 28.8682 11.2936 -23.0813 -13.6620
# 3 -20.1047 28.8682 159.1138 15.3445 -30.8165 -13.6107
# 4 5.1515 11.2936 15.3445 58.2411 5.5657 4.9413
# 5 -23.2169 -23.0813 -30.8165 5.5657 11.3931 -6.0711
# 6 -21.3494 -13.6620 -13.6107 4.9413 -6.0711 17.8032
#
#
#
# Elastic Compliance Matrix: (Units=1/GPa)
#
#
# Indices 1 2 3 4 5 6 
#
# 1 0.003309 -0.003783 -0.005345 0.005332 -0.024908 -0.012995
# 2 -0.003783 0.006144 -0.001522 -0.000439 0.000458 -0.000708
# 3 -0.005345 -0.001522 0.005840 -0.000603 0.000665 -0.002719
# 4 0.005332 -0.000439 -0.000603 0.016763 0.000803 0.001217
# 5 -0.024908 0.000458 0.000665 0.000803 0.029049 -0.019327
# 6 -0.012995 -0.000708 -0.002719 0.001217 -0.019327 0.031036
#
#
# Mechanical properties :
#
#
# Convention : Reuss Voigt Hill
#
# Bulk Modulus (GPa) = -166.43291 33.83883 -66.29704
# Shear Modulus (GPa) = 44.86790 38.47430 41.67110
#
# Velocity S-wave (km/s) = 4.37967 4.05563 4.22076
# Velocity P-wave (km/s) = 6.75103 6.03302 2.14233
#
# Compressibility (1/GPa) = -0.00600843
#
# Stress axis : x y z
#
# Youngs Moduli (GPa) = 302.17921 162.77117 171.23422
#
# Poissons Ratio (x) = 0.61576 0.91533
# Poissons Ratio (y) = 1.14314 0.26065
# Poissons Ratio (z) = 1.61529 0.24777
#
# Static dielectric constant tensor:
#      x y z
#    x 7.701190 -3.260980 -0.603300 
#    y -3.260980 3.867120 0.402270 
#    z -0.603300 0.402270 1.875220 
# 
# From -- ./inp_files/329753.got.cif
#   From: 2010.05.17/outbox.cif.g08.bks.cpg/sg2_165_cif.got.tgz:329753.got - 2010.06.03 11:33:40.
