data_PCOD9088982
_publ_section_title
;
Structure prediction by ZEFSAII (Michael W. Deem and Ramdas Pophale) SiO2 
 PCOD9088982
Probable space group: P -1
;
_chemical_formula_sum "Si O2"
_cell_formula_units_Z 16
_cell_length_a 8.772515
_cell_length_b 13.745446
_cell_length_c 8.815243
_cell_angle_alpha 127.817752
_cell_angle_beta 117.475536
_cell_angle_gamma 55.899941
_cell_volume 683.992104
_symmetry_space_group_name_H-M "P -1"
_symmetry_group_IT_number 2
_symmetry_cell_setting 'triclinic'
loop_
_space_group_symop_operation_xyz
x,y,z
-x,-y,-z
loop_
_atom_site_type_symbol
_atom_site_label
_atom_site_fract_x
_atom_site_fract_y
_atom_site_fract_z
Si Si1 0.366760 0.003765 0.801585
Si Si2 0.408311 0.900040 0.239022
Si Si3 0.143255 0.209569 0.484571
Si Si4 0.382215 0.548930 0.146047
Si Si5 0.885283 0.160067 0.117473
Si Si6 0.546852 0.740156 0.465165
Si Si7 0.986438 0.768827 0.063559
Si Si8 0.817615 0.634030 0.047607
O O1 0.426748 0.851659 0.634007
O O2 0.438266 0.070732 0.760909
O O3 0.143863 0.079012 0.799098
O O4 0.500000 0.000000 0.000000
O O5 0.470511 0.805319 0.324396
O O6 0.268905 0.048319 0.374945
O O7 0.316308 0.832268 0.012960
O O8 0.240699 0.272501 0.465402
O O9 0.151970 0.283217 0.715041
O O10 0.940354 0.217519 0.348649
O O11 0.510722 0.608033 0.352199
O O12 0.180909 0.675877 0.146756
O O13 0.500000 0.500000 0.000000
O O14 0.341333 0.423373 0.065368
O O15 0.956047 0.225207 0.075218
O O16 0.000000 0.000000 0.000000
O O17 0.833952 0.706708 0.970491
O O18 0.000000 0.500000 0.000000
#
# Coordination Sequence:
#
# PCOD9088982 Si02
#       8
#     2   2   2   2   2   2   2   2
#     4  11  23  39  64  99 137 158 193 275 346 377
#     4  10  20  38  62  94 119 171 210 250 319 406
#     4  10  19  37  64  90 131 164 208 262 324 383
#     4  11  23  41  66  92 122 173 231 265 289 374
#     4  10  21  39  62  96 132 163 206 255 329 398
#     4  11  20  38  68  90 121 171 218 252 318 386
#     4  11  22  41  65  96 131 164 205 276 321 370
#     4  10  22  40  60  93 124 167 222 271 305 356
#
# _framework density 23.392083
#
# number of rings (size 3 to 8) (size 9 to 14) (size 15 to 20)
#    0.000    1.500    2.500    5.250    0.000    0.500 
#   13.500    2.500    0.000    3.000    0.000    0.000 
#    0.000    0.000    0.000    0.000    0.000    0.000 
#
# Total GULP energy -89210.973422 kJ/mol
# GULP energy per Si atom -5575.685839 kJ/mol
# Density = 2.333884 g / cm^3
# Si number density = 23.392083 Si / 1000 Ang^3
#
#
#
# Elastic Constant Matrix: (Units=GPa)
#
#
# Indices 1 2 3 4 5 6 
#
# 1 82.9165 14.4541 25.1896 23.2258 10.0838 5.3868
# 2 14.4541 41.5110 28.7032 8.2211 2.4514 4.2577
# 3 25.1896 28.7032 124.7582 26.3368 25.3857 -4.4610
# 4 23.2258 8.2211 26.3368 23.5308 0.3013 1.1806
# 5 10.0838 2.4514 25.3857 0.3013 44.0462 16.6639
# 6 5.3868 4.2577 -4.4610 1.1806 16.6639 53.0355
#
#
#
# Elastic Compliance Matrix: (Units=1/GPa)
#
#
# Indices 1 2 3 4 5 6 
#
# 1 0.017955 -0.003935 0.002454 -0.019066 -0.005497 0.000850
# 2 -0.003935 0.030702 -0.008045 0.002319 0.005527 -0.004530
# 3 0.002454 -0.008045 0.015373 -0.016954 -0.010941 0.005505
# 4 -0.019066 0.002319 -0.016954 0.079601 0.015900 -0.006444
# 5 -0.005497 0.005527 -0.010941 0.015900 0.034376 -0.011961
# 6 0.000850 -0.004530 0.005505 -0.006444 -0.011961 0.023497
#
#
# Mechanical properties :
#
#
# Convention : Reuss Voigt Hill
#
# Bulk Modulus (GPa) = 22.23358 42.87551 32.55454
# Shear Modulus (GPa) = 21.22691 36.17843 28.70267
#
# Velocity S-wave (km/s) = 3.01564 3.93696 3.50669
# Velocity P-wave (km/s) = 4.65305 6.24781 5.50845
#
# Compressibility (1/GPa) = 0.04497701
#
# Stress axis : x y z
#
# Youngs Moduli (GPa) = 55.69567 32.57092 65.04898
#
# Poissons Ratio (x) = 0.12818 -0.15964
# Poissons Ratio (y) = 0.21918 0.52333
# Poissons Ratio (z) = -0.13668 0.26204
#
# Static dielectric constant tensor:
#      x y z
#    x 1.959540 -0.036490 0.019530 
#    y -0.036490 2.002800 0.058150 
#    z 0.019530 0.058150 1.956400 
# 
# From -- ./inp_files/209087.got.cif
#   From: 2010.05.17/outbox.cif.g08.bks.cpg/sg2_105_cif.got.tgz:209087.got - 2010.06.03 11:33:40.
