data_PCOD9088783
_publ_section_title
;
Structure prediction by ZEFSAII (Michael W. Deem and Ramdas Pophale) SiO2 
 PCOD9088783
Probable space group: P -1
;
_chemical_formula_sum "Si O2"
_cell_formula_units_Z 14
_cell_length_a 8.901847
_cell_length_b 11.122198
_cell_length_c 10.991927
_cell_angle_alpha 97.720456
_cell_angle_beta 99.419795
_cell_angle_gamma 135.346082
_cell_volume 703.480085
_symmetry_space_group_name_H-M "P -1"
_symmetry_group_IT_number 2
_symmetry_cell_setting 'triclinic'
loop_
_space_group_symop_operation_xyz
x,y,z
-x,-y,-z
loop_
_atom_site_type_symbol
_atom_site_label
_atom_site_fract_x
_atom_site_fract_y
_atom_site_fract_z
Si Si1 0.376773 0.487237 0.868575
Si Si2 0.595428 0.260699 0.976587
Si Si3 0.143525 0.790690 0.282275
Si Si4 0.584481 0.406906 0.740675
Si Si5 0.202562 0.021520 0.533485
Si Si6 0.960469 0.416025 0.224042
Si Si7 0.368487 0.947864 0.751701
O O1 0.457787 0.456833 0.760892
O O2 0.100750 0.318515 0.825600
O O3 0.500000 0.500000 0.000000
O O4 0.456148 0.673916 0.914368
O O5 0.602305 0.339452 0.860764
O O6 0.413517 0.047242 0.896812
O O7 0.838286 0.353746 0.067303
O O8 0.080200 0.616518 0.296203
O O9 0.189250 0.918916 0.407782
O O10 0.375958 0.918762 0.251858
O O11 0.434227 0.239340 0.604287
O O12 0.843485 0.568694 0.751545
O O13 0.219710 0.945996 0.644446
O O14 0.000000 0.000000 0.500000
O O15 0.765474 0.255575 0.268621
#
# Coordination Sequence:
#
# PCOD9088783 Si02
#       7
#     2   2   2   2   2   2   2
#     4   9  19  33  63  88 116 160 197 237 301 354
#     4   9  19  37  59  88 122 156 195 242 298 357
#     4  11  22  40  65  85 122 161 198 249 298 353
#     4  10  19  37  63  87 120 160 198 246 300 351
#     4  11  22  42  63  85 120 161 204 247 299 354
#     4  11  22  38  63  91 125 152 199 251 300 356
#     4  11  24  39  62  93 120 158 203 246 299 357
#
# _framework density 19.901062
#
# number of rings (size 3 to 8) (size 9 to 14) (size 15 to 20)
#    0.000    1.714    4.286    1.286    4.000    0.571 
#    0.000    4.286    0.000    0.000    0.000    0.000 
#    0.000    0.000    0.000    0.000    0.000    0.000 
#
# Total GULP energy -77978.281574 kJ/mol
# GULP energy per Si atom -5569.877255 kJ/mol
# Density = 1.985577 g / cm^3
# Si number density = 19.901062 Si / 1000 Ang^3
#
#
#
# Elastic Constant Matrix: (Units=GPa)
#
#
# Indices 1 2 3 4 5 6 
#
# 1 117.5540 60.5353 43.3828 14.1631 13.6022 9.7537
# 2 60.5353 98.5347 26.0870 17.0362 -8.2951 2.8723
# 3 43.3828 26.0870 91.5611 23.3804 1.2681 -2.3912
# 4 14.1631 17.0362 23.3804 18.7002 -6.7689 3.4423
# 5 13.6022 -8.2951 1.2681 -6.7689 39.6437 10.8925
# 6 9.7537 2.8723 -2.3912 3.4423 10.8925 14.0947
#
#
#
# Elastic Compliance Matrix: (Units=1/GPa)
#
#
# Indices 1 2 3 4 5 6 
#
# 1 0.016185 -0.009078 -0.006079 0.003367 -0.004577 -0.007666
# 2 -0.009078 0.017258 0.001987 -0.010193 0.004298 0.002270
# 3 -0.006079 0.001987 0.022641 -0.033791 -0.010613 0.024097
# 4 0.003367 -0.010193 -0.033791 0.128553 0.038105 -0.066829
# 5 -0.004577 0.004298 -0.010613 0.038105 0.046926 -0.045081
# 6 -0.007666 0.002270 0.024097 -0.066829 -0.045081 0.131039
#
#
# Mechanical properties :
#
#
# Convention : Reuss Voigt Hill
#
# Bulk Modulus (GPa) = 33.62072 63.07334 48.34703
# Shear Modulus (GPa) = 12.53585 26.33070 19.43328
#
# Velocity S-wave (km/s) = 2.51252 3.64136 3.12828
# Velocity P-wave (km/s) = 5.03464 7.03147 6.11511
#
# Compressibility (1/GPa) = 0.02974356
#
# Stress axis : x y z
#
# Youngs Moduli (GPa) = 61.78638 57.94536 44.16836
#
# Poissons Ratio (x) = 0.52601 0.26848
# Poissons Ratio (y) = 0.56088 -0.08775
# Poissons Ratio (z) = 0.37558 -0.11512
#
# Static dielectric constant tensor:
#      x y z
#    x 1.770090 -0.014360 0.000030 
#    y -0.014360 1.699720 0.002560 
#    z 0.000030 0.002560 1.727820 
# 
# From -- ./inp_files/167917.got.cif
#   From: 2010.05.17/outbox.cif.g08.bks.cpg/sg2_84_cif.got.tgz:167917.got - 2010.06.03 11:33:40.
