data_PCOD9088609
_publ_section_title
;
Structure prediction by ZEFSAII (Michael W. Deem and Ramdas Pophale) SiO2 
 PCOD9088609
Probable space group: P -1
;
_chemical_formula_sum "Si O2"
_cell_formula_units_Z 16
_cell_length_a 19.540397
_cell_length_b 17.356299
_cell_length_c 6.196744
_cell_angle_alpha 112.564305
_cell_angle_beta 110.939924
_cell_angle_gamma 21.436926
_cell_volume 709.294941
_symmetry_space_group_name_H-M "P -1"
_symmetry_group_IT_number 2
_symmetry_cell_setting 'triclinic'
loop_
_space_group_symop_operation_xyz
x,y,z
-x,-y,-z
loop_
_atom_site_type_symbol
_atom_site_label
_atom_site_fract_x
_atom_site_fract_y
_atom_site_fract_z
Si Si1 0.206007 0.825336 0.151287
Si Si2 0.280550 0.048309 0.449222
Si Si3 0.035394 0.396493 0.238686
Si Si4 0.661796 0.569509 0.256777
Si Si5 0.597293 0.469485 0.317879
Si Si6 0.966118 0.831837 0.508532
Si Si7 0.287588 0.201377 0.928878
Si Si8 0.154634 0.714745 0.219016
O O1 0.390385 0.652225 0.317551
O O2 0.112353 0.840869 0.162956
O O3 0.079862 0.038705 0.260957
O O4 0.287619 0.718921 0.893129
O O5 0.133642 0.215405 0.267755
O O6 0.196699 0.063598 0.522216
O O7 0.286197 0.125545 0.680851
O O8 0.486878 0.813994 0.339362
O O9 0.000000 0.500000 0.500000
O O10 0.838975 0.593408 0.102984
O O11 0.179253 0.286059 0.112270
O O12 0.581053 0.565248 0.241695
O O13 0.834811 0.411371 0.440045
O O14 0.745442 0.460095 0.000647
O O15 0.706463 0.392927 0.559409
O O16 0.991154 0.841660 0.306962
O O17 0.500000 0.000000 0.000000
#
# Coordination Sequence:
#
# PCOD9088609 Si02
#       8
#     2   2   2   2   2   2   2   2
#     4  10  19  37  62  87 122 173 224 280 321 373
#     4  11  24  44  67  93 139 177 204 264 331 388
#     4   9  22  43  69 103 131 164 209 250 319 390
#     4  10  23  41  58  90 130 171 217 269 324 381
#     4   9  19  37  61  88 119 167 228 275 325 377
#     4  11  24  40  60  90 131 171 220 270 326 384
#     4  10  23  45  75 104 129 164 214 262 311 395
#     4  10  22  38  60  91 122 172 231 273 317 377
#
# _framework density 22.557608999999999
#
# number of rings (size 3 to 8) (size 9 to 14) (size 15 to 20)
#    0.000    2.000    1.250    0.750    0.000   14.500 
#    2.250    0.000    0.000    0.000    0.000    0.000 
#    0.000    0.000    0.000    0.000    0.000    0.000 
#
# Total GULP energy -89432.523960 kJ/mol
# GULP energy per Si atom -5589.532748 kJ/mol
# Density = 2.250627 g / cm^3
# Si number density = 22.557609 Si / 1000 Ang^3
#
#
#
# Elastic Constant Matrix: (Units=GPa)
#
#
# Indices 1 2 3 4 5 6 
#
# 1 52.5915 27.3568 17.4788 -7.1724 -3.2678 -10.0866
# 2 27.3568 132.0059 16.4075 5.6184 1.9302 -11.9498
# 3 17.4788 16.4075 55.6819 7.8009 6.0368 -2.0128
# 4 -7.1724 5.6184 7.8009 30.0179 -2.7752 8.1943
# 5 -3.2678 1.9302 6.0368 -2.7752 17.6137 -0.1118
# 6 -10.0866 -11.9498 -2.0128 8.1943 -0.1118 28.0952
#
#
#
# Elastic Compliance Matrix: (Units=1/GPa)
#
#
# Indices 1 2 3 4 5 6 
#
# 1 0.027429 -0.004662 -0.009564 0.009675 0.010430 0.004399
# 2 -0.004662 0.009073 -0.000299 -0.003845 -0.002342 0.003276
# 3 -0.009564 -0.000299 0.023672 -0.009682 -0.011374 0.000914
# 4 0.009675 -0.003845 -0.009682 0.043100 0.012253 -0.011377
# 5 0.010430 -0.002342 -0.011374 0.012253 0.064786 -0.001383
# 6 0.004399 0.003276 0.000914 -0.011377 -0.001383 0.041944
#
#
# Mechanical properties :
#
#
# Convention : Reuss Voigt Hill
#
# Bulk Modulus (GPa) = 32.12839 40.30727 36.21783
# Shear Modulus (GPa) = 20.04584 27.08111 23.56348
#
# Velocity S-wave (km/s) = 2.98426 3.46863 3.23552
# Velocity P-wave (km/s) = 5.11353 5.82660 5.48167
#
# Compressibility (1/GPa) = 0.03112512
#
# Stress axis : x y z
#
# Youngs Moduli (GPa) = 36.45760 110.21494 42.24399
#
# Poissons Ratio (x) = 0.51379 0.40401
# Poissons Ratio (y) = 0.16996 0.01264
# Poissons Ratio (z) = 0.34867 0.03298
#
# Static dielectric constant tensor:
#      x y z
#    x 1.836780 0.030570 -0.035410 
#    y 0.030570 1.878780 -0.037160 
#    z -0.035410 -0.037160 1.844990 
# 
# From -- ./inp_files/120132.got.cif
#   From: 2010.05.17/outbox.cif.g08.bks.cpg/sg2_61_cif.got.tgz:120132.got - 2010.06.03 11:33:40.
