data_PCOD9088895
_publ_section_title
;
Structure prediction by ZEFSAII (Michael W. Deem and Ramdas Pophale) SiO2 
 PCOD9088895
Probable space group: P -1
;
_chemical_formula_sum "Si O2"
_cell_formula_units_Z 16
_cell_length_a 7.697472
_cell_length_b 9.421231
_cell_length_c 15.467049
_cell_angle_alpha 47.031821
_cell_angle_beta 107.314156
_cell_angle_gamma 111.766992
_cell_volume 760.576090
_symmetry_space_group_name_H-M "P -1"
_symmetry_group_IT_number 2
_symmetry_cell_setting 'triclinic'
loop_
_space_group_symop_operation_xyz
x,y,z
-x,-y,-z
loop_
_atom_site_type_symbol
_atom_site_label
_atom_site_fract_x
_atom_site_fract_y
_atom_site_fract_z
Si Si1 0.937319 0.694100 0.881507
Si Si2 0.224601 0.018873 0.508671
Si Si3 0.944528 0.036427 0.876383
Si Si4 0.589978 0.312469 0.388964
Si Si5 0.115026 0.359754 0.623436
Si Si6 0.482438 0.157996 0.102861
Si Si7 0.218356 0.993163 0.709297
Si Si8 0.498082 0.547865 0.860162
O O1 0.719896 0.636119 0.852845
O O2 0.982965 0.855770 0.898347
O O3 0.049092 0.798813 0.772356
O O4 0.000000 0.500000 0.000000
O O5 0.370031 0.218547 0.413391
O O6 0.304514 0.002068 0.624035
O O7 0.282314 0.850728 0.526704
O O8 0.000000 0.000000 0.500000
O O9 0.032450 0.241420 0.750095
O O10 0.718737 0.991338 0.854776
O O11 0.000000 0.000000 0.000000
O O12 0.684374 0.492328 0.389957
O O13 0.604988 0.399155 0.259373
O O14 0.138583 0.184227 0.636263
O O15 0.000000 0.500000 0.500000
O O16 0.551964 0.329269 0.116297
O O17 0.636799 0.031989 0.184026
O O18 0.463790 0.308866 0.961171
#
# Coordination Sequence:
#
# PCOD9088895 Si02
#       8
#     2   2   2   2   2   2   2   2
#     4  10  20  37  63  93 127 165 211 270 324 387
#     4  11  24  42  68  95 125 168 224 276 323 385
#     4  10  23  42  64  92 130 170 215 265 328 389
#     4  11  24  43  67  95 132 169 220 275 328 387
#     4  11  26  45  65  92 134 177 217 266 332 397
#     4  10  20  36  65  91 125 166 206 266 323 388
#     4  11  22  41  63  92 129 169 216 257 328 397
#     4  10  19  37  63  95 124 162 211 267 331 380
#
# _framework density 21.036684999999999
#
# number of rings (size 3 to 8) (size 9 to 14) (size 15 to 20)
#    0.000    1.500    2.500    2.250    1.750    3.500 
#    4.500    1.875    0.000    0.000    0.000    0.000 
#    0.000    0.000    0.000    0.000    0.000    0.000 
#
# Total GULP energy -89147.820914 kJ/mol
# GULP energy per Si atom -5571.738807 kJ/mol
# Density = 2.098880 g / cm^3
# Si number density = 21.036685 Si / 1000 Ang^3
#
#
#
# Elastic Constant Matrix: (Units=GPa)
#
#
# Indices 1 2 3 4 5 6 
#
# 1 94.3575 11.8374 19.2401 -16.6265 4.0352 11.4837
# 2 11.8374 41.3645 27.8867 -10.5286 -1.9689 12.5420
# 3 19.2401 27.8867 105.8898 -21.2612 2.0484 0.7914
# 4 -16.6265 -10.5286 -21.2612 29.2953 -2.1612 -4.3745
# 5 4.0352 -1.9689 2.0484 -2.1612 38.3477 -1.9659
# 6 11.4837 12.5420 0.7914 -4.3745 -1.9659 24.0214
#
#
#
# Elastic Compliance Matrix: (Units=1/GPa)
#
#
# Indices 1 2 3 4 5 6 
#
# 1 0.012442 0.000051 -0.001125 0.005421 -0.001200 -0.005049
# 2 0.000051 0.036640 -0.008686 0.004337 0.001664 -0.017943
# 3 -0.001125 -0.008686 0.013243 0.006695 -0.000359 0.005826
# 4 0.005421 0.004337 0.006695 0.044242 0.001949 0.003140
# 5 -0.001200 0.001664 -0.000359 0.001949 0.026533 0.002243
# 6 -0.005049 -0.017943 0.005826 0.003140 0.002243 0.053975
#
#
# Mechanical properties :
#
#
# Convention : Reuss Voigt Hill
#
# Bulk Modulus (GPa) = 23.36112 39.94893 31.65502
# Shear Modulus (GPa) = 22.63854 30.50939 26.57396
#
# Velocity S-wave (km/s) = 3.28402 3.81240 3.55804
# Velocity P-wave (km/s) = 5.05062 6.19763 5.65329
#
# Compressibility (1/GPa) = 0.04280617
#
# Stress axis : x y z
#
# Youngs Moduli (GPa) = 80.37361 27.29265 75.51000
#
# Poissons Ratio (x) = -0.00140 0.08493
# Poissons Ratio (y) = -0.00412 0.65588
# Poissons Ratio (z) = 0.09040 0.23706
#
# Static dielectric constant tensor:
#      x y z
#    x 1.799860 -0.007190 -0.021020 
#    y -0.007190 1.796760 0.009160 
#    z -0.021020 0.009160 1.830800 
# 
# From -- ./inp_files/494335.got.cif
#   From: 2010.05.17/outbox.cif.g08.bks.cpg/sg2_248_cif.got.tgz:494335.got - 2010.06.03 11:33:40.
