data_PCOD9088639
_publ_section_title
;
Structure prediction by ZEFSAII (Michael W. Deem and Ramdas Pophale) SiO2 
 PCOD9088639
Probable space group: P -1
;
_chemical_formula_sum "Si O2"
_cell_formula_units_Z 16
_cell_length_a 17.728606
_cell_length_b 9.227503
_cell_length_c 12.030198
_cell_angle_alpha 142.989966
_cell_angle_beta 37.289140
_cell_angle_gamma 140.251415
_cell_volume 667.853078
_symmetry_space_group_name_H-M "P -1"
_symmetry_group_IT_number 2
_symmetry_cell_setting 'triclinic'
loop_
_space_group_symop_operation_xyz
x,y,z
-x,-y,-z
loop_
_atom_site_type_symbol
_atom_site_label
_atom_site_fract_x
_atom_site_fract_y
_atom_site_fract_z
Si Si1 0.485455 0.386701 0.826060
Si Si2 0.796586 0.795634 0.021331
Si Si3 0.368276 0.081180 0.087258
Si Si4 0.355996 0.628455 0.660956
Si Si5 0.254213 0.804635 0.269547
Si Si6 0.664477 0.816694 0.408150
Si Si7 0.761415 0.519850 0.523198
Si Si8 0.028809 0.291792 0.417208
O O1 0.337929 0.187322 0.862462
O O2 0.505590 0.650206 0.894865
O O3 0.616269 0.319833 0.612189
O O4 0.500000 0.500000 0.000000
O O5 0.781293 0.886383 0.220497
O O6 0.779050 0.498449 0.880566
O O7 0.908427 0.867600 0.836621
O O8 0.253536 0.200882 0.278726
O O9 0.347770 0.945127 0.145530
O O10 0.361589 0.879155 0.876282
O O11 0.508859 0.699201 0.478650
O O12 0.327403 0.396020 0.641730
O O13 0.248055 0.547809 0.637960
O O14 0.117118 0.863140 0.457494
O O15 0.317674 0.928407 0.386721
O O16 0.876576 0.552262 0.496797
O O17 0.000000 0.500000 0.500000
#
# Coordination Sequence:
#
# PCOD9088639 Si02
#       8
#     2   2   2   2   2   2   2   2
#     4  10  19  37  62  89 121 162 193 252 319 354
#     4  11  20  39  63  89 128 161 200 257 306 363
#     4  10  21  37  61  92 126 161 198 255 308 360
#     4  11  21  36  60 101 125 155 203 253 319 363
#     4  11  23  39  60  93 123 170 208 243 300 370
#     4  11  21  34  62  94 131 159 197 256 308 371
#     4  10  21  41  63  89 124 157 204 255 308 357
#     4  10  24  44  66  84 122 174 211 247 302 368
#
# _framework density 23.957363999999998
#
# number of rings (size 3 to 8) (size 9 to 14) (size 15 to 20)
#    0.750    0.750    5.000    0.750    1.750    2.000 
#    0.000    8.750    0.000    0.000    0.000    0.000 
#    0.000    0.000    0.000    0.000    0.000    0.000 
#
# Total GULP energy -89232.692430 kJ/mol
# GULP energy per Si atom -5577.043277 kJ/mol
# Density = 2.390284 g / cm^3
# Si number density = 23.957364 Si / 1000 Ang^3
#
#
#
# Elastic Constant Matrix: (Units=GPa)
#
#
# Indices 1 2 3 4 5 6 
#
# 1 124.3849 20.1954 38.4452 -5.6742 17.5602 25.2085
# 2 20.1954 40.9149 35.7906 -7.7649 -3.0684 0.0601
# 3 38.4452 35.7906 147.1535 14.0988 31.4427 6.1768
# 4 -5.6742 -7.7649 14.0988 47.6516 2.8194 -3.1183
# 5 17.5602 -3.0684 31.4427 2.8194 34.0937 1.9120
# 6 25.2085 0.0601 6.1768 -3.1183 1.9120 31.7126
#
#
#
# Elastic Compliance Matrix: (Units=1/GPa)
#
#
# Indices 1 2 3 4 5 6 
#
# 1 0.011729 -0.006431 0.000221 0.000071 -0.006327 -0.008966
# 2 -0.006431 0.043321 -0.014193 0.009864 0.019058 0.007615
# 3 0.000221 -0.014193 0.013714 -0.005718 -0.013421 -0.002573
# 4 0.000071 0.009864 -0.005718 0.024269 0.003939 0.003188
# 5 -0.006327 0.019058 -0.013421 0.003939 0.046064 0.005217
# 6 -0.008966 0.007615 -0.002573 0.003188 0.005217 0.039146
#
#
# Mechanical properties :
#
#
# Convention : Reuss Voigt Hill
#
# Bulk Modulus (GPa) = 35.76819 55.70176 45.73498
# Shear Modulus (GPa) = 21.89466 37.22638 29.56052
#
# Velocity S-wave (km/s) = 3.02636 3.94618 3.51647
# Velocity P-wave (km/s) = 5.21288 6.63807 5.96817
#
# Compressibility (1/GPa) = 0.02795780
#
# Stress axis : x y z
#
# Youngs Moduli (GPa) = 85.26062 23.08365 72.92062
#
# Poissons Ratio (x) = 0.14844 -0.01613
# Poissons Ratio (y) = 0.54828 1.03498
# Poissons Ratio (z) = -0.01886 0.32763
#
# Static dielectric constant tensor:
#      x y z
#    x 0.893790 0.696570 -0.565700 
#    y 0.696570 1.490440 0.281680 
#    z -0.565700 0.281680 1.741930 
# 
# From -- ./inp_files/464884.got.cif
#   From: 2010.05.17/outbox.cif.g08.bks.cpg/sg2_233_cif.got.tgz:464884.got - 2010.06.03 11:33:40.
