data_PCOD9088211
_publ_section_title
;
Structure prediction by ZEFSAII (Michael W. Deem and Ramdas Pophale) SiO2 
 PCOD9088211
Probable space group: P -1
;
_chemical_formula_sum "Si O2"
_cell_formula_units_Z 16
_cell_length_a 15.491787
_cell_length_b 11.827501
_cell_length_c 9.068157
_cell_angle_alpha 62.663189
_cell_angle_beta 134.301819
_cell_angle_gamma 88.110367
_cell_volume 877.735199
_symmetry_space_group_name_H-M "P -1"
_symmetry_group_IT_number 2
_symmetry_cell_setting 'triclinic'
loop_
_space_group_symop_operation_xyz
x,y,z
-x,-y,-z
loop_
_atom_site_type_symbol
_atom_site_label
_atom_site_fract_x
_atom_site_fract_y
_atom_site_fract_z
Si Si1 0.055894 0.795393 0.081237
Si Si2 0.113715 0.270867 0.845209
Si Si3 0.610062 0.439595 0.032082
Si Si4 0.526948 0.336260 0.542184
Si Si5 0.611471 0.049327 0.623405
Si Si6 0.146514 0.532400 0.788350
Si Si7 0.249829 0.595652 0.169406
Si Si8 0.225743 0.880583 0.454450
O O1 0.145019 0.668597 0.139492
O O2 0.163771 0.825504 0.282281
O O3 0.985101 0.740190 0.145162
O O4 0.918102 0.959289 0.760359
O O5 0.176005 0.364841 0.931293
O O6 0.012484 0.360677 0.532372
O O7 0.239977 0.101025 0.054210
O O8 0.734890 0.473408 0.174413
O O9 0.695993 0.255214 0.251426
O O10 0.500000 0.500000 0.000000
O O11 0.522843 0.537540 0.725066
O O12 0.553580 0.187522 0.585437
O O13 0.390414 0.419389 0.440551
O O14 0.671200 0.312536 0.797736
O O15 0.658628 0.093848 0.501785
O O16 0.500000 0.000000 0.500000
O O17 0.164386 0.598920 0.921379
#
# Coordination Sequence:
#
# PCOD9088211 Si02
#       8
#     2   2   2   2   2   2   2   2
#     4  10  19  37  60  81 114 151 190 237 279 338
#     4  10  22  38  60  86 114 150 193 240 278 336
#     4  11  18  32  57  84 112 146 188 235 276 329
#     4  10  21  34  54  87 118 147 189 230 289 341
#     4  11  20  36  58  84 115 149 188 239 286 334
#     4  10  22  38  56  89 116 146 194 235 288 335
#     4  10  20  37  56  83 119 151 185 235 287 341
#     4  10  20  33  58  86 111 144 199 234 277 334
#
# _framework density 18.228732000000001
#
# number of rings (size 3 to 8) (size 9 to 14) (size 15 to 20)
#    0.000    1.750    3.750    1.500    0.000    0.500 
#    0.000    6.875    0.000    0.000    0.000   13.125 
#    0.000    0.000    0.000    0.000    0.000    0.000 
#
# Total GULP energy -89163.221606 kJ/mol
# GULP energy per Si atom -5572.701350 kJ/mol
# Density = 1.818724 g / cm^3
# Si number density = 18.228732 Si / 1000 Ang^3
#
#
#
# Elastic Constant Matrix: (Units=GPa)
#
#
# Indices 1 2 3 4 5 6 
#
# 1 81.0557 49.1640 16.7828 -7.9075 21.1137 0.0030
# 2 49.1640 134.9833 49.5880 -3.7751 9.4260 -5.1596
# 3 16.7828 49.5880 69.8329 -9.1017 2.8569 -3.4180
# 4 -7.9075 -3.7751 -9.1017 30.9338 4.2819 6.9334
# 5 21.1137 9.4260 2.8569 4.2819 18.8281 -7.4267
# 6 0.0030 -5.1596 -3.4180 6.9334 -7.4267 42.9255
#
#
#
# Elastic Compliance Matrix: (Units=1/GPa)
#
#
# Indices 1 2 3 4 5 6 
#
# 1 0.026417 -0.008055 0.001922 0.012662 -0.032081 -0.008413
# 2 -0.008055 0.012784 -0.007796 -0.004175 0.005787 0.002592
# 3 0.001922 -0.007796 0.020275 0.006115 -0.003050 -0.000838
# 4 0.012662 -0.004175 0.006115 0.043303 -0.027528 -0.011773
# 5 -0.032081 0.005787 -0.003050 -0.027528 0.101793 0.022513
# 6 -0.008413 0.002592 -0.000838 -0.011773 0.022513 0.029338
#
#
# Mechanical properties :
#
#
# Convention : Reuss Voigt Hill
#
# Bulk Modulus (GPa) = 31.62789 57.43794 44.53292
# Shear Modulus (GPa) = 18.36153 29.89329 24.12741
#
# Velocity S-wave (km/s) = 3.17722 4.05396 3.64207
# Velocity P-wave (km/s) = 5.55409 7.31374 6.49379
#
# Compressibility (1/GPa) = 0.03161766
#
# Stress axis : x y z
#
# Youngs Moduli (GPa) = 37.85450 78.22044 49.32195
#
# Poissons Ratio (x) = 0.63006 -0.09479
# Poissons Ratio (y) = 0.30492 0.38453
# Poissons Ratio (z) = -0.07275 0.60983
#
# Static dielectric constant tensor:
#      x y z
#    x 1.640070 0.003730 0.012440 
#    y 0.003730 1.630040 -0.012390 
#    z 0.012440 -0.012390 1.675250 
# 
# From -- ./inp_files/302660.got.cif
#   From: 2010.05.17/outbox.cif.g08.bks.cpg/sg2_152_cif.got.tgz:302660.got - 2010.06.03 11:33:40.
