data_PCOD9088989
_publ_section_title
;
Structure prediction by ZEFSAII (Michael W. Deem and Ramdas Pophale) SiO2 
 PCOD9088989
Probable space group: P -1
;
_chemical_formula_sum "Si O2"
_cell_formula_units_Z 14
_cell_length_a 20.833597
_cell_length_b 16.090672
_cell_length_c 8.008236
_cell_angle_alpha 134.332525
_cell_angle_beta 54.923003
_cell_angle_gamma 160.806286
_cell_volume 588.318008
_symmetry_space_group_name_H-M "P -1"
_symmetry_group_IT_number 2
_symmetry_cell_setting 'triclinic'
loop_
_space_group_symop_operation_xyz
x,y,z
-x,-y,-z
loop_
_atom_site_type_symbol
_atom_site_label
_atom_site_fract_x
_atom_site_fract_y
_atom_site_fract_z
Si Si1 0.307489 0.781657 0.870301
Si Si2 0.627071 0.869004 0.801905
Si Si3 0.934308 0.079319 0.109169
Si Si4 0.381732 0.691869 0.418282
Si Si5 0.904628 0.066694 0.510014
Si Si6 0.785668 0.682005 0.530913
Si Si7 0.204803 0.861068 0.702722
O O1 0.376673 0.823559 0.646597
O O2 0.084717 0.414919 0.723149
O O3 0.500000 0.000000 0.000000
O O4 0.289439 0.894367 0.066440
O O5 0.379725 0.537013 0.677058
O O6 0.704400 0.859138 0.581617
O O7 0.715617 0.992284 0.028083
O O8 0.872768 0.965294 0.232973
O O9 0.862248 0.112961 0.251084
O O10 0.184916 0.404574 0.186502
O O11 0.831915 0.863451 0.814745
O O12 0.319120 0.540482 0.473265
O O13 0.601936 0.942904 0.390272
O O14 0.008807 0.110602 0.528713
O O15 0.000000 0.500000 0.500000
#
# Coordination Sequence:
#
# PCOD9088989 Si02
#       7
#     2   2   2   2   2   2   2
#     4  10  19  37  64  91 120 159 214 266 307 352
#     4  12  24  38  61  96 130 166 209 258 316 379
#     4  10  23  44  67  94 124 167 216 261 316 373
#     4  10  22  43  68  91 126 167 211 265 315 368
#     4  10  21  38  67  92 122 162 215 271 310 359
#     4  10  22  43  69  95 120 163 223 269 306 363
#     4  12  28  42  61  94 136 173 204 251 324 391
#
# _framework density 23.796655000000001
#
# number of rings (size 3 to 8) (size 9 to 14) (size 15 to 20)
#    0.000    1.714    2.857    4.714    2.000    7.429 
#    0.000    1.429    0.000    0.000    0.000    0.000 
#    0.000    0.000    0.000    0.000    0.000    0.000 
#
# Total GULP energy -78291.101892 kJ/mol
# GULP energy per Si atom -5592.221564 kJ/mol
# Density = 2.374249 g / cm^3
# Si number density = 23.796655 Si / 1000 Ang^3
#
#
#
# Elastic Constant Matrix: (Units=GPa)
#
#
# Indices 1 2 3 4 5 6 
#
# 1 85.6350 25.1528 12.8959 0.7877 -0.2749 36.7302
# 2 25.1528 86.9620 9.8302 -4.4499 -5.6483 27.8965
# 3 12.8959 9.8302 110.5103 11.1342 2.8747 8.7088
# 4 0.7877 -4.4499 11.1342 28.4885 16.8995 -2.7455
# 5 -0.2749 -5.6483 2.8747 16.8995 47.3902 -2.9859
# 6 36.7302 27.8965 8.7088 -2.7455 -2.9859 31.3178
#
#
#
# Elastic Compliance Matrix: (Units=1/GPa)
#
#
# Indices 1 2 3 4 5 6 
#
# 1 0.024329 0.002861 -0.000330 -0.002841 -0.000456 -0.031283
# 2 0.002861 0.016515 -0.000473 0.000558 0.000692 -0.017820
# 3 -0.000330 -0.000473 0.009745 -0.004590 0.000847 -0.002223
# 4 -0.002841 0.000558 -0.004590 0.047261 -0.016101 0.006720
# 5 -0.000456 0.000692 0.000847 -0.016101 0.026924 0.000838
# 6 -0.031283 -0.017820 -0.002223 0.006720 0.000838 0.085780
#
#
# Mechanical properties :
#
#
# Convention : Reuss Voigt Hill
#
# Bulk Modulus (GPa) = 18.27991 42.09612 30.18801
# Shear Modulus (GPa) = 22.25441 37.12118 29.68780
#
# Velocity S-wave (km/s) = 3.06141 3.95388 3.53592
# Velocity P-wave (km/s) = 4.49385 6.21068 5.42067
#
# Compressibility (1/GPa) = 0.05470487
#
# Stress axis : x y z
#
# Youngs Moduli (GPa) = 41.10265 60.55043 102.61499
#
# Poissons Ratio (x) = -0.17321 0.03388
# Poissons Ratio (y) = -0.11758 0.04851
# Poissons Ratio (z) = 0.01357 0.02863
#
# Static dielectric constant tensor:
#      x y z
#    x 1.986440 -0.051440 0.024720 
#    y -0.051440 1.923660 -0.010790 
#    z 0.024720 -0.010790 1.937260 
# 
# From -- ./inp_files/255762.got.cif
#   From: 2010.05.17/outbox.cif.g08.bks.cpg/sg2_128_cif.got.tgz:255762.got - 2010.06.03 11:33:40.
