data_PCOD9088118
_publ_section_title
;
Structure prediction by ZEFSAII (Michael W. Deem and Ramdas Pophale) SiO2 
 PCOD9088118
Probable space group: P -1
;
_chemical_formula_sum "Si O2"
_cell_formula_units_Z 14
_cell_length_a 8.775993
_cell_length_b 13.528323
_cell_length_c 5.358163
_cell_angle_alpha 85.513558
_cell_angle_beta 115.944447
_cell_angle_gamma 89.603796
_cell_volume 569.679958
_symmetry_space_group_name_H-M "P -1"
_symmetry_group_IT_number 2
_symmetry_cell_setting 'triclinic'
loop_
_space_group_symop_operation_xyz
x,y,z
-x,-y,-z
loop_
_atom_site_type_symbol
_atom_site_label
_atom_site_fract_x
_atom_site_fract_y
_atom_site_fract_z
Si Si1 0.169493 0.861056 0.675313
Si Si2 0.772231 0.447791 0.292176
Si Si3 0.041619 0.315214 0.312996
Si Si4 0.760973 0.744004 0.026208
Si Si5 0.476596 0.411466 0.699566
Si Si6 0.402167 0.724147 0.575960
Si Si7 0.871510 0.954881 0.113016
O O1 0.109811 0.764520 0.802610
O O2 0.299456 0.823760 0.561084
O O3 0.997638 0.906224 0.420111
O O4 0.234690 0.950610 0.870059
O O5 0.948525 0.421404 0.290372
O O6 0.707550 0.553113 0.333376
O O7 0.738658 0.359466 0.481302
O O8 0.626960 0.428203 0.992284
O O9 0.146340 0.276828 0.639851
O O10 0.142125 0.311032 0.125481
O O11 0.770253 0.862585 0.958269
O O12 0.565116 0.715570 0.879333
O O13 0.500000 0.500000 0.500000
O O14 0.507974 0.304888 0.613977
O O15 0.000000 0.000000 0.000000
#
# Coordination Sequence:
#
# PCOD9088118 Si02
#       7
#     2   2   2   2   2   2   2
#     4   9  20  37  60  85 112 159 209 240 293 354
#     4   9  20  38  64  85 113 159 206 243 289 359
#     4  10  22  39  62  87 118 163 203 242 293 363
#     4  11  24  39  59  91 127 154 199 250 305 345
#     4   9  19  36  62  88 116 149 206 245 292 354
#     4  10  22  37  59  88 119 157 192 257 300 353
#     4  10  19  37  59  84 117 158 203 246 286 362
#
# _framework density 24.575202999999998
#
# number of rings (size 3 to 8) (size 9 to 14) (size 15 to 20)
#    0.000    2.286    1.429    0.000   10.000    0.571 
#    0.000    2.143    0.000    0.000    0.000    0.000 
#    0.000    0.000    0.000    0.000    0.000    0.000 
#
# Total GULP energy -78141.186128 kJ/mol
# GULP energy per Si atom -5581.513295 kJ/mol
# Density = 2.451927 g / cm^3
# Si number density = 24.575203 Si / 1000 Ang^3
#
#
#
# Elastic Constant Matrix: (Units=GPa)
#
#
# Indices 1 2 3 4 5 6 
#
# 1 88.5499 48.8246 23.8364 20.0242 9.0425 -19.1929
# 2 48.8246 149.5571 12.1349 37.9819 -18.3195 -39.7274
# 3 23.8364 12.1349 57.4906 16.1648 -11.2362 -12.9645
# 4 20.0242 37.9819 16.1648 35.1343 -10.0840 -16.4145
# 5 9.0425 -18.3195 -11.2362 -10.0840 27.3495 2.8084
# 6 -19.1929 -39.7274 -12.9645 -16.4145 2.8084 55.3403
#
#
#
# Elastic Compliance Matrix: (Units=1/GPa)
#
#
# Indices 1 2 3 4 5 6 
#
# 1 0.020138 -0.006747 -0.008868 -0.005180 -0.016666 -0.000628
# 2 -0.006747 0.012971 0.005259 -0.007157 0.009868 0.005580
# 3 -0.008868 0.005259 0.025431 -0.006385 0.014133 0.004047
# 4 -0.005180 -0.007157 -0.006385 0.047765 0.011377 0.005160
# 5 -0.016666 0.009868 0.014133 0.011377 0.058167 0.005037
# 6 -0.000628 0.005580 0.004047 0.005160 0.005037 0.024081
#
#
# Mechanical properties :
#
#
# Convention : Reuss Voigt Hill
#
# Bulk Modulus (GPa) = 26.43584 51.68769 39.06177
# Shear Modulus (GPa) = 22.53534 37.61828 30.07681
#
# Velocity S-wave (km/s) = 3.03148 3.91671 3.50218
# Velocity P-wave (km/s) = 4.79934 6.44456 5.68181
#
# Compressibility (1/GPa) = 0.03782743
#
# Stress axis : x y z
#
# Youngs Moduli (GPa) = 49.65836 77.09458 39.32272
#
# Poissons Ratio (x) = 0.52019 0.34870
# Poissons Ratio (y) = 0.33507 -0.20680
# Poissons Ratio (z) = 0.44035 -0.40544
#
# Static dielectric constant tensor:
#      x y z
#    x 2.042260 0.040160 -0.088280 
#    y 0.040160 2.018070 0.008660 
#    z -0.088280 0.008660 2.029170 
# 
# From -- ./inp_files/34786.got.cif
#   From: 2010.05.17/outbox.cif.g08.bks.cpg/sg2_18_cif.got.tgz:34786.got - 2010.06.03 11:33:40.
