data_PCOD9088481
_publ_section_title
;
Structure prediction by ZEFSAII (Michael W. Deem and Ramdas Pophale) SiO2 
 PCOD9088481
Probable space group: P -1
;
_chemical_formula_sum "Si O2"
_cell_formula_units_Z 14
_cell_length_a 18.281936
_cell_length_b 11.533556
_cell_length_c 8.822286
_cell_angle_alpha 138.892924
_cell_angle_beta 138.454340
_cell_angle_gamma 27.443041
_cell_volume 543.793388
_symmetry_space_group_name_H-M "P -1"
_symmetry_group_IT_number 2
_symmetry_cell_setting 'triclinic'
loop_
_space_group_symop_operation_xyz
x,y,z
-x,-y,-z
loop_
_atom_site_type_symbol
_atom_site_label
_atom_site_fract_x
_atom_site_fract_y
_atom_site_fract_z
Si Si1 0.054953 0.640039 0.633024
Si Si2 0.730168 0.544861 0.947634
Si Si3 0.441284 0.835351 0.990992
Si Si4 0.298818 0.840900 0.482006
Si Si5 0.418769 0.329972 0.457805
Si Si6 0.725456 0.325323 0.135209
Si Si7 0.279795 0.086567 0.282326
O O1 0.127206 0.734965 0.765509
O O2 0.117604 0.564461 0.828823
O O3 0.860712 0.870544 0.542312
O O4 0.855203 0.621135 0.576577
O O5 0.735454 0.325506 0.747589
O O6 0.699674 0.623863 0.803072
O O7 0.570125 0.787757 0.037927
O O8 0.563460 0.574597 0.032186
O O9 0.321222 0.069757 0.154407
O O10 0.334719 0.855377 0.723412
O O11 0.457129 0.707831 0.497807
O O12 0.310736 0.570414 0.646382
O O13 0.552720 0.078004 0.525553
O O14 0.754319 0.082994 0.927321
#
# Coordination Sequence:
#
# PCOD9088481 Si02
#       7
#     2   2   2   2   2   2   2
#     4  11  26  38  60  93 129 161 194 248 313 365
#     4  10  19  37  61  89 119 160 205 251 299 355
#     4   9  19  37  66  88 116 163 207 247 301 358
#     4  11  20  39  62  90 124 163 201 246 307 367
#     4  10  20  38  67  88 116 161 211 252 296 355
#     4  10  20  42  67  90 116 159 208 257 297 351
#     4  11  21  39  63  91 123 158 203 250 304 364
#
# _framework density 25.745073000000001
#
# number of rings (size 3 to 8) (size 9 to 14) (size 15 to 20)
#    0.000    1.714    0.000    8.143    0.000    6.857 
#    0.000    7.143    0.000    3.429    0.000    0.000 
#    0.000    0.000    0.000    0.000    0.000    0.000 
#
# Total GULP energy -78492.577689 kJ/mol
# GULP energy per Si atom -5606.612692 kJ/mol
# Density = 2.568648 g / cm^3
# Si number density = 25.745073 Si / 1000 Ang^3
#
#
#
# Elastic Constant Matrix: (Units=GPa)
#
#
# Indices 1 2 3 4 5 6 
#
# 1 126.9979 20.8297 55.3430 -1.0529 -8.1445 6.4335
# 2 20.8297 135.2166 81.7119 -7.0740 -6.8586 8.2247
# 3 55.3430 81.7119 220.8012 11.0471 -49.9746 1.0400
# 4 -1.0529 -7.0740 11.0471 32.3247 6.4530 3.1409
# 5 -8.1445 -6.8586 -49.9746 6.4530 56.8163 -1.1945
# 6 6.4335 8.2247 1.0400 3.1409 -1.1945 29.9349
#
#
#
# Elastic Compliance Matrix: (Units=1/GPa)
#
#
# Indices 1 2 3 4 5 6 
#
# 1 0.009079 0.000495 -0.002863 0.001884 -0.001419 -0.002242
# 2 0.000495 0.010793 -0.005256 0.005308 -0.003928 -0.003603
# 3 -0.002863 -0.005256 0.009275 -0.006249 0.007880 0.002707
# 4 0.001884 0.005308 -0.006249 0.036633 -0.008870 -0.005844
# 5 -0.001419 -0.003928 0.007880 -0.008870 0.024925 0.003035
# 6 -0.002242 -0.003603 0.002707 -0.005844 0.003035 0.035518
#
#
# Mechanical properties :
#
#
# Convention : Reuss Voigt Hill
#
# Bulk Modulus (GPa) = 71.95169 88.75389 80.35279
# Shear Modulus (GPa) = 34.22186 45.49059 39.85622
#
# Velocity S-wave (km/s) = 3.64986 4.20809 3.93887
# Velocity P-wave (km/s) = 6.76538 7.62625 7.20867
#
# Compressibility (1/GPa) = 0.01389821
#
# Stress axis : x y z
#
# Youngs Moduli (GPa) = 110.14370 92.65210 107.81549
#
# Poissons Ratio (x) = -0.04584 0.30873
# Poissons Ratio (y) = -0.05450 0.56666
# Poissons Ratio (z) = 0.31539 0.48696
#
# Static dielectric constant tensor:
#      x y z
#    x 2.167450 0.054430 0.063210 
#    y 0.054430 1.983400 0.032270 
#    z 0.063210 0.032270 2.048450 
# 
# From -- ./inp_files/335914.got.cif
#   From: 2010.05.17/outbox.cif.g08.bks.cpg/sg2_168_cif.got.tgz:335914.got - 2010.06.03 11:33:40.
