data_PCOD9088738
_publ_section_title
;
Structure prediction by ZEFSAII (Michael W. Deem and Ramdas Pophale) SiO2 
 PCOD9088738
Probable space group: P -1
;
_chemical_formula_sum "Si O2"
_cell_formula_units_Z 16
_cell_length_a 8.763086
_cell_length_b 8.203413
_cell_length_c 14.312345
_cell_angle_alpha 130.196095
_cell_angle_beta 85.056511
_cell_angle_gamma 118.332154
_cell_volume 653.628402
_symmetry_space_group_name_H-M "P -1"
_symmetry_group_IT_number 2
_symmetry_cell_setting 'triclinic'
loop_
_space_group_symop_operation_xyz
x,y,z
-x,-y,-z
loop_
_atom_site_type_symbol
_atom_site_label
_atom_site_fract_x
_atom_site_fract_y
_atom_site_fract_z
Si Si1 0.363231 0.957882 0.073124
Si Si2 0.747487 0.658375 0.969469
Si Si3 0.868877 0.712674 0.364904
Si Si4 0.598639 0.883871 0.178246
Si Si5 0.912937 0.611345 0.132824
Si Si6 0.163141 0.635778 0.265457
Si Si7 0.453284 0.401946 0.341723
Si Si8 0.477942 0.844169 0.580337
O O1 0.458790 0.923710 0.143929
O O2 0.354390 0.197844 0.188088
O O3 0.180749 0.690675 0.963944
O O4 0.500000 0.000000 0.000000
O O5 0.728241 0.886697 0.091302
O O6 0.860428 0.656021 0.052092
O O7 0.536080 0.407072 0.884706
O O8 0.829578 0.605590 0.854328
O O9 0.833052 0.703663 0.251856
O O10 0.672004 0.561464 0.367167
O O11 0.115394 0.723186 0.201111
O O12 0.000000 0.000000 0.500000
O O13 0.652779 0.083489 0.333933
O O14 0.992969 0.591292 0.319711
O O15 0.356869 0.892135 0.376139
O O16 0.389562 0.597691 0.426983
O O17 0.434702 0.253719 0.383711
#
# Coordination Sequence:
#
# PCOD9088738 Si02
#       8
#     2   2   2   2   2   2   2   2
#     4  10  16  28  46  71  96 122 152 192 236 280
#     4   9  15  29  44  68  96 121 158 194 230 271
#     4  10  18  29  45  70  98 121 149 193 245 276
#     4   8  17  27  45  67  94 126 156 190 229 277
#     4   9  18  27  48  72  97 118 156 198 235 270
#     4   9  17  28  48  72  93 120 157 200 231 272
#     4  10  17  28  45  68  96 121 149 197 233 275
#     4   9  17  29  47  69  91 122 161 189 231 276
#
# _framework density 24.478742
#
# number of rings (size 3 to 8) (size 9 to 14) (size 15 to 20)
#    0.750    2.000    2.500    1.125    0.000    0.000 
#    0.000    0.000    0.000    9.000    0.000   28.000 
#    0.000    0.000    0.000    0.000    0.000    0.000 
#
# Total GULP energy -89070.311305 kJ/mol
# GULP energy per Si atom -5566.894457 kJ/mol
# Density = 2.442303 g / cm^3
# Si number density = 24.478742 Si / 1000 Ang^3
#
#
#
# Elastic Constant Matrix: (Units=GPa)
#
#
# Indices 1 2 3 4 5 6 
#
# 1 53.5920 19.8958 30.8033 5.3623 -20.9421 3.7105
# 2 19.8958 44.7751 16.8453 -0.0359 -4.6858 6.9677
# 3 30.8033 16.8453 216.1781 5.6588 -38.4757 13.1457
# 4 5.3623 -0.0359 5.6588 25.0243 11.4252 -5.7603
# 5 -20.9421 -4.6858 -38.4757 11.4252 49.0080 -6.8002
# 6 3.7105 6.9677 13.1457 -5.7603 -6.8002 22.5165
#
#
#
# Elastic Compliance Matrix: (Units=1/GPa)
#
#
# Indices 1 2 3 4 5 6 
#
# 1 0.030248 -0.011754 -0.000481 -0.012993 0.014450 -0.000027
# 2 -0.011754 0.028523 -0.001098 0.003478 -0.004918 -0.006844
# 3 -0.000481 -0.001098 0.005922 -0.004087 0.004932 -0.002595
# 4 -0.012993 0.003478 -0.004087 0.055360 -0.019717 0.011659
# 5 0.014450 -0.004918 0.004932 -0.019717 0.034818 0.001733
# 6 -0.000027 -0.006844 -0.002595 0.011659 0.001733 0.051555
#
#
# Mechanical properties :
#
#
# Convention : Reuss Voigt Hill
#
# Bulk Modulus (GPa) = 26.29620 49.95933 38.12777
# Shear Modulus (GPa) = 20.34445 35.77648 28.06046
#
# Velocity S-wave (km/s) = 2.88602 3.82715 3.38941
# Velocity P-wave (km/s) = 4.67667 6.32321 5.56122
#
# Compressibility (1/GPa) = 0.03802831
#
# Stress axis : x y z
#
# Youngs Moduli (GPa) = 33.06029 35.05955 168.84966
#
# Poissons Ratio (x) = 0.41209 0.08115
# Poissons Ratio (y) = 0.38859 0.18539
# Poissons Ratio (z) = 0.01589 0.03849
#
# Static dielectric constant tensor:
#      x y z
#    x 2.008620 0.002520 -0.055410 
#    y 0.002520 2.024270 -0.054960 
#    z -0.055410 -0.054960 2.101580 
# 
# From -- ./inp_files/353137.got.cif
#   From: 2010.05.17/outbox.cif.g08.bks.cpg/sg2_177_cif.got.tgz:353137.got - 2010.06.03 11:33:40.
