data_PCOD9088377
_publ_section_title
;
Structure prediction by ZEFSAII (Michael W. Deem and Ramdas Pophale) SiO2 
 PCOD9088377
Probable space group: P -1
;
_chemical_formula_sum "Si O2"
_cell_formula_units_Z 16
_cell_length_a 21.985523
_cell_length_b 18.359090
_cell_length_c 8.962651
_cell_angle_alpha 44.323821
_cell_angle_beta 45.391218
_cell_angle_gamma 17.165491
_cell_volume 742.920211
_symmetry_space_group_name_H-M "P -1"
_symmetry_group_IT_number 2
_symmetry_cell_setting 'triclinic'
loop_
_space_group_symop_operation_xyz
x,y,z
-x,-y,-z
loop_
_atom_site_type_symbol
_atom_site_label
_atom_site_fract_x
_atom_site_fract_y
_atom_site_fract_z
Si Si1 0.900333 0.645477 0.174519
Si Si2 0.675356 0.077413 0.756083
Si Si3 0.470659 0.325992 0.044056
Si Si4 0.800829 0.857007 0.345108
Si Si5 0.799887 0.542065 0.555372
Si Si6 0.986365 0.873358 0.363938
Si Si7 0.277940 0.711572 0.013821
Si Si8 0.637410 0.943104 0.787091
O O1 0.889006 0.691357 0.299658
O O2 0.755885 0.704264 0.327835
O O3 0.126279 0.358753 0.154295
O O4 0.820420 0.832011 0.948253
O O5 0.811591 0.024873 0.552036
O O6 0.595118 0.097416 0.725542
O O7 0.512852 0.291628 0.847706
O O8 0.369992 0.324293 0.246597
O O9 0.677889 0.087437 0.137994
O O10 0.327164 0.573531 0.999324
O O11 0.645539 0.967945 0.562046
O O12 0.993026 0.676162 0.381257
O O13 0.863046 0.391235 0.539097
O O14 0.859407 0.046556 0.179597
O O15 0.134603 0.807056 0.237144
O O16 0.500000 0.500000 0.000000
O O17 0.500000 0.000000 0.000000
#
# Coordination Sequence:
#
# PCOD9088377 Si02
#       8
#     2   2   2   2   2   2   2   2
#     4  10  22  37  57  82 125 165 195 230 287 345
#     4  11  23  39  56  92 125 151 194 246 296 340
#     4  10  24  37  63  88 116 155 199 242 296 353
#     4  10  21  38  55  84 120 160 204 231 278 349
#     4  10  19  37  61  81 120 164 195 230 283 347
#     4  10  21  40  62  87 115 151 190 249 299 350
#     4  10  22  42  67  86 108 151 201 242 304 365
#     4  11  23  33  57  87 125 160 201 239 281 335
#
# _framework density 21.536632999999998
#
# number of rings (size 3 to 8) (size 9 to 14) (size 15 to 20)
#    0.000    1.750    2.500    2.625    5.250    2.500 
#    0.000    0.625    0.000    0.000    0.000    0.000 
#    0.000    0.000    0.000    0.000    0.000    0.000 
#
# Total GULP energy -89303.993872 kJ/mol
# GULP energy per Si atom -5581.499617 kJ/mol
# Density = 2.148762 g / cm^3
# Si number density = 21.536633 Si / 1000 Ang^3
#
#
#
# Elastic Constant Matrix: (Units=GPa)
#
#
# Indices 1 2 3 4 5 6 
#
# 1 55.4414 21.3831 39.7060 20.5014 -5.3154 -5.5977
# 2 21.3831 45.6475 13.7123 17.8633 -3.8321 0.0924
# 3 39.7060 13.7123 117.1364 37.0976 -14.9295 -6.2306
# 4 20.5014 17.8633 37.0976 52.6363 -0.1626 -4.6733
# 5 -5.3154 -3.8321 -14.9295 -0.1626 28.8038 7.3475
# 6 -5.5977 0.0924 -6.2306 -4.6733 7.3475 39.4555
#
#
#
# Elastic Compliance Matrix: (Units=1/GPa)
#
#
# Indices 1 2 3 4 5 6 
#
# 1 0.028524 -0.010377 -0.007847 -0.001813 -0.000905 0.002786
# 2 -0.010377 0.029486 0.003126 -0.008408 0.004307 -0.002845
# 3 -0.007847 0.003126 0.014159 -0.008057 0.006530 -0.001055
# 4 -0.001813 -0.008408 -0.008057 0.028486 -0.006240 0.003026
# 5 -0.000905 0.004307 0.006530 -0.006240 0.040351 -0.007361
# 6 0.002786 -0.002845 -0.001055 0.003026 -0.007361 0.027309
#
#
# Mechanical properties :
#
#
# Convention : Reuss Voigt Hill
#
# Bulk Modulus (GPa) = 23.82429 40.86979 32.34704
# Shear Modulus (GPa) = 23.52916 33.74070 28.63493
#
# Velocity S-wave (km/s) = 3.30891 3.96241 3.65031
# Velocity P-wave (km/s) = 5.06801 6.32078 5.72875
#
# Compressibility (1/GPa) = 0.04197396
#
# Stress axis : x y z
#
# Youngs Moduli (GPa) = 35.05799 33.91406 70.62673
#
# Poissons Ratio (x) = 0.35191 0.55421
# Poissons Ratio (y) = 0.36378 -0.22077
# Poissons Ratio (z) = 0.27510 -0.10601
#
# Static dielectric constant tensor:
#      x y z
#    x 1.824580 -0.031530 -0.002690 
#    y -0.031530 1.808700 0.001670 
#    z -0.002690 0.001670 1.813050 
# 
# From -- ./inp_files/208519.got.cif
#   From: 2010.05.17/outbox.cif.g08.bks.cpg/sg2_105_cif.got.tgz:208519.got - 2010.06.03 11:33:40.
