data_PCOD9088782
_publ_section_title
;
Structure prediction by ZEFSAII (Michael W. Deem and Ramdas Pophale) SiO2 
 PCOD9088782
Probable space group: P -1
;
_chemical_formula_sum "Si O2"
_cell_formula_units_Z 16
_cell_length_a 14.056327
_cell_length_b 21.368119
_cell_length_c 16.590666
_cell_angle_alpha 154.737468
_cell_angle_beta 142.859915
_cell_angle_gamma 21.006480
_cell_volume 725.318377
_symmetry_space_group_name_H-M "P -1"
_symmetry_group_IT_number 2
_symmetry_cell_setting 'triclinic'
loop_
_space_group_symop_operation_xyz
x,y,z
-x,-y,-z
loop_
_atom_site_type_symbol
_atom_site_label
_atom_site_fract_x
_atom_site_fract_y
_atom_site_fract_z
Si Si1 0.562529 0.761341 0.283798
Si Si2 0.110305 0.785019 0.116554
Si Si3 0.531920 0.349417 0.416068
Si Si4 0.962448 0.666569 0.109632
Si Si5 0.538419 0.396684 0.192282
Si Si6 0.025032 0.571515 0.285384
Si Si7 0.278264 0.973394 0.500592
Si Si8 0.137507 0.874346 0.062788
O O1 0.739045 0.749739 0.344504
O O2 0.524851 0.811395 0.413338
O O3 0.272201 0.930381 0.242291
O O4 0.750511 0.470888 0.061534
O O5 0.218129 0.847544 0.308278
O O6 0.780810 0.051253 0.213219
O O7 0.175834 0.757416 0.034558
O O8 0.500000 0.500000 0.500000
O O9 0.583411 0.385776 0.578656
O O10 0.256605 0.464463 0.371999
O O11 0.272894 0.496622 0.113047
O O12 0.872925 0.654497 0.953358
O O13 0.745125 0.944148 0.329210
O O14 0.000000 0.500000 0.000000
O O15 0.684390 0.324573 0.122752
O O16 0.811010 0.128077 0.113284
O O17 0.963297 0.746687 0.381980
#
# Coordination Sequence:
#
# PCOD9088782 Si02
#       8
#     2   2   2   2   2   2   2   2
#     4  11  23  41  58  95 130 166 202 254 317 368
#     4  11  22  39  66  87 128 168 207 249 310 377
#     4  12  20  40  65  93 118 162 215 252 304 369
#     4  10  20  36  59  96 123 155 200 267 313 346
#     4  11  20  37  63  95 120 154 214 259 301 354
#     4  11  22  38  64  92 127 157 209 262 305 361
#     4  10  19  37  63  87 119 163 208 249 299 368
#     4  10  21  36  60  88 125 160 202 254 303 364
#
# _framework density 22.059277999999999
#
# number of rings (size 3 to 8) (size 9 to 14) (size 15 to 20)
#    0.000    1.250    5.000    3.375    0.000    0.500 
#    2.250    3.750    0.000    1.500    0.000    0.000 
#    0.000    0.000    0.000    0.000    0.000    0.000 
#
# Total GULP energy -89280.162545 kJ/mol
# GULP energy per Si atom -5580.010159 kJ/mol
# Density = 2.200907 g / cm^3
# Si number density = 22.059278 Si / 1000 Ang^3
#
#
#
# Elastic Constant Matrix: (Units=GPa)
#
#
# Indices 1 2 3 4 5 6 
#
# 1 59.1610 10.9017 29.1861 -3.5641 -17.0207 -16.6698
# 2 10.9017 67.5248 25.5965 -1.4828 9.0019 -14.7050
# 3 29.1861 25.5965 97.4817 3.4253 -21.1325 -4.5648
# 4 -3.5641 -1.4828 3.4253 33.7840 -7.9244 -2.7483
# 5 -17.0207 9.0019 -21.1325 -7.9244 38.6150 0.9078
# 6 -16.6698 -14.7050 -4.5648 -2.7483 0.9078 28.3962
#
#
#
# Elastic Compliance Matrix: (Units=1/GPa)
#
#
# Indices 1 2 3 4 5 6 
#
# 1 0.027335 -0.000192 -0.005448 0.007076 0.010201 0.015430
# 2 -0.000192 0.020777 -0.006867 0.000313 -0.008854 0.009856
# 3 -0.005448 -0.006867 0.015107 -0.001061 0.007358 -0.004664
# 4 0.007076 0.000313 -0.001061 0.033179 0.009108 0.007065
# 5 0.010201 -0.008854 0.007358 0.009108 0.038300 0.002244
# 6 0.015430 0.009856 -0.004664 0.007065 0.002244 0.049241
#
#
# Mechanical properties :
#
#
# Convention : Reuss Voigt Hill
#
# Bulk Modulus (GPa) = 26.17505 39.50400 32.83953
# Shear Modulus (GPa) = 22.55421 30.72461 26.63941
#
# Velocity S-wave (km/s) = 3.20103 3.73610 3.47886
# Velocity P-wave (km/s) = 5.05506 6.04634 5.57278
#
# Compressibility (1/GPa) = 0.03820432
#
# Stress axis : x y z
#
# Youngs Moduli (GPa) = 36.58273 48.13032 66.19568
#
# Poissons Ratio (x) = 0.00925 0.36066
# Poissons Ratio (y) = 0.00703 0.45455
# Poissons Ratio (z) = 0.19932 0.33050
#
# Static dielectric constant tensor:
#      x y z
#    x 1.845640 -0.001570 -0.044000 
#    y -0.001570 1.831540 0.025260 
#    z -0.044000 0.025260 1.883930 
# 
# From -- ./inp_files/566165.got.cif
#   From: 2010.05.17/outbox.cif.g08.bks.cpg/sg2_284_cif.got.tgz:566165.got - 2010.06.03 11:33:40.
