data_PCOD9088575
_publ_section_title
;
Structure prediction by ZEFSAII (Michael W. Deem and Ramdas Pophale) SiO2 
 PCOD9088575
Probable space group: P -1
;
_chemical_formula_sum "Si O2"
_cell_formula_units_Z 16
_cell_length_a 11.013796
_cell_length_b 11.107227
_cell_length_c 8.253716
_cell_angle_alpha 119.565653
_cell_angle_beta 42.647340
_cell_angle_gamma 109.111090
_cell_volume 593.902609
_symmetry_space_group_name_H-M "P -1"
_symmetry_group_IT_number 2
_symmetry_cell_setting 'triclinic'
loop_
_space_group_symop_operation_xyz
x,y,z
-x,-y,-z
loop_
_atom_site_type_symbol
_atom_site_label
_atom_site_fract_x
_atom_site_fract_y
_atom_site_fract_z
Si Si1 0.702610 0.039498 0.806201
Si Si2 0.778726 0.298226 0.089553
Si Si3 0.714232 0.548553 0.512361
Si Si4 0.708951 0.950233 0.251173
Si Si5 0.641407 0.690162 0.001962
Si Si6 0.873763 0.445402 0.772988
Si Si7 0.815674 0.779710 0.351030
Si Si8 0.754765 0.209361 0.533845
O O1 0.726245 0.124688 0.672787
O O2 0.822715 0.897365 0.563392
O O3 0.733469 0.141974 0.992581
O O4 0.500000 0.000000 0.000000
O O5 0.677127 0.397961 0.383306
O O6 0.772051 0.380537 0.980778
O O7 0.988277 0.286568 0.921093
O O8 0.614930 0.616228 0.807533
O O9 0.698922 0.660508 0.457250
O O10 0.923361 0.542522 0.359892
O O11 0.743690 0.855496 0.312559
O O12 0.500000 0.000000 0.500000
O O13 0.813487 0.090960 0.266177
O O14 0.728981 0.840655 0.011934
O O15 0.764734 0.583971 0.916019
O O16 0.438973 0.722998 0.281101
O O17 0.873887 0.334026 0.551371
#
# Coordination Sequence:
#
# PCOD9088575 Si02
#       8
#     2   2   2   2   2   2   2   2
#     4  10  20  37  59  87 117 144 187 246 288 326
#     4  10  21  38  58  85 116 152 193 229 282 350
#     4  11  22  36  56  88 118 146 188 240 285 331
#     4   9  19  36  59  83 110 150 194 231 278 344
#     4  11  20  36  57  82 115 151 189 238 285 328
#     4  10  20  37  58  80 114 154 190 229 280 346
#     4  10  19  37  62  84 113 155 191 230 286 343
#     4   9  20  37  57  81 110 150 196 231 279 346
#
# _framework density 26.940446000000001
#
# number of rings (size 3 to 8) (size 9 to 14) (size 15 to 20)
#    0.000    2.000    0.000    4.875    0.000    1.000 
#    0.000   17.500    0.000    0.000    0.000    0.000 
#    0.000    0.000    0.000    0.000    0.000    0.000 
#
# Total GULP energy -89687.838001 kJ/mol
# GULP energy per Si atom -5605.489875 kJ/mol
# Density = 2.687913 g / cm^3
# Si number density = 26.940446 Si / 1000 Ang^3
#
#
#
# Elastic Constant Matrix: (Units=GPa)
#
#
# Indices 1 2 3 4 5 6 
#
# 1 105.1639 31.1593 33.8102 19.7138 7.2016 0.8811
# 2 31.1593 90.8116 65.8047 33.5471 14.1735 -0.5097
# 3 33.8102 65.8047 134.2301 48.1148 33.7434 8.6618
# 4 19.7138 33.5471 48.1148 49.0398 4.3023 11.8877
# 5 7.2016 14.1735 33.7434 4.3023 42.1711 20.7600
# 6 0.8811 -0.5097 8.6618 11.8877 20.7600 46.3324
#
#
#
# Elastic Compliance Matrix: (Units=1/GPa)
#
#
# Indices 1 2 3 4 5 6 
#
# 1 0.010872 -0.002285 -0.000677 -0.002274 -0.000706 0.000794
# 2 -0.002285 0.019166 -0.005694 -0.007451 -0.002983 0.004567
# 3 -0.000677 -0.005694 0.019173 -0.015016 -0.015252 0.007052
# 4 -0.002274 -0.007451 -0.015016 0.043565 0.018735 -0.016804
# 5 -0.000706 -0.002983 -0.015252 0.018735 0.046318 -0.022728
# 6 0.000794 0.004567 0.007052 -0.016804 -0.022728 0.034795
#
#
# Mechanical properties :
#
#
# Convention : Reuss Voigt Hill
#
# Bulk Modulus (GPa) = 31.34973 65.75046 48.55009
# Shear Modulus (GPa) = 24.77283 40.80408 32.78846
#
# Velocity S-wave (km/s) = 3.03568 3.89601 3.49244
# Velocity P-wave (km/s) = 4.89378 6.68561 5.85860
#
# Compressibility (1/GPa) = 0.03189820
#
# Stress axis : x y z
#
# Youngs Moduli (GPa) = 91.98306 52.17621 52.15546
#
# Poissons Ratio (x) = 0.11924 0.03530
# Poissons Ratio (y) = 0.21020 0.29698
# Poissons Ratio (z) = 0.06226 0.29710
#
# Static dielectric constant tensor:
#      x y z
#    x 2.108150 0.044390 0.076950 
#    y 0.044390 2.108300 0.006300 
#    z 0.076950 0.006300 2.094150 
# 
# From -- ./inp_files/262931.got.cif
#   From: 2010.05.17/outbox.cif.g08.bks.cpg/sg2_132_cif.got.tgz:262931.got - 2010.06.03 11:33:40.
