data_PCOD9088577
_publ_section_title
;
Structure prediction by ZEFSAII (Michael W. Deem and Ramdas Pophale) SiO2 
 PCOD9088577
Probable space group: P -1
;
_chemical_formula_sum "Si O2"
_cell_formula_units_Z 12
_cell_length_a 13.353805
_cell_length_b 7.117631
_cell_length_c 6.976069
_cell_angle_alpha 58.614644
_cell_angle_beta 75.522493
_cell_angle_gamma 109.584323
_cell_volume 452.940872
_symmetry_space_group_name_H-M "P -1"
_symmetry_group_IT_number 2
_symmetry_cell_setting 'triclinic'
loop_
_space_group_symop_operation_xyz
x,y,z
-x,-y,-z
loop_
_atom_site_type_symbol
_atom_site_label
_atom_site_fract_x
_atom_site_fract_y
_atom_site_fract_z
Si Si1 0.694017 0.756827 0.384007
Si Si2 0.174400 0.934870 0.204013
Si Si3 0.893995 0.625327 0.458259
Si Si4 0.525299 0.319797 0.944635
Si Si5 0.631964 0.097532 0.489516
Si Si6 0.225601 0.445112 0.083302
O O1 0.809745 0.731311 0.384549
O O2 0.568520 0.462789 0.642407
O O3 0.684767 0.945241 0.438632
O O4 0.718613 0.898877 0.093592
O O5 0.157779 0.670230 0.432552
O O6 0.038706 0.822875 0.234576
O O7 0.198503 0.156700 0.224361
O O8 0.884730 0.590057 0.715837
O O9 0.653121 0.372622 0.939536
O O10 0.500000 0.500000 0.000000
O O11 0.414129 0.021051 0.211082
O O12 0.500000 0.000000 0.500000
O O13 0.731896 0.404391 0.220622
#
# Coordination Sequence:
#
# PCOD9088577 Si02
#       6
#     2   2   2   2   2   2
#     4  10  19  38  61  82 119 155 191 240 296 342
#     4  11  22  38  60  90 115 154 201 240 287 347
#     4  10  22  40  59  83 125 155 188 245 296 341
#     4   8  17  34  59  80 113 154 185 233 293 339
#     4   9  17  35  62  82 112 158 186 234 300 340
#     4  10  19  37  62  84 118 155 194 237 292 352
#
# _framework density 26.493524000000001
#
# number of rings (size 3 to 8) (size 9 to 14) (size 15 to 20)
#    0.000    2.333    1.667    1.000    0.000    0.000 
#    9.000    9.167    0.000    0.000    0.000    0.000 
#    0.000    0.000    0.000    0.000    0.000    0.000 
#
# Total GULP energy -67102.136933 kJ/mol
# GULP energy per Si atom -5591.844744 kJ/mol
# Density = 2.643322 g / cm^3
# Si number density = 26.493524 Si / 1000 Ang^3
#
#
#
# Elastic Constant Matrix: (Units=GPa)
#
#
# Indices 1 2 3 4 5 6 
#
# 1 111.2778 25.1904 33.4086 -6.9720 5.4781 -22.6879
# 2 25.1904 118.4319 30.2408 -28.0277 -6.0973 -19.4390
# 3 33.4086 30.2408 194.6252 1.2733 0.5721 7.9056
# 4 -6.9720 -28.0277 1.2733 33.2613 -0.7119 2.5494
# 5 5.4781 -6.0973 0.5721 -0.7119 45.2245 -1.6548
# 6 -22.6879 -19.4390 7.9056 2.5494 -1.6548 37.1645
#
#
#
# Elastic Compliance Matrix: (Units=1/GPa)
#
#
# Indices 1 2 3 4 5 6 
#
# 1 0.011308 -0.000387 -0.002172 0.001566 -0.001113 0.007006
# 2 -0.000387 0.012655 -0.002227 0.010235 0.002171 0.006251
# 3 -0.002172 -0.002227 0.006020 -0.002290 -0.000282 -0.003627
# 4 0.001566 0.010235 -0.002290 0.038824 0.001985 0.004222
# 5 -0.001113 0.002171 -0.000282 0.001985 0.022625 0.001387
# 6 0.007006 0.006251 -0.003627 0.004222 0.001387 0.034997
#
#
# Mechanical properties :
#
#
# Convention : Reuss Voigt Hill
#
# Bulk Modulus (GPa) = 48.99764 66.89050 57.94407
# Shear Modulus (GPa) = 35.01263 45.49640 40.25451
#
# Velocity S-wave (km/s) = 3.63926 4.14849 3.90219
# Velocity P-wave (km/s) = 6.01609 6.94617 6.49779
#
# Compressibility (1/GPa) = 0.02040915
#
# Stress axis : x y z
#
# Youngs Moduli (GPa) = 88.43553 79.02255 166.10824
#
# Poissons Ratio (x) = 0.03060 0.36085
# Poissons Ratio (y) = 0.03424 0.36993
# Poissons Ratio (z) = 0.19212 0.17599
#
# Static dielectric constant tensor:
#      x y z
#    x 2.101420 -0.020800 0.054710 
#    y -0.020800 2.089680 0.035420 
#    z 0.054710 0.035420 2.135320 
# 
# From -- ./inp_files/86763.got.cif
#   From: 2010.05.17/outbox.cif.g08.bks.cpg/sg2_44_cif.got.tgz:86763.got - 2010.06.03 11:33:40.
