data_PCOD9088626
_publ_section_title
;
Structure prediction by ZEFSAII (Michael W. Deem and Ramdas Pophale) SiO2 
 PCOD9088626
Probable space group: P -1
;
_chemical_formula_sum "Si O2"
_cell_formula_units_Z 16
_cell_length_a 22.424002
_cell_length_b 12.410387
_cell_length_c 8.951728
_cell_angle_alpha 99.033683
_cell_angle_beta 50.178364
_cell_angle_gamma 141.737731
_cell_volume 813.454855
_symmetry_space_group_name_H-M "P -1"
_symmetry_group_IT_number 2
_symmetry_cell_setting 'triclinic'
loop_
_space_group_symop_operation_xyz
x,y,z
-x,-y,-z
loop_
_atom_site_type_symbol
_atom_site_label
_atom_site_fract_x
_atom_site_fract_y
_atom_site_fract_z
Si Si1 0.053013 0.446887 0.353077
Si Si2 0.360955 0.733703 0.102591
Si Si3 0.660081 0.037113 0.471961
Si Si4 0.709333 0.291066 0.261220
Si Si5 0.249519 0.028626 0.456515
Si Si6 0.588079 0.408186 0.816077
Si Si7 0.811079 0.810728 0.311189
Si Si8 0.547242 0.312702 0.542397
O O1 0.174718 0.548513 0.308741
O O2 0.000000 0.500000 0.500000
O O3 0.880708 0.159375 0.514768
O O4 0.174771 0.599175 0.041101
O O5 0.339430 0.608340 0.225506
O O6 0.466853 0.820288 0.808570
O O7 0.500000 0.000000 0.000000
O O8 0.606856 0.906452 0.377331
O O9 0.754019 0.270145 0.325847
O O10 0.757889 0.084943 0.445326
O O11 0.698443 0.407436 0.323049
O O12 0.500000 0.000000 0.500000
O O13 0.192475 0.064327 0.643066
O O14 0.452494 0.293822 0.123548
O O15 0.744165 0.679883 0.552173
O O16 0.478123 0.230543 0.805699
O O17 0.656209 0.563095 0.398724
O O18 0.000000 0.000000 0.000000
#
# Coordination Sequence:
#
# PCOD9088626 Si02
#       8
#     2   2   2   2   2   2   2   2
#     4  12  25  37  60  96 132 162 201 270 318 369
#     4  11  21  40  65  92 123 167 212 249 315 387
#     4  10  21  37  67  89 121 169 212 252 310 382
#     4  10  19  37  62  88 122 166 205 248 312 375
#     4  11  24  42  61  94 130 159 213 264 313 372
#     4   9  22  40  68  87 120 173 208 256 315 367
#     4  10  22  41  67  91 126 166 214 261 314 364
#     4   9  19  36  68  86 118 164 210 248 312 362
#
# _framework density 19.669191000000001
#
# number of rings (size 3 to 8) (size 9 to 14) (size 15 to 20)
#    0.750    1.000    2.500    3.375    5.250    1.000 
#    2.250    0.625    0.000    0.000    0.000    0.000 
#    0.000    0.000    0.000    0.000    0.000    0.000 
#
# Total GULP energy -89178.447812 kJ/mol
# GULP energy per Si atom -5573.652988 kJ/mol
# Density = 1.962442 g / cm^3
# Si number density = 19.669191 Si / 1000 Ang^3
#
#
#
# Elastic Constant Matrix: (Units=GPa)
#
#
# Indices 1 2 3 4 5 6 
#
# 1 88.3573 14.1675 18.7590 -5.8842 -14.3113 3.8765
# 2 14.1675 65.8023 -1.6539 6.6201 -22.6693 -5.0896
# 3 18.7590 -1.6539 87.9702 10.3136 -8.5368 -8.6704
# 4 -5.8842 6.6201 10.3136 31.1453 -2.6920 -2.5592
# 5 -14.3113 -22.6693 -8.5368 -2.6920 32.3588 5.0821
# 6 3.8765 -5.0896 -8.6704 -2.5592 5.0821 29.1871
#
#
#
# Elastic Compliance Matrix: (Units=1/GPa)
#
#
# Indices 1 2 3 4 5 6 
#
# 1 0.013539 -0.002143 -0.003336 0.004215 0.004520 -0.003580
# 2 -0.002143 0.021147 0.002935 -0.004500 0.013950 0.002021
# 3 -0.003336 0.002935 0.013421 -0.005107 0.003075 0.003959
# 4 0.004215 -0.004500 -0.005107 0.035594 0.000293 0.000208
# 5 0.004520 0.013950 0.003075 0.000293 0.044286 -0.004940
# 6 -0.003580 0.002021 0.003959 0.000208 -0.004940 0.037144
#
#
# Mechanical properties :
#
#
# Convention : Reuss Voigt Hill
#
# Bulk Modulus (GPa) = 23.24488 33.85277 28.54882
# Shear Modulus (GPa) = 27.09158 32.59539 29.84349
#
# Velocity S-wave (km/s) = 3.71531 4.07526 3.89944
# Velocity P-wave (km/s) = 5.49984 6.27631 5.90086
#
# Compressibility (1/GPa) = 0.04302023
#
# Stress axis : x y z
#
# Youngs Moduli (GPa) = 73.85910 47.28830 74.50818
#
# Poissons Ratio (x) = 0.10133 0.24854
# Poissons Ratio (y) = 0.15826 -0.21868
# Poissons Ratio (z) = 0.24638 -0.13879
#
# Static dielectric constant tensor:
#      x y z
#    x 1.737170 0.005490 0.011710 
#    y 0.005490 1.743930 0.009390 
#    z 0.011710 0.009390 1.709500 
# 
# From -- ./inp_files/346168.got.cif
#   From: 2010.05.17/outbox.cif.g08.bks.cpg/sg2_174_cif.got.tgz:346168.got - 2010.06.03 11:33:40.
