data_PCOD9088889
_publ_section_title
;
Structure prediction by ZEFSAII (Michael W. Deem and Ramdas Pophale) SiO2 
 PCOD9088889
Probable space group: P -1
;
_chemical_formula_sum "Si O2"
_cell_formula_units_Z 16
_cell_length_a 18.675013
_cell_length_b 20.895422
_cell_length_c 5.507952
_cell_angle_alpha 74.993550
_cell_angle_beta 86.098840
_cell_angle_gamma 151.330509
_cell_volume 767.705394
_symmetry_space_group_name_H-M "P -1"
_symmetry_group_IT_number 2
_symmetry_cell_setting 'triclinic'
loop_
_space_group_symop_operation_xyz
x,y,z
-x,-y,-z
loop_
_atom_site_type_symbol
_atom_site_label
_atom_site_fract_x
_atom_site_fract_y
_atom_site_fract_z
Si Si1 0.321162 0.659138 0.477376
Si Si2 0.723845 0.647069 0.076930
Si Si3 0.562298 0.634697 0.980984
Si Si4 0.503089 0.673290 0.342985
Si Si5 0.105338 0.510677 0.181915
Si Si6 0.209281 0.742433 0.820798
Si Si7 0.112227 0.042203 0.769201
Si Si8 0.457831 0.024246 0.806887
O O1 0.410354 0.662956 0.440868
O O2 0.185625 0.552935 0.374886
O O3 0.486347 0.857338 0.217451
O O4 0.221733 0.586454 0.836057
O O5 0.633747 0.557297 0.916489
O O6 0.637446 0.507995 0.363460
O O7 0.624701 0.633619 0.165493
O O8 0.949592 0.854595 0.872501
O O9 0.754431 0.804749 0.605621
O O10 0.526247 0.676809 0.050594
O O11 0.719341 0.851303 0.226060
O O12 0.889154 0.309609 0.340128
O O13 0.097559 0.584792 0.121257
O O14 0.395476 0.862754 0.561914
O O15 0.252905 0.835457 0.916070
O O16 0.000000 0.000000 0.000000
O O17 0.500000 0.000000 0.000000
#
# Coordination Sequence:
#
# PCOD9088889 Si02
#       8
#     2   2   2   2   2   2   2   2
#     4  11  25  42  62  89 136 170 212 264 333 388
#     4  10  22  39  64  92 121 161 216 271 317 386
#     4  10  22  38  66  93 123 164 212 273 326 384
#     4  11  25  42  62  89 132 174 210 270 336 395
#     4  10  22  40  65  92 123 168 213 266 315 391
#     4   9  20  36  65  96 119 160 221 266 317 372
#     4  11  23  39  65  98 123 161 221 274 324 392
#     4  10  19  37  63  94 128 166 209 272 319 381
#
# _framework density 20.841325999999999
#
# number of rings (size 3 to 8) (size 9 to 14) (size 15 to 20)
#    0.000    1.750    2.500    0.750    8.750    1.500 
#    2.250    0.000    0.000    0.000    0.000    0.000 
#    0.000    0.000    0.000    0.000    0.000    0.000 
#
# Total GULP energy -89072.207398 kJ/mol
# GULP energy per Si atom -5567.012962 kJ/mol
# Density = 2.079389 g / cm^3
# Si number density = 20.841326 Si / 1000 Ang^3
#
#
#
# Elastic Constant Matrix: (Units=GPa)
#
#
# Indices 1 2 3 4 5 6 
#
# 1 125.8369 56.6086 33.3349 -4.1194 -8.7946 -14.6817
# 2 56.6086 182.2793 40.5995 -23.2938 -0.8021 2.9335
# 3 33.3349 40.5995 73.6734 0.7424 -6.6065 -7.7206
# 4 -4.1194 -23.2938 0.7424 27.9666 -1.9899 2.7701
# 5 -8.7946 -0.8021 -6.6065 -1.9899 22.2017 1.1187
# 6 -14.6817 2.9335 -7.7206 2.7701 1.1187 29.8090
#
#
#
# Elastic Compliance Matrix: (Units=1/GPa)
#
#
# Indices 1 2 3 4 5 6 
#
# 1 0.010677 -0.002997 -0.002377 -0.001130 0.003064 0.004928
# 2 -0.002997 0.008164 -0.003720 0.006751 -0.001201 -0.003825
# 3 -0.002377 -0.003720 0.017474 -0.004052 0.003561 0.003964
# 4 -0.001130 0.006751 -0.004052 0.042135 0.002684 -0.006287
# 5 0.003064 -0.001201 0.003561 0.002684 0.047486 0.000518
# 6 0.004928 -0.003825 0.003964 -0.006287 0.000518 0.037942
#
#
# Mechanical properties :
#
#
# Convention : Reuss Voigt Hill
#
# Bulk Modulus (GPa) = 55.16163 71.43060 63.29611
# Shear Modulus (GPa) = 26.58063 32.74523 29.66293
#
# Velocity S-wave (km/s) = 3.57512 3.96810 3.77672
# Velocity P-wave (km/s) = 6.60052 7.43924 7.03240
#
# Compressibility (1/GPa) = 0.01812854
#
# Stress axis : x y z
#
# Youngs Moduli (GPa) = 93.66326 122.48615 57.22670
#
# Poissons Ratio (x) = 0.36703 0.13602
# Poissons Ratio (y) = 0.28067 0.21287
# Poissons Ratio (z) = 0.22263 0.45563
#
# Static dielectric constant tensor:
#      x y z
#    x 1.723390 0.005310 -0.000300 
#    y 0.005310 1.885490 -0.000690 
#    z -0.000300 -0.000690 1.894190 
# 
# From -- ./inp_files/112195.got.cif
#   From: 2010.05.17/outbox.cif.g08.bks.cpg/sg2_57_cif.got.tgz:112195.got - 2010.06.03 11:33:40.
