data_PCOD9088404
_publ_section_title
;
Structure prediction by ZEFSAII (Michael W. Deem and Ramdas Pophale) SiO2 
 PCOD9088404
Probable space group: P -1
;
_chemical_formula_sum "Si O2"
_cell_formula_units_Z 14
_cell_length_a 13.242257
_cell_length_b 9.571603
_cell_length_c 7.619554
_cell_angle_alpha 47.013588
_cell_angle_beta 111.599084
_cell_angle_gamma 113.604267
_cell_volume 640.822959
_symmetry_space_group_name_H-M "P -1"
_symmetry_group_IT_number 2
_symmetry_cell_setting 'triclinic'
loop_
_space_group_symop_operation_xyz
x,y,z
-x,-y,-z
loop_
_atom_site_type_symbol
_atom_site_label
_atom_site_fract_x
_atom_site_fract_y
_atom_site_fract_z
Si Si1 0.410391 0.824732 0.294977
Si Si2 0.860632 0.138154 0.371089
Si Si3 0.645481 0.901895 0.263870
Si Si4 0.069896 0.667516 0.107959
Si Si5 0.217586 0.906190 0.285435
Si Si6 0.752027 0.550709 0.645544
Si Si7 0.844288 0.749293 0.867808
O O1 0.539236 0.819300 0.390172
O O2 0.337435 0.852827 0.392773
O O3 0.342042 0.635484 0.310313
O O4 0.399764 0.010414 0.010865
O O5 0.851720 0.215616 0.494998
O O6 0.734227 0.066023 0.281514
O O7 0.895874 0.931998 0.610886
O O8 0.921891 0.277636 0.140801
O O9 0.711468 0.738554 0.391506
O O10 0.150243 0.840706 0.120335
O O11 0.131115 0.487470 0.319621
O O12 0.944739 0.667242 0.081922
O O13 0.218337 0.131603 0.141410
O O14 0.768411 0.589875 0.831352
#
# Coordination Sequence:
#
# PCOD9088404 Si02
#       7
#     2   2   2   2   2   2   2
#     4  10  20  37  64  81 113 153 184 238 287 328
#     4   9  19  34  57  85 112 141 194 225 273 337
#     4  10  19  37  61  85 109 152 191 227 290 336
#     4  11  18  37  59  81 119 153 182 235 280 328
#     4   9  20  34  58  88 110 149 193 232 272 344
#     4  10  20  35  58  87 113 148 190 234 275 344
#     4   9  20  34  56  85 117 147 189 231 279 332
#
# _framework density 21.846907000000002
#
# number of rings (size 3 to 8) (size 9 to 14) (size 15 to 20)
#    0.857    1.429    2.857    1.714    0.000    0.571 
#    0.000    2.857    0.000    7.714    0.000    0.000 
#    0.000    0.000    0.000    0.000    0.000    0.000 
#
# Total GULP energy -77977.214732 kJ/mol
# GULP energy per Si atom -5569.801052 kJ/mol
# Density = 2.179718 g / cm^3
# Si number density = 21.846907 Si / 1000 Ang^3
#
#
#
# Elastic Constant Matrix: (Units=GPa)
#
#
# Indices 1 2 3 4 5 6 
#
# 1 59.0542 30.9293 15.8032 -9.6517 9.9435 -8.7571
# 2 30.9293 83.3736 -4.8008 -14.1629 6.5948 -19.7501
# 3 15.8032 -4.8008 51.5669 -9.3093 14.0878 -11.6815
# 4 -9.6517 -14.1629 -9.3093 23.1837 -7.2475 1.7976
# 5 9.9435 6.5948 14.0878 -7.2475 29.2987 -0.7301
# 6 -8.7571 -19.7501 -11.6815 1.7976 -0.7301 30.6430
#
#
#
# Elastic Compliance Matrix: (Units=1/GPa)
#
#
# Indices 1 2 3 4 5 6 
#
# 1 0.024389 -0.009982 -0.008438 0.000262 -0.001977 -0.002743
# 2 -0.009982 0.022306 0.011813 0.011776 -0.004020 0.015241
# 3 -0.008438 0.011813 0.032187 0.011600 -0.011991 0.016506
# 4 0.000262 0.011776 0.011600 0.056219 0.005812 0.008927
# 5 -0.001977 -0.004020 -0.011991 0.005812 0.042735 -0.007050
# 6 -0.002743 0.015241 0.016506 0.008927 -0.007050 0.047274
#
#
# Mechanical properties :
#
#
# Convention : Reuss Voigt Hill
#
# Bulk Modulus (GPa) = 15.22834 30.87312 23.05073
# Shear Modulus (GPa) = 19.21503 26.76261 22.98882
#
# Velocity S-wave (km/s) = 2.96891 3.50381 3.24739
# Velocity P-wave (km/s) = 4.32876 5.52550 4.96333
#
# Compressibility (1/GPa) = 0.06566703
#
# Stress axis : x y z
#
# Youngs Moduli (GPa) = 41.00282 44.83045 31.06853
#
# Poissons Ratio (x) = 0.44751 0.26214
# Poissons Ratio (y) = 0.40930 -0.36700
# Poissons Ratio (z) = 0.34596 -0.52956
#
# Static dielectric constant tensor:
#      x y z
#    x 1.879660 -0.009710 -0.032120 
#    y -0.009710 1.800110 -0.009720 
#    z -0.032120 -0.009720 1.856000 
# 
# From -- ./inp_files/294203.got.cif
#   From: 2010.05.17/outbox.cif.g08.bks.cpg/sg2_148_cif.got.tgz:294203.got - 2010.06.03 11:33:40.
