data_PCOD9088892
_publ_section_title
;
Structure prediction by ZEFSAII (Michael W. Deem and Ramdas Pophale) SiO2 
 PCOD9088892
Probable space group: P -1
;
_chemical_formula_sum "Si O2"
_cell_formula_units_Z 14
_cell_length_a 9.225925
_cell_length_b 9.295000
_cell_length_c 8.797668
_cell_angle_alpha 111.295507
_cell_angle_beta 94.756293
_cell_angle_gamma 109.102203
_cell_volume 646.546063
_symmetry_space_group_name_H-M "P -1"
_symmetry_group_IT_number 2
_symmetry_cell_setting 'triclinic'
loop_
_space_group_symop_operation_xyz
x,y,z
-x,-y,-z
loop_
_atom_site_type_symbol
_atom_site_label
_atom_site_fract_x
_atom_site_fract_y
_atom_site_fract_z
Si Si1 0.166977 0.025687 0.179115
Si Si2 0.489749 0.166533 0.133025
Si Si3 0.375661 0.463089 0.690400
Si Si4 0.188433 0.091456 0.550608
Si Si5 0.728750 0.178461 0.386304
Si Si6 0.287248 0.526281 0.360880
Si Si7 0.030714 0.771217 0.838324
O O1 0.308323 0.137327 0.123847
O O2 0.228964 0.064318 0.369712
O O3 0.020885 0.082669 0.176156
O O4 0.113499 0.840832 0.032762
O O5 0.587853 0.356224 0.158159
O O6 0.560237 0.160456 0.302481
O O7 0.500000 0.000000 0.000000
O O8 0.251620 0.287237 0.672872
O O9 0.311692 0.476396 0.519142
O O10 0.545583 0.447556 0.688898
O O11 0.262185 0.992573 0.626693
O O12 0.000000 0.000000 0.500000
O O13 0.756723 0.311310 0.572836
O O14 0.851706 0.251269 0.285383
O O15 0.133246 0.383986 0.224482
#
# Coordination Sequence:
#
# PCOD9088892 Si02
#       7
#     2   2   2   2   2   2   2
#     4  11  22  38  66  87 130 166 206 259 318 362
#     4  11  22  42  67  96 122 161 220 263 303 371
#     4  10  20  38  63  89 125 169 203 261 314 369
#     4  12  23  42  62  95 130 167 203 260 322 376
#     4  11  23  36  67  94 125 162 214 262 309 367
#     4  10  19  37  63  95 119 161 225 254 298 377
#     4  11  20  38  64  93 119 169 214 257 307 368
#
# _framework density 21.653521999999999
#
# number of rings (size 3 to 8) (size 9 to 14) (size 15 to 20)
#    0.000    1.143    5.714    2.143    0.000    3.429 
#    0.000    1.429    0.000    0.000    0.000    0.000 
#    0.000    0.000    0.000    0.000    0.000    0.000 
#
# Total GULP energy -78051.970731 kJ/mol
# GULP energy per Si atom -5575.140766 kJ/mol
# Density = 2.160424 g / cm^3
# Si number density = 21.653522 Si / 1000 Ang^3
#
#
#
# Elastic Constant Matrix: (Units=GPa)
#
#
# Indices 1 2 3 4 5 6 
#
# 1 94.1456 30.9823 6.8102 16.0851 -9.6739 7.9323
# 2 30.9823 120.4889 25.2217 45.5781 -2.5703 4.8336
# 3 6.8102 25.2217 57.8858 37.6610 -1.6345 10.5427
# 4 16.0851 45.5781 37.6610 38.0365 0.9348 8.2811
# 5 -9.6739 -2.5703 -1.6345 0.9348 30.1668 9.1155
# 6 7.9323 4.8336 10.5427 8.2811 9.1155 31.7613
#
#
#
# Elastic Compliance Matrix: (Units=1/GPa)
#
#
# Indices 1 2 3 4 5 6 
#
# 1 0.013138 -0.000258 0.006838 -0.011218 0.006231 -0.004375
# 2 -0.000258 0.022066 0.021639 -0.048045 0.004204 0.000844
# 3 0.006838 0.021639 0.074980 -0.101824 0.013428 -0.007195
# 4 -0.011218 -0.048045 -0.101824 0.189923 -0.019051 -0.000138
# 5 0.006231 0.004204 0.013428 -0.019051 0.040878 -0.013418
# 6 -0.004375 0.000844 -0.007195 -0.000138 -0.013418 0.038724
#
#
# Mechanical properties :
#
#
# Convention : Reuss Voigt Hill
#
# Bulk Modulus (GPa) = 6.00159 44.28319 25.14239
# Shear Modulus (GPa) = 13.19925 33.95999 23.57962
#
# Velocity S-wave (km/s) = 2.47162 3.96452 3.30351
# Velocity P-wave (km/s) = 3.30497 6.43830 5.11735
#
# Compressibility (1/GPa) = 0.16662251
#
# Stress axis : x y z
#
# Youngs Moduli (GPa) = 76.11777 45.31840 13.33697
#
# Poissons Ratio (x) = 0.01167 -0.09120
# Poissons Ratio (y) = 0.01960 -0.28860
# Poissons Ratio (z) = -0.52050 -0.98065
#
# Static dielectric constant tensor:
#      x y z
#    x 1.770060 0.003850 -0.010060 
#    y 0.003850 1.875400 0.083940 
#    z -0.010060 0.083940 1.936040 
# 
# From -- ./inp_files/157267.got.cif
#   From: 2010.05.17/outbox.cif.g08.bks.cpg/sg2_79_cif.got.tgz:157267.got - 2010.06.03 11:33:40.
