data_PCOD9088062
_publ_section_title
;
Structure prediction by ZEFSAII (Michael W. Deem and Ramdas Pophale) SiO2 
 PCOD9088062
Probable space group: P -1
;
_chemical_formula_sum "Si O2"
_cell_formula_units_Z 12
_cell_length_a 5.071701
_cell_length_b 12.260904
_cell_length_c 9.525148
_cell_angle_alpha 63.252282
_cell_angle_beta 88.569045
_cell_angle_gamma 95.115974
_cell_volume 525.409146
_symmetry_space_group_name_H-M "P -1"
_symmetry_group_IT_number 2
_symmetry_cell_setting 'triclinic'
loop_
_space_group_symop_operation_xyz
x,y,z
-x,-y,-z
loop_
_atom_site_type_symbol
_atom_site_label
_atom_site_fract_x
_atom_site_fract_y
_atom_site_fract_z
Si Si1 0.064414 0.772131 0.820069
Si Si2 0.995061 0.358574 0.399967
Si Si3 0.565711 0.914761 0.826793
Si Si4 0.520359 0.646004 0.414525
Si Si5 0.817657 0.102384 0.891312
Si Si6 0.160956 0.646980 0.174658
O O1 0.320127 0.876046 0.748533
O O2 0.007076 0.703217 0.715614
O O3 0.804396 0.833881 0.837454
O O4 0.145800 0.675042 0.993268
O O5 0.222048 0.314089 0.520868
O O6 0.040738 0.508373 0.292784
O O7 0.723366 0.323728 0.504431
O O8 0.697937 0.054188 0.771805
O O9 0.413014 0.893161 0.990964
O O10 0.500000 0.500000 0.500000
O O11 0.443450 0.667765 0.240892
O O12 0.971639 0.238087 0.823141
O O13 0.000000 0.000000 0.000000
#
# Coordination Sequence:
#
# PCOD9088062 Si02
#       6
#     2   2   2   2   2   2
#     4  11  22  37  62  89 125 153 193 244 304 355
#     4  11  23  41  59  90 127 158 185 243 310 360
#     4  10  20  36  56  88 119 157 187 247 300 335
#     4  10  22  41  59  85 124 160 197 239 291 358
#     4  10  19  37  58  90 121 149 200 256 289 330
#     4  10  21  38  64  93 113 156 204 247 286 351
#
# _framework density 22.839345000000002
#
# number of rings (size 3 to 8) (size 9 to 14) (size 15 to 20)
#    0.000    1.667    3.333    3.500    0.000    8.000 
#    0.000    8.333    0.000    6.000    0.000    0.000 
#    0.000    0.000    0.000    0.000    0.000    0.000 
#
# Total GULP energy -66863.108658 kJ/mol
# GULP energy per Si atom -5571.925722 kJ/mol
# Density = 2.278736 g / cm^3
# Si number density = 22.839345 Si / 1000 Ang^3
#
#
#
# Elastic Constant Matrix: (Units=GPa)
#
#
# Indices 1 2 3 4 5 6 
#
# 1 168.6652 60.1361 47.8177 20.3365 21.6650 -12.2055
# 2 60.1361 153.1345 49.3912 19.2519 10.6958 10.0419
# 3 47.8177 49.3912 92.4842 37.4351 27.0452 1.6422
# 4 20.3365 19.2519 37.4351 29.0037 4.1639 4.3507
# 5 21.6650 10.6958 27.0452 4.1639 25.6366 2.6475
# 6 -12.2055 10.0419 1.6422 4.3507 2.6475 39.3142
#
#
#
# Elastic Compliance Matrix: (Units=1/GPa)
#
#
# Indices 1 2 3 4 5 6 
#
# 1 0.008419 -0.002841 0.001180 -0.005216 -0.006773 0.004324
# 2 -0.002841 0.009117 -0.006592 0.004259 0.005248 -0.003760
# 3 0.001180 -0.006592 0.045585 -0.050961 -0.038928 0.008407
# 4 -0.005216 0.004259 -0.050961 0.097168 0.042073 -0.014165
# 5 -0.006773 0.005248 -0.038928 0.042073 0.077985 -0.011725
# 6 0.004324 -0.003760 0.008407 -0.014165 -0.011725 0.029745
#
#
# Mechanical properties :
#
#
# Convention : Reuss Voigt Hill
#
# Bulk Modulus (GPa) = 21.45271 80.99708 51.22490
# Shear Modulus (GPa) = 16.66309 35.92015 26.29162
#
# Velocity S-wave (km/s) = 2.70400 3.97007 3.39655
# Velocity P-wave (km/s) = 4.37745 7.52038 6.15297
#
# Compressibility (1/GPa) = 0.04661415
#
# Stress axis : x y z
#
# Youngs Moduli (GPa) = 118.77294 109.68972 21.93707
#
# Poissons Ratio (x) = 0.31168 -0.02588
# Poissons Ratio (y) = 0.33749 0.14460
# Poissons Ratio (z) = -0.14011 0.72303
#
# Static dielectric constant tensor:
#      x y z
#    x 1.964690 0.051330 0.010600 
#    y 0.051330 1.917700 -0.062700 
#    z 0.010600 -0.062700 1.884310 
# 
# From -- ./inp_files/130596.got.cif
#   From: 2010.05.17/outbox.cif.g08.bks.cpg/sg2_66_cif.got.tgz:130596.got - 2010.06.03 11:33:40.
