data_PCOD9088637
_publ_section_title
;
Structure prediction by ZEFSAII (Michael W. Deem and Ramdas Pophale) SiO2 
 PCOD9088637
Probable space group: P -1
;
_chemical_formula_sum "Si O2"
_cell_formula_units_Z 16
_cell_length_a 13.272963
_cell_length_b 9.957117
_cell_length_c 9.990773
_cell_angle_alpha 72.011146
_cell_angle_beta 34.528461
_cell_angle_gamma 54.257292
_cell_volume 563.177775
_symmetry_space_group_name_H-M "P -1"
_symmetry_group_IT_number 2
_symmetry_cell_setting 'triclinic'
loop_
_space_group_symop_operation_xyz
x,y,z
-x,-y,-z
loop_
_atom_site_type_symbol
_atom_site_label
_atom_site_fract_x
_atom_site_fract_y
_atom_site_fract_z
Si Si1 0.156321 0.976467 0.955747
Si Si2 0.956691 0.271786 0.786720
Si Si3 0.713582 0.941595 0.869742
Si Si4 0.913487 0.334281 0.282184
Si Si5 0.411184 0.183414 0.372380
Si Si6 0.315055 0.466499 0.203744
Si Si7 0.379578 0.782018 0.281255
Si Si8 0.657887 0.552651 0.265336
O O1 0.419682 0.877848 0.670264
O O2 0.139222 0.838222 0.099838
O O3 0.000000 0.000000 0.000000
O O4 0.030451 0.171665 0.095479
O O5 0.914834 0.370643 0.661574
O O6 0.212563 0.167424 0.586198
O O7 0.811084 0.416836 0.018891
O O8 0.796714 0.023100 0.650636
O O9 0.600673 0.057311 0.092583
O O10 0.894826 0.743891 0.790623
O O11 0.500000 0.000000 0.000000
O O12 0.733127 0.316568 0.551777
O O13 0.804653 0.507130 0.253163
O O14 0.301694 0.383147 0.379275
O O15 0.500000 0.500000 0.000000
O O16 0.425272 0.319518 0.010818
O O17 0.496864 0.745672 0.309282
O O18 0.500000 0.500000 0.500000
#
# Coordination Sequence:
#
# PCOD9088637 Si02
#       8
#     2   2   2   2   2   2   2   2
#     4  11  22  38  60  89 120 163 204 248 309 361
#     4  11  21  37  64  88 122 160 199 256 309 355
#     4  10  22  38  55  85 125 156 196 252 301 358
#     4  10  20  38  60  86 118 154 208 245 300 370
#     4  10  23  39  59  94 123 155 208 252 301 370
#     4  10  19  37  62  89 120 161 203 249 307 361
#     4   9  20  36  61  83 115 158 201 245 299 362
#     4   9  19  39  63  83 116 158 199 252 303 360
#
# _framework density 28.410215000000001
#
# number of rings (size 3 to 8) (size 9 to 14) (size 15 to 20)
#    0.000    2.000    2.500    0.750    1.750    1.500 
#    0.000    0.625    0.000    0.000    0.000    0.000 
#    0.000    0.000    0.000    0.000    0.000    0.000 
#
# Total GULP energy -89444.341730 kJ/mol
# GULP energy per Si atom -5590.271358 kJ/mol
# Density = 2.834555 g / cm^3
# Si number density = 28.410215 Si / 1000 Ang^3
#
#
#
# Elastic Constant Matrix: (Units=GPa)
#
#
# Indices 1 2 3 4 5 6 
#
# 1 147.9016 42.5349 44.6808 8.7904 -21.5463 -46.1161
# 2 42.5349 74.0041 24.8568 21.9997 -16.2676 -18.2664
# 3 44.6808 24.8568 104.0246 8.1634 -24.1954 -8.9565
# 4 8.7904 21.9997 8.1634 34.8066 5.3843 -10.3468
# 5 -21.5463 -16.2676 -24.1954 5.3843 61.7948 7.3006
# 6 -46.1161 -18.2664 -8.9565 -10.3468 7.3006 52.5495
#
#
#
# Elastic Compliance Matrix: (Units=1/GPa)
#
#
# Indices 1 2 3 4 5 6 
#
# 1 0.011558 -0.004213 -0.003381 0.003065 0.000307 0.008663
# 2 -0.004213 0.021218 -0.001131 -0.012720 0.004744 0.000322
# 3 -0.003381 -0.001131 0.012224 -0.002575 0.003807 -0.002313
# 4 0.003065 -0.012720 -0.002575 0.039760 -0.007545 0.006706
# 5 0.000307 0.004744 0.003807 -0.007545 0.019885 -0.001681
# 6 0.008663 0.000322 -0.002313 0.006706 -0.001681 0.027904
#
#
# Mechanical properties :
#
#
# Convention : Reuss Voigt Hill
#
# Bulk Modulus (GPa) = 36.29800 61.11948 48.70874
# Shear Modulus (GPa) = 31.41064 44.08737 37.74901
#
# Velocity S-wave (km/s) = 3.32868 3.94358 3.64911
# Velocity P-wave (km/s) = 5.25144 6.50351 5.91072
#
# Compressibility (1/GPa) = 0.02754972
#
# Stress axis : x y z
#
# Youngs Moduli (GPa) = 86.52089 47.13063 81.80584
#
# Poissons Ratio (x) = 0.19855 0.27659
# Poissons Ratio (y) = 0.36449 0.09254
# Poissons Ratio (z) = 0.29253 0.05331
#
# Static dielectric constant tensor:
#      x y z
#    x 2.388520 -0.015750 -0.034110 
#    y -0.015750 2.001240 0.234510 
#    z -0.034110 0.234510 2.035940 
# 
# From -- ./inp_files/432575.got.cif
#   From: 2010.05.17/outbox.cif.g08.bks.cpg/sg2_217_cif.got.tgz:432575.got - 2010.06.03 11:33:40.
