data_PCOD9088387
_publ_section_title
;
Structure prediction by ZEFSAII (Michael W. Deem and Ramdas Pophale) SiO2 
 PCOD9088387
Probable space group: P -1
;
_chemical_formula_sum "Si O2"
_cell_formula_units_Z 16
_cell_length_a 10.468168
_cell_length_b 16.277103
_cell_length_c 5.245600
_cell_angle_alpha 73.261923
_cell_angle_beta 96.001986
_cell_angle_gamma 92.115612
_cell_volume 851.222301
_symmetry_space_group_name_H-M "P -1"
_symmetry_group_IT_number 2
_symmetry_cell_setting 'triclinic'
loop_
_space_group_symop_operation_xyz
x,y,z
-x,-y,-z
loop_
_atom_site_type_symbol
_atom_site_label
_atom_site_fract_x
_atom_site_fract_y
_atom_site_fract_z
Si Si1 0.109849 0.072422 0.001289
Si Si2 0.981524 0.837950 0.588910
Si Si3 0.712889 0.141293 0.345878
Si Si4 0.361660 0.961153 0.082851
Si Si5 0.030586 0.641389 0.821424
Si Si6 0.685244 0.340746 0.254831
Si Si7 0.384357 0.562959 0.366422
Si Si8 0.113247 0.508402 0.321922
O O1 0.083046 0.141351 0.712659
O O2 0.086395 0.111227 0.241610
O O3 0.249964 0.032068 0.028406
O O4 0.000000 0.000000 0.000000
O O5 0.132309 0.864767 0.581762
O O6 0.979562 0.736690 0.735700
O O7 0.642543 0.090283 0.604965
O O8 0.677248 0.241284 0.265891
O O9 0.679817 0.101246 0.101468
O O10 0.500000 0.000000 0.000000
O O11 0.161505 0.641689 0.680799
O O12 0.920895 0.571140 0.800003
O O13 0.092923 0.603451 0.122069
O O14 0.616133 0.363396 0.484089
O O15 0.631106 0.398419 0.957332
O O16 0.500000 0.500000 0.500000
O O17 0.257444 0.505312 0.443240
O O18 0.000000 0.500000 0.500000
#
# Coordination Sequence:
#
# PCOD9088387 Si02
#       8
#     2   2   2   2   2   2   2   2
#     4  12  22  40  63  90 121 153 200 249 305 356
#     4  11  22  37  65  95 118 151 206 259 297 344
#     4  11  21  40  65  88 117 155 204 251 292 355
#     4  12  25  41  62  88 121 162 196 237 307 368
#     4   9  21  35  59  93 117 155 198 252 296 346
#     4  10  21  38  62  88 114 153 207 243 287 349
#     4  11  22  38  59  89 120 159 197 240 291 353
#     4  10  19  37  61  82 123 156 198 238 296 354
#
# _framework density 18.796500000000002
#
# number of rings (size 3 to 8) (size 9 to 14) (size 15 to 20)
#    0.000    1.250    3.750    2.625    1.750    2.000 
#    0.000    3.750    0.000    0.000    0.000    0.000 
#    0.000    0.000    0.000    0.000    0.000    0.000 
#
# Total GULP energy -89232.603899 kJ/mol
# GULP energy per Si atom -5577.037744 kJ/mol
# Density = 1.875372 g / cm^3
# Si number density = 18.796500 Si / 1000 Ang^3
#
#
#
# Elastic Constant Matrix: (Units=GPa)
#
#
# Indices 1 2 3 4 5 6 
#
# 1 113.3159 32.8933 19.1582 -11.8636 1.4900 -14.5820
# 2 32.8933 65.4956 29.2336 -10.7971 1.3913 -14.3665
# 3 19.1582 29.2336 54.8930 8.9892 -10.8293 -2.7267
# 4 -11.8636 -10.7971 8.9892 32.6690 -1.0488 -3.4674
# 5 1.4900 1.3913 -10.8293 -1.0488 24.2654 0.0490
# 6 -14.5820 -14.3665 -2.7267 -3.4674 0.0490 21.1123
#
#
#
# Elastic Compliance Matrix: (Units=1/GPa)
#
#
# Indices 1 2 3 4 5 6 
#
# 1 0.011514 -0.001140 -0.004451 0.005754 -0.002395 0.007553
# 2 -0.001140 0.033760 -0.021657 0.018744 -0.010766 0.022492
# 3 -0.004451 -0.021657 0.037208 -0.020194 0.017280 -0.016363
# 4 0.005754 0.018744 -0.020194 0.046490 -0.008475 0.021776
# 5 -0.002395 -0.010766 0.017280 -0.008475 0.049338 -0.008255
# 6 0.007553 0.022492 -0.016363 0.021776 -0.008255 0.069370
#
#
# Mechanical properties :
#
#
# Convention : Reuss Voigt Hill
#
# Bulk Modulus (GPa) = 35.73338 44.03052 39.88195
# Shear Modulus (GPa) = 16.05116 25.77063 20.91089
#
# Velocity S-wave (km/s) = 2.92540 3.70676 3.33902
# Velocity P-wave (km/s) = 5.51929 6.46497 6.01076
#
# Compressibility (1/GPa) = 0.02798504
#
# Stress axis : x y z
#
# Youngs Moduli (GPa) = 86.84982 29.62124 26.87618
#
# Poissons Ratio (x) = 0.03376 0.11963
# Poissons Ratio (y) = 0.09899 0.58207
# Poissons Ratio (z) = 0.38657 0.64152
#
# Static dielectric constant tensor:
#      x y z
#    x 0.457940 0.140370 0.466350 
#    y 0.140370 1.673140 -0.018800 
#    z 0.466350 -0.018800 1.502440 
# 
# From -- ./inp_files/37427.got.cif
#   From: 2010.05.17/outbox.cif.g08.bks.cpg/sg2_19_cif.got.tgz:37427.got - 2010.06.03 11:33:40.
