data_PCOD9088875
_publ_section_title
;
Structure prediction by ZEFSAII (Michael W. Deem and Ramdas Pophale) SiO2 
 PCOD9088875
Probable space group: P -1
;
_chemical_formula_sum "Si O2"
_cell_formula_units_Z 14
_cell_length_a 9.743521
_cell_length_b 11.811191
_cell_length_c 8.666260
_cell_angle_alpha 69.530031
_cell_angle_beta 99.564257
_cell_angle_gamma 55.306610
_cell_volume 676.406383
_symmetry_space_group_name_H-M "P -1"
_symmetry_group_IT_number 2
_symmetry_cell_setting 'triclinic'
loop_
_space_group_symop_operation_xyz
x,y,z
-x,-y,-z
loop_
_atom_site_type_symbol
_atom_site_label
_atom_site_fract_x
_atom_site_fract_y
_atom_site_fract_z
Si Si1 0.361404 0.686114 0.823488
Si Si2 0.811873 0.563024 0.518273
Si Si3 0.689458 0.670567 0.920102
Si Si4 0.919129 0.657189 0.756658
Si Si5 0.906202 0.275469 0.495151
Si Si6 0.479201 0.150821 0.879447
Si Si7 0.135057 0.958714 0.906126
O O1 0.502806 0.714846 0.799535
O O2 0.243443 0.709151 0.644328
O O3 0.218100 0.808982 0.875522
O O4 0.500000 0.500000 0.000000
O O5 0.857776 0.568756 0.699555
O O6 0.799942 0.434651 0.511255
O O7 0.633537 0.747600 0.343200
O O8 0.000000 0.500000 0.500000
O O9 0.754168 0.756053 0.806669
O O10 0.643558 0.719935 0.066744
O O11 0.878202 0.476998 0.058886
O O12 0.954784 0.736425 0.594776
O O13 0.028991 0.116884 0.701600
O O14 0.683451 0.089301 0.956229
O O15 0.500000 0.000000 0.000000
O O16 0.000000 0.000000 0.000000
#
# Coordination Sequence:
#
# PCOD9088875 Si02
#       7
#     2   2   2   2   2   2   2
#     4  11  22  44  66  92 131 170 212 265 323 383
#     4  10  19  37  63  93 125 162 213 260 319 370
#     4  10  21  37  61  96 122 160 205 257 314 380
#     4  10  20  37  64  94 123 155 209 258 315 377
#     4  11  21  42  65  89 129 171 208 266 318 378
#     4  11  21  40  63  91 130 168 208 264 315 378
#     4  11  27  43  62  94 130 172 218 264 321 381
#
# _framework density 20.697617000000001
#
# number of rings (size 3 to 8) (size 9 to 14) (size 15 to 20)
#    0.000    1.429    4.286    3.000    0.000    3.429 
#    0.000    8.571    0.000    0.000    0.000    0.000 
#    0.000    0.000    0.000    0.000    0.000    0.000 
#
# Total GULP energy -78088.741605 kJ/mol
# GULP energy per Si atom -5577.767258 kJ/mol
# Density = 2.065051 g / cm^3
# Si number density = 20.697617 Si / 1000 Ang^3
#
#
#
# Elastic Constant Matrix: (Units=GPa)
#
#
# Indices 1 2 3 4 5 6 
#
# 1 101.0352 32.5494 50.5420 8.8957 -0.4250 -23.3400
# 2 32.5494 59.3997 38.5875 -9.7328 5.6160 1.7942
# 3 50.5420 38.5875 151.2160 -6.4085 6.2055 -3.0371
# 4 8.8957 -9.7328 -6.4085 32.4725 9.3935 0.8741
# 5 -0.4250 5.6160 6.2055 9.3935 43.6147 7.2448
# 6 -23.3400 1.7942 -3.0371 0.8741 7.2448 30.2890
#
#
#
# Elastic Compliance Matrix: (Units=1/GPa)
#
#
# Indices 1 2 3 4 5 6 
#
# 1 0.019811 -0.010487 -0.004150 -0.010326 0.001810 0.015336
# 2 -0.010487 0.027105 -0.002923 0.011882 -0.004187 -0.009321
# 3 -0.004150 -0.002923 0.008854 0.002382 -0.001115 -0.001939
# 4 -0.010326 0.011882 0.002382 0.040600 -0.009498 -0.007322
# 5 0.001810 -0.004187 -0.001115 -0.009498 0.026440 -0.004519
# 6 0.015336 -0.009321 -0.001939 -0.007322 -0.004519 0.046483
#
#
# Mechanical properties :
#
#
# Convention : Reuss Voigt Hill
#
# Bulk Modulus (GPa) = 48.42451 61.66761 55.04606
# Shear Modulus (GPa) = 23.66357 33.94003 28.80180
#
# Velocity S-wave (km/s) = 3.38494 4.05384 3.73440
# Velocity P-wave (km/s) = 6.22287 7.19519 6.72662
#
# Compressibility (1/GPa) = 0.02065070
#
# Stress axis : x y z
#
# Youngs Moduli (GPa) = 50.47656 36.89362 112.94621
#
# Poissons Ratio (x) = 0.38689 0.46867
# Poissons Ratio (y) = 0.52933 0.33020
# Poissons Ratio (z) = 0.20945 0.10786
#
# Static dielectric constant tensor:
#      x y z
#    x 1.788730 0.003160 -0.051010 
#    y 0.003160 1.814390 0.024720 
#    z -0.051010 0.024720 1.805010 
# 
# From -- ./inp_files/186013.got.cif
#   From: 2010.05.17/outbox.cif.g08.bks.cpg/sg2_94_cif.got.tgz:186013.got - 2010.06.03 11:33:40.
