data_PCOD9088135
_publ_section_title
;
Structure prediction by ZEFSAII (Michael W. Deem and Ramdas Pophale) SiO2 
 PCOD9088135
Probable space group: P -1
;
_chemical_formula_sum "Si O2"
_cell_formula_units_Z 14
_cell_length_a 15.913803
_cell_length_b 6.875288
_cell_length_c 18.807939
_cell_angle_alpha 124.349992
_cell_angle_beta 158.734794
_cell_angle_gamma 64.390698
_cell_volume 585.307270
_symmetry_space_group_name_H-M "P -1"
_symmetry_group_IT_number 2
_symmetry_cell_setting 'triclinic'
loop_
_space_group_symop_operation_xyz
x,y,z
-x,-y,-z
loop_
_atom_site_type_symbol
_atom_site_label
_atom_site_fract_x
_atom_site_fract_y
_atom_site_fract_z
Si Si1 0.250692 0.323859 0.500650
Si Si2 0.255335 0.631238 0.161976
Si Si3 0.744238 0.427939 0.687196
Si Si4 0.568508 0.317960 0.161931
Si Si5 0.130133 0.041989 0.687169
Si Si6 0.717909 0.187156 0.467908
Si Si7 0.259226 0.085795 0.009227
O O1 0.485167 0.246476 0.644767
O O2 0.304560 0.427240 0.644852
O O3 0.249819 0.560167 0.499799
O O4 0.993463 0.123620 0.243447
O O5 0.269684 0.684238 0.267912
O O6 0.220176 0.336928 0.060974
O O7 0.002414 0.652569 0.936532
O O8 0.500000 0.500000 0.500000
O O9 0.747629 0.260157 0.587910
O O10 0.401717 0.155249 0.060926
O O11 0.766099 0.187836 0.267921
O O12 0.370564 0.284348 0.936505
O O13 0.928149 0.079514 0.587847
O O14 0.000000 0.000000 0.500000
O O15 0.448004 0.019716 0.198004
#
# Coordination Sequence:
#
# PCOD9088135 Si02
#       7
#     2   2   2   2   2   2   2
#     4  10  19  37  59  86 119 150 188 228 280 342
#     4   9  21  37  61  84 114 155 184 233 286 329
#     4  11  18  38  65  82 113 151 191 235 285 335
#     4   9  21  37  61  84 114 155 184 233 286 329
#     4  11  18  38  65  82 113 151 191 235 285 335
#     4  10  20  36  58  86 114 150 188 240 284 330
#     4  10  19  37  59  86 119 150 188 228 280 342
#
# _framework density 23.919058
#
# number of rings (size 3 to 8) (size 9 to 14) (size 15 to 20)
#    0.000    2.286    5.714    1.714    0.000    0.000 
#    0.000   17.143    0.000    0.000    0.000    0.000 
#    0.000    0.000    0.000    0.000    0.000    0.000 
#
# Total GULP energy -78268.308942 kJ/mol
# GULP energy per Si atom -5590.593496 kJ/mol
# Density = 2.386462 g / cm^3
# Si number density = 23.919058 Si / 1000 Ang^3
#
#
#
# Elastic Constant Matrix: (Units=GPa)
#
#
# Indices 1 2 3 4 5 6 
#
# 1 117.1522 54.6658 68.2581 -3.9445 -17.0347 -47.8618
# 2 54.6658 57.2777 54.8732 -12.7786 9.1059 -8.8501
# 3 68.2581 54.8732 255.6401 -18.3476 -6.8305 -10.5484
# 4 -3.9445 -12.7786 -18.3476 45.1117 -6.3241 10.5967
# 5 -17.0347 9.1059 -6.8305 -6.3241 53.9373 -1.9016
# 6 -47.8618 -8.8501 -10.5484 10.5967 -1.9016 41.6191
#
#
#
# Elastic Compliance Matrix: (Units=1/GPa)
#
#
# Indices 1 2 3 4 5 6 
#
# 1 0.131609 -0.118986 -0.005738 -0.048942 0.060117 0.139802
# 2 -0.118986 0.131615 0.000287 0.047832 -0.058512 -0.123625
# 3 -0.005738 0.000287 0.005322 0.003008 -0.001046 -0.006003
# 4 -0.048942 0.047832 0.003008 0.043301 -0.020094 -0.057293
# 5 0.060117 -0.058512 -0.001046 -0.020094 0.047162 0.063698
# 6 0.139802 -0.123625 -0.006003 -0.057293 0.063698 0.174487
#
#
# Mechanical properties :
#
#
# Convention : Reuss Voigt Hill
#
# Bulk Modulus (GPa) = 50.82869 87.29601 69.06235
# Shear Modulus (GPa) = 6.33771 44.95181 25.64476
#
# Velocity S-wave (km/s) = 1.62954 4.33983 3.27792
# Velocity P-wave (km/s) = 4.98367 7.85416 6.57741
#
# Compressibility (1/GPa) = 0.01967393
#
# Stress axis : x y z
#
# Youngs Moduli (GPa) = 7.59824 7.59790 187.88208
#
# Poissons Ratio (x) = 0.90404 1.07813
# Poissons Ratio (y) = 0.90408 -0.05401
# Poissons Ratio (z) = 0.04360 -0.00218
#
# Static dielectric constant tensor:
#      x y z
#    x 1.937750 0.025930 0.004990 
#    y 0.025930 1.966960 0.005580 
#    z 0.004990 0.005580 1.954260 
# 
# From -- ./inp_files/599560.got.cif
#   From: 2010.05.17/outbox.cif.g08.bks.cpg/sg2_300_cif.got.tgz:599560.got - 2010.06.03 11:33:40.
