data_PCOD9088808
_publ_section_title
;
Structure prediction by ZEFSAII (Michael W. Deem and Ramdas Pophale) SiO2 
 PCOD9088808
Probable space group: P -1
;
_chemical_formula_sum "Si O2"
_cell_formula_units_Z 16
_cell_length_a 11.181416
_cell_length_b 12.504288
_cell_length_c 7.829770
_cell_angle_alpha 49.260210
_cell_angle_beta 91.643791
_cell_angle_gamma 113.660106
_cell_volume 715.546269
_symmetry_space_group_name_H-M "P -1"
_symmetry_group_IT_number 2
_symmetry_cell_setting 'triclinic'
loop_
_space_group_symop_operation_xyz
x,y,z
-x,-y,-z
loop_
_atom_site_type_symbol
_atom_site_label
_atom_site_fract_x
_atom_site_fract_y
_atom_site_fract_z
Si Si1 0.181365 0.184957 0.893346
Si Si2 0.276167 0.427659 0.169970
Si Si3 0.474374 0.133516 0.449755
Si Si4 0.818810 0.116952 0.250141
Si Si5 0.056010 0.078594 0.636239
Si Si6 0.227614 0.663198 0.738950
Si Si7 0.967205 0.604487 0.258058
Si Si8 0.569968 0.637186 0.057404
O O1 0.143767 0.105594 0.788624
O O2 0.117727 0.307257 0.773400
O O3 0.340620 0.281861 0.855913
O O4 0.098950 0.036295 0.180475
O O5 0.135377 0.263356 0.379169
O O6 0.335866 0.409645 0.008180
O O7 0.243642 0.572790 0.000057
O O8 0.412695 0.487165 0.231299
O O9 0.619003 0.248280 0.430105
O O10 0.447259 0.236019 0.197722
O O11 0.500000 0.000000 0.500000
O O12 0.333408 0.027643 0.655066
O O13 0.810698 0.206689 0.326680
O O14 0.909630 0.031967 0.369945
O O15 0.893053 0.249691 0.968609
O O16 0.117838 0.522990 0.762025
O O17 0.000000 0.500000 0.500000
#
# Coordination Sequence:
#
# PCOD9088808 Si02
#       8
#     2   2   2   2   2   2   2   2
#     4  10  23  41  58  85 126 160 198 239 303 351
#     4  10  20  35  66  91 112 151 206 248 291 346
#     4   9  19  38  62  90 120 148 197 249 295 349
#     4  10  21  40  62  88 117 155 201 244 293 353
#     4  10  22  40  58  88 124 158 197 245 290 361
#     4  10  21  40  65  89 117 153 201 248 295 351
#     4  11  24  41  59  87 123 160 198 244 297 353
#     4  10  19  37  63  89 118 153 196 252 293 348
#
# _framework density 22.360537999999998
#
# number of rings (size 3 to 8) (size 9 to 14) (size 15 to 20)
#    0.000    2.000    2.500    0.375    1.750    2.000 
#   13.500    0.625    0.000    0.000    0.000    0.000 
#    0.000    0.000    0.000    0.000    0.000    0.000 
#
# Total GULP energy -89322.342262 kJ/mol
# GULP energy per Si atom -5582.646391 kJ/mol
# Density = 2.230964 g / cm^3
# Si number density = 22.360538 Si / 1000 Ang^3
#
#
#
# Elastic Constant Matrix: (Units=GPa)
#
#
# Indices 1 2 3 4 5 6 
#
# 1 81.6323 16.6662 39.3915 -10.8444 2.2890 -0.3378
# 2 16.6662 52.1507 23.2152 -19.2722 0.6979 5.1434
# 3 39.3915 23.2152 90.3165 -29.4756 -5.9252 18.2634
# 4 -10.8444 -19.2722 -29.4756 30.9849 8.6040 -3.2789
# 5 2.2890 0.6979 -5.9252 8.6040 27.4720 -13.1826
# 6 -0.3378 5.1434 18.2634 -3.2789 -13.1826 40.3457
#
#
#
# Elastic Compliance Matrix: (Units=1/GPa)
#
#
# Indices 1 2 3 4 5 6 
#
# 1 0.016503 -0.003382 -0.008440 -0.003949 0.000095 0.004100
# 2 -0.003382 0.027299 0.001025 0.018584 -0.008530 -0.005249
# 3 -0.008440 0.001025 0.022750 0.019791 -0.005788 -0.010782
# 4 -0.003949 0.018584 0.019791 0.066267 -0.023121 -0.013530
# 5 0.000095 -0.008530 -0.005788 -0.023121 0.051565 0.018678
# 6 0.004100 -0.005249 -0.010782 -0.013530 0.018678 0.035373
#
#
# Mechanical properties :
#
#
# Convention : Reuss Voigt Hill
#
# Bulk Modulus (GPa) = 22.24306 42.51615 32.37960
# Shear Modulus (GPa) = 19.50559 29.41562 24.46061
#
# Velocity S-wave (km/s) = 2.95671 3.63094 3.31103
# Velocity P-wave (km/s) = 4.65030 6.05256 5.39716
#
# Compressibility (1/GPa) = 0.04495784
#
# Stress axis : x y z
#
# Youngs Moduli (GPa) = 60.59506 36.63083 43.95688
#
# Poissons Ratio (x) = 0.12388 0.37100
# Poissons Ratio (y) = 0.20492 -0.04505
# Poissons Ratio (z) = 0.51143 -0.03754
#
# Static dielectric constant tensor:
#      x y z
#    x 1.880490 0.024520 0.015740 
#    y 0.024520 1.890950 -0.029600 
#    z 0.015740 -0.029600 1.871120 
# 
# From -- ./inp_files/271571.got.cif
#   From: 2010.05.17/outbox.cif.g08.bks.cpg/sg2_136_cif.got.tgz:271571.got - 2010.06.03 11:33:40.
