data_PCOD9088187
_publ_section_title
;
Structure prediction by ZEFSAII (Michael W. Deem and Ramdas Pophale) SiO2 
 PCOD9088187
Probable space group: P -1
;
_chemical_formula_sum "Si O2"
_cell_formula_units_Z 16
_cell_length_a 10.857245
_cell_length_b 11.578792
_cell_length_c 8.871614
_cell_angle_alpha 109.949646
_cell_angle_beta 136.125137
_cell_angle_gamma 61.794511
_cell_volume 681.201266
_symmetry_space_group_name_H-M "P -1"
_symmetry_group_IT_number 2
_symmetry_cell_setting 'triclinic'
loop_
_space_group_symop_operation_xyz
x,y,z
-x,-y,-z
loop_
_atom_site_type_symbol
_atom_site_label
_atom_site_fract_x
_atom_site_fract_y
_atom_site_fract_z
Si Si1 0.172280 0.271673 0.254898
Si Si2 0.289510 0.007008 0.380694
Si Si3 0.755430 0.994800 0.304388
Si Si4 0.004302 0.226961 0.769348
Si Si5 0.534098 0.786638 0.027589
Si Si6 0.566342 0.250218 0.736085
Si Si7 0.876312 0.550221 0.120118
Si Si8 0.320831 0.581416 0.286893
O O1 0.156841 0.151571 0.284913
O O2 0.383422 0.272854 0.474618
O O3 0.019461 0.409108 0.236871
O O4 0.136179 0.232027 0.033654
O O5 0.263731 0.988655 0.525752
O O6 0.500000 0.000000 0.500000
O O7 0.267888 0.885067 0.220355
O O8 0.938416 0.909092 0.328608
O O9 0.646123 0.887705 0.143581
O O10 0.654338 0.134813 0.197289
O O11 0.017719 0.345749 0.731719
O O12 0.793005 0.284169 0.670645
O O13 0.491257 0.772098 0.157318
O O14 0.668963 0.641058 0.036913
O O15 0.631107 0.372601 0.812910
O O16 0.814144 0.504022 0.885579
O O17 0.500000 0.500000 0.500000
#
# Coordination Sequence:
#
# PCOD9088187 Si02
#       8
#     2   2   2   2   2   2   2   2
#     4  10  19  37  59  92 120 150 202 248 293 356
#     4  10  20  35  60  92 120 154 201 249 301 351
#     4  10  20  37  62  90 121 152 209 252 293 347
#     4  10  21  39  63  89 117 159 205 247 297 352
#     4  10  21  36  61  93 120 158 199 253 300 350
#     4  11  22  37  61  90 123 158 202 245 303 355
#     4  10  22  38  63  87 119 158 203 245 302 353
#     4  11  23  40  61  89 124 165 196 242 307 367
#
# _framework density 23.487919999999999
#
# number of rings (size 3 to 8) (size 9 to 14) (size 15 to 20)
#    0.000    1.750    2.500    3.750   10.500    1.000 
#    2.250    6.250    0.000    0.000    0.000    0.000 
#    0.000    0.000    0.000    0.000    0.000    0.000 
#
# Total GULP energy -89168.601443 kJ/mol
# GULP energy per Si atom -5573.037590 kJ/mol
# Density = 2.343446 g / cm^3
# Si number density = 23.487920 Si / 1000 Ang^3
#
#
#
# Elastic Constant Matrix: (Units=GPa)
#
#
# Indices 1 2 3 4 5 6 
#
# 1 73.7317 53.1004 30.6265 -18.3195 -8.6925 -25.4701
# 2 53.1004 188.2270 41.3999 -22.4162 -16.2992 -23.1133
# 3 30.6265 41.3999 57.2959 -16.0641 -12.0221 -3.5465
# 4 -18.3195 -22.4162 -16.0641 40.4480 3.6560 -2.3710
# 5 -8.6925 -16.2992 -12.0221 3.6560 28.5125 11.2968
# 6 -25.4701 -23.1133 -3.5465 -2.3710 11.2968 44.5263
#
#
#
# Elastic Compliance Matrix: (Units=1/GPa)
#
#
# Indices 1 2 3 4 5 6 
#
# 1 0.025876 -0.002944 -0.009662 0.007468 -0.004377 0.014012
# 2 -0.002944 0.007267 -0.002897 0.001532 0.001190 0.001637
# 3 -0.009662 -0.002897 0.027210 0.003584 0.009186 -0.007003
# 4 0.007468 0.001532 0.003584 0.031033 -0.002325 0.007595
# 5 -0.004377 0.001190 0.009186 -0.002325 0.043465 -0.012306
# 6 0.014012 0.001637 -0.007003 0.007595 -0.012306 0.034293
#
#
# Mechanical properties :
#
#
# Convention : Reuss Voigt Hill
#
# Bulk Modulus (GPa) = 34.07365 63.27867 48.67616
# Shear Modulus (GPa) = 23.81740 35.63921 29.72831
#
# Velocity S-wave (km/s) = 3.18783 3.89953 3.56151
# Velocity P-wave (km/s) = 5.29982 6.87565 6.13851
#
# Compressibility (1/GPa) = 0.02934820
#
# Stress axis : x y z
#
# Youngs Moduli (GPa) = 38.64609 137.61137 36.75155
#
# Poissons Ratio (x) = 0.40510 0.35508
# Poissons Ratio (y) = 0.11377 0.10645
# Poissons Ratio (z) = 0.37339 0.39861
#
# Static dielectric constant tensor:
#      x y z
#    x 2.018290 -0.027040 0.092470 
#    y -0.027040 1.898530 -0.007320 
#    z 0.092470 -0.007320 1.939940 
# 
# From -- ./inp_files/259193.got.cif
#   From: 2010.05.17/outbox.cif.g08.bks.cpg/sg2_130_cif.got.tgz:259193.got - 2010.06.03 11:33:40.
