data_PCOD9088846
_publ_section_title
;
Structure prediction by ZEFSAII (Michael W. Deem and Ramdas Pophale) SiO2 
 PCOD9088846
Probable space group: P -1
;
_chemical_formula_sum "Si O2"
_cell_formula_units_Z 16
_cell_length_a 11.179196
_cell_length_b 7.513017
_cell_length_c 11.937784
_cell_angle_alpha 106.745763
_cell_angle_beta 62.938517
_cell_angle_gamma 70.062434
_cell_volume 712.044613
_symmetry_space_group_name_H-M "P -1"
_symmetry_group_IT_number 2
_symmetry_cell_setting 'triclinic'
loop_
_space_group_symop_operation_xyz
x,y,z
-x,-y,-z
loop_
_atom_site_type_symbol
_atom_site_label
_atom_site_fract_x
_atom_site_fract_y
_atom_site_fract_z
Si Si1 0.115195 0.806942 0.328387
Si Si2 0.011387 0.479519 0.360184
Si Si3 0.254749 0.350955 0.927853
Si Si4 0.015483 0.866707 0.131066
Si Si5 0.224049 0.037918 0.060194
Si Si6 0.671447 0.998537 0.338948
Si Si7 0.656829 0.847216 0.554963
Si Si8 0.588468 0.179603 0.841507
O O1 0.103924 0.595364 0.307486
O O2 0.045120 0.896549 0.252576
O O3 0.294754 0.748828 0.240461
O O4 0.000000 0.000000 0.500000
O O5 0.102510 0.234663 0.231233
O O6 0.000000 0.500000 0.500000
O O7 0.828035 0.621727 0.424509
O O8 0.296104 0.233922 0.767755
O O9 0.402926 0.353711 0.918706
O O10 0.097572 0.600638 0.032936
O O11 0.250261 0.172252 0.977694
O O12 0.822532 0.000818 0.231454
O O13 0.127788 0.933131 0.034300
O O14 0.373108 0.877604 0.052448
O O15 0.656085 0.995908 0.479247
O O16 0.493971 0.174879 0.399367
O O17 0.639836 0.961872 0.703163
#
# Coordination Sequence:
#
# PCOD9088846 Si02
#       8
#     2   2   2   2   2   2   2   2
#     4  11  19  35  62  90 121 156 201 250 307 367
#     4  12  20  36  61  92 127 155 196 253 315 361
#     4  11  23  41  61  87 124 166 206 249 303 364
#     4  11  22  40  61  86 120 165 207 249 302 360
#     4  11  23  38  61  92 122 161 201 256 307 368
#     4  10  21  38  64  87 120 163 212 247 297 368
#     4  10  19  37  63  91 120 159 201 256 307 359
#     4  10  21  38  61  92 123 157 201 254 312 361
#
# _framework density 22.470502
#
# number of rings (size 3 to 8) (size 9 to 14) (size 15 to 20)
#    0.000    1.250    5.000    1.500    0.000    2.500 
#    2.250    0.625    0.000    1.500    0.000    0.000 
#    0.000    0.000    0.000    0.000    0.000    0.000 
#
# Total GULP energy -89331.925866 kJ/mol
# GULP energy per Si atom -5583.245367 kJ/mol
# Density = 2.241936 g / cm^3
# Si number density = 22.470502 Si / 1000 Ang^3
#
#
#
# Elastic Constant Matrix: (Units=GPa)
#
#
# Indices 1 2 3 4 5 6 
#
# 1 112.8600 20.6128 16.1604 -14.5997 -31.8746 10.8017
# 2 20.6128 69.1092 11.0709 -17.5622 -11.0730 19.4245
# 3 16.1604 11.0709 52.5864 -19.5428 0.4364 6.6062
# 4 -14.5997 -17.5622 -19.5428 29.3111 8.5673 -1.1242
# 5 -31.8746 -11.0730 0.4364 8.5673 50.4710 -5.5517
# 6 10.8017 19.4245 6.6062 -1.1242 -5.5517 18.9471
#
#
#
# Elastic Compliance Matrix: (Units=1/GPa)
#
#
# Indices 1 2 3 4 5 6 
#
# 1 0.011741 -0.000780 -0.002516 0.001643 0.006660 -0.002967
# 2 -0.000780 0.025773 0.004628 0.017336 -0.000768 -0.026787
# 3 -0.002516 0.004628 0.028751 0.021932 -0.006064 -0.013810
# 4 0.001643 0.017336 0.021932 0.061480 -0.008559 -0.025216
# 5 0.006660 -0.000768 -0.006064 -0.008559 0.026041 0.006227
# 6 -0.002967 -0.026787 -0.013810 -0.025216 0.006227 0.087076
#
#
# Mechanical properties :
#
#
# Convention : Reuss Voigt Hill
#
# Bulk Modulus (GPa) = 14.50774 36.69376 25.60075
# Shear Modulus (GPa) = 19.14434 32.19328 25.66881
#
# Velocity S-wave (km/s) = 2.92203 3.78920 3.38351
# Velocity P-wave (km/s) = 4.22548 5.95896 5.16546
#
# Compressibility (1/GPa) = 0.06892874
#
# Stress axis : x y z
#
# Youngs Moduli (GPa) = 85.17320 38.80047 34.78138
#
# Poissons Ratio (x) = 0.03028 0.08751
# Poissons Ratio (y) = 0.06646 -0.16097
# Poissons Ratio (z) = 0.21429 -0.17958
#
# Static dielectric constant tensor:
#      x y z
#    x 1.661780 0.056210 0.359350 
#    y 0.056210 1.890330 -0.149110 
#    z 0.359350 -0.149110 1.268460 
# 
# From -- ./inp_files/513437.got.cif
#   From: 2010.05.17/outbox.cif.g08.bks.cpg/sg2_257_cif.got.tgz:513437.got - 2010.06.03 11:33:40.
