data_PCOD9088223
_publ_section_title
;
Structure prediction by ZEFSAII (Michael W. Deem and Ramdas Pophale) SiO2 
 PCOD9088223
Probable space group: P -1
;
_chemical_formula_sum "Si O2"
_cell_formula_units_Z 16
_cell_length_a 5.286127
_cell_length_b 25.245645
_cell_length_c 5.152214
_cell_angle_alpha 70.084503
_cell_angle_beta 90.251942
_cell_angle_gamma 77.339133
_cell_volume 628.386630
_symmetry_space_group_name_H-M "P -1"
_symmetry_group_IT_number 2
_symmetry_cell_setting 'triclinic'
loop_
_space_group_symop_operation_xyz
x,y,z
-x,-y,-z
loop_
_atom_site_type_symbol
_atom_site_label
_atom_site_fract_x
_atom_site_fract_y
_atom_site_fract_z
Si Si1 0.785823 0.058087 0.857428
Si Si2 0.383823 0.253457 0.574968
Si Si3 0.420235 0.644010 0.363438
Si Si4 0.734319 0.449896 0.182237
Si Si5 0.855059 0.770002 0.877649
Si Si6 0.992976 0.590095 0.251011
Si Si7 0.180371 0.831629 0.515981
Si Si8 0.478115 0.892912 0.724837
O O1 0.586318 0.072891 0.069657
O O2 0.392466 0.936611 0.410385
O O3 0.947098 0.108867 0.728697
O O4 0.000000 0.000000 0.000000
O O5 0.541429 0.295250 0.638073
O O6 0.285302 0.266932 0.256802
O O7 0.568368 0.190737 0.629882
O O8 0.167060 0.248422 0.796606
O O9 0.166498 0.638851 0.204360
O O10 0.692759 0.612999 0.281242
O O11 0.383089 0.606011 0.676661
O O12 0.955828 0.435272 0.991520
O O13 0.138984 0.544193 0.546783
O O14 0.500000 0.500000 0.000000
O O15 0.732980 0.841054 0.768767
O O16 0.097229 0.773889 0.693780
O O17 0.268174 0.853682 0.751365
#
# Coordination Sequence:
#
# PCOD9088223 Si02
#       8
#     2   2   2   2   2   2   2   2
#     4  10  19  37  60  82 120 155 193 257 316 368
#     4  11  25  39  62  89 125 160 211 261 312 383
#     4  10  27  43  67 100 138 177 226 280 334 397
#     4  10  24  45  72 101 137 180 225 277 335 399
#     4  11  22  39  62  87 117 162 208 253 318 378
#     4  10  25  42  68  98 141 173 227 273 336 392
#     4   9  23  37  63  83 121 156 203 249 316 373
#     4   9  19  38  54  84 117 146 200 248 300 379
#
# _framework density 25.462033000000002
#
# number of rings (size 3 to 8) (size 9 to 14) (size 15 to 20)
#    1.500    0.500    1.250    0.750    7.000    2.000 
#    0.000    1.250    0.000    0.000    0.000    0.000 
#    0.000    0.000    0.000    0.000    0.000    0.000 
#
# Total GULP energy -89151.158601 kJ/mol
# GULP energy per Si atom -5571.947413 kJ/mol
# Density = 2.540408 g / cm^3
# Si number density = 25.462033 Si / 1000 Ang^3
#
#
#
# Elastic Constant Matrix: (Units=GPa)
#
#
# Indices 1 2 3 4 5 6 
#
# 1 76.3337 2.3912 20.2078 3.5977 -7.9264 -1.4951
# 2 2.3912 45.1079 33.2050 1.6029 -0.4283 -1.5147
# 3 20.2078 33.2050 152.7723 31.6666 -1.7301 -1.3721
# 4 3.5977 1.6029 31.6666 40.0902 -0.9700 -2.1840
# 5 -7.9264 -0.4283 -1.7301 -0.9700 30.0375 -0.7569
# 6 -1.4951 -1.5147 -1.3721 -2.1840 -0.7569 28.0610
#
#
#
# Elastic Compliance Matrix: (Units=1/GPa)
#
#
# Indices 1 2 3 4 5 6 
#
# 1 0.013996 0.000839 -0.002087 0.000492 0.003622 0.000825
# 2 0.000839 0.027095 -0.006889 0.004375 0.000391 0.001521
# 3 -0.002087 -0.006889 0.009832 -0.007343 -0.000335 -0.000583
# 4 0.000492 0.004375 -0.007343 0.030671 0.000818 0.002312
# 5 0.003622 0.000391 -0.000335 0.000818 0.034290 0.001186
# 6 0.000825 0.001521 -0.000583 0.002312 0.001186 0.035946
#
#
# Mechanical properties :
#
#
# Convention : Reuss Voigt Hill
#
# Bulk Modulus (GPa) = 28.86085 42.86910 35.86497
# Shear Modulus (GPa) = 27.83137 34.19839 31.01488
#
# Velocity S-wave (km/s) = 3.30972 3.66883 3.49389
# Velocity P-wave (km/s) = 5.09560 5.90085 5.51295
#
# Compressibility (1/GPa) = 0.03464902
#
# Stress axis : x y z
#
# Youngs Moduli (GPa) = 71.45071 36.90722 101.70702
#
# Poissons Ratio (x) = -0.03097 0.21227
# Poissons Ratio (y) = -0.05995 0.70064
# Poissons Ratio (z) = 0.14913 0.25425
#
# Static dielectric constant tensor:
#      x y z
#    x 2.328830 0.112810 -0.087160 
#    y 0.112810 2.098840 -0.113020 
#    z -0.087160 -0.113020 2.053980 
# 
# From -- ./inp_files/12932.got.cif
#   From: 2010.05.17/outbox.cif.g08.bks.cpg/sg2_7_cif.got.tgz:12932.got - 2010.06.03 11:33:40.
