data_PCOD9088477
_publ_section_title
;
Structure prediction by ZEFSAII (Michael W. Deem and Ramdas Pophale) SiO2 
 PCOD9088477
Probable space group: P -1
;
_chemical_formula_sum "Si O2"
_cell_formula_units_Z 16
_cell_length_a 9.456148
_cell_length_b 9.303841
_cell_length_c 17.226141
_cell_angle_alpha 132.923683
_cell_angle_beta 54.227822
_cell_angle_gamma 137.228094
_cell_volume 742.620687
_symmetry_space_group_name_H-M "P -1"
_symmetry_group_IT_number 2
_symmetry_cell_setting 'triclinic'
loop_
_space_group_symop_operation_xyz
x,y,z
-x,-y,-z
loop_
_atom_site_type_symbol
_atom_site_label
_atom_site_fract_x
_atom_site_fract_y
_atom_site_fract_z
Si Si1 0.298046 0.465816 0.096699
Si Si2 0.391412 0.072292 0.624070
Si Si3 0.814565 0.480255 0.002558
Si Si4 0.532541 0.009142 0.706991
Si Si5 0.022281 0.032652 0.639420
Si Si6 0.627071 0.971618 0.821435
Si Si7 0.724439 0.738026 0.500901
Si Si8 0.551044 0.568671 0.813227
O O1 0.356033 0.718087 0.203392
O O2 0.281838 0.331728 0.132220
O O3 0.500000 0.500000 0.000000
O O4 0.132216 0.395072 0.053790
O O5 0.368709 0.956578 0.673088
O O6 0.169783 0.007216 0.639744
O O7 0.542687 0.358303 0.693020
O O8 0.500000 0.000000 0.500000
O O9 0.683565 0.557262 0.120820
O O10 0.000000 0.500000 0.000000
O O11 0.647043 0.197075 0.936213
O O12 0.473403 0.879742 0.761908
O O13 0.686052 0.948608 0.595409
O O14 0.172133 0.241401 0.606989
O O15 0.859356 0.070300 0.748679
O O16 0.881324 0.800179 0.544719
O O17 0.579240 0.769045 0.821429
O O18 0.500000 0.500000 0.500000
#
# Coordination Sequence:
#
# PCOD9088477 Si02
#       8
#     2   2   2   2   2   2   2   2
#     4   8  17  35  59  82 116 157 194 240 307 356
#     4  11  21  37  60  84 121 162 200 252 307 359
#     4  10  19  37  61  89 117 157 200 251 305 362
#     4   9  19  35  58  84 117 156 197 244 304 356
#     4  10  22  37  60  86 122 159 203 248 305 360
#     4  10  21  38  60  89 121 155 207 250 304 369
#     4  10  21  39  61  87 120 160 203 252 300 358
#     4  10  21  37  61  87 117 162 200 248 307 362
#
# _framework density 21.545321000000001
#
# number of rings (size 3 to 8) (size 9 to 14) (size 15 to 20)
#    0.000    2.250    1.250    1.125    3.500    0.000 
#    0.000    4.375    0.000    0.000    0.000    0.000 
#    0.000    0.000    0.000    0.000    0.000    0.000 
#
# Total GULP energy -89191.416796 kJ/mol
# GULP energy per Si atom -5574.463550 kJ/mol
# Density = 2.149628 g / cm^3
# Si number density = 21.545321 Si / 1000 Ang^3
#
#
#
# Elastic Constant Matrix: (Units=GPa)
#
#
# Indices 1 2 3 4 5 6 
#
# 1 175.3641 27.7311 18.8164 -8.2394 40.8731 -28.5449
# 2 27.7311 60.9326 15.5595 -8.2094 16.9757 -14.4908
# 3 18.8164 15.5595 101.7712 0.5442 -2.2428 -5.3597
# 4 -8.2394 -8.2094 0.5442 17.9335 -7.7815 0.1719
# 5 40.8731 16.9757 -2.2428 -7.7815 36.3295 -10.1454
# 6 -28.5449 -14.4908 -5.3597 0.1719 -10.1454 38.0911
#
#
#
# Elastic Compliance Matrix: (Units=1/GPa)
#
#
# Indices 1 2 3 4 5 6 
#
# 1 0.008500 -0.000188 -0.001529 0.000155 -0.008468 0.003827
# 2 -0.000188 0.021518 -0.003145 0.006771 -0.006993 0.005710
# 3 -0.001529 -0.003145 0.010684 -0.000859 0.003708 0.000153
# 4 0.000155 0.006771 -0.000859 0.064046 0.011846 0.005437
# 5 -0.008468 -0.006993 0.003708 0.011846 0.043973 0.003174
# 6 0.003827 0.005710 0.000153 0.005437 0.003174 0.032135
#
#
# Mechanical properties :
#
#
# Convention : Reuss Voigt Hill
#
# Bulk Modulus (GPa) = 32.27959 51.36465 41.82212
# Shear Modulus (GPa) = 24.88730 36.86819 30.87775
#
# Velocity S-wave (km/s) = 3.40238 4.14114 3.78981
# Velocity P-wave (km/s) = 5.51812 6.83794 6.21318
#
# Compressibility (1/GPa) = 0.03097932
#
# Stress axis : x y z
#
# Youngs Moduli (GPa) = 117.64659 46.47177 93.60017
#
# Poissons Ratio (x) = 0.00874 0.14309
# Poissons Ratio (y) = 0.02212 0.29435
# Poissons Ratio (z) = 0.17985 0.14614
#
# Static dielectric constant tensor:
#      x y z
#    x 1.857950 -0.035980 0.027380 
#    y -0.035980 1.801220 0.001220 
#    z 0.027380 0.001220 1.816280 
# 
# From -- ./inp_files/218186.got.cif
#   From: 2010.05.17/outbox.cif.g08.bks.cpg/sg2_110_cif.got.tgz:218186.got - 2010.06.03 11:33:40.
