data_PCOD9088518
_publ_section_title
;
Structure prediction by ZEFSAII (Michael W. Deem and Ramdas Pophale) SiO2 
 PCOD9088518
Probable space group: P -1
;
_chemical_formula_sum "Si O2"
_cell_formula_units_Z 16
_cell_length_a 7.332905
_cell_length_b 18.701186
_cell_length_c 12.297860
_cell_angle_alpha 155.272000
_cell_angle_beta 107.311469
_cell_angle_gamma 85.386882
_cell_volume 592.533514
_symmetry_space_group_name_H-M "P -1"
_symmetry_group_IT_number 2
_symmetry_cell_setting 'triclinic'
loop_
_space_group_symop_operation_xyz
x,y,z
-x,-y,-z
loop_
_atom_site_type_symbol
_atom_site_label
_atom_site_fract_x
_atom_site_fract_y
_atom_site_fract_z
Si Si1 0.429597 0.801967 0.850709
Si Si2 0.441925 0.611188 0.391355
Si Si3 0.964019 0.951397 0.625492
Si Si4 0.095824 0.364222 0.242228
Si Si5 0.929693 0.131976 0.240815
Si Si6 0.025334 0.631558 0.079712
Si Si7 0.498235 0.147814 0.487146
Si Si8 0.215155 0.491027 0.671405
O O1 0.554611 0.765216 0.721548
O O2 0.295048 0.581147 0.565974
O O3 0.275780 0.866400 0.846447
O O4 0.506911 0.958512 0.177451
O O5 0.487963 0.718303 0.430743
O O6 0.537401 0.461760 0.215365
O O7 0.183442 0.507605 0.221117
O O8 0.076481 0.912883 0.696642
O O9 0.968723 0.804289 0.336160
O O10 0.723073 0.906219 0.561481
O O11 0.101178 0.179291 0.937968
O O12 0.875782 0.359058 0.152647
O O13 0.090041 0.345960 0.346774
O O14 0.117095 0.354642 0.569506
O O15 0.000000 0.000000 0.000000
O O16 0.281499 0.733138 0.240075
O O17 0.000000 0.500000 0.000000
#
# Coordination Sequence:
#
# PCOD9088518 Si02
#       8
#     2   2   2   2   2   2   2   2
#     4  11  23  40  67 100 134 171 220 279 331 392
#     4  11  23  42  64  97 133 176 221 277 330 389
#     4  12  22  43  71  96 137 178 216 273 342 389
#     4  10  23  39  62 102 133 172 217 274 333 395
#     4  11  17  33  62  99 123 158 218 275 318 386
#     4  10  26  45  63 101 139 172 220 278 330 399
#     4  11  22  41  71 104 130 172 222 279 336 389
#     4  10  19  37  61  91 136 163 219 264 334 390
#
# _framework density 27.002693000000001
#
# number of rings (size 3 to 8) (size 9 to 14) (size 15 to 20)
#    0.000    1.250    3.750    3.375    1.750    2.500 
#    6.750    1.250    0.000    0.000    0.000    0.000 
#    0.000    0.000    0.000    0.000    0.000    0.000 
#
# Total GULP energy -89564.989810 kJ/mol
# GULP energy per Si atom -5597.811863 kJ/mol
# Density = 2.694123 g / cm^3
# Si number density = 27.002693 Si / 1000 Ang^3
#
#
#
# Elastic Constant Matrix: (Units=GPa)
#
#
# Indices 1 2 3 4 5 6 
#
# 1 91.8199 23.2165 10.3283 8.2077 12.3457 -19.7223
# 2 23.2165 85.4705 38.8591 13.1927 4.4089 -16.3625
# 3 10.3283 38.8591 136.5198 9.3347 -2.5830 -12.3366
# 4 8.2077 13.1927 9.3347 51.3753 -14.1233 1.6360
# 5 12.3457 4.4089 -2.5830 -14.1233 50.7296 -0.6484
# 6 -19.7223 -16.3625 -12.3366 1.6360 -0.6484 35.9765
#
#
#
# Elastic Compliance Matrix: (Units=1/GPa)
#
#
# Indices 1 2 3 4 5 6 
#
# 1 0.013572 -0.001835 0.000239 -0.003024 -0.003887 0.006755
# 2 -0.001835 0.015463 -0.003600 -0.003747 -0.002061 0.004926
# 3 0.000239 -0.003600 0.008511 -0.000554 0.000552 0.001447
# 4 -0.003024 -0.003747 -0.000554 0.023197 0.007434 -0.004473
# 5 -0.003887 -0.002061 0.000552 0.007434 0.022899 -0.002804
# 6 0.006755 0.004926 0.001447 -0.004473 -0.002804 0.034388
#
#
# Mechanical properties :
#
#
# Convention : Reuss Voigt Hill
#
# Bulk Modulus (GPa) = 36.82758 50.95755 43.89257
# Shear Modulus (GPa) = 36.37086 43.71003 40.04044
#
# Velocity S-wave (km/s) = 3.67404 4.02771 3.85493
# Velocity P-wave (km/s) = 5.62727 6.36727 6.00868
#
# Compressibility (1/GPa) = 0.02715356
#
# Stress axis : x y z
#
# Youngs Moduli (GPa) = 73.68235 64.67154 117.49838
#
# Poissons Ratio (x) = 0.11866 -0.02810
# Poissons Ratio (y) = 0.13519 0.42302
# Poissons Ratio (z) = -0.01762 0.23283
#
# Static dielectric constant tensor:
#      x y z
#    x 2.209730 0.080140 0.017920 
#    y 0.080140 2.112060 0.019100 
#    z 0.017920 0.019100 2.173380 
# 
# From -- ./inp_files/508222.got.cif
#   From: 2010.05.17/outbox.cif.g08.bks.cpg/sg2_255_cif.got.tgz:508222.got - 2010.06.03 11:33:40.
