data_PCOD9088446
_publ_section_title
;
Structure prediction by ZEFSAII (Michael W. Deem and Ramdas Pophale) SiO2 
 PCOD9088446
Probable space group: P -1
;
_chemical_formula_sum "Si O2"
_cell_formula_units_Z 16
_cell_length_a 6.297000
_cell_length_b 18.390065
_cell_length_c 8.693936
_cell_angle_alpha 97.828063
_cell_angle_beta 49.906919
_cell_angle_gamma 79.491302
_cell_volume 712.903635
_symmetry_space_group_name_H-M "P -1"
_symmetry_group_IT_number 2
_symmetry_cell_setting 'triclinic'
loop_
_space_group_symop_operation_xyz
x,y,z
-x,-y,-z
loop_
_atom_site_type_symbol
_atom_site_label
_atom_site_fract_x
_atom_site_fract_y
_atom_site_fract_z
Si Si1 0.504667 0.084968 0.584494
Si Si2 0.105202 0.470426 0.705758
Si Si3 0.864867 0.184663 0.286711
Si Si4 0.194608 0.290794 0.169496
Si Si5 0.457811 0.929076 0.084509
Si Si6 0.816148 0.175266 0.959483
Si Si7 0.643023 0.572777 0.745938
Si Si8 0.006248 0.379555 0.980660
O O1 0.703110 0.131261 0.428173
O O2 0.624346 0.064373 0.696824
O O3 0.166941 0.150586 0.756128
O O4 0.500000 0.000000 0.500000
O O5 0.319080 0.454980 0.455869
O O6 0.080785 0.541757 0.851392
O O7 0.785875 0.500546 0.774960
O O8 0.180317 0.394558 0.757378
O O9 0.932148 0.260583 0.341423
O O10 0.738490 0.202362 0.178717
O O11 0.209211 0.132670 0.088985
O O12 0.176815 0.369421 0.290498
O O13 0.146435 0.310573 0.015830
O O14 0.539739 0.234029 0.009293
O O15 0.232553 0.905669 0.077130
O O16 0.500000 0.000000 0.000000
O O17 0.300012 0.621056 0.945582
#
# Coordination Sequence:
#
# PCOD9088446 Si02
#       8
#     2   2   2   2   2   2   2   2
#     4  11  23  39  66  95 117 154 205 255 306 360
#     4   9  20  35  60  93 118 152 201 257 300 347
#     4  10  22  41  59  84 122 159 199 247 301 363
#     4  10  22  40  59  82 124 170 201 246 304 364
#     4  10  21  38  62  90 118 148 190 247 305 362
#     4  10  22  41  59  83 122 160 198 248 301 362
#     4  10  19  37  61  87 120 158 203 249 302 356
#     4  10  19  37  61  88 122 158 202 249 302 356
#
# _framework density 22.443427
#
# number of rings (size 3 to 8) (size 9 to 14) (size 15 to 20)
#    0.000    2.000    0.000    3.000    0.000    6.000 
#    0.000   16.250    0.000    0.000    0.000    0.000 
#    0.000    0.000    0.000    0.000    0.000    0.000 
#
# Total GULP energy -89083.701395 kJ/mol
# GULP energy per Si atom -5567.731337 kJ/mol
# Density = 2.239235 g / cm^3
# Si number density = 22.443427 Si / 1000 Ang^3
#
#
#
# Elastic Constant Matrix: (Units=GPa)
#
#
# Indices 1 2 3 4 5 6 
#
# 1 83.4059 25.8065 28.5057 -16.5300 -0.6296 -6.6128
# 2 25.8065 73.2734 26.5063 -21.0161 6.0752 -4.8507
# 3 28.5057 26.5063 69.6407 -20.7282 -6.5222 3.9916
# 4 -16.5300 -21.0161 -20.7282 29.3907 -4.6071 2.4653
# 5 -0.6296 6.0752 -6.5222 -4.6071 23.2528 9.0395
# 6 -6.6128 -4.8507 3.9916 2.4653 9.0395 41.2468
#
#
#
# Elastic Compliance Matrix: (Units=1/GPa)
#
#
# Indices 1 2 3 4 5 6 
#
# 1 0.015142 -0.002597 -0.004423 0.003262 -0.000461 0.002456
# 2 -0.002597 0.019193 -0.004695 0.007730 -0.006103 0.003171
# 3 -0.004423 -0.004695 0.023631 0.013504 0.013231 -0.007255
# 4 0.003262 0.007730 0.013504 0.053796 0.014994 -0.006376
# 5 -0.000461 -0.006103 0.013231 0.014994 0.057306 -0.015527
# 6 0.002456 0.003171 -0.007255 -0.006376 -0.015527 0.029497
#
#
# Mechanical properties :
#
#
# Convention : Reuss Voigt Hill
#
# Bulk Modulus (GPa) = 28.95330 43.10634 36.02982
# Shear Modulus (GPa) = 21.41264 28.47815 24.94540
#
# Velocity S-wave (km/s) = 3.09216 3.56601 3.33750
# Velocity P-wave (km/s) = 5.06726 6.01694 5.56241
#
# Compressibility (1/GPa) = 0.03453838
#
# Stress axis : x y z
#
# Youngs Moduli (GPa) = 66.03995 52.10099 42.31703
#
# Poissons Ratio (x) = 0.13529 0.18716
# Poissons Ratio (y) = 0.17149 0.19867
# Poissons Ratio (z) = 0.29208 0.24461
#
# Static dielectric constant tensor:
#      x y z
#    x 1.890700 -0.109750 -0.008090 
#    y -0.109750 2.925860 0.057800 
#    z -0.008090 0.057800 1.819310 
# 
# From -- ./inp_files/107818.got.cif
#   From: 2010.05.17/outbox.cif.g08.bks.cpg/sg2_54_cif.got.tgz:107818.got - 2010.06.03 11:33:40.
