data_PCOD9088844
_publ_section_title
;
Structure prediction by ZEFSAII (Michael W. Deem and Ramdas Pophale) SiO2 
 PCOD9088844
Probable space group: P -1
;
_chemical_formula_sum "Si O2"
_cell_formula_units_Z 16
_cell_length_a 9.129406
_cell_length_b 11.388128
_cell_length_c 9.165587
_cell_angle_alpha 122.936789
_cell_angle_beta 112.435273
_cell_angle_gamma 60.578880
_cell_volume 688.007452
_symmetry_space_group_name_H-M "P -1"
_symmetry_group_IT_number 2
_symmetry_cell_setting 'triclinic'
loop_
_space_group_symop_operation_xyz
x,y,z
-x,-y,-z
loop_
_atom_site_type_symbol
_atom_site_label
_atom_site_fract_x
_atom_site_fract_y
_atom_site_fract_z
Si Si1 0.666682 0.063080 0.501532
Si Si2 0.764414 0.558984 0.778298
Si Si3 0.664319 0.705696 0.570922
Si Si4 0.111689 0.760668 0.255452
Si Si5 0.857460 0.528300 0.276505
Si Si6 0.732705 0.774496 0.167195
Si Si7 0.854637 0.215087 0.065010
Si Si8 0.771573 0.960394 0.800232
O O1 0.500949 0.214790 0.535049
O O2 0.817471 0.122984 0.562222
O O3 0.633957 0.941115 0.301862
O O4 0.712976 0.989204 0.629087
O O5 0.650737 0.593806 0.613831
O O6 0.777805 0.410520 0.771899
O O7 0.956465 0.529888 0.768345
O O8 0.706269 0.703436 0.958273
O O9 0.828817 0.624169 0.477876
O O10 0.698707 0.841722 0.755848
O O11 0.922944 0.778005 0.238894
O O12 0.112473 0.788251 0.100262
O O13 0.735941 0.647449 0.198028
O O14 0.800140 0.389513 0.197011
O O15 0.024610 0.124824 0.159956
O O16 0.731002 0.121492 0.970217
#
# Coordination Sequence:
#
# PCOD9088844 Si02
#       8
#     2   2   2   2   2   2   2   2
#     4  11  25  39  59  89 128 165 197 245 304 368
#     4  11  22  39  67  90 118 157 206 257 294 356
#     4  12  24  40  60  90 129 164 198 242 306 367
#     4  10  20  40  62  92 118 153 207 257 299 349
#     4  11  20  38  63  95 117 154 207 250 301 352
#     4  11  20  39  67  89 117 158 206 254 297 355
#     4  10  19  37  63  91 119 147 204 256 298 344
#     4  10  21  37  60  88 124 156 194 251 299 358
#
# _framework density 23.255562000000001
#
# number of rings (size 3 to 8) (size 9 to 14) (size 15 to 20)
#    0.000    1.250    5.000    1.875    0.000    1.000 
#    0.000    5.000    0.000    0.000    0.000    0.000 
#    0.000    0.000    0.000    0.000    0.000    0.000 
#
# Total GULP energy -89281.564761 kJ/mol
# GULP energy per Si atom -5580.097798 kJ/mol
# Density = 2.320263 g / cm^3
# Si number density = 23.255562 Si / 1000 Ang^3
#
#
#
# Elastic Constant Matrix: (Units=GPa)
#
#
# Indices 1 2 3 4 5 6 
#
# 1 32.4763 22.3128 12.3461 5.7550 -1.4584 8.2509
# 2 22.3128 109.8951 62.3449 3.3404 -15.5032 1.4862
# 3 12.3461 62.3449 90.4829 0.5918 -10.7430 2.9066
# 4 5.7550 3.3404 0.5918 40.0442 12.3010 6.5565
# 5 -1.4584 -15.5032 -10.7430 12.3010 20.1100 7.4385
# 6 8.2509 1.4862 2.9066 6.5565 7.4385 27.9121
#
#
#
# Elastic Compliance Matrix: (Units=1/GPa)
#
#
# Indices 1 2 3 4 5 6 
#
# 1 0.039626 -0.007514 0.000707 -0.004582 0.004521 -0.011516
# 2 -0.007514 0.017799 -0.010095 -0.003292 0.009598 0.000540
# 3 0.000707 -0.010095 0.018340 -0.000058 0.002975 -0.002361
# 4 -0.004582 -0.003292 -0.000058 0.033002 -0.023063 -0.000070
# 5 0.004521 0.009598 0.002975 -0.023063 0.079811 -0.018010
# 6 -0.011516 0.000540 -0.002361 -0.000070 -0.018010 0.044264
#
#
# Mechanical properties :
#
#
# Convention : Reuss Voigt Hill
#
# Bulk Modulus (GPa) = 23.83119 47.42910 35.63014
# Shear Modulus (GPa) = 17.81681 26.66996 22.24338
#
# Velocity S-wave (km/s) = 2.77091 3.39015 3.09605
# Velocity P-wave (km/s) = 4.52847 5.98023 5.30425
#
# Compressibility (1/GPa) = 0.04196181
#
# Stress axis : x y z
#
# Youngs Moduli (GPa) = 25.23602 56.18308 54.52434
#
# Poissons Ratio (x) = 0.42216 -0.03855
# Poissons Ratio (y) = 0.18962 0.55042
# Poissons Ratio (z) = -0.01784 0.56716
#
# Static dielectric constant tensor:
#      x y z
#    x 1.881980 -0.016870 0.027000 
#    y -0.016870 1.890840 0.011500 
#    z 0.027000 0.011500 1.881860 
# 
# From -- ./inp_files/190257.got.cif
#   From: 2010.05.17/outbox.cif.g08.bks.cpg/sg2_96_cif.got.tgz:190257.got - 2010.06.03 11:33:40.
