data_PCOD9088204
_publ_section_title
;
Structure prediction by ZEFSAII (Michael W. Deem and Ramdas Pophale) SiO2 
 PCOD9088204
Probable space group: P -1
;
_chemical_formula_sum "Si O2"
_cell_formula_units_Z 16
_cell_length_a 8.952231
_cell_length_b 11.634569
_cell_length_c 18.317972
_cell_angle_alpha 26.834337
_cell_angle_beta 116.591978
_cell_angle_gamma 129.263344
_cell_volume 628.282508
_symmetry_space_group_name_H-M "P -1"
_symmetry_group_IT_number 2
_symmetry_cell_setting 'triclinic'
loop_
_space_group_symop_operation_xyz
x,y,z
-x,-y,-z
loop_
_atom_site_type_symbol
_atom_site_label
_atom_site_fract_x
_atom_site_fract_y
_atom_site_fract_z
Si Si1 0.522799 0.540301 0.809411
Si Si2 0.640618 0.072221 0.125404
Si Si3 0.232124 0.863554 0.722000
Si Si4 0.613733 0.851853 0.791417
Si Si5 0.927739 0.660470 0.128991
Si Si6 0.732109 0.711787 0.234857
Si Si7 0.297942 0.441824 0.450681
Si Si8 0.030176 0.589737 0.355443
O O1 0.660797 0.829658 0.729813
O O2 0.297391 0.408862 0.870356
O O3 0.471228 0.531469 0.718126
O O4 0.620309 0.345952 0.943309
O O5 0.704963 0.904787 0.179665
O O6 0.401663 0.786801 0.247012
O O7 0.778314 0.180738 0.167273
O O8 0.455603 0.945197 0.708471
O O9 0.087808 0.568998 0.806886
O O10 0.221055 0.155325 0.542784
O O11 0.801753 0.085309 0.751956
O O12 0.500000 0.500000 0.000000
O O13 0.987335 0.588874 0.259848
O O14 0.098949 0.006296 0.941680
O O15 0.825288 0.522278 0.384710
O O16 0.500000 0.500000 0.500000
O O17 0.118347 0.383112 0.495954
#
# Coordination Sequence:
#
# PCOD9088204 Si02
#       8
#     2   2   2   2   2   2   2   2
#     4  10  20  35  57  81 107 147 186 219 261 330
#     4  11  20  35  57  81 113 143 180 221 272 323
#     4  10  21  35  58  83 102 145 191 221 253 322
#     4  11  16  31  60  79 101 135 189 220 256 314
#     4  10  21  35  55  84 114 135 182 225 275 320
#     4  11  22  33  54  86 118 138 166 230 292 315
#     4  10  19  37  60  78 100 146 199 216 249 322
#     4  11  20  36  57  81 107 147 181 226 267 315
#
# _framework density 25.466251
#
# number of rings (size 3 to 8) (size 9 to 14) (size 15 to 20)
#    0.000    1.500    3.750    5.625    0.000    1.000 
#    0.000    2.500    0.000    6.750    0.000    0.000 
#    0.000    0.000    0.000    0.000    0.000    0.000 
#
# Total GULP energy -89319.173986 kJ/mol
# GULP energy per Si atom -5582.448374 kJ/mol
# Density = 2.540829 g / cm^3
# Si number density = 25.466251 Si / 1000 Ang^3
#
#
#
# Elastic Constant Matrix: (Units=GPa)
#
#
# Indices 1 2 3 4 5 6 
#
# 1 135.3666 59.2577 34.7257 5.1269 41.2547 -29.3950
# 2 59.2577 183.1476 32.2140 -16.6360 27.1905 -30.4520
# 3 34.7257 32.2140 49.3812 -14.3109 24.5155 -5.8606
# 4 5.1269 -16.6360 -14.3109 38.1164 -9.3826 10.4225
# 5 41.2547 27.1905 24.5155 -9.3826 54.5924 -13.6629
# 6 -29.3950 -30.4520 -5.8606 10.4225 -13.6629 43.1720
#
#
#
# Elastic Compliance Matrix: (Units=1/GPa)
#
#
# Indices 1 2 3 4 5 6 
#
# 1 0.013813 -0.001902 -0.007227 -0.008870 -0.005931 0.007347
# 2 -0.001902 0.007166 -0.002531 0.001612 0.000042 0.003041
# 3 -0.007227 -0.002531 0.033819 0.012665 -0.008235 -0.007778
# 4 -0.008870 0.001612 0.012665 0.036796 0.003819 -0.010858
# 5 -0.005931 0.000042 -0.008235 0.003819 0.027823 0.002757
# 6 0.007347 0.003041 -0.007778 -0.010858 0.002757 0.032748
#
#
# Mechanical properties :
#
#
# Convention : Reuss Voigt Hill
#
# Bulk Modulus (GPa) = 31.76601 68.92115 50.34358
# Shear Modulus (GPa) = 26.88512 43.28935 35.08723
#
# Velocity S-wave (km/s) = 3.25270 4.12742 3.71589
# Velocity P-wave (km/s) = 5.15826 7.05951 6.18240
#
# Compressibility (1/GPa) = 0.03148019
#
# Stress axis : x y z
#
# Youngs Moduli (GPa) = 72.39755 139.54441 29.56910
#
# Poissons Ratio (x) = 0.26535 0.21369
# Poissons Ratio (y) = 0.13767 0.07482
# Poissons Ratio (z) = 0.52320 0.35312
#
# Static dielectric constant tensor:
#      x y z
#    x 2.084120 -0.018580 -0.083260 
#    y -0.018580 2.022480 0.042610 
#    z -0.083260 0.042610 2.144710 
# 
# From -- ./inp_files/589376.got.cif
#   From: 2010.05.17/outbox.cif.g08.bks.cpg/sg2_295_cif.got.tgz:589376.got - 2010.06.03 11:33:40.
