data_PCOD9088123
_publ_section_title
;
Structure prediction by ZEFSAII (Michael W. Deem and Ramdas Pophale) SiO2 
 PCOD9088123
Probable space group: P -1
;
_chemical_formula_sum "Si O2"
_cell_formula_units_Z 16
_cell_length_a 13.721738
_cell_length_b 11.903190
_cell_length_c 7.587747
_cell_angle_alpha 140.264474
_cell_angle_beta 73.275391
_cell_angle_gamma 122.532500
_cell_volume 649.475033
_symmetry_space_group_name_H-M "P -1"
_symmetry_group_IT_number 2
_symmetry_cell_setting 'triclinic'
loop_
_space_group_symop_operation_xyz
x,y,z
-x,-y,-z
loop_
_atom_site_type_symbol
_atom_site_label
_atom_site_fract_x
_atom_site_fract_y
_atom_site_fract_z
Si Si1 0.638119 0.611306 0.913687
Si Si2 0.151275 0.300755 0.292556
Si Si3 0.759967 0.942421 0.551534
Si Si4 0.862262 0.330930 0.338028
Si Si5 0.410331 0.463742 0.661485
Si Si6 0.378196 0.814209 0.610579
Si Si7 0.044923 0.942858 0.181145
Si Si8 0.369934 0.816855 0.044996
O O1 0.723218 0.680099 0.779383
O O2 0.506846 0.560757 0.884710
O O3 0.627068 0.392976 0.694653
O O4 0.708736 0.797660 0.233808
O O5 0.166815 0.520990 0.581634
O O6 0.080565 0.148553 0.303602
O O7 0.081210 0.218007 0.039820
O O8 0.679219 0.773929 0.538948
O O9 0.899046 0.013671 0.597514
O O10 0.723756 0.114929 0.771858
O O11 0.754571 0.230720 0.414903
O O12 0.000000 0.500000 0.500000
O O13 0.871714 0.145288 0.034837
O O14 0.500000 0.500000 0.500000
O O15 0.347411 0.595554 0.842211
O O16 0.500940 0.015493 0.736215
O O17 0.384656 0.834437 0.845908
#
# Coordination Sequence:
#
# PCOD9088123 Si02
#       8
#     2   2   2   2   2   2   2   2
#     4  11  23  40  58  87 128 150 187 248 303 341
#     4   9  21  38  61  91 110 151 203 238 280 352
#     4  12  25  39  57  90 126 153 186 248 300 345
#     4   9  18  33  57  86 114 143 189 250 283 323
#     4  12  23  39  64  84 113 162 201 242 282 342
#     4  10  19  37  59  85 116 148 203 237 282 354
#     4  10  20  37  64  87 114 151 200 239 283 347
#     4  11  22  37  61  85 110 159 204 236 278 353
#
# _framework density 24.635282
#
# number of rings (size 3 to 8) (size 9 to 14) (size 15 to 20)
#    0.000    1.500    3.750    1.875    3.500    1.000 
#    0.000    0.000    0.000    0.000    0.000   11.375 
#    0.000    0.000    0.000    0.000    0.000    0.000 
#
# Total GULP energy -89199.182582 kJ/mol
# GULP energy per Si atom -5574.948911 kJ/mol
# Density = 2.457921 g / cm^3
# Si number density = 24.635282 Si / 1000 Ang^3
#
#
#
# Elastic Constant Matrix: (Units=GPa)
#
#
# Indices 1 2 3 4 5 6 
#
# 1 161.4243 -3.1657 30.1454 13.9149 17.7249 20.7124
# 2 -3.1657 29.9953 0.9383 16.2181 -0.0288 1.9425
# 3 30.1454 0.9383 113.6900 17.4645 0.3113 -12.6498
# 4 13.9149 16.2181 17.4645 35.1999 -6.0054 4.2463
# 5 17.7249 -0.0288 0.3113 -6.0054 38.7578 7.2631
# 6 20.7124 1.9425 -12.6498 4.2463 7.2631 31.4535
#
#
#
# Elastic Compliance Matrix: (Units=1/GPa)
#
#
# Indices 1 2 3 4 5 6 
#
# 1 0.007962 0.003085 -0.002170 -0.003421 -0.003194 -0.005107
# 2 0.003085 0.047269 0.002814 -0.025441 -0.005507 0.000887
# 3 -0.002170 0.002814 0.011236 -0.007129 -0.001529 0.007090
# 4 -0.003421 -0.025441 -0.007129 0.047764 0.010487 -0.007913
# 5 -0.003194 -0.005507 -0.001529 0.010487 0.030121 -0.006542
# 6 -0.005107 0.000887 0.007090 -0.007913 -0.006542 0.040532
#
#
# Mechanical properties :
#
#
# Convention : Reuss Voigt Hill
#
# Bulk Modulus (GPa) = 13.52731 40.10508 26.81619
# Shear Modulus (GPa) = 24.74408 39.56169 32.15288
#
# Velocity S-wave (km/s) = 3.17269 4.01171 3.61661
# Velocity P-wave (km/s) = 4.35020 6.14600 5.32436
#
# Compressibility (1/GPa) = 0.07392454
#
# Stress axis : x y z
#
# Youngs Moduli (GPa) = 125.60319 21.15539 88.99659
#
# Poissons Ratio (x) = -0.06527 0.19316
# Poissons Ratio (y) = -0.38755 -0.25040
# Poissons Ratio (z) = 0.27262 -0.05952
#
# Static dielectric constant tensor:
#      x y z
#    x 2.152510 -0.001360 0.196470 
#    y -0.001360 2.011510 -0.104780 
#    z 0.196470 -0.104780 2.107440 
# 
# From -- ./inp_files/201276.got.cif
#   From: 2010.05.17/outbox.cif.g08.bks.cpg/sg2_101_cif.got.tgz:201276.got - 2010.06.03 11:33:40.
