data_PCOD9088859
_publ_section_title
;
Structure prediction by ZEFSAII (Michael W. Deem and Ramdas Pophale) SiO2 
 PCOD9088859
Probable space group: P -1
;
_chemical_formula_sum "Si O2"
_cell_formula_units_Z 14
_cell_length_a 8.974188
_cell_length_b 7.768068
_cell_length_c 12.828716
_cell_angle_alpha 99.925444
_cell_angle_beta 83.172745
_cell_angle_gamma 135.032444
_cell_volume 622.553682
_symmetry_space_group_name_H-M "P -1"
_symmetry_group_IT_number 2
_symmetry_cell_setting 'triclinic'
loop_
_space_group_symop_operation_xyz
x,y,z
-x,-y,-z
loop_
_atom_site_type_symbol
_atom_site_label
_atom_site_fract_x
_atom_site_fract_y
_atom_site_fract_z
Si Si1 0.528974 0.509340 0.856758
Si Si2 0.775702 0.772178 0.682902
Si Si3 0.294523 0.809250 0.851334
Si Si4 0.068231 0.982146 0.880004
Si Si5 0.784104 0.408042 0.550981
Si Si6 0.624711 0.321100 0.986111
Si Si7 0.550564 0.920495 0.638563
O O1 0.562123 0.540156 0.735501
O O2 0.678989 0.500116 0.907677
O O3 0.294590 0.254763 0.869635
O O4 0.541405 0.707341 0.930923
O O5 0.838033 0.652368 0.601126
O O6 0.719440 0.904227 0.643378
O O7 0.923622 0.917431 0.787137
O O8 0.124356 0.821760 0.852133
O O9 0.386923 0.806528 0.737002
O O10 0.503765 0.070360 0.910075
O O11 0.219664 0.619476 0.930973
O O12 0.000000 0.000000 0.000000
O O13 0.599478 0.251322 0.463607
O O14 0.000000 0.500000 0.500000
O O15 0.682303 0.205399 0.631141
#
# Coordination Sequence:
#
# PCOD9088859 Si02
#       7
#     2   2   2   2   2   2   2
#     4  10  20  39  61  93 134 173 219 260 322 388
#     4  12  24  45  70  96 134 176 218 271 332 388
#     4  10  19  37  63  91 130 171 220 262 322 386
#     4  11  24  38  60  98 136 174 222 266 314 388
#     4  11  26  47  71 100 129 163 224 282 336 394
#     4   9  17  32  63  88 125 178 205 260 313 376
#     4  11  25  45  72  98 127 176 219 273 336 390
#
# _framework density 22.488019999999999
#
# number of rings (size 3 to 8) (size 9 to 14) (size 15 to 20)
#    0.000    1.429    1.429    5.571    2.000    2.857 
#    2.571    1.429    0.000    0.000    0.000    0.000 
#    0.000    0.000    0.000    0.000    0.000    0.000 
#
# Total GULP energy -78090.713230 kJ/mol
# GULP energy per Si atom -5577.908088 kJ/mol
# Density = 2.243684 g / cm^3
# Si number density = 22.488020 Si / 1000 Ang^3
#
#
#
# Elastic Constant Matrix: (Units=GPa)
#
#
# Indices 1 2 3 4 5 6 
#
# 1 149.8057 38.3633 55.6145 4.5692 12.9683 -17.5993
# 2 38.3633 40.5544 13.8145 5.5200 6.6047 -2.3235
# 3 55.6145 13.8145 89.8116 8.2184 2.1742 -10.8999
# 4 4.5692 5.5200 8.2184 30.7611 -1.8031 -1.2033
# 5 12.9683 6.6047 2.1742 -1.8031 45.9801 -3.1969
# 6 -17.5993 -2.3235 -10.8999 -1.2033 -3.1969 40.7883
#
#
#
# Elastic Compliance Matrix: (Units=1/GPa)
#
#
# Indices 1 2 3 4 5 6 
#
# 1 0.011324 -0.008649 -0.005422 0.001346 -0.001443 0.002871
# 2 -0.008649 0.033716 0.000457 -0.005130 -0.002769 -0.002058
# 3 -0.005422 0.000457 0.014889 -0.003147 0.000750 0.001631
# 4 0.001346 -0.005130 -0.003147 0.034204 0.001889 0.000605
# 5 -0.001443 -0.002769 0.000750 0.001889 0.022679 0.001253
# 6 0.002871 -0.002058 0.001631 0.000605 0.001253 0.026191
#
#
# Mechanical properties :
#
#
# Convention : Reuss Voigt Hill
#
# Bulk Modulus (GPa) = 30.58026 55.08405 42.83215
# Shear Modulus (GPa) = 27.60405 34.99786 31.30096
#
# Velocity S-wave (km/s) = 3.50737 3.94926 3.73486
# Velocity P-wave (km/s) = 5.47998 6.73377 6.13896
#
# Compressibility (1/GPa) = 0.03270084
#
# Stress axis : x y z
#
# Youngs Moduli (GPa) = 88.30619 29.65938 67.16210
#
# Poissons Ratio (x) = 0.25653 0.36414
# Poissons Ratio (y) = 0.76379 -0.03067
# Poissons Ratio (z) = 0.47878 -0.01354
#
# Static dielectric constant tensor:
#      x y z
#    x 1.906890 -0.020220 0.022960 
#    y -0.020220 1.961210 -0.050850 
#    z 0.022960 -0.050850 1.830840 
# 
# From -- ./inp_files/379517.got.cif
#   From: 2010.05.17/outbox.cif.g08.bks.cpg/sg2_190_cif.got.tgz:379517.got - 2010.06.03 11:33:40.
