data_PCOD9088491
_publ_section_title
;
Structure prediction by ZEFSAII (Michael W. Deem and Ramdas Pophale) SiO2 
 PCOD9088491
Probable space group: P -1
;
_chemical_formula_sum "Si O2"
_cell_formula_units_Z 16
_cell_length_a 9.979379
_cell_length_b 19.759639
_cell_length_c 12.617295
_cell_angle_alpha 147.855648
_cell_angle_beta 34.234392
_cell_angle_gamma 127.738416
_cell_volume 711.835919
_symmetry_space_group_name_H-M "P -1"
_symmetry_group_IT_number 2
_symmetry_cell_setting 'triclinic'
loop_
_space_group_symop_operation_xyz
x,y,z
-x,-y,-z
loop_
_atom_site_type_symbol
_atom_site_label
_atom_site_fract_x
_atom_site_fract_y
_atom_site_fract_z
Si Si1 0.146870 0.004771 0.800139
Si Si2 0.474608 0.251766 0.734407
Si Si3 0.695173 0.550870 0.694762
Si Si4 0.968774 0.327529 0.508445
Si Si5 0.020992 0.747910 0.903510
Si Si6 0.244713 0.092589 0.156841
Si Si7 0.777592 0.515421 0.084623
Si Si8 0.488424 0.185568 0.322271
O O1 0.413068 0.902832 0.511762
O O2 0.023040 0.934598 0.697388
O O3 0.099316 0.152025 0.981914
O O4 0.000000 0.000000 0.000000
O O5 0.717490 0.291558 0.584245
O O6 0.392892 0.353070 0.020597
O O7 0.199186 0.258867 0.881495
O O8 0.440146 0.537815 0.792861
O O9 0.878214 0.602852 0.572568
O O10 0.844331 0.399078 0.422073
O O11 0.181690 0.198582 0.244149
O O12 0.870182 0.427962 0.804173
O O13 0.245479 0.798782 0.869464
O O14 0.334682 0.152625 0.281046
O O15 0.435660 0.943754 0.821918
O O16 0.656485 0.671879 0.346431
O O17 0.000000 0.500000 0.000000
#
# Coordination Sequence:
#
# PCOD9088491 Si02
#       8
#     2   2   2   2   2   2   2   2
#     4  10  22  40  65  92 120 161 208 254 309 370
#     4  10  22  40  63  87 122 165 202 251 310 360
#     4  10  23  40  60  92 127 160 205 255 306 363
#     4  10  21  38  61  93 120 163 206 249 307 362
#     4  10  21  40  59  90 127 159 204 256 306 361
#     4   9  18  36  62  85 116 160 197 251 302 357
#     4  10  19  37  61  89 124 163 203 250 307 366
#     4   9  18  36  63  85 121 161 200 249 308 354
#
# _framework density 22.477091000000001
#
# number of rings (size 3 to 8) (size 9 to 14) (size 15 to 20)
#    0.000    2.250    1.250    0.750    3.500    1.000 
#    9.000    0.000    0.000    1.500    0.000    0.000 
#    0.000    0.000    0.000    0.000    0.000    0.000 
#
# Total GULP energy -89184.235083 kJ/mol
# GULP energy per Si atom -5574.014693 kJ/mol
# Density = 2.242593 g / cm^3
# Si number density = 22.477091 Si / 1000 Ang^3
#
#
#
# Elastic Constant Matrix: (Units=GPa)
#
#
# Indices 1 2 3 4 5 6 
#
# 1 84.7756 49.4893 24.0235 -15.0655 -17.2179 26.6188
# 2 49.4893 157.7754 57.7501 -6.6447 -6.8014 8.7620
# 3 24.0235 57.7501 113.7791 1.4976 -15.9040 10.4566
# 4 -15.0655 -6.6447 1.4976 50.6084 7.3648 -4.1563
# 5 -17.2179 -6.8014 -15.9040 7.3648 26.1535 1.3697
# 6 26.6188 8.7620 10.4566 -4.1563 1.3697 26.1724
#
#
#
# Elastic Compliance Matrix: (Units=1/GPa)
#
#
# Indices 1 2 3 4 5 6 
#
# 1 0.028759 -0.007646 0.003170 0.002239 0.019742 -0.028634
# 2 -0.007646 0.009914 -0.004883 0.000596 -0.005949 0.006814
# 3 0.003170 -0.004883 0.012635 -0.002063 0.009472 -0.007460
# 4 0.002239 0.000596 -0.002063 0.021582 -0.005812 0.002079
# 5 0.019742 -0.005949 0.009472 -0.005812 0.058436 -0.025852
# 6 -0.028634 0.006814 -0.007460 0.002079 -0.025852 0.069713
#
#
# Mechanical properties :
#
#
# Convention : Reuss Voigt Hill
#
# Bulk Modulus (GPa) = 30.68413 68.76176 49.72295
# Shear Modulus (GPa) = 21.68066 35.59135 28.63600
#
# Velocity S-wave (km/s) = 3.10912 3.98358 3.57320
# Velocity P-wave (km/s) = 5.15458 7.19839 6.26045
#
# Compressibility (1/GPa) = 0.03259013
#
# Stress axis : x y z
#
# Youngs Moduli (GPa) = 34.77154 100.86780 79.14522
#
# Poissons Ratio (x) = 0.77120 -0.25089
# Poissons Ratio (y) = 0.26585 0.38649
# Poissons Ratio (z) = -0.11023 0.49257
#
# Static dielectric constant tensor:
#      x y z
#    x 2.033470 -0.067240 -0.104160 
#    y -0.067240 1.936360 0.079050 
#    z -0.104160 0.079050 1.915050 
# 
# From -- ./inp_files/524085.got.cif
#   From: 2010.05.17/outbox.cif.g08.bks.cpg/sg2_263_cif.got.tgz:524085.got - 2010.06.03 11:33:40.
