data_PCOD9088474
_publ_section_title
;
Structure prediction by ZEFSAII (Michael W. Deem and Ramdas Pophale) SiO2 
 PCOD9088474
Probable space group: P -1
;
_chemical_formula_sum "Si O2"
_cell_formula_units_Z 16
_cell_length_a 13.655028
_cell_length_b 12.572949
_cell_length_c 7.012318
_cell_angle_alpha 97.153778
_cell_angle_beta 47.372519
_cell_angle_gamma 123.115195
_cell_volume 680.533486
_symmetry_space_group_name_H-M "P -1"
_symmetry_group_IT_number 2
_symmetry_cell_setting 'triclinic'
loop_
_space_group_symop_operation_xyz
x,y,z
-x,-y,-z
loop_
_atom_site_type_symbol
_atom_site_label
_atom_site_fract_x
_atom_site_fract_y
_atom_site_fract_z
Si Si1 0.479428 0.116997 0.069096
Si Si2 0.475636 0.364498 0.461748
Si Si3 0.227403 0.902811 0.828172
Si Si4 0.094443 0.159587 0.862201
Si Si5 0.218383 0.318102 0.324569
Si Si6 0.414062 0.793053 0.641582
Si Si7 0.443470 0.628400 0.095179
Si Si8 0.101851 0.940024 0.399854
O O1 0.598034 0.202028 0.113048
O O2 0.548273 0.239470 0.852635
O O3 0.272448 0.038213 0.328130
O O4 0.500000 0.000000 0.000000
O O5 0.500000 0.500000 0.500000
O O6 0.276446 0.241401 0.740243
O O7 0.585373 0.333010 0.426185
O O8 0.520805 0.369305 0.179976
O O9 0.279935 0.805940 0.732336
O O10 0.396948 0.057956 0.596303
O O11 0.179908 0.924012 0.104683
O O12 0.062307 0.838506 0.900887
O O13 0.159795 0.231151 0.580389
O O14 0.000000 0.000000 0.000000
O O15 0.387969 0.342932 0.033617
O O16 0.057461 0.218951 0.374132
O O17 0.278543 0.470402 0.317675
O O18 0.000000 0.000000 0.500000
#
# Coordination Sequence:
#
# PCOD9088474 Si02
#       8
#     2   2   2   2   2   2   2   2
#     4  11  21  39  62  92 124 158 208 255 306 369
#     4  10  21  38  59  87 119 164 207 247 304 373
#     4  10  21  37  60  89 122 159 199 255 315 358
#     4  10  19  37  61  89 114 154 205 258 300 356
#     4   9  19  36  55  87 120 154 195 251 306 353
#     4  10  21  39  60  87 127 160 197 254 316 364
#     4   9  19  38  58  83 124 163 193 251 310 364
#     4  11  21  35  60  96 119 156 214 258 297 367
#
# _framework density 23.510966
#
# number of rings (size 3 to 8) (size 9 to 14) (size 15 to 20)
#    0.000    2.000    3.750    0.000    1.750    1.000 
#    4.500    1.250    0.000    0.000    0.000    0.000 
#    0.000    0.000    0.000    0.000    0.000    0.000 
#
# Total GULP energy -89171.300980 kJ/mol
# GULP energy per Si atom -5573.206311 kJ/mol
# Density = 2.345745 g / cm^3
# Si number density = 23.510966 Si / 1000 Ang^3
#
#
#
# Elastic Constant Matrix: (Units=GPa)
#
#
# Indices 1 2 3 4 5 6 
#
# 1 104.0071 51.3302 32.6026 -0.1643 -25.9523 -30.1338
# 2 51.3302 173.8351 29.8124 -13.1086 -21.3151 -49.9788
# 3 32.6026 29.8124 56.4728 -10.0298 -5.4325 -20.6061
# 4 -0.1643 -13.1086 -10.0298 47.4629 -4.8697 -8.2429
# 5 -25.9523 -21.3151 -5.4325 -4.8697 43.2363 11.7405
# 6 -30.1338 -49.9788 -20.6061 -8.2429 11.7405 44.9429
#
#
#
# Elastic Compliance Matrix: (Units=1/GPa)
#
#
# Indices 1 2 3 4 5 6 
#
# 1 0.014914 -0.001511 -0.005804 -0.000253 0.006378 0.003946
# 2 -0.001511 0.009662 0.000589 0.004770 0.001630 0.010450
# 3 -0.005804 0.000589 0.025592 0.007141 -0.001977 0.010323
# 4 -0.000253 0.004770 0.007141 0.026346 0.002658 0.012547
# 5 0.006378 0.001630 -0.001977 0.002658 0.028278 -0.001717
# 6 0.003946 0.010450 0.010323 0.012547 -0.001717 0.044001
#
#
# Mechanical properties :
#
#
# Convention : Reuss Voigt Hill
#
# Bulk Modulus (GPa) = 27.23591 62.42282 44.82936
# Shear Modulus (GPa) = 28.65595 41.83308 35.24451
#
# Velocity S-wave (km/s) = 3.49497 4.22275 3.87598
# Velocity P-wave (km/s) = 5.28165 7.09815 6.25618
#
# Compressibility (1/GPa) = 0.03671624
#
# Stress axis : x y z
#
# Youngs Moduli (GPa) = 67.05070 103.49989 39.07410
#
# Poissons Ratio (x) = 0.15639 0.22678
# Poissons Ratio (y) = 0.10131 -0.02301
# Poissons Ratio (z) = 0.38916 -0.06095
#
# Static dielectric constant tensor:
#      x y z
#    x 1.983670 0.116750 0.093730 
#    y 0.116750 1.806800 0.070190 
#    z 0.093730 0.070190 1.948110 
# 
# From -- ./inp_files/307670.got.cif
#   From: 2010.05.17/outbox.cif.g08.bks.cpg/sg2_154_cif.got.tgz:307670.got - 2010.06.03 11:33:40.
