data_PCOD9088971
_publ_section_title
;
Structure prediction by ZEFSAII (Michael W. Deem and Ramdas Pophale) SiO2 
 PCOD9088971
Probable space group: P -1
;
_chemical_formula_sum "Si O2"
_cell_formula_units_Z 16
_cell_length_a 9.223147
_cell_length_b 26.683410
_cell_length_c 9.034559
_cell_angle_alpha 137.277966
_cell_angle_beta 83.716417
_cell_angle_gamma 129.506723
_cell_volume 849.286578
_symmetry_space_group_name_H-M "P -1"
_symmetry_group_IT_number 2
_symmetry_cell_setting 'triclinic'
loop_
_space_group_symop_operation_xyz
x,y,z
-x,-y,-z
loop_
_atom_site_type_symbol
_atom_site_label
_atom_site_fract_x
_atom_site_fract_y
_atom_site_fract_z
Si Si1 0.347797 0.367063 0.292647
Si Si2 0.999399 0.180976 0.653202
Si Si3 0.160318 0.484694 0.316782
Si Si4 0.771388 0.951758 0.349296
Si Si5 0.777769 0.622654 0.157221
Si Si6 0.219070 0.673005 0.709175
Si Si7 0.066881 0.749103 0.694390
Si Si8 0.528111 0.975880 0.608051
O O1 0.500000 0.500000 0.500000
O O2 0.568415 0.400735 0.376223
O O3 0.189162 0.324581 0.361110
O O4 0.140848 0.257376 0.956825
O O5 0.196708 0.287320 0.733881
O O6 0.763526 0.138554 0.554906
O O7 0.880877 0.051049 0.420785
O O8 0.135067 0.556629 0.412248
O O9 0.935491 0.377545 0.229310
O O10 0.187654 0.429551 0.077962
O O11 0.656707 0.952619 0.500306
O O12 0.523804 0.806475 0.996042
O O13 0.000000 0.000000 0.500000
O O14 0.996548 0.708826 0.445182
O O15 0.500000 0.500000 0.000000
O O16 0.138166 0.703254 0.670640
O O17 0.292261 0.900861 0.038427
O O18 0.500000 0.000000 0.500000
#
# Coordination Sequence:
#
# PCOD9088971 Si02
#       8
#     2   2   2   2   2   2   2   2
#     4  12  18  34  65  89 116 157 212 260 303 359
#     4  11  21  39  64  92 124 158 211 265 308 370
#     4  11  24  40  63  95 129 163 211 267 314 370
#     4  11  21  37  66  96 121 154 207 278 314 357
#     4  12  25  39  62  94 132 170 210 253 312 384
#     4  11  23  41  64  94 125 162 215 265 316 365
#     4  12  21  38  63  90 123 168 207 254 315 373
#     4  10  19  37  64  89 119 156 210 270 301 363
#
# _framework density 18.839341000000001
#
# number of rings (size 3 to 8) (size 9 to 14) (size 15 to 20)
#    0.000    0.750    8.750    1.500    0.000    1.000 
#    0.000    0.000    2.750    1.500    0.000    0.000 
#    0.000    0.000    0.000    0.000    0.000    0.000 
#
# Total GULP energy -89233.580337 kJ/mol
# GULP energy per Si atom -5577.098771 kJ/mol
# Density = 1.879646 g / cm^3
# Si number density = 18.839341 Si / 1000 Ang^3
#
#
#
# Elastic Constant Matrix: (Units=GPa)
#
#
# Indices 1 2 3 4 5 6 
#
# 1 77.0176 18.7473 18.5322 8.1893 8.9500 -3.2098
# 2 18.7473 89.7062 34.5323 11.6945 1.6421 -4.5823
# 3 18.5322 34.5323 109.0899 -1.3279 8.2577 -5.9428
# 4 8.1893 11.6945 -1.3279 27.6923 -1.2934 4.6825
# 5 8.9500 1.6421 8.2577 -1.2934 27.8036 7.6643
# 6 -3.2098 -4.5823 -5.9428 4.6825 7.6643 26.2575
#
#
#
# Elastic Compliance Matrix: (Units=1/GPa)
#
#
# Indices 1 2 3 4 5 6 
#
# 1 0.015039 -0.001681 -0.001461 -0.004686 -0.005537 0.003666
# 2 -0.001681 0.013974 -0.004081 -0.006003 -0.000008 0.002383
# 3 -0.001461 -0.004081 0.011081 0.002185 -0.003063 0.002122
# 4 -0.004686 -0.006003 0.002185 0.042180 0.006047 -0.010413
# 5 -0.005537 -0.000008 -0.003063 0.006047 0.043082 -0.015025
# 6 0.003666 0.002383 0.002122 -0.010413 -0.015025 0.045671
#
#
# Mechanical properties :
#
#
# Convention : Reuss Voigt Hill
#
# Bulk Modulus (GPa) = 38.98814 46.60414 42.79614
# Shear Modulus (GPa) = 25.77033 29.95083 27.86058
#
# Velocity S-wave (km/s) = 3.70253 3.99156 3.84976
# Velocity P-wave (km/s) = 6.24646 6.78489 6.52123
#
# Compressibility (1/GPa) = 0.02564883
#
# Stress axis : x y z
#
# Youngs Moduli (GPa) = 66.49276 71.56112 90.24741
#
# Poissons Ratio (x) = 0.12030 0.13185
# Poissons Ratio (y) = 0.11178 0.36826
# Poissons Ratio (z) = 0.09714 0.29201
#
# Static dielectric constant tensor:
#      x y z
#    x 1.708530 0.038050 -0.021320 
#    y 0.038050 1.770800 -0.014180 
#    z -0.021320 -0.014180 1.724470 
# 
# From -- ./inp_files/200859.got.cif
#   From: 2010.05.17/outbox.cif.g08.bks.cpg/sg2_101_cif.got.tgz:200859.got - 2010.06.03 11:33:40.
