data_PCOD9088428
_publ_section_title
;
Structure prediction by ZEFSAII (Michael W. Deem and Ramdas Pophale) SiO2 
 PCOD9088428
Probable space group: P -1
;
_chemical_formula_sum "Si O2"
_cell_formula_units_Z 14
_cell_length_a 9.849003
_cell_length_b 20.381469
_cell_length_c 8.249420
_cell_angle_alpha 47.628354
_cell_angle_beta 44.114517
_cell_angle_gamma 33.422286
_cell_volume 622.747464
_symmetry_space_group_name_H-M "P -1"
_symmetry_group_IT_number 2
_symmetry_cell_setting 'triclinic'
loop_
_space_group_symop_operation_xyz
x,y,z
-x,-y,-z
loop_
_atom_site_type_symbol
_atom_site_label
_atom_site_fract_x
_atom_site_fract_y
_atom_site_fract_z
Si Si1 0.533947 0.051339 0.057308
Si Si2 0.786356 0.360200 0.594049
Si Si3 0.970991 0.217295 0.357352
Si Si4 0.289595 0.424262 0.799563
Si Si5 0.768471 0.016832 0.257344
Si Si6 0.671735 0.813504 0.389502
Si Si7 0.527609 0.232627 0.639600
O O1 0.604567 0.030904 0.222369
O O2 0.220816 0.170890 0.119359
O O3 0.595274 0.929775 0.170391
O O4 0.674656 0.092948 0.787872
O O5 0.872631 0.319982 0.398733
O O6 0.528936 0.375521 0.801293
O O7 0.721479 0.484240 0.456050
O O8 0.039340 0.262622 0.651893
O O9 0.741595 0.243270 0.405031
O O10 0.082408 0.104155 0.565275
O O11 0.380918 0.314299 0.791101
O O12 0.000000 0.500000 0.000000
O O13 0.555009 0.129136 0.373043
O O14 0.000000 0.000000 0.000000
O O15 0.651615 0.737763 0.409178
#
# Coordination Sequence:
#
# PCOD9088428 Si02
#       7
#     2   2   2   2   2   2   2
#     4  11  20  38  61  88 125 164 198 235 291 374
#     4  10  20  40  64  84 116 158 203 246 300 352
#     4  10  19  37  61  86 120 160 201 241 290 360
#     4  10  23  41  65  88 111 158 209 250 296 363
#     4  11  20  35  63  91 119 164 209 233 290 363
#     4  11  23  39  60  93 127 157 195 255 300 350
#     4  11  24  39  59  91 128 155 199 250 306 345
#
# _framework density 22.481021999999999
#
# number of rings (size 3 to 8) (size 9 to 14) (size 15 to 20)
#    0.000    1.429    4.286    2.143    0.000    2.857 
#    2.571    0.714    0.000    0.000    0.000    0.000 
#    0.000    0.000    0.000    0.000    0.000    0.000 
#
# Total GULP energy -78149.699129 kJ/mol
# GULP energy per Si atom -5582.121366 kJ/mol
# Density = 2.242985 g / cm^3
# Si number density = 22.481022 Si / 1000 Ang^3
#
#
#
# Elastic Constant Matrix: (Units=GPa)
#
#
# Indices 1 2 3 4 5 6 
#
# 1 137.8990 46.5882 23.3943 14.8916 -35.4317 12.9095
# 2 46.5882 79.1883 12.5164 0.5627 -17.0458 -0.8295
# 3 23.3943 12.5164 63.1076 13.3907 -22.8957 -0.4097
# 4 14.8916 0.5627 13.3907 30.7264 -3.4676 -10.9303
# 5 -35.4317 -17.0458 -22.8957 -3.4676 28.2008 3.8150
# 6 12.9095 -0.8295 -0.4097 -10.9303 3.8150 38.9853
#
#
#
# Elastic Compliance Matrix: (Units=1/GPa)
#
#
# Indices 1 2 3 4 5 6 
#
# 1 0.015751 -0.005684 0.004996 -0.011097 0.020452 -0.010397
# 2 -0.005684 0.016595 -0.001451 0.004459 0.001814 0.003293
# 3 0.004996 -0.001451 0.026798 -0.013888 0.026516 -0.007892
# 4 -0.011097 0.004459 -0.013888 0.048530 -0.019139 0.019103
# 5 0.020452 0.001814 0.026516 -0.019139 0.084140 -0.020055
# 6 -0.010397 0.003293 -0.007892 0.019103 -0.020055 0.036399
#
#
# Mechanical properties :
#
#
# Convention : Reuss Voigt Hill
#
# Bulk Modulus (GPa) = 18.22658 49.46584 33.84621
# Shear Modulus (GPa) = 19.93790 32.76223 26.35006
#
# Velocity S-wave (km/s) = 2.98128 3.82164 3.42731
# Velocity P-wave (km/s) = 4.46943 6.44394 5.54528
#
# Compressibility (1/GPa) = 0.05486494
#
# Stress axis : x y z
#
# Youngs Moduli (GPa) = 63.48793 60.25993 37.31682
#
# Poissons Ratio (x) = 0.34251 -0.18642
# Poissons Ratio (y) = 0.36086 0.05414
# Poissons Ratio (z) = -0.31716 0.08743
#
# Static dielectric constant tensor:
#      x y z
#    x 1.925390 -0.013090 -0.021990 
#    y -0.013090 1.842390 0.015970 
#    z -0.021990 0.015970 1.878470 
# 
# From -- ./inp_files/187025.got.cif
#   From: 2010.05.17/outbox.cif.g08.bks.cpg/sg2_94_cif.got.tgz:187025.got - 2010.06.03 11:33:40.
