data_PCOD9088528
_publ_section_title
;
Structure prediction by ZEFSAII (Michael W. Deem and Ramdas Pophale) SiO2 
 PCOD9088528
Probable space group: P -1
;
_chemical_formula_sum "Si O2"
_cell_formula_units_Z 16
_cell_length_a 11.418048
_cell_length_b 8.618221
_cell_length_c 11.151540
_cell_angle_alpha 65.634165
_cell_angle_beta 51.949186
_cell_angle_gamma 42.790532
_cell_volume 585.392853
_symmetry_space_group_name_H-M "P -1"
_symmetry_group_IT_number 2
_symmetry_cell_setting 'triclinic'
loop_
_space_group_symop_operation_xyz
x,y,z
-x,-y,-z
loop_
_atom_site_type_symbol
_atom_site_label
_atom_site_fract_x
_atom_site_fract_y
_atom_site_fract_z
Si Si1 0.351854 0.709151 0.300807
Si Si2 0.042921 0.675264 0.506424
Si Si3 0.097390 0.282428 0.859346
Si Si4 0.783038 0.045364 0.335521
Si Si5 0.690428 0.728340 0.717831
Si Si6 0.692214 0.441605 0.992675
Si Si7 0.878294 0.981511 0.872315
Si Si8 0.564538 0.756948 0.355976
O O1 0.183390 0.713379 0.459795
O O2 0.223464 0.927252 0.221868
O O3 0.475637 0.708544 0.323910
O O4 0.521133 0.508339 0.168071
O O5 0.201302 0.435745 0.413429
O O6 0.876501 0.689991 0.672104
O O7 0.909722 0.863098 0.423397
O O8 0.200980 0.385439 0.740563
O O9 0.862299 0.423394 0.955968
O O10 0.178369 0.096555 0.760961
O O11 0.157708 0.164106 0.988906
O O12 0.551448 0.218241 0.461128
O O13 0.886699 0.149434 0.231630
O O14 0.615276 0.638012 0.881159
O O15 0.526299 0.986621 0.697397
O O16 0.791414 0.207334 0.934904
#
# Coordination Sequence:
#
# PCOD9088528 Si02
#       8
#     2   2   2   2   2   2   2   2
#     4  11  23  40  59  91 126 156 193 244 303 356
#     4   9  19  36  64  90 114 151 202 249 293 345
#     4  11  22  39  60  90 119 159 204 244 290 355
#     4   9  18  39  61  88 114 155 198 249 291 350
#     4  10  19  37  61  93 112 151 204 244 294 341
#     4  11  21  38  62  87 119 160 201 248 291 350
#     4  10  21  38  64  90 115 152 205 249 298 344
#     4  11  25  37  60  92 124 158 193 245 303 350
#
# _framework density 27.332072
#
# number of rings (size 3 to 8) (size 9 to 14) (size 15 to 20)
#    0.000    1.750    3.750    3.000    1.750    7.000 
#    0.000    0.000    0.000    5.250    0.000    0.000 
#    0.000    0.000    0.000    0.000    0.000    0.000 
#
# Total GULP energy -89658.896137 kJ/mol
# GULP energy per Si atom -5603.681009 kJ/mol
# Density = 2.726986 g / cm^3
# Si number density = 27.332072 Si / 1000 Ang^3
#
#
#
# Elastic Constant Matrix: (Units=GPa)
#
#
# Indices 1 2 3 4 5 6 
#
# 1 181.2566 10.3186 38.1308 9.6614 -37.1093 -8.0847
# 2 10.3186 52.8475 11.9581 2.8621 3.6815 -8.4331
# 3 38.1308 11.9581 128.9685 -13.2503 -41.2758 5.0720
# 4 9.6614 2.8621 -13.2503 23.5345 -1.4342 3.8289
# 5 -37.1093 3.6815 -41.2758 -1.4342 48.4055 6.4459
# 6 -8.0847 -8.4331 5.0720 3.8289 6.4459 36.3297
#
#
#
# Elastic Compliance Matrix: (Units=1/GPa)
#
#
# Indices 1 2 3 4 5 6 
#
# 1 0.006869 -0.001138 -0.000868 -0.003053 0.004399 0.000927
# 2 -0.001138 0.022713 -0.005621 -0.007310 -0.008690 0.008116
# 3 -0.000868 -0.005621 0.014091 0.010893 0.013022 -0.006924
# 4 -0.003053 -0.007310 0.010893 0.053265 0.010599 -0.011391
# 5 0.004399 -0.008690 0.013022 0.010599 0.037526 -0.010632
# 6 0.000927 0.008116 -0.006924 -0.011391 -0.010632 0.033669
#
#
# Mechanical properties :
#
#
# Convention : Reuss Voigt Hill
#
# Bulk Modulus (GPa) = 35.18733 53.76528 44.47631
# Shear Modulus (GPa) = 25.92556 41.83163 33.87860
#
# Velocity S-wave (km/s) = 3.08318 3.91640 3.52450
# Velocity P-wave (km/s) = 5.05733 6.33757 5.73330
#
# Compressibility (1/GPa) = 0.02841932
#
# Stress axis : x y z
#
# Youngs Moduli (GPa) = 145.58162 44.02798 70.96845
#
# Poissons Ratio (x) = 0.05011 0.06157
# Poissons Ratio (y) = 0.16569 0.39891
# Poissons Ratio (z) = 0.12631 0.24748
#
# Static dielectric constant tensor:
#      x y z
#    x 2.131050 -0.028740 -0.005600 
#    y -0.028740 2.166910 -0.000530 
#    z -0.005600 -0.000530 2.118080 
# 
# From -- ./inp_files/416308.got.cif
#   From: 2010.05.17/outbox.cif.g08.bks.cpg/sg2_209_cif.got.tgz:416308.got - 2010.06.03 11:33:40.
