data_PCOD9088780
_publ_section_title
;
Structure prediction by ZEFSAII (Michael W. Deem and Ramdas Pophale) SiO2 
 PCOD9088780
Probable space group: P -1
;
_chemical_formula_sum "Si O2"
_cell_formula_units_Z 16
_cell_length_a 9.656575
_cell_length_b 9.768750
_cell_length_c 11.483704
_cell_angle_alpha 87.566323
_cell_angle_beta 97.740127
_cell_angle_gamma 134.263886
_cell_volume 766.680145
_symmetry_space_group_name_H-M "P -1"
_symmetry_group_IT_number 2
_symmetry_cell_setting 'triclinic'
loop_
_space_group_symop_operation_xyz
x,y,z
-x,-y,-z
loop_
_atom_site_type_symbol
_atom_site_label
_atom_site_fract_x
_atom_site_fract_y
_atom_site_fract_z
Si Si1 0.857013 0.192503 0.703653
Si Si2 0.592674 0.152430 0.265447
Si Si3 0.151432 0.491391 0.253810
Si Si4 0.950264 0.314159 0.457750
Si Si5 0.452070 0.611580 0.861442
Si Si6 0.871604 0.011895 0.905450
Si Si7 0.776754 0.106376 0.106418
Si Si8 0.476967 0.315566 0.863843
O O1 0.887185 0.372158 0.738301
O O2 0.918306 0.210965 0.576528
O O3 0.957810 0.150246 0.800421
O O4 0.623173 0.008939 0.701431
O O5 0.749546 0.188665 0.365857
O O6 0.646728 0.347098 0.236813
O O7 0.617023 0.098095 0.143617
O O8 0.359518 0.611248 0.213933
O O9 0.118123 0.397211 0.379454
O O10 0.983897 0.308557 0.162050
O O11 0.000000 0.500000 0.500000
O O12 0.410370 0.425816 0.841868
O O13 0.683631 0.793666 0.858538
O O14 0.429988 0.630276 0.996267
O O15 0.794640 0.084954 0.974006
O O16 0.000000 0.000000 0.000000
O O17 0.706040 0.911913 0.156155
#
# Coordination Sequence:
#
# PCOD9088780 Si02
#       8
#     2   2   2   2   2   2   2   2
#     4  10  20  36  63  87 117 163 194 245 301 335
#     4  10  19  37  63  87 117 152 201 250 290 352
#     4  10  20  36  60  87 120 152 204 247 283 354
#     4   9  20  38  54  91 115 150 207 249 282 349
#     4   9  21  35  58  89 121 162 192 238 301 366
#     4  10  21  37  57  91 125 154 195 242 298 364
#     4  10  21  35  57  91 118 152 198 243 295 357
#     4  10  19  38  57  84 130 156 190 239 307 345
#
# _framework density 20.869198999999998
#
# number of rings (size 3 to 8) (size 9 to 14) (size 15 to 20)
#    0.000    2.250    1.250    1.125    1.750    2.000 
#   24.750    0.000    0.000   16.500    0.000    0.000 
#    0.000    0.000    0.000    0.000    0.000    0.000 
#
# Total GULP energy -89239.458180 kJ/mol
# GULP energy per Si atom -5577.466136 kJ/mol
# Density = 2.082170 g / cm^3
# Si number density = 20.869199 Si / 1000 Ang^3
#
#
#
# Elastic Constant Matrix: (Units=GPa)
#
#
# Indices 1 2 3 4 5 6 
#
# 1 55.6101 27.0855 44.1879 -17.3448 3.5055 4.7412
# 2 27.0855 100.0175 45.9365 -18.2915 -1.3107 -0.7582
# 3 44.1879 45.9365 90.2401 -37.6113 13.2273 -6.2065
# 4 -17.3448 -18.2915 -37.6113 42.0943 0.3229 -1.5049
# 5 3.5055 -1.3107 13.2273 0.3229 14.9969 -4.7000
# 6 4.7412 -0.7582 -6.2065 -1.5049 -4.7000 32.6690
#
#
#
# Elastic Compliance Matrix: (Units=1/GPa)
#
#
# Indices 1 2 3 4 5 6 
#
# 1 0.031921 -0.000988 -0.018118 -0.003776 0.006201 -0.007379
# 2 -0.000988 0.014147 -0.009190 -0.002545 0.009625 -0.000007
# 3 -0.018118 -0.009190 0.039696 0.024482 -0.029985 0.006772
# 4 -0.003776 -0.002545 0.024482 0.043276 -0.020556 0.004176
# 5 0.006201 0.009625 -0.029985 -0.020556 0.094949 0.006340
# 6 -0.007379 -0.000007 0.006772 0.004176 0.006340 0.034072
#
#
# Mechanical properties :
#
#
# Convention : Reuss Voigt Hill
#
# Bulk Modulus (GPa) = 34.27924 53.36528 43.82226
# Shear Modulus (GPa) = 15.41420 26.52922 20.97171
#
# Velocity S-wave (km/s) = 2.72069 3.56928 3.17347
# Velocity P-wave (km/s) = 5.13137 6.52787 5.87129
#
# Compressibility (1/GPa) = 0.02917218
#
# Stress axis : x y z
#
# Youngs Moduli (GPa) = 31.32768 70.68511 25.19149
#
# Poissons Ratio (x) = 0.06987 0.45641
# Poissons Ratio (y) = 0.03097 0.23150
# Poissons Ratio (z) = 0.56759 0.64957
#
# Static dielectric constant tensor:
#      x y z
#    x 1.777220 0.011260 0.009120 
#    y 0.011260 1.770980 -0.017380 
#    z 0.009120 -0.017380 1.789460 
# 
# From -- ./inp_files/314393.got.cif
#   From: 2010.05.17/outbox.cif.g08.bks.cpg/sg2_158_cif.got.tgz:314393.got - 2010.06.03 11:33:40.
