data_PCOD9088786
_publ_section_title
;
Structure prediction by ZEFSAII (Michael W. Deem and Ramdas Pophale) SiO2 
 PCOD9088786
Probable space group: P -1
;
_chemical_formula_sum "Si O2"
_cell_formula_units_Z 16
_cell_length_a 8.835690
_cell_length_b 10.875884
_cell_length_c 13.584701
_cell_angle_alpha 64.426562
_cell_angle_beta 136.699248
_cell_angle_gamma 90.993544
_cell_volume 708.571997
_symmetry_space_group_name_H-M "P -1"
_symmetry_group_IT_number 2
_symmetry_cell_setting 'triclinic'
loop_
_space_group_symop_operation_xyz
x,y,z
-x,-y,-z
loop_
_atom_site_type_symbol
_atom_site_label
_atom_site_fract_x
_atom_site_fract_y
_atom_site_fract_z
Si Si1 0.047040 0.753136 0.463458
Si Si2 0.313117 0.145679 0.999758
Si Si3 0.446810 0.027311 0.315820
Si Si4 0.498029 0.463018 0.677060
Si Si5 0.132257 0.013728 0.332912
Si Si6 0.139532 0.527884 0.302222
Si Si7 0.955964 0.742910 0.642402
Si Si8 0.508139 0.806484 0.130784
O O1 0.296193 0.605780 0.595367
O O2 0.014676 0.903480 0.337646
O O3 0.060065 0.771866 0.580086
O O4 0.797764 0.738512 0.328535
O O5 0.403347 0.121870 0.163147
O O6 0.351474 0.977957 0.042721
O O7 0.469365 0.183094 0.979456
O O8 0.035968 0.291544 0.818025
O O9 0.202712 0.035622 0.248618
O O10 0.650984 0.848405 0.453331
O O11 0.595552 0.073306 0.451203
O O12 0.343890 0.456838 0.510361
O O13 0.720268 0.487393 0.728799
O O14 0.588324 0.307747 0.836028
O O15 0.990139 0.176661 0.267092
O O16 0.984420 0.433364 0.258561
#
# Coordination Sequence:
#
# PCOD9088786 Si02
#       8
#     2   2   2   2   2   2   2   2
#     4  12  19  36  66  92 117 152 206 246 289 358
#     4  11  22  39  60  88 127 158 190 250 309 354
#     4   9  19  40  60  87 117 156 201 250 290 348
#     4  11  23  38  60  90 120 161 206 237 293 362
#     4   9  21  37  66  88 113 160 209 247 285 352
#     4  11  22  38  61  89 121 162 199 245 294 355
#     4  10  19  37  63  88 113 156 203 245 288 346
#     4  11  22  39  58  92 127 157 189 247 308 361
#
# _framework density 22.580627
#
# number of rings (size 3 to 8) (size 9 to 14) (size 15 to 20)
#    0.750    0.750    3.750    2.250    0.000    1.500 
#    4.500    0.625    0.000    2.250    0.000    0.000 
#    0.000    0.000    0.000    0.000    0.000    0.000 
#
# Total GULP energy -89396.082621 kJ/mol
# GULP energy per Si atom -5587.255164 kJ/mol
# Density = 2.252923 g / cm^3
# Si number density = 22.580627 Si / 1000 Ang^3
#
#
#
# Elastic Constant Matrix: (Units=GPa)
#
#
# Indices 1 2 3 4 5 6 
#
# 1 114.1024 26.6773 32.4289 -6.9020 -17.6738 -16.5082
# 2 26.6773 36.7261 9.4834 -18.8506 -1.1979 -8.0771
# 3 32.4289 9.4834 76.0194 -9.9241 -13.5541 -3.0360
# 4 -6.9020 -18.8506 -9.9241 25.2452 -5.8165 5.6767
# 5 -17.6738 -1.1979 -13.5541 -5.8165 40.8541 -1.7167
# 6 -16.5082 -8.0771 -3.0360 5.6767 -1.7167 24.8187
#
#
#
# Elastic Compliance Matrix: (Units=1/GPa)
#
#
# Indices 1 2 3 4 5 6 
#
# 1 0.013619 -0.010531 -0.004477 -0.006646 0.003439 0.006842
# 2 -0.010531 0.055253 0.003683 0.040209 0.004116 0.002515
# 3 -0.004477 0.003683 0.016687 0.009596 0.005007 -0.001587
# 4 -0.006646 0.040209 0.009596 0.075860 0.012007 -0.006682
# 5 0.003439 0.004116 0.005007 0.012007 0.029605 0.003541
# 6 0.006842 0.002515 -0.001587 -0.006682 0.003541 0.047241
#
#
# Mechanical properties :
#
#
# Convention : Reuss Voigt Hill
#
# Bulk Modulus (GPa) = 15.89605 40.44746 28.17175
# Shear Modulus (GPa) = 17.73771 28.73414 23.23593
#
# Velocity S-wave (km/s) = 2.80577 3.57110 3.21132
# Velocity P-wave (km/s) = 4.18944 5.91228 5.12379
#
# Compressibility (1/GPa) = 0.06290872
#
# Stress axis : x y z
#
# Youngs Moduli (GPa) = 73.42557 18.09856 59.92640
#
# Poissons Ratio (x) = 0.19060 0.26831
# Poissons Ratio (y) = 0.77326 -0.22072
# Poissons Ratio (z) = 0.32875 -0.06666
#
# Static dielectric constant tensor:
#      x y z
#    x 1.830100 0.015240 0.013440 
#    y 0.015240 1.840540 0.041990 
#    z 0.013440 0.041990 1.867560 
# 
# From -- ./inp_files/500079.got.cif
#   From: 2010.05.17/outbox.cif.g08.bks.cpg/sg2_251_cif.got.tgz:500079.got - 2010.06.03 11:33:40.
