data_PCOD9088493
_publ_section_title
;
Structure prediction by ZEFSAII (Michael W. Deem and Ramdas Pophale) SiO2 
 PCOD9088493
Probable space group: P -1
;
_chemical_formula_sum "Si O2"
_cell_formula_units_Z 16
_cell_length_a 9.301340
_cell_length_b 13.388475
_cell_length_c 9.562911
_cell_angle_alpha 58.227822
_cell_angle_beta 139.038247
_cell_angle_gamma 109.962242
_cell_volume 660.313203
_symmetry_space_group_name_H-M "P -1"
_symmetry_group_IT_number 2
_symmetry_cell_setting 'triclinic'
loop_
_space_group_symop_operation_xyz
x,y,z
-x,-y,-z
loop_
_atom_site_type_symbol
_atom_site_label
_atom_site_fract_x
_atom_site_fract_y
_atom_site_fract_z
Si Si1 0.737623 0.053390 0.015614
Si Si2 0.042953 0.382453 0.481186
Si Si3 0.368079 0.553529 0.728037
Si Si4 0.649374 0.235735 0.027739
Si Si5 0.151139 0.163073 0.534457
Si Si6 0.791966 0.489498 0.955788
Si Si7 0.785960 0.894922 0.685668
Si Si8 0.473668 0.113026 0.234912
O O1 0.792570 0.956605 0.249548
O O2 0.587745 0.158687 0.906368
O O3 0.646797 0.982821 0.872855
O O4 0.956702 0.109438 0.090741
O O5 0.221789 0.453392 0.635393
O O6 0.163093 0.274264 0.562892
O O7 0.834454 0.349343 0.447054
O O8 0.917050 0.468071 0.210795
O O9 0.500000 0.500000 0.000000
O O10 0.568147 0.577736 0.751613
O O11 0.687166 0.369113 0.925923
O O12 0.509541 0.215306 0.077623
O O13 0.889940 0.175938 0.295706
O O14 0.247208 0.160638 0.449613
O O15 0.000000 0.500000 0.000000
O O16 0.660392 0.843334 0.759789
O O17 0.692773 0.033417 0.504702
#
# Coordination Sequence:
#
# PCOD9088493 Si02
#       8
#     2   2   2   2   2   2   2   2
#     4  11  20  36  60  89 128 170 203 244 309 385
#     4   9  20  38  65  92 120 161 214 261 322 384
#     4   9  19  40  66  89 119 157 212 272 323 372
#     4  10  20  38  60  92 120 167 213 251 316 378
#     4  10  19  37  61  89 125 167 201 252 311 382
#     4  10  22  39  64  93 127 164 215 274 323 377
#     4  10  21  37  53  86 134 163 201 255 307 360
#     4  11  21  34  60  86 126 170 206 254 304 380
#
# _framework density 24.230926
#
# number of rings (size 3 to 8) (size 9 to 14) (size 15 to 20)
#    0.000    2.000    2.500    1.500    1.750    0.500 
#    0.000   15.000    8.250    0.000    0.000    0.000 
#    0.000    0.000    0.000    0.000    0.000    0.000 
#
# Total GULP energy -89356.818399 kJ/mol
# GULP energy per Si atom -5584.801150 kJ/mol
# Density = 2.417578 g / cm^3
# Si number density = 24.230926 Si / 1000 Ang^3
#
#
#
# Elastic Constant Matrix: (Units=GPa)
#
#
# Indices 1 2 3 4 5 6 
#
# 1 240.2009 44.3730 25.7423 -9.5980 3.4423 -22.2716
# 2 44.3730 96.7764 13.9470 17.4096 -3.0116 -21.6946
# 3 25.7423 13.9470 41.9818 7.5979 5.5354 -15.5141
# 4 -9.5980 17.4096 7.5979 22.2210 -10.6150 -4.6452
# 5 3.4423 -3.0116 5.5354 -10.6150 33.4421 -2.2284
# 6 -22.2716 -21.6946 -15.5141 -4.6452 -2.2284 30.0146
#
#
#
# Elastic Compliance Matrix: (Units=1/GPa)
#
#
# Indices 1 2 3 4 5 6 
#
# 1 0.005450 -0.002894 -0.003404 0.007083 0.002086 0.001444
# 2 -0.002894 0.015499 0.002398 -0.013758 -0.002539 0.007977
# 3 -0.003404 0.002398 0.034492 -0.016850 -0.009577 0.013717
# 4 0.007083 -0.013758 -0.016850 0.076709 0.025192 0.000344
# 5 0.002086 -0.002539 -0.009577 0.025192 0.039145 0.001568
# 6 0.001444 0.007977 0.013717 0.000344 0.001568 0.047414
#
#
# Mechanical properties :
#
#
# Convention : Reuss Voigt Hill
#
# Bulk Modulus (GPa) = 20.99046 60.78707 40.88877
# Shear Modulus (GPa) = 20.62817 36.79532 28.71175
#
# Velocity S-wave (km/s) = 2.92090 3.90106 3.44600
# Velocity P-wave (km/s) = 4.47850 6.74033 5.72228
#
# Compressibility (1/GPa) = 0.04764069
#
# Stress axis : x y z
#
# Youngs Moduli (GPa) = 183.50135 64.52232 28.99264
#
# Poissons Ratio (x) = 0.18672 0.09868
# Poissons Ratio (y) = 0.53102 -0.06952
# Poissons Ratio (z) = 0.62457 -0.15472
#
# Static dielectric constant tensor:
#      x y z
#    x 2.065930 -0.037000 0.086280 
#    y -0.037000 1.976340 0.025560 
#    z 0.086280 0.025560 1.970800 
# 
# From -- ./inp_files/206560.got.cif
#   From: 2010.05.17/outbox.cif.g08.bks.cpg/sg2_104_cif.got.tgz:206560.got - 2010.06.03 11:33:40.
