data_PCOD9088410
_publ_section_title
;
Structure prediction by ZEFSAII (Michael W. Deem and Ramdas Pophale) SiO2 
 PCOD9088410
Probable space group: P -1
;
_chemical_formula_sum "Si O2"
_cell_formula_units_Z 10
_cell_length_a 7.100885
_cell_length_b 9.609188
_cell_length_c 8.855144
_cell_angle_alpha 63.208567
_cell_angle_beta 65.731612
_cell_angle_gamma 49.073803
_cell_volume 401.469757
_symmetry_space_group_name_H-M "P -1"
_symmetry_group_IT_number 2
_symmetry_cell_setting 'triclinic'
loop_
_space_group_symop_operation_xyz
x,y,z
-x,-y,-z
loop_
_atom_site_type_symbol
_atom_site_label
_atom_site_fract_x
_atom_site_fract_y
_atom_site_fract_z
Si Si1 0.168754 0.295774 0.959278
Si Si2 0.203650 0.594286 0.197121
Si Si3 0.580224 0.833590 0.757825
Si Si4 0.442553 0.667332 0.323446
Si Si5 0.099794 0.123638 0.605057
O O1 0.334171 0.306857 0.769196
O O2 0.966242 0.275365 0.951328
O O3 0.357970 0.156428 0.094137
O O4 0.000000 0.500000 0.000000
O O5 0.313527 0.380523 0.222855
O O6 0.419860 0.612568 0.184140
O O7 0.021158 0.676623 0.363293
O O8 0.736230 0.891433 0.580807
O O9 0.290632 0.963054 0.738243
O O10 0.500000 0.500000 0.500000
O O11 0.160031 0.852074 0.361570
#
# Coordination Sequence:
#
# PCOD9088410 Si02
#       5
#     2   2   2   2   2
#     4  10  21  35  61  88 112 150 189 235 282 333
#     4   9  21  38  63  78 114 158 180 233 291 327
#     4  10  19  37  61  85 117 145 192 235 277 336
#     4  10  21  37  60  85 113 149 196 228 278 348
#     4   9  21  37  60  84 113 154 189 228 280 344
#
# _framework density 24.908477000000001
#
# number of rings (size 3 to 8) (size 9 to 14) (size 15 to 20)
#    1.200    1.200    0.000    3.000    2.800    4.800 
#    0.000    1.000    8.800    0.000    0.000    0.000 
#    0.000    0.000    0.000    0.000    0.000    0.000 
#
# Total GULP energy -55818.250624 kJ/mol
# GULP energy per Si atom -5581.825062 kJ/mol
# Density = 2.485178 g / cm^3
# Si number density = 24.908477 Si / 1000 Ang^3
#
#
#
# Elastic Constant Matrix: (Units=GPa)
#
#
# Indices 1 2 3 4 5 6 
#
# 1 114.5717 31.1367 30.1091 -7.1284 12.8057 -17.6845
# 2 31.1367 97.3805 28.4665 1.2033 -2.8222 -25.6940
# 3 30.1091 28.4665 86.1446 -3.2586 5.5205 -17.2200
# 4 -7.1284 1.2033 -3.2586 30.8064 -11.8086 7.7644
# 5 12.8057 -2.8222 5.5205 -11.8086 32.8195 5.6110
# 6 -17.6845 -25.6940 -17.2200 7.7644 5.6110 48.0183
#
#
#
# Elastic Compliance Matrix: (Units=1/GPa)
#
#
# Indices 1 2 3 4 5 6 
#
# 1 0.010820 -0.002279 -0.002247 0.000023 -0.004455 0.002476
# 2 -0.002279 0.013306 -0.002597 -0.002531 0.000586 0.005690
# 3 -0.002247 -0.002597 0.014030 -0.000710 -0.002513 0.003223
# 4 0.000023 -0.002531 -0.000710 0.041408 0.016540 -0.010229
# 5 -0.004455 0.000586 -0.002513 0.016540 0.040275 -0.009609
# 6 0.002476 0.005690 0.003223 -0.010229 -0.009609 0.028715
#
#
# Mechanical properties :
#
#
# Convention : Reuss Voigt Hill
#
# Bulk Modulus (GPa) = 41.82105 53.05792 47.43949
# Shear Modulus (GPa) = 29.27931 36.22113 32.75022
#
# Velocity S-wave (km/s) = 3.43224 3.81749 3.62998
# Velocity P-wave (km/s) = 5.70380 6.38580 6.05441
#
# Compressibility (1/GPa) = 0.02391140
#
# Stress axis : x y z
#
# Youngs Moduli (GPa) = 92.42535 75.15258 71.27428
#
# Poissons Ratio (x) = 0.17124 0.16018
# Poissons Ratio (y) = 0.21059 0.18506
# Poissons Ratio (z) = 0.20771 0.19513
#
# Static dielectric constant tensor:
#      x y z
#    x 2.060560 -0.008180 0.022810 
#    y -0.008180 1.981440 -0.018540 
#    z 0.022810 -0.018540 1.959830 
# 
# From -- ./inp_files/148227.got.cif
#   From: 2010.05.17/outbox.cif.g08.bks.cpg/sg2_75_cif.got.tgz:148227.got - 2010.06.03 11:33:40.
