data_PCOD9088869
_publ_section_title
;
Structure prediction by ZEFSAII (Michael W. Deem and Ramdas Pophale) SiO2 
 PCOD9088869
Probable space group: P -1
;
_chemical_formula_sum "Si O2"
_cell_formula_units_Z 16
_cell_length_a 15.539777
_cell_length_b 13.924727
_cell_length_c 14.227276
_cell_angle_alpha 150.805155
_cell_angle_beta 29.210918
_cell_angle_gamma 138.807347
_cell_volume 732.282474
_symmetry_space_group_name_H-M "P -1"
_symmetry_group_IT_number 2
_symmetry_cell_setting 'triclinic'
loop_
_space_group_symop_operation_xyz
x,y,z
-x,-y,-z
loop_
_atom_site_type_symbol
_atom_site_label
_atom_site_fract_x
_atom_site_fract_y
_atom_site_fract_z
Si Si1 0.305110 0.014296 0.616085
Si Si2 0.247380 0.439978 0.414729
Si Si3 0.961689 0.218688 0.033346
Si Si4 0.539370 0.339428 0.744010
Si Si5 0.498250 0.152350 0.218370
Si Si6 0.831966 0.761224 0.491485
Si Si7 0.129704 0.779555 0.093054
Si Si8 0.630910 0.962331 0.121547
O O1 0.374448 0.200549 0.766981
O O2 0.300634 0.814640 0.510287
O O3 0.467888 0.960006 0.344934
O O4 0.128495 0.086668 0.794370
O O5 0.069077 0.577171 0.705769
O O6 0.406622 0.557500 0.317031
O O7 0.254530 0.364632 0.451375
O O8 0.260908 0.242556 0.172236
O O9 0.780090 0.110639 0.132501
O O10 0.956202 0.248970 0.951481
O O11 0.500000 0.500000 0.000000
O O12 0.301369 0.237946 0.468787
O O13 0.541170 0.036360 0.173354
O O14 0.664650 0.289019 0.163374
O O15 0.500000 0.000000 0.000000
O O16 0.019599 0.695698 0.212236
O O17 0.862300 0.981828 0.692329
#
# Coordination Sequence:
#
# PCOD9088869 Si02
#       8
#     2   2   2   2   2   2   2   2
#     4  11  25  47  72  93 133 176 213 274 341 402
#     4  12  23  42  68  99 137 167 221 283 319 388
#     4  11  24  43  67 103 133 174 218 268 337 390
#     4  11  25  47  72 100 127 168 223 277 336 400
#     4   9  16  33  61  91 123 182 213 246 325 373
#     4  10  19  37  63  92 133 176 221 264 317 383
#     4   9  19  37  60  92 134 174 214 263 318 386
#     4  11  21  44  69  95 140 173 218 280 319 390
#
# _framework density 21.849491
#
# number of rings (size 3 to 8) (size 9 to 14) (size 15 to 20)
#    0.000    1.500    6.250    0.750    0.000    2.000 
#    2.250    3.750    0.000    0.000    0.000    0.000 
#    0.000    0.000    0.000    0.000    0.000    0.000 
#
# Total GULP energy -89210.366134 kJ/mol
# GULP energy per Si atom -5575.647883 kJ/mol
# Density = 2.179976 g / cm^3
# Si number density = 21.849491 Si / 1000 Ang^3
#
#
#
# Elastic Constant Matrix: (Units=GPa)
#
#
# Indices 1 2 3 4 5 6 
#
# 1 98.3789 42.3262 39.4739 -5.0287 0.6307 1.7482
# 2 42.3262 78.2058 36.0672 2.6323 5.0845 -24.0177
# 3 39.4739 36.0672 95.2526 10.2540 15.6826 -0.3241
# 4 -5.0287 2.6323 10.2540 36.4847 2.9551 10.6401
# 5 0.6307 5.0845 15.6826 2.9551 28.2624 -2.2607
# 6 1.7482 -24.0177 -0.3241 10.6401 -2.2607 22.8209
#
#
#
# Elastic Compliance Matrix: (Units=1/GPa)
#
#
# Indices 1 2 3 4 5 6 
#
# 1 0.020418 -0.018260 -0.003194 0.012705 0.001142 -0.026638
# 2 -0.018260 0.044359 -0.007334 -0.020848 0.003318 0.058029
# 3 -0.003194 -0.007334 0.016059 -0.001667 -0.007926 -0.007254
# 4 0.012705 -0.020848 -0.001667 0.044251 -0.003750 -0.043941
# 5 0.001142 0.003318 -0.007926 -0.003750 0.040273 0.009030
# 6 -0.026638 0.058029 -0.007254 -0.043941 0.009030 0.128211
#
#
# Mechanical properties :
#
#
# Convention : Reuss Voigt Hill
#
# Bulk Modulus (GPa) = 42.99218 56.39687 49.69452
# Shear Modulus (GPa) = 13.93151 27.77828 20.85489
#
# Velocity S-wave (km/s) = 2.52784 3.56946 3.09282
# Velocity P-wave (km/s) = 5.31406 6.54642 5.96217
#
# Compressibility (1/GPa) = 0.02326004
#
# Stress axis : x y z
#
# Youngs Moduli (GPa) = 48.97656 22.54338 62.27224
#
# Poissons Ratio (x) = 0.41165 0.19888
# Poissons Ratio (y) = 0.89433 0.45669
# Poissons Ratio (z) = 0.15641 0.16533
#
# Static dielectric constant tensor:
#      x y z
#    x 1.797340 -0.046300 -0.000630 
#    y -0.046300 1.870830 0.059330 
#    z -0.000630 0.059330 1.865680 
# 
# From -- ./inp_files/533888.got.cif
#   From: 2010.05.17/outbox.cif.g08.bks.cpg/sg2_267_cif.got.tgz:533888.got - 2010.06.03 11:33:40.
