data_PCOD9088476
_publ_section_title
;
Structure prediction by ZEFSAII (Michael W. Deem and Ramdas Pophale) SiO2 
 PCOD9088476
Probable space group: P -1
;
_chemical_formula_sum "Si O2"
_cell_formula_units_Z 16
_cell_length_a 8.754274
_cell_length_b 7.109145
_cell_length_c 16.497065
_cell_angle_alpha 116.390688
_cell_angle_beta 64.753819
_cell_angle_gamma 128.972868
_cell_volume 698.919294
_symmetry_space_group_name_H-M "P -1"
_symmetry_group_IT_number 2
_symmetry_cell_setting 'triclinic'
loop_
_space_group_symop_operation_xyz
x,y,z
-x,-y,-z
loop_
_atom_site_type_symbol
_atom_site_label
_atom_site_fract_x
_atom_site_fract_y
_atom_site_fract_z
Si Si1 0.186687 0.169713 0.235108
Si Si2 0.200771 0.766102 0.520309
Si Si3 0.467034 0.078657 0.657920
Si Si4 0.154171 0.625288 0.284293
Si Si5 0.736333 0.099579 0.971131
Si Si6 0.625554 0.519030 0.252637
Si Si7 0.031882 0.559582 0.887198
Si Si8 0.108212 0.180786 0.625332
O O1 0.149432 0.392785 0.281359
O O2 0.405026 0.285436 0.246322
O O3 0.026573 0.958262 0.290534
O O4 0.206819 0.070320 0.124939
O O5 0.373002 0.792097 0.427500
O O6 0.000000 0.500000 0.500000
O O7 0.161012 0.983953 0.546306
O O8 0.292581 0.830546 0.603911
O O9 0.616260 0.133863 0.710046
O O10 0.372977 0.239984 0.731518
O O11 0.066018 0.511001 0.193366
O O12 0.018166 0.721707 0.369499
O O13 0.852358 0.363879 0.948034
O O14 0.844710 0.165748 0.047363
O O15 0.500000 0.000000 0.000000
O O16 0.789342 0.491050 0.165603
O O17 0.687461 0.575515 0.343254
#
# Coordination Sequence:
#
# PCOD9088476 Si02
#       8
#     2   2   2   2   2   2   2   2
#     4  11  20  37  63  84 119 163 201 237 300 352
#     4  10  19  37  61  89 115 160 196 238 297 355
#     4   9  20  35  58  87 122 149 197 245 289 344
#     4  10  21  39  60  91 118 157 202 243 292 356
#     4  11  21  37  63  87 117 159 197 245 299 349
#     4   9  17  35  58  84 113 160 191 236 288 353
#     4  10  21  38  60  86 123 154 197 245 299 344
#     4  10  21  39  60  85 126 156 196 247 295 347
#
# _framework density 22.892486000000002
#
# number of rings (size 3 to 8) (size 9 to 14) (size 15 to 20)
#    0.000    2.000    3.750    1.500    0.000    1.000 
#    0.000   16.250    0.000    0.000    0.000    0.000 
#    0.000    0.000    0.000    0.000    0.000    0.000 
#
# Total GULP energy -89169.652072 kJ/mol
# GULP energy per Si atom -5573.103255 kJ/mol
# Density = 2.284038 g / cm^3
# Si number density = 22.892486 Si / 1000 Ang^3
#
#
#
# Elastic Constant Matrix: (Units=GPa)
#
#
# Indices 1 2 3 4 5 6 
#
# 1 140.3023 45.1425 49.2169 15.8899 8.7766 27.0667
# 2 45.1425 78.9199 29.0031 15.4284 5.2912 26.3714
# 3 49.2169 29.0031 128.1820 30.2924 13.8442 14.3217
# 4 15.8899 15.4284 30.2924 38.2765 14.4850 4.3040
# 5 8.7766 5.2912 13.8442 14.4850 42.5995 14.5872
# 6 27.0667 26.3714 14.3217 4.3040 14.5872 48.3940
#
#
#
# Elastic Compliance Matrix: (Units=1/GPa)
#
#
# Indices 1 2 3 4 5 6 
#
# 1 0.009760 -0.003666 -0.002558 -0.000371 0.000353 -0.002778
# 2 -0.003666 0.018834 -0.000937 -0.005727 0.003580 -0.008505
# 3 -0.002558 -0.000937 0.010709 -0.006852 -0.000329 -0.000519
# 4 -0.000371 -0.005727 -0.006852 0.037833 -0.011744 0.005531
# 5 0.000353 0.003580 -0.000329 -0.011744 0.030556 -0.010217
# 6 -0.002778 -0.008505 -0.000519 0.005531 -0.010217 0.029593
#
#
# Mechanical properties :
#
#
# Convention : Reuss Voigt Hill
#
# Bulk Modulus (GPa) = 40.03092 66.01438 53.02265
# Shear Modulus (GPa) = 31.26306 40.79012 36.02659
#
# Velocity S-wave (km/s) = 3.69948 4.22573 3.97133
# Velocity P-wave (km/s) = 5.98102 7.26005 6.65135
#
# Compressibility (1/GPa) = 0.02498069
#
# Stress axis : x y z
#
# Youngs Moduli (GPa) = 102.45824 53.09599 93.38316
#
# Poissons Ratio (x) = 0.19463 0.23890
# Poissons Ratio (y) = 0.37558 0.08750
# Poissons Ratio (z) = 0.26211 0.04975
#
# Static dielectric constant tensor:
#      x y z
#    x 1.926240 0.006440 0.065460 
#    y 0.006440 1.896440 0.029400 
#    z 0.065460 0.029400 1.894940 
# 
# From -- ./inp_files/587530.got.cif
#   From: 2010.05.17/outbox.cif.g08.bks.cpg/sg2_294_cif.got.tgz:587530.got - 2010.06.03 11:33:40.
