data_PCOD9088468
_publ_section_title
;
Structure prediction by ZEFSAII (Michael W. Deem and Ramdas Pophale) SiO2 
 PCOD9088468
Probable space group: P -1
;
_chemical_formula_sum "Si O2"
_cell_formula_units_Z 16
_cell_length_a 13.173560
_cell_length_b 14.851477
_cell_length_c 8.440915
_cell_angle_alpha 110.663861
_cell_angle_beta 43.409999
_cell_angle_gamma 133.186920
_cell_volume 792.427934
_symmetry_space_group_name_H-M "P -1"
_symmetry_group_IT_number 2
_symmetry_cell_setting 'triclinic'
loop_
_space_group_symop_operation_xyz
x,y,z
-x,-y,-z
loop_
_atom_site_type_symbol
_atom_site_label
_atom_site_fract_x
_atom_site_fract_y
_atom_site_fract_z
Si Si1 0.588894 0.940995 0.930924
Si Si2 0.165662 0.237483 0.263273
Si Si3 0.835707 0.570375 0.768173
Si Si4 0.985432 0.858263 0.277695
Si Si5 0.182153 0.025750 0.605616
Si Si6 0.717417 0.303636 0.650201
Si Si7 0.676753 0.620477 0.273529
Si Si8 0.591981 0.773413 0.269378
O O1 0.658638 0.913560 0.678154
O O2 0.430392 0.816001 0.138671
O O3 0.785205 0.050477 0.879161
O O4 0.500000 0.000000 0.000000
O O5 0.210962 0.370097 0.277422
O O6 0.129984 0.190490 0.453684
O O7 0.318468 0.236030 0.996879
O O8 0.958320 0.127856 0.338036
O O9 0.750885 0.428084 0.744849
O O10 0.071189 0.656779 0.569189
O O11 0.740784 0.576895 0.034578
O O12 0.953687 0.943943 0.274812
O O13 0.872500 0.730165 0.221865
O O14 0.274526 0.089074 0.709305
O O15 0.613304 0.268685 0.575578
O O16 0.500000 0.500000 0.500000
O O17 0.596379 0.685899 0.331270
#
# Coordination Sequence:
#
# PCOD9088468 Si02
#       8
#     2   2   2   2   2   2   2   2
#     4  11  23  40  64  90 120 162 202 247 303 363
#     4  10  19  37  61  88 123 154 201 248 298 363
#     4  10  25  41  59  87 124 164 202 247 306 364
#     4  10  21  38  64  92 120 159 202 252 304 350
#     4  10  20  37  59  92 122 154 200 253 301 350
#     4  11  23  42  61  87 124 164 203 244 304 370
#     4  10  24  41  63  91 125 158 206 254 300 357
#     4  10  22  35  61  92 117 159 203 248 305 349
#
# _framework density 20.191109000000001
#
# number of rings (size 3 to 8) (size 9 to 14) (size 15 to 20)
#    0.000    1.750    0.000    4.875    7.000    4.000 
#    0.000    2.500    0.000    0.000    0.000    0.000 
#    0.000    0.000    0.000    0.000    0.000    0.000 
#
# Total GULP energy -89384.982406 kJ/mol
# GULP energy per Si atom -5586.561400 kJ/mol
# Density = 2.014515 g / cm^3
# Si number density = 20.191109 Si / 1000 Ang^3
#
#
#
# Elastic Constant Matrix: (Units=GPa)
#
#
# Indices 1 2 3 4 5 6 
#
# 1 84.9090 39.2822 23.9712 -8.5591 -15.9388 14.6702
# 2 39.2822 81.1668 20.9573 -8.1736 -3.1780 -13.8195
# 3 23.9712 20.9573 70.4735 -21.5169 -2.0456 0.3322
# 4 -8.5591 -8.1736 -21.5169 30.6869 -3.6525 3.6243
# 5 -15.9388 -3.1780 -2.0456 -3.6525 23.6789 -4.2819
# 6 14.6702 -13.8195 0.3322 3.6243 -4.2819 21.9266
#
#
#
# Elastic Compliance Matrix: (Units=1/GPa)
#
#
# Indices 1 2 3 4 5 6 
#
# 1 0.027669 -0.016405 -0.002017 0.006648 0.012298 -0.027518
# 2 -0.016405 0.025141 -0.003285 -0.003785 -0.003694 0.026775
# 3 -0.002017 -0.003285 0.019879 0.013011 0.001402 -0.002899
# 4 0.006648 -0.003785 0.013011 0.045208 0.009787 -0.012591
# 5 0.012298 -0.003694 0.001402 0.009787 0.051249 -0.002187
# 6 -0.027518 0.026775 -0.002899 -0.012591 -0.002187 0.082591
#
#
# Mechanical properties :
#
#
# Convention : Reuss Voigt Hill
#
# Bulk Modulus (GPa) = 34.15774 44.99675 39.57724
# Shear Modulus (GPa) = 16.39826 25.41440 20.90633
#
# Velocity S-wave (km/s) = 2.85292 3.55165 3.22129
# Velocity P-wave (km/s) = 5.27315 6.25722 5.78615
#
# Compressibility (1/GPa) = 0.02927594
#
# Stress axis : x y z
#
# Youngs Moduli (GPa) = 36.14120 39.77584 50.30320
#
# Poissons Ratio (x) = 0.65251 0.10145
# Poissons Ratio (y) = 0.59288 0.16527
# Poissons Ratio (z) = 0.07289 0.13068
#
# Static dielectric constant tensor:
#      x y z
#    x 1.697720 0.018120 -0.004100 
#    y 0.018120 1.746240 -0.018490 
#    z -0.004100 -0.018490 1.718910 
# 
# From -- ./inp_files/187661.got.cif
#   From: 2010.05.17/outbox.cif.g08.bks.cpg/sg2_94_cif.got.tgz:187661.got - 2010.06.03 11:33:40.
