data_PCOD9088549
_publ_section_title
;
Structure prediction by ZEFSAII (Michael W. Deem and Ramdas Pophale) SiO2 
 PCOD9088549
Probable space group: P -1
;
_chemical_formula_sum "Si O2"
_cell_formula_units_Z 15
_cell_length_a 18.470452
_cell_length_b 14.118905
_cell_length_c 9.404204
_cell_angle_alpha 35.946121
_cell_angle_beta 143.013486
_cell_angle_gamma 156.588692
_cell_volume 555.370724
_symmetry_space_group_name_H-M "P -1"
_symmetry_group_IT_number 2
_symmetry_cell_setting 'triclinic'
loop_
_space_group_symop_operation_xyz
x,y,z
-x,-y,-z
loop_
_atom_site_type_symbol
_atom_site_label
_atom_site_fract_x
_atom_site_fract_y
_atom_site_fract_z
Si Si1 0.873981 0.213187 0.884249
Si Si2 0.353449 0.239249 0.497402
Si Si3 0.000000 0.000000 0.000000
Si Si4 0.357887 0.641860 0.400384
Si Si5 0.294049 0.265957 0.890348
Si Si6 0.816250 0.611451 0.033723
Si Si7 0.838873 0.279179 0.174984
Si Si8 0.665366 0.144232 0.378642
O O1 0.796169 0.232498 0.605711
O O2 0.064938 0.321484 0.996724
O O3 0.951137 0.427206 0.854716
O O4 0.732682 0.914981 0.037888
O O5 0.500000 0.500000 0.500000
O O6 0.490432 0.300012 0.525292
O O7 0.224205 0.960938 0.692411
O O8 0.212374 0.223702 0.221345
O O9 0.154456 0.095738 0.007645
O O10 0.085977 0.279315 0.793232
O O11 0.232667 0.367950 0.592626
O O12 0.474290 0.851048 0.451372
O O13 0.282496 0.707069 0.107064
O O14 0.500000 0.500000 0.000000
O O15 0.642270 0.313350 0.128267
O O16 0.768085 0.203266 0.320803
#
# Coordination Sequence:
#
# PCOD9088549 Si02
#       8
#     2   2   1   2   2   2   2   2
#     4  10  21  38  63  94 130 181 227 278 338 422
#     4  11  21  36  62  97 138 178 226 283 344 412
#     4  10  24  38  64 102 132 172 226 292 344 408
#     4  11  22  39  66  91 135 183 230 278 345 423
#     4  11  22  43  69 100 136 181 235 285 355 416
#     4  10  20  32  59  92 128 164 221 276 333 393
#     4  10  21  36  61  96 132 181 230 276 345 418
#     4  10  19  37  61  96 132 176 230 272 340 422
#
# _framework density 27.008986
#
# number of rings (size 3 to 8) (size 9 to 14) (size 15 to 20)
#    0.000    1.600    1.333    6.400    7.467    0.533 
#    0.000    0.667    2.933    4.000    0.000    0.000 
#    0.000    0.000    0.000    0.000    0.000    0.000 
#
# Total GULP energy -83622.287173 kJ/mol
# GULP energy per Si atom -5574.819145 kJ/mol
# Density = 2.694751 g / cm^3
# Si number density = 27.008986 Si / 1000 Ang^3
#
#
#
# Elastic Constant Matrix: (Units=GPa)
#
#
# Indices 1 2 3 4 5 6 
#
# 1 70.8578 37.9699 12.9567 0.6182 14.4317 -5.7774
# 2 37.9699 173.5947 49.1623 -40.9825 14.2468 -46.4648
# 3 12.9567 49.1623 168.2955 -23.4232 20.3224 -15.5417
# 4 0.6182 -40.9825 -23.4232 54.9143 -8.2424 21.0370
# 5 14.4317 14.2468 20.3224 -8.2424 20.6577 -2.5133
# 6 -5.7774 -46.4648 -15.5417 21.0370 -2.5133 54.7806
#
#
#
# Elastic Compliance Matrix: (Units=1/GPa)
#
#
# Indices 1 2 3 4 5 6 
#
# 1 0.019125 -0.004625 0.000692 -0.005200 -0.012965 -0.000308
# 2 -0.004625 0.009723 -0.001370 0.004636 0.000406 0.005608
# 3 0.000692 -0.001370 0.007202 0.001004 -0.006189 0.000285
# 4 -0.005200 0.004636 0.001004 0.025731 0.009009 -0.005799
# 5 -0.012965 0.000406 -0.006189 0.009009 0.066480 -0.003188
# 6 -0.000308 0.005608 0.000285 -0.005799 -0.003188 0.025141
#
#
# Mechanical properties :
#
#
# Convention : Reuss Voigt Hill
#
# Bulk Modulus (GPa) = 39.30189 68.10287 53.70238
# Shear Modulus (GPa) = 28.98730 46.91446 37.95088
#
# Velocity S-wave (km/s) = 3.27960 4.17225 3.75256
# Velocity P-wave (km/s) = 5.37811 6.96275 6.22109
#
# Compressibility (1/GPa) = 0.02544407
#
# Stress axis : x y z
#
# Youngs Moduli (GPa) = 52.28626 102.85415 138.84721
#
# Poissons Ratio (x) = 0.47572 -0.09609
# Poissons Ratio (y) = 0.24184 0.19020
# Poissons Ratio (z) = -0.03619 0.14090
#
# Static dielectric constant tensor:
#      x y z
#    x 2.089580 0.105050 0.141370 
#    y 0.105050 2.138680 -0.185930 
#    z 0.141370 -0.185930 1.965340 
# 
# From -- ./inp_files/475289.got.cif
#   From: 2010.05.17/outbox.cif.g08.bks.cpg/sg2_238_cif.got.tgz:475289.got - 2010.06.03 11:33:40.
