data_PCOD9088338
_publ_section_title
;
Structure prediction by ZEFSAII (Michael W. Deem and Ramdas Pophale) SiO2 
 PCOD9088338
Probable space group: P -1
;
_chemical_formula_sum "Si O2"
_cell_formula_units_Z 16
_cell_length_a 15.772280
_cell_length_b 8.949791
_cell_length_c 11.860824
_cell_angle_alpha 106.682176
_cell_angle_beta 55.559936
_cell_angle_gamma 140.412245
_cell_volume 843.930546
_symmetry_space_group_name_H-M "P -1"
_symmetry_group_IT_number 2
_symmetry_cell_setting 'triclinic'
loop_
_space_group_symop_operation_xyz
x,y,z
-x,-y,-z
loop_
_atom_site_type_symbol
_atom_site_label
_atom_site_fract_x
_atom_site_fract_y
_atom_site_fract_z
Si Si1 0.764026 0.886996 0.164259
Si Si2 0.070651 0.620976 0.807777
Si Si3 0.467217 0.024562 0.357559
Si Si4 0.876053 0.251629 0.469940
Si Si5 0.808568 0.443227 0.116568
Si Si6 0.442212 0.664312 0.423116
Si Si7 0.001232 0.033837 0.859174
Si Si8 0.098452 0.084930 0.558390
O O1 0.579556 0.694575 0.296763
O O2 0.889195 0.985199 0.190777
O O3 0.817477 0.126088 0.153289
O O4 0.825207 0.852724 0.007031
O O5 0.090974 0.671460 0.671325
O O6 0.141827 0.547449 0.790544
O O7 0.895551 0.443992 0.954709
O O8 0.618633 0.213618 0.202288
O O9 0.509800 0.194663 0.464902
O O10 0.302049 0.893231 0.403611
O O11 0.445425 0.820092 0.372057
O O12 0.000000 0.500000 0.500000
O O13 0.885169 0.081045 0.462841
O O14 0.888056 0.704806 0.109405
O O15 0.270935 0.375944 0.490897
O O16 0.999136 0.037272 0.728473
O O17 0.000000 0.000000 0.500000
#
# Coordination Sequence:
#
# PCOD9088338 Si02
#       8
#     2   2   2   2   2   2   2   2
#     4  10  19  37  60  92 119 151 197 254 299 341
#     4  10  19  38  59  90 122 156 197 244 296 348
#     4  11  20  37  61  93 121 154 199 248 298 345
#     4  12  26  42  61  85 124 163 199 245 300 362
#     4  10  20  33  64  94 119 151 198 249 294 348
#     4  11  21  37  62  91 123 153 201 251 292 352
#     4  10  21  35  61  89 122 155 197 246 299 350
#     4  12  26  42  59  87 123 164 200 242 301 362
#
# _framework density 18.958905000000001
#
# number of rings (size 3 to 8) (size 9 to 14) (size 15 to 20)
#    0.000    1.250    5.000    1.500    3.500    1.000 
#    0.000    1.250    0.000    0.000    0.000    0.000 
#    0.000    0.000    0.000    0.000    0.000    0.000 
#
# Total GULP energy -89102.116032 kJ/mol
# GULP energy per Si atom -5568.882252 kJ/mol
# Density = 1.891575 g / cm^3
# Si number density = 18.958905 Si / 1000 Ang^3
#
#
#
# Elastic Constant Matrix: (Units=GPa)
#
#
# Indices 1 2 3 4 5 6 
#
# 1 86.6859 30.8683 52.6289 -4.2432 -11.0838 2.2188
# 2 30.8683 87.8840 26.6011 -9.3458 -9.5776 2.4808
# 3 52.6289 26.6011 128.6330 -7.6361 -12.9347 23.0095
# 4 -4.2432 -9.3458 -7.6361 20.5530 1.6207 -2.3705
# 5 -11.0838 -9.5776 -12.9347 1.6207 30.3478 -4.7571
# 6 2.2188 2.4808 23.0095 -2.3705 -4.7571 29.5224
#
#
#
# Elastic Compliance Matrix: (Units=1/GPa)
#
#
# Indices 1 2 3 4 5 6 
#
# 1 0.017321 -0.003860 -0.006879 -0.000411 0.002955 0.004827
# 2 -0.003860 0.013766 -0.000830 0.005031 0.002402 0.000571
# 3 -0.006879 -0.000830 0.012565 0.001759 0.001094 -0.008888
# 4 -0.000411 0.005031 0.001759 0.051800 -0.000209 0.002363
# 5 0.002955 0.002402 0.001094 -0.000209 0.035972 0.004503
# 6 0.004827 0.000571 -0.008888 0.002363 0.004503 0.041305
#
#
# Mechanical properties :
#
#
# Convention : Reuss Voigt Hill
#
# Bulk Modulus (GPa) = 48.74584 58.15551 53.45067
# Shear Modulus (GPa) = 24.66660 28.95828 26.81244
#
# Velocity S-wave (km/s) = 3.61093 3.91247 3.76472
# Velocity P-wave (km/s) = 6.56903 7.15199 6.86670
#
# Compressibility (1/GPa) = 0.02051457
#
# Stress axis : x y z
#
# Youngs Moduli (GPa) = 57.73362 72.64244 79.58880
#
# Poissons Ratio (x) = 0.28037 0.54752
# Poissons Ratio (y) = 0.22282 0.06603
# Poissons Ratio (z) = 0.39717 0.06027
#
# Static dielectric constant tensor:
#      x y z
#    x 1.693390 -0.042740 -0.017390 
#    y -0.042740 1.650450 -0.017790 
#    z -0.017390 -0.017790 1.727830 
# 
# From -- ./inp_files/416710.got.cif
#   From: 2010.05.17/outbox.cif.g08.bks.cpg/sg2_209_cif.got.tgz:416710.got - 2010.06.03 11:33:40.
