data_PCOD9088239
_publ_section_title
;
Structure prediction by ZEFSAII (Michael W. Deem and Ramdas Pophale) SiO2 
 PCOD9088239
Probable space group: P -1
;
_chemical_formula_sum "Si O2"
_cell_formula_units_Z 14
_cell_length_a 8.823215
_cell_length_b 9.332880
_cell_length_c 21.848117
_cell_angle_alpha 120.682021
_cell_angle_beta 28.861929
_cell_angle_gamma 108.974563
_cell_volume 714.021975
_symmetry_space_group_name_H-M "P -1"
_symmetry_group_IT_number 2
_symmetry_cell_setting 'triclinic'
loop_
_space_group_symop_operation_xyz
x,y,z
-x,-y,-z
loop_
_atom_site_type_symbol
_atom_site_label
_atom_site_fract_x
_atom_site_fract_y
_atom_site_fract_z
Si Si1 0.933291 0.183088 0.529827
Si Si2 0.642663 0.637619 0.643094
Si Si3 0.802531 0.436004 0.967132
Si Si4 0.832853 0.281513 0.791915
Si Si5 0.430143 0.540062 0.816875
Si Si6 0.563536 0.583665 0.432329
Si Si7 0.218063 0.912350 0.565141
O O1 0.732114 0.359283 0.674440
O O2 0.728451 0.173092 0.539062
O O3 0.271160 0.209769 0.390997
O O4 0.000000 0.000000 0.500000
O O5 0.496224 0.666768 0.768979
O O6 0.440868 0.548155 0.650329
O O7 0.000000 0.500000 0.500000
O O8 0.524429 0.606741 0.078904
O O9 0.653467 0.378367 0.068903
O O10 0.870936 0.309286 0.857145
O O11 0.124721 0.481417 0.885938
O O12 0.107385 0.355241 0.677053
O O13 0.898910 0.077109 0.711914
O O14 0.500000 0.500000 0.500000
O O15 0.260252 0.756585 0.563824
O O16 0.500000 0.000000 0.500000
#
# Coordination Sequence:
#
# PCOD9088239 Si02
#       7
#     2   2   2   2   2   2   2
#     4  11  22  35  62  92 115 145 188 249 309 338
#     4  10  20  37  57  87 116 146 191 244 296 342
#     4  10  20  35  60  83 113 165 199 227 271 357
#     4  10  21  37  58  86 118 153 200 229 286 346
#     4  10  19  37  60  84 115 152 199 232 286 340
#     4  11  22  36  60  90 118 152 188 247 304 339
#     4  10  20  36  55  84 122 141 186 247 287 340
#
# _framework density 19.607239
#
# number of rings (size 3 to 8) (size 9 to 14) (size 15 to 20)
#    0.000    1.714    4.286    1.714    8.000    0.000 
#    0.000    0.000    0.000   18.857    0.000    0.000 
#    0.000    0.000    0.000    0.000    0.000    0.000 
#
# Total GULP energy -78058.531497 kJ/mol
# GULP energy per Si atom -5575.609393 kJ/mol
# Density = 1.956261 g / cm^3
# Si number density = 19.607239 Si / 1000 Ang^3
#
#
#
# Elastic Constant Matrix: (Units=GPa)
#
#
# Indices 1 2 3 4 5 6 
#
# 1 73.5894 20.6707 16.1480 -6.6815 17.9965 -15.2996
# 2 20.6707 115.6352 26.3924 -12.7825 9.9035 -30.3533
# 3 16.1480 26.3924 71.4522 -11.8503 17.5807 -14.3075
# 4 -6.6815 -12.7825 -11.8503 23.6231 -9.1151 7.8991
# 5 17.9965 9.9035 17.5807 -9.1151 35.4361 -5.8192
# 6 -15.2996 -30.3533 -14.3075 7.8991 -5.8192 33.8964
#
#
#
# Elastic Compliance Matrix: (Units=1/GPa)
#
#
# Indices 1 2 3 4 5 6 
#
# 1 0.016827 -0.000875 -0.000729 -0.000680 -0.007224 0.005422
# 2 -0.000875 0.011827 -0.002081 0.002231 0.000195 0.008832
# 3 -0.000729 -0.002081 0.017814 0.004072 -0.006297 0.003297
# 4 -0.000680 0.002231 0.004072 0.051483 0.009811 -0.006904
# 5 -0.007224 0.000195 -0.006297 0.009811 0.037212 -0.001642
# 6 0.005422 0.008832 0.003297 -0.006904 -0.001642 0.042576
#
#
# Mechanical properties :
#
#
# Convention : Reuss Voigt Hill
#
# Bulk Modulus (GPa) = 25.57653 43.01100 34.29376
# Shear Modulus (GPa) = 25.23459 31.75550 28.49505
#
# Velocity S-wave (km/s) = 3.59138 4.02877 3.81634
# Velocity P-wave (km/s) = 5.50182 6.60494 6.07846
#
# Compressibility (1/GPa) = 0.03909834
#
# Stress axis : x y z
#
# Youngs Moduli (GPa) = 59.42882 84.55077 56.13713
#
# Poissons Ratio (x) = 0.07395 0.04095
# Poissons Ratio (y) = 0.05198 0.11680
# Poissons Ratio (z) = 0.04335 0.17591
#
# Static dielectric constant tensor:
#      x y z
#    x 1.713740 -0.004350 0.001790 
#    y -0.004350 1.715380 -0.017130 
#    z 0.001790 -0.017130 1.737820 
# 
# From -- ./inp_files/176164.got.cif
#   From: 2010.05.17/outbox.cif.g08.bks.cpg/sg2_89_cif.got.tgz:176164.got - 2010.06.03 11:33:40.
