data_PCOD9088822
_publ_section_title
;
Structure prediction by ZEFSAII (Michael W. Deem and Ramdas Pophale) SiO2 
 PCOD9088822
Probable space group: P -1
;
_chemical_formula_sum "Si O2"
_cell_formula_units_Z 16
_cell_length_a 18.896179
_cell_length_b 13.905547
_cell_length_c 7.936818
_cell_angle_alpha 125.895951
_cell_angle_beta 117.607475
_cell_angle_gamma 26.666052
_cell_volume 747.608285
_symmetry_space_group_name_H-M "P -1"
_symmetry_group_IT_number 2
_symmetry_cell_setting 'triclinic'
loop_
_space_group_symop_operation_xyz
x,y,z
-x,-y,-z
loop_
_atom_site_type_symbol
_atom_site_label
_atom_site_fract_x
_atom_site_fract_y
_atom_site_fract_z
Si Si1 0.640413 0.962992 0.269757
Si Si2 0.482363 0.122625 0.917814
Si Si3 0.014443 0.545352 0.880940
Si Si4 0.694414 0.012340 0.867654
Si Si5 0.866411 0.345942 0.803522
Si Si6 0.362939 0.783113 0.328702
Si Si7 0.886164 0.056423 0.576693
Si Si8 0.630118 0.321008 0.311866
O O1 0.821642 0.717634 0.279668
O O2 0.617939 0.959568 0.044345
O O3 0.595344 0.155385 0.448805
O O4 0.542172 0.982583 0.265008
O O5 0.320410 0.381411 0.093077
O O6 0.541383 0.124854 0.830595
O O7 0.044292 0.648869 0.035563
O O8 0.857512 0.731099 0.787560
O O9 0.000000 0.500000 0.000000
O O10 0.691888 0.092060 0.779018
O O11 0.677654 0.126469 0.120877
O O12 0.894437 0.184517 0.765697
O O13 0.944163 0.218549 0.573916
O O14 0.220865 0.885891 0.357470
O O15 0.531513 0.496740 0.224339
O O16 0.783495 0.187159 0.421947
O O17 0.500000 0.500000 0.500000
#
# Coordination Sequence:
#
# PCOD9088822 Si02
#       8
#     2   2   2   2   2   2   2   2
#     4  10  21  38  61  88 118 166 207 251 291 355
#     4  10  20  37  62  90 116 160 211 250 295 348
#     4  11  21  38  64  88 120 161 209 252 292 355
#     4  12  23  39  62  94 124 160 197 253 314 365
#     4  10  20  35  64  90 117 150 210 259 287 348
#     4  11  23  38  62  92 129 156 199 248 317 366
#     4  10  19  37  63  90 115 158 204 249 301 359
#     4  10  20  37  63  87 115 156 204 249 291 357
#
# _framework density 21.401582000000001
#
# number of rings (size 3 to 8) (size 9 to 14) (size 15 to 20)
#    0.000    1.500    2.500    4.875    0.000    1.000 
#    0.000    0.625   16.500    0.000    0.000    0.000 
#    0.000    0.000    0.000    0.000    0.000    0.000 
#
# Total GULP energy -89191.441996 kJ/mol
# GULP energy per Si atom -5574.465125 kJ/mol
# Density = 2.135287 g / cm^3
# Si number density = 21.401582 Si / 1000 Ang^3
#
#
#
# Elastic Constant Matrix: (Units=GPa)
#
#
# Indices 1 2 3 4 5 6 
#
# 1 161.3344 36.0142 23.6707 5.5313 2.0436 4.9858
# 2 36.0142 97.1247 3.8152 6.9208 -18.5896 -1.7707
# 3 23.6707 3.8152 35.0731 7.9447 10.3702 0.7087
# 4 5.5313 6.9208 7.9447 28.6619 11.8280 -1.7128
# 5 2.0436 -18.5896 10.3702 11.8280 25.0932 -0.1995
# 6 4.9858 -1.7707 0.7087 -1.7128 -0.1995 26.8503
#
#
#
# Elastic Compliance Matrix: (Units=1/GPa)
#
#
# Indices 1 2 3 4 5 6 
#
# 1 0.007564 -0.003008 -0.004553 0.001049 -0.001469 -0.001427
# 2 -0.003008 0.015537 -0.002657 -0.009526 0.017353 0.001175
# 3 -0.004553 -0.002657 0.037086 -0.002244 -0.015870 -0.000570
# 4 0.001049 -0.009526 -0.002244 0.050030 -0.029780 0.002206
# 5 -0.001469 0.017353 -0.015870 -0.029780 0.073426 0.000482
# 6 -0.001427 0.001175 -0.000570 0.002206 0.000482 0.037745
#
#
# Mechanical properties :
#
#
# Convention : Reuss Voigt Hill
#
# Bulk Modulus (GPa) = 25.15548 46.72584 35.94066
# Shear Modulus (GPa) = 19.60213 31.45656 25.52934
#
# Velocity S-wave (km/s) = 3.02970 3.83799 3.45754
# Velocity P-wave (km/s) = 4.90085 6.44364 5.72446
#
# Compressibility (1/GPa) = 0.03975277
#
# Stress axis : x y z
#
# Youngs Moduli (GPa) = 132.19738 64.36142 26.96458
#
# Poissons Ratio (x) = 0.19360 0.12276
# Poissons Ratio (y) = 0.39766 0.07164
# Poissons Ratio (z) = 0.60183 0.17099
#
# Static dielectric constant tensor:
#      x y z
#    x 1.830300 0.012220 -0.019250 
#    y 0.012220 1.833270 -0.001980 
#    z -0.019250 -0.001980 1.791890 
# 
# From -- ./inp_files/267199.got.cif
#   From: 2010.05.17/outbox.cif.g08.bks.cpg/sg2_134_cif.got.tgz:267199.got - 2010.06.03 11:33:40.
