data_PCOD9088670
_publ_section_title
;
Structure prediction by ZEFSAII (Michael W. Deem and Ramdas Pophale) SiO2 
 PCOD9088670
Probable space group: P -1
;
_chemical_formula_sum "Si O2"
_cell_formula_units_Z 16
_cell_length_a 7.842278
_cell_length_b 11.099332
_cell_length_c 10.296315
_cell_angle_alpha 120.988099
_cell_angle_beta 60.032430
_cell_angle_gamma 120.003829
_cell_volume 628.998888
_symmetry_space_group_name_H-M "P -1"
_symmetry_group_IT_number 2
_symmetry_cell_setting 'triclinic'
loop_
_space_group_symop_operation_xyz
x,y,z
-x,-y,-z
loop_
_atom_site_type_symbol
_atom_site_label
_atom_site_fract_x
_atom_site_fract_y
_atom_site_fract_z
Si Si1 0.811130 0.622183 0.189837
Si Si2 0.883687 0.705851 0.802676
Si Si3 0.447096 0.114167 0.192978
Si Si4 0.954267 0.109074 0.912570
Si Si5 0.180963 0.910322 0.626204
Si Si6 0.483666 0.805951 0.055141
Si Si7 0.845409 0.435366 0.824622
Si Si8 0.407940 0.169886 0.514383
O O1 0.628016 0.687484 0.326840
O O2 0.989557 0.768921 0.152616
O O3 0.923145 0.566250 0.232479
O O4 0.776492 0.514039 0.019920
O O5 0.673560 0.740845 0.938093
O O6 0.847458 0.535130 0.754945
O O7 0.984048 0.765710 0.658500
O O8 0.043089 0.804341 0.906611
O O9 0.590478 0.212936 0.080579
O O10 0.404492 0.197932 0.378258
O O11 0.238175 0.023863 0.143961
O O12 0.520186 0.981953 0.151156
O O13 0.138657 0.035204 0.806644
O O14 0.378432 0.856883 0.543525
O O15 0.229141 0.012930 0.534933
O O16 0.327136 0.725534 0.184477
#
# Coordination Sequence:
#
# PCOD9088670 Si02
#       8
#     2   2   2   2   2   2   2   2
#     4   9  20  39  62  89 115 164 203 254 300 361
#     4  11  22  37  63  87 128 163 203 251 301 364
#     4  11  23  36  64  96 123 155 201 263 307 358
#     4  10  19  37  62  91 121 157 202 257 310 350
#     4  10  21  38  58  91 125 162 199 242 315 368
#     4  11  23  39  60  98 121 159 207 257 305 358
#     4  10  21  40  64  87 123 159 212 247 301 362
#     4  10  23  39  63  92 127 160 200 254 309 366
#
# _framework density 25.437248
#
# number of rings (size 3 to 8) (size 9 to 14) (size 15 to 20)
#    0.000    1.750    2.500    1.500    3.500    3.000 
#    0.000    2.500    0.000    2.250    0.000    0.000 
#    0.000    0.000    0.000    0.000    0.000    0.000 
#
# Total GULP energy -89263.674182 kJ/mol
# GULP energy per Si atom -5578.979636 kJ/mol
# Density = 2.537935 g / cm^3
# Si number density = 25.437248 Si / 1000 Ang^3
#
#
#
# Elastic Constant Matrix: (Units=GPa)
#
#
# Indices 1 2 3 4 5 6 
#
# 1 87.4613 18.0144 12.1625 10.4705 -24.7993 -13.6347
# 2 18.0144 120.9375 0.6572 -11.1515 -12.2570 -19.7969
# 3 12.1625 0.6572 69.8149 6.6098 -11.6123 -1.5008
# 4 10.4705 -11.1515 6.6098 32.9230 -6.6598 -7.6796
# 5 -24.7993 -12.2570 -11.6123 -6.6598 27.9448 0.5371
# 6 -13.6347 -19.7969 -1.5008 -7.6796 0.5371 35.0017
#
#
#
# Elastic Compliance Matrix: (Units=1/GPa)
#
#
# Indices 1 2 3 4 5 6 
#
# 1 0.016563 -0.000159 -0.000308 -0.001020 0.014144 0.005908
# 2 -0.000159 0.010728 0.000494 0.006557 0.006191 0.007371
# 3 -0.000308 0.000494 0.015529 -0.001542 0.006021 0.000395
# 4 -0.001020 0.006557 -0.001542 0.037945 0.010153 0.011415
# 5 0.014144 0.006191 0.006021 0.010153 0.055770 0.010641
# 6 0.005908 0.007371 0.000395 0.011415 0.010641 0.037398
#
#
# Mechanical properties :
#
#
# Convention : Reuss Voigt Hill
#
# Bulk Modulus (GPa) = 23.32377 37.76465 30.54421
# Shear Modulus (GPa) = 26.57173 35.66588 31.11880
#
# Velocity S-wave (km/s) = 3.23553 3.74854 3.50144
# Velocity P-wave (km/s) = 4.81116 5.79774 5.32734
#
# Compressibility (1/GPa) = 0.04287472
#
# Stress axis : x y z
#
# Youngs Moduli (GPa) = 60.37606 93.21122 64.39737
#
# Poissons Ratio (x) = 0.01481 0.01982
# Poissons Ratio (y) = 0.00959 -0.03182
# Poissons Ratio (z) = 0.01858 -0.04606
#
# Static dielectric constant tensor:
#      x y z
#    x 2.161290 0.045100 -0.086130 
#    y 0.045100 2.092850 -0.034900 
#    z -0.086130 -0.034900 2.076170 
# 
# From -- ./inp_files/388148.got.cif
#   From: 2010.05.17/outbox.cif.g08.bks.cpg/sg2_195_cif.got.tgz:388148.got - 2010.06.03 11:33:40.
