data_PCOD9088445
_publ_section_title
;
Structure prediction by ZEFSAII (Michael W. Deem and Ramdas Pophale) SiO2 
 PCOD9088445
Probable space group: P -1
;
_chemical_formula_sum "Si O2"
_cell_formula_units_Z 16
_cell_length_a 16.313272
_cell_length_b 12.270619
_cell_length_c 8.776746
_cell_angle_alpha 104.298187
_cell_angle_beta 48.403723
_cell_angle_gamma 62.385299
_cell_volume 636.909554
_symmetry_space_group_name_H-M "P -1"
_symmetry_group_IT_number 2
_symmetry_cell_setting 'triclinic'
loop_
_space_group_symop_operation_xyz
x,y,z
-x,-y,-z
loop_
_atom_site_type_symbol
_atom_site_label
_atom_site_fract_x
_atom_site_fract_y
_atom_site_fract_z
Si Si1 0.688192 0.652368 0.556311
Si Si2 0.578103 0.322757 0.433788
Si Si3 0.063301 0.356659 0.615620
Si Si4 0.660148 0.647282 0.054680
Si Si5 0.273821 0.748087 0.441131
Si Si6 0.668452 0.019564 0.095150
Si Si7 0.293141 0.981970 0.395319
Si Si8 0.944797 0.283055 0.307005
O O1 0.822315 0.634399 0.459499
O O2 0.585117 0.776444 0.564270
O O3 0.838896 0.411569 0.321713
O O4 0.468040 0.826303 0.986762
O O5 0.500000 0.500000 0.500000
O O6 0.698130 0.261496 0.415891
O O7 0.678717 0.147833 0.122090
O O8 0.405805 0.391803 0.757388
O O9 0.824525 0.583969 0.916426
O O10 0.098444 0.235125 0.666429
O O11 0.201183 0.178764 0.246004
O O12 0.798372 0.467865 0.685432
O O13 0.448010 0.883554 0.310667
O O14 0.227027 0.912976 0.488938
O O15 0.091772 0.816294 0.660526
O O16 0.500000 0.500000 0.000000
O O17 0.812022 0.885591 0.026370
#
# Coordination Sequence:
#
# PCOD9088445 Si02
#       8
#     2   2   2   2   2   2   2   2
#     4  10  19  37  61  87 119 157 204 258 293 349
#     4  11  23  37  61  89 131 160 193 259 310 353
#     4  10  21  36  64  89 113 159 216 244 292 364
#     4   9  20  37  55  85 117 158 200 242 297 362
#     4  11  19  38  62  87 120 166 198 237 308 369
#     4  10  22  36  55  93 118 148 205 251 299 351
#     4   9  18  32  58  84 119 150 195 250 292 348
#     4  10  20  37  64  86 119 161 208 240 296 370
#
# _framework density 25.121303999999999
#
# number of rings (size 3 to 8) (size 9 to 14) (size 15 to 20)
#    0.000    2.000    3.750    2.250    1.750    7.000 
#    0.000    8.750    0.000   24.000    0.000    0.000 
#    0.000    0.000    0.000    0.000    0.000    0.000 
#
# Total GULP energy -89218.116423 kJ/mol
# GULP energy per Si atom -5576.132276 kJ/mol
# Density = 2.506413 g / cm^3
# Si number density = 25.121304 Si / 1000 Ang^3
#
#
#
# Elastic Constant Matrix: (Units=GPa)
#
#
# Indices 1 2 3 4 5 6 
#
# 1 161.6841 3.7017 40.4149 -0.0116 -33.9894 0.8489
# 2 3.7017 81.9246 13.8307 -8.2621 -10.7312 7.1055
# 3 40.4149 13.8307 51.8208 -6.7878 21.2792 -21.1873
# 4 -0.0116 -8.2621 -6.7878 25.6994 -20.0640 -0.8980
# 5 -33.9894 -10.7312 21.2792 -20.0640 29.1958 11.1886
# 6 0.8489 7.1055 -21.1873 -0.8980 11.1886 35.3532
#
#
#
# Elastic Compliance Matrix: (Units=1/GPa)
#
#
# Indices 1 2 3 4 5 6 
#
# 1 0.002511 -0.003973 0.005595 -0.008181 -0.011068 0.007386
# 2 -0.003973 0.009220 0.006510 -0.002962 -0.010025 0.005241
# 3 0.005595 0.006510 0.000993 0.024105 0.028267 -0.009181
# 4 -0.008181 -0.002962 0.024105 0.037109 -0.010106 0.019379
# 5 -0.011068 -0.010025 0.028267 -0.010106 -0.019498 0.025135
# 6 0.007386 0.005241 -0.009181 0.019379 0.025135 0.014090
#
#
# Mechanical properties :
#
#
# Convention : Reuss Voigt Hill
#
# Bulk Modulus (GPa) = 34.49861 45.70268 40.10065
# Shear Modulus (GPa) = 132.18453 33.88183 83.03318
#
# Velocity S-wave (km/s) = 7.26173 3.67649 5.75540
# Velocity P-wave (km/s) = 9.16913 6.02116 7.75652
#
# Compressibility (1/GPa) = 0.02898667
#
# Stress axis : x y z
#
# Youngs Moduli (GPa) = 398.20316 108.45443 1007.28127
#
# Poissons Ratio (x) = 0.43094 -5.63578
# Poissons Ratio (y) = 1.58226 -6.55694
# Poissons Ratio (z) = -2.22796 -0.70599
#
# Static dielectric constant tensor:
#      x y z
#    x 1.984110 -0.064020 0.006780 
#    y -0.064020 2.009220 0.001240 
#    z 0.006780 0.001240 2.079390 
# 
# From -- ./inp_files/307904.got.cif
#   From: 2010.05.17/outbox.cif.g08.bks.cpg/sg2_154_cif.got.tgz:307904.got - 2010.06.03 11:33:40.
