data_PCOD9088914
_publ_section_title
;
Structure prediction by ZEFSAII (Michael W. Deem and Ramdas Pophale) SiO2 
 PCOD9088914
Probable space group: P -1
;
_chemical_formula_sum "Si O2"
_cell_formula_units_Z 16
_cell_length_a 8.266251
_cell_length_b 12.525875
_cell_length_c 15.438610
_cell_angle_alpha 45.379907
_cell_angle_beta 129.861058
_cell_angle_gamma 99.697682
_cell_volume 748.308324
_symmetry_space_group_name_H-M "P -1"
_symmetry_group_IT_number 2
_symmetry_cell_setting 'triclinic'
loop_
_space_group_symop_operation_xyz
x,y,z
-x,-y,-z
loop_
_atom_site_type_symbol
_atom_site_label
_atom_site_fract_x
_atom_site_fract_y
_atom_site_fract_z
Si Si1 0.845484 0.762609 0.256496
Si Si2 0.139953 0.236373 0.162656
Si Si3 0.547659 0.975622 0.888944
Si Si4 0.529648 0.882190 0.403250
Si Si5 0.252268 0.545464 0.644791
Si Si6 0.812434 0.147820 0.221998
Si Si7 0.284290 0.436487 0.235268
Si Si8 0.931485 0.213246 0.398644
O O1 0.789695 0.611743 0.299872
O O2 0.102304 0.684397 0.437655
O O3 0.647724 0.882507 0.192478
O O4 0.795236 0.869343 0.089909
O O5 0.259409 0.317006 0.220929
O O6 0.940780 0.214591 0.162261
O O7 0.341388 0.048399 0.301410
O O8 0.983671 0.387423 0.951324
O O9 0.421651 0.861255 0.886069
O O10 0.563289 0.067809 0.755523
O O11 0.594853 0.694191 0.568115
O O12 0.799936 0.857624 0.509060
O O13 0.526592 0.504485 0.760455
O O14 0.143394 0.627496 0.654133
O O15 0.755577 0.247290 0.237959
O O16 0.022382 0.947663 0.432993
#
# Coordination Sequence:
#
# PCOD9088914 Si02
#       8
#     2   2   2   2   2   2   2   2
#     4  10  22  42  67  90 122 168 226 268 312 363
#     4  11  24  40  62  97 138 172 203 252 331 405
#     4  10  22  41  67  95 122 166 222 267 312 379
#     4  11  22  40  65  92 133 169 202 267 321 382
#     4  11  22  42  68  91 127 171 213 274 316 370
#     4  10  19  37  63  97 129 163 203 264 318 389
#     4  11  25  41  61  96 133 175 208 253 327 399
#     4  10  21  35  67 102 124 162 216 259 331 382
#
# _framework density 21.381561000000001
#
# number of rings (size 3 to 8) (size 9 to 14) (size 15 to 20)
#    0.000    1.500    3.750    1.875    5.250    1.000 
#    0.000    2.500    0.000    0.000    0.000    0.000 
#    0.000    0.000    0.000    0.000    0.000    0.000 
#
# Total GULP energy -89321.922244 kJ/mol
# GULP energy per Si atom -5582.620140 kJ/mol
# Density = 2.133290 g / cm^3
# Si number density = 21.381561 Si / 1000 Ang^3
#
#
#
# Elastic Constant Matrix: (Units=GPa)
#
#
# Indices 1 2 3 4 5 6 
#
# 1 101.1303 -66.3131 123.4323 31.8091 -22.9104 63.4596
# 2 -66.3131 210.1416 -95.4931 -1.2438 23.3696 -71.5028
# 3 123.4323 -95.4931 235.0795 29.0166 -32.5061 54.3190
# 4 31.8091 -1.2438 29.0166 12.5474 -2.7743 -9.6726
# 5 -22.9104 23.3696 -32.5061 -2.7743 30.5342 -8.4613
# 6 63.4596 -71.5028 54.3190 -9.6726 -8.4613 42.8192
#
#
#
# Elastic Compliance Matrix: (Units=1/GPa)
#
#
# Indices 1 2 3 4 5 6 
#
# 1 0.001646 0.003685 -0.006468 0.023913 -0.001586 0.017009
# 2 0.003685 0.007934 0.001278 -0.008957 -0.001706 0.003805
# 3 -0.006468 0.001278 0.010443 -0.008993 0.003684 -0.002831
# 4 0.023913 -0.008957 -0.008993 0.013955 0.006941 -0.034463
# 5 -0.001586 -0.001706 0.003684 0.006941 0.038530 0.004010
# 6 0.017009 0.003805 -0.002831 -0.034463 0.004010 0.001098
#
#
# Mechanical properties :
#
#
# Convention : Reuss Voigt Hill
#
# Bulk Modulus (GPa) = 58.77641 52.17819 55.47730
# Shear Modulus (GPa) = 60.76474 56.16186 58.46330
#
# Velocity S-wave (km/s) = 5.33675 5.13064 5.23471
# Velocity P-wave (km/s) = 8.09466 7.71715 7.90816
#
# Compressibility (1/GPa) = 0.01701363
#
# Stress axis : x y z
#
# Youngs Moduli (GPa) = 607.71252 126.04205 95.75908
#
# Poissons Ratio (x) = -0.46451 0.61937
# Poissons Ratio (y) = -2.23963 -0.12241
# Poissons Ratio (z) = 3.93067 -0.16112
#
# Static dielectric constant tensor:
#      x y z
#    x 1.774000 0.016720 -0.047090 
#    y 0.016720 1.765520 -0.010390 
#    z -0.047090 -0.010390 1.853070 
# 
# From -- ./inp_files/500082.got.cif
#   From: 2010.05.17/outbox.cif.g08.bks.cpg/sg2_251_cif.got.tgz:500082.got - 2010.06.03 11:33:40.
