data_PCOD9088244
_publ_section_title
;
Structure prediction by ZEFSAII (Michael W. Deem and Ramdas Pophale) SiO2 
 PCOD9088244
Probable space group: P -1
;
_chemical_formula_sum "Si O2"
_cell_formula_units_Z 12
_cell_length_a 10.846366
_cell_length_b 5.166055
_cell_length_c 9.125462
_cell_angle_alpha 118.613425
_cell_angle_beta 91.881426
_cell_angle_gamma 81.531895
_cell_volume 443.566280
_symmetry_space_group_name_H-M "P -1"
_symmetry_group_IT_number 2
_symmetry_cell_setting 'triclinic'
loop_
_space_group_symop_operation_xyz
x,y,z
-x,-y,-z
loop_
_atom_site_type_symbol
_atom_site_label
_atom_site_fract_x
_atom_site_fract_y
_atom_site_fract_z
Si Si1 0.580734 0.344133 0.097846
Si Si2 0.042799 0.984003 0.831526
Si Si3 0.151820 0.811224 0.349590
Si Si4 0.586274 0.703791 0.470682
Si Si5 0.885699 0.667247 0.313641
Si Si6 0.331885 0.217590 0.197339
O O1 0.631669 0.561803 0.276380
O O2 0.475886 0.221255 0.158857
O O3 0.500000 0.500000 0.000000
O O4 0.685486 0.085892 0.968927
O O5 0.126174 0.663895 0.728959
O O6 0.914639 0.009233 0.741097
O O7 0.109208 0.250419 0.837276
O O8 0.000000 0.000000 0.000000
O O9 0.252433 0.530833 0.234514
O O10 0.030516 0.679745 0.371071
O O11 0.188232 0.036148 0.534788
O O12 0.500000 0.500000 0.500000
O O13 0.674501 0.784557 0.627881
O O14 0.500000 0.000000 0.500000
#
# Coordination Sequence:
#
# PCOD9088244 Si02
#       6
#     2   2   2   2   2   2
#     4  10  20  37  61  81 122 154 192 245 297 340
#     4  10  19  37  60  84 118 151 187 237 292 338
#     4   9  21  36  60  83 112 154 196 232 286 346
#     4  10  20  38  60  83 112 155 191 235 296 343
#     4   9  20  38  60  80 118 152 189 230 293 342
#     4  10  21  39  58  87 117 155 199 242 288 351
#
# _framework density 27.053452
#
# number of rings (size 3 to 8) (size 9 to 14) (size 15 to 20)
#    1.000    1.333    1.667    1.000    0.000    1.333 
#    3.000    1.667    0.000    0.000    0.000    0.000 
#    0.000    0.000    0.000    0.000    0.000    0.000 
#
# Total GULP energy -67053.057770 kJ/mol
# GULP energy per Si atom -5587.754814 kJ/mol
# Density = 2.699188 g / cm^3
# Si number density = 27.053452 Si / 1000 Ang^3
#
#
#
# Elastic Constant Matrix: (Units=GPa)
#
#
# Indices 1 2 3 4 5 6 
#
# 1 46.3234 17.2737 17.2313 3.2513 -3.0816 -14.9288
# 2 17.2737 211.7822 91.2123 16.5252 2.9973 -10.1377
# 3 17.2313 91.2123 229.4699 10.6031 15.7653 -25.2335
# 4 3.2513 16.5252 10.6031 69.5571 -1.5551 -18.4320
# 5 -3.0816 2.9973 15.7653 -1.5551 43.9486 -4.5326
# 6 -14.9288 -10.1377 -25.2335 -18.4320 -4.5326 35.4269
#
#
#
# Elastic Compliance Matrix: (Units=1/GPa)
#
#
# Indices 1 2 3 4 5 6 
#
# 1 0.026283 -0.001665 -0.000331 0.002500 0.003412 0.012101
# 2 -0.001665 0.005890 -0.002310 -0.001320 0.000126 -0.001332
# 3 -0.000331 -0.002310 0.005755 0.000549 -0.001562 0.003384
# 4 0.002500 -0.001320 0.000549 0.017248 0.001737 0.010263
# 5 0.003412 0.000126 -0.001562 0.001737 0.024054 0.004343
# 6 0.012101 -0.001332 0.003384 0.010263 0.004343 0.041251
#
#
# Mechanical properties :
#
#
# Convention : Reuss Voigt Hill
#
# Bulk Modulus (GPa) = 34.11277 82.11224 58.11251
# Shear Modulus (GPa) = 36.00588 53.91039 44.95814
#
# Velocity S-wave (km/s) = 3.65213 4.46885 4.08097
# Velocity P-wave (km/s) = 5.51551 7.55283 6.61310
#
# Compressibility (1/GPa) = 0.02931453
#
# Stress axis : x y z
#
# Youngs Moduli (GPa) = 38.04798 169.77531 173.75625
#
# Poissons Ratio (x) = 0.28273 0.05751
# Poissons Ratio (y) = 0.06336 0.40145
# Poissons Ratio (z) = 0.01259 0.39225
#
# Static dielectric constant tensor:
#      x y z
#    x 2.345760 0.144630 0.031800 
#    y 0.144630 2.061970 0.018900 
#    z 0.031800 0.018900 2.220520 
# 
# From -- ./inp_files/88603.got.cif
#   From: 2010.05.17/outbox.cif.g08.bks.cpg/sg2_45_cif.got.tgz:88603.got - 2010.06.03 11:33:40.
