data_PCOD9088890
_publ_section_title
;
Structure prediction by ZEFSAII (Michael W. Deem and Ramdas Pophale) SiO2 
 PCOD9088890
Probable space group: P -1
;
_chemical_formula_sum "Si O2"
_cell_formula_units_Z 15
_cell_length_a 24.601635
_cell_length_b 11.316117
_cell_length_c 5.061239
_cell_angle_alpha 126.451330
_cell_angle_beta 50.160634
_cell_angle_gamma 147.117986
_cell_volume 582.029992
_symmetry_space_group_name_H-M "P -1"
_symmetry_group_IT_number 2
_symmetry_cell_setting 'triclinic'
loop_
_space_group_symop_operation_xyz
x,y,z
-x,-y,-z
loop_
_atom_site_type_symbol
_atom_site_label
_atom_site_fract_x
_atom_site_fract_y
_atom_site_fract_z
Si Si1 0.659702 0.402625 0.748389
Si Si2 0.180132 0.733134 0.257236
Si Si3 0.824190 0.875422 0.950485
Si Si4 0.281582 0.155534 0.250092
Si Si5 0.525311 0.417352 0.530952
Si Si6 0.996338 0.356093 0.026380
Si Si7 0.638225 0.073624 0.690800
Si Si8 0.500000 0.000000 0.500000
O O1 0.779596 0.646526 0.696102
O O2 0.638315 0.199579 0.633140
O O3 0.583782 0.274995 0.562915
O O4 0.606626 0.430423 0.153545
O O5 0.090165 0.709075 0.592468
O O6 0.245045 0.767305 0.342543
O O7 0.112103 0.517594 0.006042
O O8 0.259923 0.956350 0.142281
O O9 0.755594 0.875223 0.971677
O O10 0.791259 0.858983 0.335766
O O11 0.942170 0.113863 0.821805
O O12 0.401104 0.390913 0.226845
O O13 0.500000 0.500000 0.500000
O O14 0.419952 0.158488 0.548591
O O15 0.000000 0.500000 0.000000
O O16 0.565894 0.014450 0.081166
#
# Coordination Sequence:
#
# PCOD9088890 Si02
#       8
#     2   2   2   2   2   2   2   1
#     4  10  24  39  59  91 131 181 217 272 333 407
#     4  10  21  38  65  96 134 169 221 280 343 399
#     4  10  22  38  67  89 132 172 221 275 340 393
#     4  10  20  38  60  99 127 170 217 276 334 397
#     4  10  19  37  63  94 132 168 225 272 327 395
#     4  10  20  39  65  99 126 167 220 290 342 393
#     4  11  23  42  62  96 138 180 222 267 340 406
#     4  10  22  40  62  86 128 186 218 262 314 408
#
# _framework density 25.771868000000001
#
# number of rings (size 3 to 8) (size 9 to 14) (size 15 to 20)
#    0.000    1.867    2.667    1.600    5.600    1.067 
#    0.000    4.667    0.000    1.600    0.000    0.000 
#    0.000    0.000    0.000    0.000    0.000    0.000 
#
# Total GULP energy -83602.800569 kJ/mol
# GULP energy per Si atom -5573.520038 kJ/mol
# Density = 2.571321 g / cm^3
# Si number density = 25.771868 Si / 1000 Ang^3
#
#
#
# Elastic Constant Matrix: (Units=GPa)
#
#
# Indices 1 2 3 4 5 6 
#
# 1 71.3161 22.0747 -2.2487 -1.4405 8.9733 1.4378
# 2 22.0747 238.8233 40.6087 48.1265 -0.2558 3.3731
# 3 -2.2487 40.6087 75.7532 6.4966 11.6710 0.2382
# 4 -1.4405 48.1265 6.4966 40.8047 -2.0515 9.8351
# 5 8.9733 -0.2558 11.6710 -2.0515 25.0572 7.1087
# 6 1.4378 3.3731 0.2382 9.8351 7.1087 54.1451
#
#
#
# Elastic Compliance Matrix: (Units=1/GPa)
#
#
# Indices 1 2 3 4 5 6 
#
# 1 0.015750 -0.002438 0.002575 0.002657 -0.006680 0.000117
# 2 -0.002438 0.006393 -0.003124 -0.007240 0.001577 0.000788
# 3 0.002575 -0.003124 0.016265 0.000472 -0.008811 0.001126
# 4 0.002657 -0.007240 0.000472 0.034775 0.003414 -0.006387
# 5 -0.006680 0.001577 -0.008811 0.003414 0.048655 -0.006890
# 6 0.000117 0.000788 0.001126 -0.006387 -0.006890 0.020476
#
#
# Mechanical properties :
#
#
# Convention : Reuss Voigt Hill
#
# Bulk Modulus (GPa) = 30.83098 56.30689 43.56893
# Shear Modulus (GPa) = 31.42663 45.69859 38.56261
#
# Velocity S-wave (km/s) = 3.49580 4.21550 3.87241
# Velocity P-wave (km/s) = 5.31819 6.75201 6.07753
#
# Compressibility (1/GPa) = 0.03243491
#
# Stress axis : x y z
#
# Youngs Moduli (GPa) = 63.49296 156.41519 61.47997
#
# Poissons Ratio (x) = 0.38134 -0.15833
# Poissons Ratio (y) = 0.15480 0.19207
# Poissons Ratio (z) = -0.16352 0.48867
#
# Static dielectric constant tensor:
#      x y z
#    x 1.459240 -0.231110 -0.148610 
#    y -0.231110 2.128150 -0.079410 
#    z -0.148610 -0.079410 2.103760 
# 
# From -- ./inp_files/126786.got.cif
#   From: 2010.05.17/outbox.cif.g08.bks.cpg/sg2_64_cif.got.tgz:126786.got - 2010.06.03 11:33:40.
