data_PCOD9088739
_publ_section_title
;
Structure prediction by ZEFSAII (Michael W. Deem and Ramdas Pophale) SiO2 
 PCOD9088739
Probable space group: P -1
;
_chemical_formula_sum "Si O2"
_cell_formula_units_Z 16
_cell_length_a 8.620590
_cell_length_b 7.822052
_cell_length_c 13.589372
_cell_angle_alpha 61.405425
_cell_angle_beta 108.638769
_cell_angle_gamma 131.328239
_cell_volume 604.176519
_symmetry_space_group_name_H-M "P -1"
_symmetry_group_IT_number 2
_symmetry_cell_setting 'triclinic'
loop_
_space_group_symop_operation_xyz
x,y,z
-x,-y,-z
loop_
_atom_site_type_symbol
_atom_site_label
_atom_site_fract_x
_atom_site_fract_y
_atom_site_fract_z
Si Si1 0.332308 0.598158 0.353328
Si Si2 0.895433 0.241946 0.843190
Si Si3 0.050417 0.305482 0.548449
Si Si4 0.714224 0.481562 0.272647
Si Si5 0.256221 0.961041 0.586025
Si Si6 0.914869 0.244359 0.190880
Si Si7 0.478116 0.838117 0.950246
Si Si8 0.685269 0.592695 0.819575
O O1 0.209195 0.712580 0.279963
O O2 0.194959 0.380793 0.462267
O O3 0.355650 0.532161 0.264870
O O4 0.538767 0.789058 0.403433
O O5 0.118815 0.336091 0.826753
O O6 0.953927 0.458262 0.871417
O O7 0.708509 0.976027 0.916633
O O8 0.188883 0.349167 0.657326
O O9 0.000000 0.500000 0.500000
O O10 0.837283 0.054812 0.535524
O O11 0.713928 0.250816 0.354062
O O12 0.481984 0.359733 0.229724
O O13 0.101067 0.858909 0.675674
O O14 0.066804 0.207657 0.174930
O O15 0.684628 0.155408 0.149017
O O16 0.383102 0.580866 0.051660
O O17 0.500000 0.000000 0.000000
#
# Coordination Sequence:
#
# PCOD9088739 Si02
#       8
#     2   2   2   2   2   2   2   2
#     4  11  19  38  64  88 114 156 211 243 278 363
#     4  10  20  38  61  85 119 156 201 246 286 359
#     4  10  19  37  64  85 116 165 201 237 294 358
#     4  10  23  41  58  90 130 154 191 255 308 345
#     4  10  19  38  65  85 115 161 207 236 289 359
#     4  10  19  37  63  83 117 155 202 241 287 360
#     4  12  21  36  67  89 109 162 210 239 288 359
#     4  11  23  39  61  92 125 154 194 256 306 340
#
# _framework density 26.482323000000001
#
# number of rings (size 3 to 8) (size 9 to 14) (size 15 to 20)
#    0.000    1.500    8.750    0.375    0.000    3.000 
#    0.000    5.625    0.000    0.000    0.000    0.000 
#    0.000    0.000    0.000    0.000    0.000    0.000 
#
# Total GULP energy -89322.198550 kJ/mol
# GULP energy per Si atom -5582.637409 kJ/mol
# Density = 2.642205 g / cm^3
# Si number density = 26.482323 Si / 1000 Ang^3
#
#
#
# Elastic Constant Matrix: (Units=GPa)
#
#
# Indices 1 2 3 4 5 6 
#
# 1 102.8540 10.6803 13.2694 -7.7116 3.7614 20.6676
# 2 10.6803 91.1954 8.4157 13.9655 -0.9701 15.3911
# 3 13.2694 8.4157 63.0052 7.9084 -4.5405 4.9045
# 4 -7.7116 13.9655 7.9084 31.8136 10.8360 -6.5747
# 5 3.7614 -0.9701 -4.5405 10.8360 32.3877 -1.7269
# 6 20.6676 15.3911 4.9045 -6.5747 -1.7269 28.8083
#
#
#
# Elastic Compliance Matrix: (Units=1/GPa)
#
#
# Indices 1 2 3 4 5 6 
#
# 1 0.011937 -0.000474 -0.002534 0.003331 -0.003260 -0.007315
# 2 -0.000474 0.013986 0.000335 -0.009294 0.003144 -0.009122
# 3 -0.002534 0.000335 0.017905 -0.007565 0.005195 -0.002824
# 4 0.003331 -0.009294 -0.007565 0.046653 -0.016614 0.013515
# 5 -0.003260 0.003144 0.005195 -0.016614 0.037541 -0.001766
# 6 -0.007315 -0.009122 -0.002824 0.013515 -0.001766 0.048292
#
#
# Mechanical properties :
#
#
# Convention : Reuss Voigt Hill
#
# Bulk Modulus (GPa) = 25.98720 35.75393 30.87057
# Shear Modulus (GPa) = 25.70835 33.58120 29.64477
#
# Velocity S-wave (km/s) = 3.11910 3.56485 3.34940
# Velocity P-wave (km/s) = 4.77557 5.52038 5.16143
#
# Compressibility (1/GPa) = 0.03848048
#
# Stress axis : x y z
#
# Youngs Moduli (GPa) = 83.76969 71.49873 55.85177
#
# Poissons Ratio (x) = 0.03392 0.14155
# Poissons Ratio (y) = 0.03974 -0.01871
# Poissons Ratio (z) = 0.21231 -0.02395
#
# Static dielectric constant tensor:
#      x y z
#    x 2.262280 0.113090 0.112190 
#    y 0.113090 2.310520 0.117050 
#    z 0.112190 0.117050 2.207750 
# 
# From -- ./inp_files/494697.got.cif
#   From: 2010.05.17/outbox.cif.g08.bks.cpg/sg2_248_cif.got.tgz:494697.got - 2010.06.03 11:33:40.
