data_PCOD9088856
_publ_section_title
;
Structure prediction by ZEFSAII (Michael W. Deem and Ramdas Pophale) SiO2 
 PCOD9088856
Probable space group: P -1
;
_chemical_formula_sum "Si O2"
_cell_formula_units_Z 14
_cell_length_a 9.525487
_cell_length_b 14.028375
_cell_length_c 12.197099
_cell_angle_alpha 59.774496
_cell_angle_beta 129.061949
_cell_angle_gamma 76.628420
_cell_volume 629.708644
_symmetry_space_group_name_H-M "P -1"
_symmetry_group_IT_number 2
_symmetry_cell_setting 'triclinic'
loop_
_space_group_symop_operation_xyz
x,y,z
-x,-y,-z
loop_
_atom_site_type_symbol
_atom_site_label
_atom_site_fract_x
_atom_site_fract_y
_atom_site_fract_z
Si Si1 0.315264 0.773658 0.907068
Si Si2 0.537282 0.928650 0.397826
Si Si3 0.048262 0.737327 0.949765
Si Si4 0.801939 0.565008 0.756885
Si Si5 0.034774 0.150845 0.505296
Si Si6 0.179364 0.231392 0.704422
Si Si7 0.011791 0.465403 0.673727
O O1 0.229285 0.753380 0.987084
O O2 0.214987 0.744487 0.773867
O O3 0.124278 0.983675 0.684491
O O4 0.665928 0.634795 0.139923
O O5 0.562993 0.783302 0.491089
O O6 0.673654 0.929574 0.362275
O O7 0.788139 0.837985 0.669093
O O8 0.181764 0.132915 0.135606
O O9 0.283338 0.518473 0.211401
O O10 0.992840 0.464226 0.795142
O O11 0.000000 0.500000 0.000000
O O12 0.949357 0.269636 0.496671
O O13 0.032531 0.343685 0.682767
O O14 0.235334 0.320138 0.616768
O O15 0.500000 0.000000 0.000000
#
# Coordination Sequence:
#
# PCOD9088856 Si02
#       7
#     2   2   2   2   2   2   2
#     4  10  21  37  61 102 128 154 207 272 329 357
#     4   9  17  35  55  83 120 167 201 241 306 372
#     4   9  19  33  55  86 128 154 194 256 312 370
#     4  10  20  36  59  93 121 161 208 253 308 375
#     4  10  19  37  63  91 126 161 209 262 311 367
#     4  11  23  41  64  91 123 175 213 255 304 383
#     4  11  23  40  67  95 124 162 219 260 308 380
#
# _framework density 22.232505
#
# number of rings (size 3 to 8) (size 9 to 14) (size 15 to 20)
#    0.000    2.000    2.857    0.857    0.000    4.000 
#    2.571    0.000    0.000    6.857    0.000    0.000 
#    0.000    0.000    0.000    0.000    0.000    0.000 
#
# Total GULP energy -78063.184178 kJ/mol
# GULP energy per Si atom -5575.941727 kJ/mol
# Density = 2.218190 g / cm^3
# Si number density = 22.232505 Si / 1000 Ang^3
#
#
#
# Elastic Constant Matrix: (Units=GPa)
#
#
# Indices 1 2 3 4 5 6 
#
# 1 97.5594 30.0835 23.1913 -0.3753 -26.9167 2.4504
# 2 30.0835 161.2483 32.7621 3.3405 -9.7287 -6.4383
# 3 23.1913 32.7621 41.1844 -5.4602 -12.6539 3.7155
# 4 -0.3753 3.3405 -5.4602 30.9612 2.3261 -14.4726
# 5 -26.9167 -9.7287 -12.6539 2.3261 27.1152 0.6302
# 6 2.4504 -6.4383 3.7155 -14.4726 0.6302 30.9562
#
#
#
# Elastic Compliance Matrix: (Units=1/GPa)
#
#
# Indices 1 2 3 4 5 6 
#
# 1 0.015213 -0.001376 -0.003504 -0.002439 0.013240 -0.002480
# 2 -0.001376 0.007712 -0.006095 -0.000846 -0.001419 0.002078
# 3 -0.003504 -0.006095 0.035212 0.004480 0.010460 -0.003335
# 4 -0.002439 -0.000846 0.004480 0.042623 -0.004743 0.019503
# 5 0.013240 -0.001419 0.010460 -0.004743 0.054940 -0.005935
# 6 -0.002480 0.002078 -0.003335 0.019503 -0.005935 0.042571
#
#
# Mechanical properties :
#
#
# Convention : Reuss Voigt Hill
#
# Bulk Modulus (GPa) = 27.63488 52.45177 40.04332
# Shear Modulus (GPa) = 21.52544 32.07020 26.79782
#
# Velocity S-wave (km/s) = 3.11496 3.80214 3.47557
# Velocity P-wave (km/s) = 5.03927 6.55123 5.84435
#
# Compressibility (1/GPa) = 0.03618616
#
# Stress axis : x y z
#
# Youngs Moduli (GPa) = 65.73255 129.67396 28.39963
#
# Poissons Ratio (x) = 0.17844 0.09950
# Poissons Ratio (y) = 0.09045 0.17311
# Poissons Ratio (z) = 0.23031 0.79042
#
# Static dielectric constant tensor:
#      x y z
#    x 1.789980 -0.018360 -0.031920 
#    y -0.018360 1.895040 0.005250 
#    z -0.031920 0.005250 1.940200 
# 
# From -- ./inp_files/397114.got.cif
#   From: 2010.05.17/outbox.cif.g08.bks.cpg/sg2_199_cif.got.tgz:397114.got - 2010.06.03 11:33:40.
