data_PCOD9088725
_publ_section_title
;
Structure prediction by ZEFSAII (Michael W. Deem and Ramdas Pophale) SiO2 
 PCOD9088725
Probable space group: P -1
;
_chemical_formula_sum "Si O2"
_cell_formula_units_Z 16
_cell_length_a 19.562489
_cell_length_b 11.638966
_cell_length_c 7.222335
_cell_angle_alpha 120.063556
_cell_angle_beta 127.334120
_cell_angle_gamma 29.498840
_cell_volume 642.305674
_symmetry_space_group_name_H-M "P -1"
_symmetry_group_IT_number 2
_symmetry_cell_setting 'triclinic'
loop_
_space_group_symop_operation_xyz
x,y,z
-x,-y,-z
loop_
_atom_site_type_symbol
_atom_site_label
_atom_site_fract_x
_atom_site_fract_y
_atom_site_fract_z
Si Si1 0.402388 0.378186 0.955507
Si Si2 0.854074 0.600283 0.189170
Si Si3 0.143941 0.896074 0.875157
Si Si4 0.803891 0.880572 0.740370
Si Si5 0.288267 0.942419 0.659890
Si Si6 0.319094 0.220814 0.559667
Si Si7 0.818399 0.213541 0.579426
Si Si8 0.621156 0.701243 0.753865
O O1 0.426604 0.254974 0.075105
O O2 0.563435 0.248348 0.118060
O O3 0.268427 0.652410 0.992688
O O4 0.346306 0.344097 0.679852
O O5 0.811804 0.805222 0.237864
O O6 0.785495 0.656435 0.326332
O O7 0.030832 0.349147 0.263800
O O8 0.767396 0.609809 0.919823
O O9 0.161103 0.823821 0.636474
O O10 0.973024 0.080993 0.805241
O O11 0.183267 0.001181 0.028912
O O12 0.687853 0.056502 0.520405
O O13 0.759610 0.798811 0.700620
O O14 0.206808 0.904707 0.493091
O O15 0.487304 0.949576 0.638570
O O16 0.675465 0.488416 0.606793
#
# Coordination Sequence:
#
# PCOD9088725 Si02
#       8
#     2   2   2   2   2   2   2   2
#     4  11  22  39  65  95 126 152 199 252 308 363
#     4  10  19  37  62  98 124 150 196 256 306 359
#     4  11  27  46  56  86 125 168 210 249 294 361
#     4  11  22  38  67  94 123 157 202 249 305 360
#     4  11  22  39  64  98 122 154 199 256 303 362
#     4  10  20  37  63  98 127 147 191 259 311 358
#     4  11  27  44  61  81 126 170 208 249 297 354
#     4  11  19  40  67  91 122 161 193 253 308 358
#
# _framework density 24.910260000000001
#
# number of rings (size 3 to 8) (size 9 to 14) (size 15 to 20)
#    0.000    1.250    5.000    3.000    7.000    2.500 
#    0.000    2.500    0.000    0.000    0.000    0.000 
#    0.000    0.000    0.000    0.000    0.000    0.000 
#
# Total GULP energy -89413.745991 kJ/mol
# GULP energy per Si atom -5588.359124 kJ/mol
# Density = 2.485356 g / cm^3
# Si number density = 24.910260 Si / 1000 Ang^3
#
#
#
# Elastic Constant Matrix: (Units=GPa)
#
#
# Indices 1 2 3 4 5 6 
#
# 1 47.5684 0.8800 18.0655 -4.1591 4.9849 10.3289
# 2 0.8800 129.9245 37.1893 8.2354 11.4590 -6.9513
# 3 18.0655 37.1893 118.2468 11.0975 43.0272 -4.3779
# 4 -4.1591 8.2354 11.0975 45.0732 0.5314 12.0189
# 5 4.9849 11.4590 43.0272 0.5314 43.9230 1.8330
# 6 10.3289 -6.9513 -4.3779 12.0189 1.8330 27.3164
#
#
#
# Elastic Compliance Matrix: (Units=1/GPa)
#
#
# Indices 1 2 3 4 5 6 
#
# 1 0.027367 0.000127 -0.007195 0.008337 0.004453 -0.015436
# 2 0.000127 0.008644 -0.002553 -0.001589 0.000149 0.002432
# 3 -0.007195 -0.002553 0.016860 -0.006474 -0.015316 0.008649
# 4 0.008337 -0.001589 -0.006474 0.029572 0.006205 -0.018022
# 5 0.004453 0.000149 -0.015316 0.006205 0.037542 -0.009350
# 6 -0.015436 0.002432 0.008649 -0.018022 -0.009350 0.053006
#
#
# Mechanical properties :
#
#
# Convention : Reuss Voigt Hill
#
# Bulk Modulus (GPa) = 29.73643 45.33438 37.53540
# Shear Modulus (GPa) = 24.57681 39.23619 31.90650
#
# Velocity S-wave (km/s) = 3.14445 3.97306 3.58279
# Velocity P-wave (km/s) = 5.01465 6.26782 5.67593
#
# Compressibility (1/GPa) = 0.03362879
#
# Stress axis : x y z
#
# Youngs Moduli (GPa) = 36.54098 115.68132 59.31113
#
# Poissons Ratio (x) = -0.01471 0.42675
# Poissons Ratio (y) = -0.00465 0.15144
# Poissons Ratio (z) = 0.26291 0.29537
#
# Static dielectric constant tensor:
#      x y z
#    x 2.039820 -0.002060 -0.022370 
#    y -0.002060 1.879640 -0.012680 
#    z -0.022370 -0.012680 2.083140 
# 
# From -- ./inp_files/238994.got.cif
#   From: 2010.05.17/outbox.cif.g08.bks.cpg/sg2_120_cif.got.tgz:238994.got - 2010.06.03 11:33:40.
