data_PCOD9088618
_publ_section_title
;
Structure prediction by ZEFSAII (Michael W. Deem and Ramdas Pophale) SiO2 
 PCOD9088618
Probable space group: P -1
;
_chemical_formula_sum "Si O2"
_cell_formula_units_Z 16
_cell_length_a 8.055773
_cell_length_b 7.488379
_cell_length_c 18.476700
_cell_angle_alpha 134.542332
_cell_angle_beta 116.882327
_cell_angle_gamma 56.192554
_cell_volume 656.473795
_symmetry_space_group_name_H-M "P -1"
_symmetry_group_IT_number 2
_symmetry_cell_setting 'triclinic'
loop_
_space_group_symop_operation_xyz
x,y,z
-x,-y,-z
loop_
_atom_site_type_symbol
_atom_site_label
_atom_site_fract_x
_atom_site_fract_y
_atom_site_fract_z
Si Si1 0.786830 0.555156 0.936943
Si Si2 0.044505 0.452374 0.409920
Si Si3 0.692712 0.260196 0.438824
Si Si4 0.137717 0.146202 0.102866
Si Si5 0.642064 0.407921 0.300722
Si Si6 0.889982 0.717758 0.261841
Si Si7 0.576277 0.874128 0.117433
Si Si8 0.241289 0.851354 0.291745
O O1 0.788125 0.728759 0.915878
O O2 0.772703 0.287160 0.825770
O O3 0.619036 0.700515 0.003808
O O4 0.000000 0.500000 0.000000
O O5 0.127438 0.679263 0.469377
O O6 0.000000 0.500000 0.500000
O O7 0.846219 0.445766 0.331948
O O8 0.215969 0.155075 0.357388
O O9 0.500000 0.500000 0.500000
O O10 0.664447 0.335160 0.369215
O O11 0.754262 0.936239 0.355672
O O12 0.020192 0.397414 0.204004
O O13 0.349537 0.950395 0.121061
O O14 0.000000 0.000000 0.000000
O O15 0.446564 0.669655 0.319460
O O16 0.618932 0.146707 0.186221
O O17 0.737880 0.726362 0.168804
O O18 0.053562 0.840226 0.299256
#
# Coordination Sequence:
#
# PCOD9088618 Si02
#       8
#     2   2   2   2   2   2   2   2
#     4  11  20  38  64  92 123 163 208 259 301 360
#     4  10  19  37  62  88 115 150 205 255 298 364
#     4  10  22  42  63  87 125 164 199 250 317 373
#     4  11  24  39  61  91 127 166 211 248 312 378
#     4  10  20  36  66  88 117 158 201 251 310 355
#     4  10  20  41  65  84 126 162 206 253 321 359
#     4  11  19  39  65  89 121 167 205 261 306 363
#     4  11  19  35  63  90 118 152 210 248 305 355
#
# _framework density 24.372641000000002
#
# number of rings (size 3 to 8) (size 9 to 14) (size 15 to 20)
#    0.000    1.500    8.750    0.375    0.000    2.500 
#    2.250    4.375    0.000    0.000    0.000    0.000 
#    0.000    0.000    0.000    0.000    0.000    0.000 
#
# Total GULP energy -89459.148136 kJ/mol
# GULP energy per Si atom -5591.196758 kJ/mol
# Density = 2.431717 g / cm^3
# Si number density = 24.372641 Si / 1000 Ang^3
#
#
#
# Elastic Constant Matrix: (Units=GPa)
#
#
# Indices 1 2 3 4 5 6 
#
# 1 59.4312 24.8379 35.3061 9.2340 -7.5483 -23.5124
# 2 24.8379 106.2849 20.5336 10.6046 -6.8682 -30.1247
# 3 35.3061 20.5336 137.2883 44.3521 -3.3774 -8.3958
# 4 9.2340 10.6046 44.3521 42.1895 -15.6726 0.3263
# 5 -7.5483 -6.8682 -3.3774 -15.6726 37.6339 0.4476
# 6 -23.5124 -30.1247 -8.3958 0.3263 0.4476 44.1773
#
#
#
# Elastic Compliance Matrix: (Units=1/GPa)
#
#
# Indices 1 2 3 4 5 6 
#
# 1 0.026318 -0.001557 -0.007019 0.004130 0.005947 0.011521
# 2 -0.001557 0.012210 -0.000233 -0.002212 0.000885 0.007461
# 3 -0.007019 -0.000233 0.013890 -0.015462 -0.006630 -0.001073
# 4 0.004130 -0.002212 -0.015462 0.046475 0.018425 -0.002779
# 5 0.005947 0.000885 -0.006630 0.018425 0.034980 0.002019
# 6 0.011521 0.007461 -0.001073 -0.002779 0.002019 0.033651
#
#
# Mechanical properties :
#
#
# Convention : Reuss Voigt Hill
#
# Bulk Modulus (GPa) = 28.73456 51.59552 40.16504
# Shear Modulus (GPa) = 25.41398 39.62191 32.51795
#
# Velocity S-wave (km/s) = 3.23263 4.03634 3.65663
# Velocity P-wave (km/s) = 5.07429 6.55272 5.86031
#
# Compressibility (1/GPa) = 0.03480130
#
# Stress axis : x y z
#
# Youngs Moduli (GPa) = 37.99692 81.90011 71.99341
#
# Poissons Ratio (x) = 0.12749 0.50529
# Poissons Ratio (y) = 0.05915 0.01679
# Poissons Ratio (z) = 0.26668 0.01910
#
# Static dielectric constant tensor:
#      x y z
#    x 1.977150 0.002240 -0.008450 
#    y 0.002240 1.966480 0.010750 
#    z -0.008450 0.010750 1.945890 
# 
# From -- ./inp_files/356540.got.cif
#   From: 2010.05.17/outbox.cif.g08.bks.cpg/sg2_179_cif.got.tgz:356540.got - 2010.06.03 11:33:40.
