data_PCOD9088246
_publ_section_title
;
Structure prediction by ZEFSAII (Michael W. Deem and Ramdas Pophale) SiO2 
 PCOD9088246
Probable space group: P -1
;
_chemical_formula_sum "Si O2"
_cell_formula_units_Z 14
_cell_length_a 14.457735
_cell_length_b 15.071544
_cell_length_c 16.733290
_cell_angle_alpha 39.980409
_cell_angle_beta 141.742579
_cell_angle_gamma 159.918913
_cell_volume 768.054855
_symmetry_space_group_name_H-M "P -1"
_symmetry_group_IT_number 2
_symmetry_cell_setting 'triclinic'
loop_
_space_group_symop_operation_xyz
x,y,z
-x,-y,-z
loop_
_atom_site_type_symbol
_atom_site_label
_atom_site_fract_x
_atom_site_fract_y
_atom_site_fract_z
Si Si1 0.188944 0.474630 0.961535
Si Si2 0.640485 0.317048 0.335647
Si Si3 0.552225 0.021959 0.803102
Si Si4 0.734883 0.223833 0.613976
Si Si5 0.750125 0.752527 0.941678
Si Si6 0.170201 0.486202 0.121473
Si Si7 0.368593 0.011904 0.840714
O O1 0.177426 0.319149 0.016608
O O2 0.282752 0.546562 0.067773
O O3 0.395687 0.750920 0.870251
O O4 0.859009 0.255391 0.891765
O O5 0.716833 0.342174 0.462057
O O6 0.404164 0.248333 0.212301
O O7 0.939610 0.574016 0.314778
O O8 0.484840 0.060697 0.372134
O O9 0.632047 0.158378 0.680174
O O10 0.361227 0.947547 0.790884
O O11 0.500000 0.500000 0.000000
O O12 0.000000 0.000000 0.000000
O O13 0.420320 0.696556 0.208298
O O14 0.937569 0.195354 0.190753
O O15 0.000000 0.500000 0.000000
O O16 0.500000 0.000000 0.000000
#
# Coordination Sequence:
#
# PCOD9088246 Si02
#       7
#     2   2   2   2   2   2   2
#     4  12  21  30  51  74 108 138 166 206 266 319
#     4  10  21  40  52  72 105 133 180 219 262 297
#     4  12  19  30  50  80 102 129 177 207 260 317
#     4  10  21  35  58  73  95 142 176 226 254 297
#     4  12  24  37  52  77 108 142 171 214 261 320
#     4  10  16  30  43  69 102 134 160 203 261 309
#     4  10  16  28  44  67 108 128 151 217 257 303
#
# _framework density 18.227864
#
# number of rings (size 3 to 8) (size 9 to 14) (size 15 to 20)
#    0.000    1.143    5.714    5.143    0.000    0.000 
#    0.000    0.000    0.000    0.000    0.000    2.000 
#    0.000    0.000    0.000    0.000    0.000    0.000 
#
# Total GULP energy -77941.036556 kJ/mol
# GULP energy per Si atom -5567.216897 kJ/mol
# Density = 1.818638 g / cm^3
# Si number density = 18.227864 Si / 1000 Ang^3
#
#
#
# Elastic Constant Matrix: (Units=GPa)
#
#
# Indices 1 2 3 4 5 6 
#
# 1 83.4835 13.9422 35.0494 -2.9773 -28.0129 -7.4982
# 2 13.9422 121.9655 11.5593 2.2058 -4.6876 5.7060
# 3 35.0494 11.5593 60.7038 1.8867 -15.5929 0.9658
# 4 -2.9773 2.2058 1.8867 18.0405 6.4957 -7.9883
# 5 -28.0129 -4.6876 -15.5929 6.4957 22.3346 -2.0716
# 6 -7.4982 5.7060 0.9658 -7.9883 -2.0716 32.3871
#
#
#
# Elastic Compliance Matrix: (Units=1/GPa)
#
#
# Indices 1 2 3 4 5 6 
#
# 1 0.025004 -0.001464 -0.007295 -0.001267 0.027042 0.007682
# 2 -0.001464 0.008582 -0.000707 -0.002239 -0.000099 -0.002388
# 3 -0.007295 -0.000707 0.023531 -0.008600 0.009280 -0.003794
# 4 -0.001267 -0.002239 -0.008600 0.073916 -0.028002 0.016798
# 5 0.027042 -0.000099 0.009280 -0.028002 0.093766 0.005092
# 6 0.007682 -0.002388 -0.003794 0.016798 0.005092 0.037658
#
#
# Mechanical properties :
#
#
# Convention : Reuss Voigt Hill
#
# Bulk Modulus (GPa) = 26.18737 43.02829 34.60783
# Shear Modulus (GPa) = 17.00007 28.25921 22.62964
#
# Velocity S-wave (km/s) = 3.05723 3.94170 3.52730
# Velocity P-wave (km/s) = 5.18267 6.66130 5.96796
#
# Compressibility (1/GPa) = 0.03818635
#
# Stress axis : x y z
#
# Youngs Moduli (GPa) = 39.99300 116.52549 42.49671
#
# Poissons Ratio (x) = 0.17060 0.31001
# Poissons Ratio (y) = 0.05855 0.03003
# Poissons Ratio (z) = 0.29174 0.08234
#
# Static dielectric constant tensor:
#      x y z
#    x 1.627630 -0.019720 0.026480 
#    y -0.019720 1.188770 0.045070 
#    z 0.026480 0.045070 1.667340 
# 
# From -- ./inp_files/485749.got.cif
#   From: 2010.05.17/outbox.cif.g08.bks.cpg/sg2_243_cif.got.tgz:485749.got - 2010.06.03 11:33:40.
