data_PCOD9088516
_publ_section_title
;
Structure prediction by ZEFSAII (Michael W. Deem and Ramdas Pophale) SiO2 
 PCOD9088516
Probable space group: P -1
;
_chemical_formula_sum "Si O2"
_cell_formula_units_Z 16
_cell_length_a 26.543918
_cell_length_b 9.014472
_cell_length_c 5.074716
_cell_angle_alpha 105.889683
_cell_angle_beta 95.683220
_cell_angle_gamma 31.086181
_cell_volume 580.146395
_symmetry_space_group_name_H-M "P -1"
_symmetry_group_IT_number 2
_symmetry_cell_setting 'triclinic'
loop_
_space_group_symop_operation_xyz
x,y,z
-x,-y,-z
loop_
_atom_site_type_symbol
_atom_site_label
_atom_site_fract_x
_atom_site_fract_y
_atom_site_fract_z
Si Si1 0.013895 0.634855 0.687719
Si Si2 0.342123 0.824482 0.653612
Si Si3 0.155954 0.169258 0.949040
Si Si4 0.296780 0.667624 0.169437
Si Si5 0.494707 0.864869 0.117195
Si Si6 0.560357 0.155170 0.447106
Si Si7 0.926729 0.214805 0.321734
Si Si8 0.175074 0.790559 0.464014
O O1 0.000000 0.500000 0.500000
O O2 0.049510 0.518233 0.954507
O O3 0.098068 0.536366 0.579376
O O4 0.911315 0.983910 0.697379
O O5 0.334325 0.692302 0.410283
O O6 0.456805 0.511314 0.673007
O O7 0.348224 0.965345 0.558487
O O8 0.241279 0.074482 0.893430
O O9 0.166711 0.977433 0.702072
O O10 0.191876 0.010577 0.170101
O O11 0.384853 0.450287 0.894250
O O12 0.277212 0.552224 0.231339
O O13 0.456698 0.843754 0.866731
O O14 0.433046 0.003222 0.421445
O O15 0.500000 0.000000 0.000000
O O16 0.842475 0.305657 0.391635
O O17 0.000000 0.000000 0.500000
O O18 0.000000 0.000000 0.000000
#
# Coordination Sequence:
#
# PCOD9088516 Si02
#       8
#     2   2   2   2   2   2   2   2
#     4   9  20  41  65  97 124 168 219 271 318 380
#     4   9  20  36  60  91 121 157 206 261 322 375
#     4  10  19  37  61  91 128 162 215 269 319 375
#     4  10  21  37  63  89 128 163 213 260 324 379
#     4  11  23  41  61  92 124 171 212 258 311 391
#     4  10  21  38  67  86 121 163 209 258 320 379
#     4  10  22  43  65  90 125 167 217 262 321 386
#     4   9  21  39  61  90 125 175 210 259 324 388
#
# _framework density 27.579248
#
# number of rings (size 3 to 8) (size 9 to 14) (size 15 to 20)
#    0.000    2.250    1.250    0.375    5.250    2.000 
#   15.750    0.000    0.000    0.000    0.000    0.000 
#    0.000    0.000    0.000    0.000    0.000    0.000 
#
# Total GULP energy -89141.083191 kJ/mol
# GULP energy per Si atom -5571.317699 kJ/mol
# Density = 2.751648 g / cm^3
# Si number density = 27.579248 Si / 1000 Ang^3
#
#
#
# Elastic Constant Matrix: (Units=GPa)
#
#
# Indices 1 2 3 4 5 6 
#
# 1 248.5010 28.4097 73.1300 6.1296 -58.1008 -6.6403
# 2 28.4097 67.9098 26.4171 -23.8663 -3.0424 -1.9980
# 3 73.1300 26.4171 123.9871 -16.7314 -30.7295 -9.9277
# 4 6.1296 -23.8663 -16.7314 37.1961 -5.5499 -5.7780
# 5 -58.1008 -3.0424 -30.7295 -5.5499 67.5161 3.4688
# 6 -6.6403 -1.9980 -9.9277 -5.7780 3.4688 37.4330
#
#
#
# Elastic Compliance Matrix: (Units=1/GPa)
#
#
# Indices 1 2 3 4 5 6 
#
# 1 0.005987 -0.002520 -0.002596 -0.003327 0.003615 -0.000609
# 2 -0.002520 0.021085 -0.001132 0.013724 -0.000737 0.002565
# 3 -0.002596 -0.001132 0.011741 0.005986 0.003386 0.003203
# 4 -0.003327 0.013724 0.005986 0.040636 0.003426 0.007685
# 5 0.003615 -0.000737 0.003386 0.003426 0.019701 0.000203
# 6 -0.000609 0.002565 0.003203 0.007685 0.000203 0.028760
#
#
# Mechanical properties :
#
#
# Convention : Reuss Voigt Hill
#
# Bulk Modulus (GPa) = 37.99617 77.36795 57.68206
# Shear Modulus (GPa) = 33.51673 49.25847 41.38760
#
# Velocity S-wave (km/s) = 3.48988 4.23078 3.87806
# Velocity P-wave (km/s) = 5.48142 7.20970 6.40413
#
# Compressibility (1/GPa) = 0.02631844
#
# Stress axis : x y z
#
# Youngs Moduli (GPa) = 167.02316 47.42640 85.16948
#
# Poissons Ratio (x) = 0.11951 0.22112
# Poissons Ratio (y) = 0.42087 0.09638
# Poissons Ratio (z) = 0.43363 0.05367
#
# Static dielectric constant tensor:
#      x y z
#    x 2.242480 0.059010 -0.088150 
#    y 0.059010 2.343770 0.104480 
#    z -0.088150 0.104480 2.183830 
# 
# From -- ./inp_files/122501.got.cif
#   From: 2010.05.17/outbox.cif.g08.bks.cpg/sg2_62_cif.got.tgz:122501.got - 2010.06.03 11:33:40.
