data_PCOD9088947
_publ_section_title
;
Structure prediction by ZEFSAII (Michael W. Deem and Ramdas Pophale) SiO2 
 PCOD9088947
Probable space group: P -1
;
_chemical_formula_sum "Si O2"
_cell_formula_units_Z 16
_cell_length_a 7.588316
_cell_length_b 6.063755
_cell_length_c 17.553141
_cell_angle_alpha 60.585311
_cell_angle_beta 74.641935
_cell_angle_gamma 100.128309
_cell_volume 631.842790
_symmetry_space_group_name_H-M "P -1"
_symmetry_group_IT_number 2
_symmetry_cell_setting 'triclinic'
loop_
_space_group_symop_operation_xyz
x,y,z
-x,-y,-z
loop_
_atom_site_type_symbol
_atom_site_label
_atom_site_fract_x
_atom_site_fract_y
_atom_site_fract_z
Si Si1 0.296394 0.649909 0.009606
Si Si2 0.947784 0.087195 0.396612
Si Si3 0.345809 0.145558 0.156108
Si Si4 0.764828 0.574518 0.597275
Si Si5 0.353798 0.986026 0.353616
Si Si6 0.379871 0.493335 0.723575
Si Si7 0.093015 0.010205 0.756776
Si Si8 0.124499 0.462107 0.901875
O O1 0.498030 0.876725 0.919508
O O2 0.217505 0.464838 0.973382
O O3 0.345196 0.452531 0.096878
O O4 0.108084 0.718259 0.044318
O O5 0.785899 0.839438 0.499554
O O6 0.914036 0.096831 0.310263
O O7 0.148607 0.021613 0.387006
O O8 0.027829 0.357829 0.393599
O O9 0.405163 0.091402 0.242868
O O10 0.116657 0.971593 0.201789
O O11 0.701792 0.331423 0.586165
O O12 0.593621 0.471745 0.698176
O O13 0.538707 0.177799 0.348081
O O14 0.257116 0.301421 0.703917
O O15 0.249071 0.406011 0.828819
O O16 0.129447 0.772608 0.840508
#
# Coordination Sequence:
#
# PCOD9088947 Si02
#       8
#     2   2   2   2   2   2   2   2
#     4   9  18  36  65  84 115 160 211 257 295 356
#     4   9  21  40  62  93 122 153 203 258 291 359
#     4   9  18  36  63  86 112 156 206 259 291 344
#     4  10  21  39  65  91 119 159 204 247 307 357
#     4  10  19  37  64  86 122 163 198 246 306 362
#     4  11  22  36  57  88 126 163 198 243 301 369
#     4  10  22  38  60  88 126 161 197 248 305 363
#     4  10  20  38  61  84 120 167 199 250 311 355
#
# _framework density 25.322755999999998
#
# number of rings (size 3 to 8) (size 9 to 14) (size 15 to 20)
#    0.000    2.250    1.250    1.125    0.000    2.500 
#    0.000    7.500    0.000    0.000    0.000    0.000 
#    0.000    0.000    0.000    0.000    0.000    0.000 
#
# Total GULP energy -89289.758571 kJ/mol
# GULP energy per Si atom -5580.609911 kJ/mol
# Density = 2.526512 g / cm^3
# Si number density = 25.322756 Si / 1000 Ang^3
#
#
#
# Elastic Constant Matrix: (Units=GPa)
#
#
# Indices 1 2 3 4 5 6 
#
# 1 87.2239 12.0851 31.4399 -9.3925 -27.3813 10.1756
# 2 12.0851 76.3682 11.2383 -17.7832 -6.8860 31.1450
# 3 31.4399 11.2383 105.5772 -1.2728 -19.8593 2.8368
# 4 -9.3925 -17.7832 -1.2728 28.4492 -4.2836 -13.7347
# 5 -27.3813 -6.8860 -19.8593 -4.2836 35.7276 2.0749
# 6 10.1756 31.1450 2.8368 -13.7347 2.0749 30.3803
#
#
#
# Elastic Compliance Matrix: (Units=1/GPa)
#
#
# Indices 1 2 3 4 5 6 
#
# 1 0.017952 0.003242 -0.002783 0.006520 0.014029 -0.007088
# 2 0.003242 0.024902 -0.001244 0.006160 0.008743 -0.024311
# 3 -0.002783 -0.001244 0.011109 -0.000251 0.003726 0.000802
# 4 0.006520 0.006160 -0.000251 0.049076 0.011176 0.012948
# 5 0.014029 0.008743 0.003726 0.011176 0.044534 -0.011999
# 6 -0.007088 -0.024311 0.000802 0.012948 -0.011999 0.066811
#
#
# Mechanical properties :
#
#
# Convention : Reuss Voigt Hill
#
# Bulk Modulus (GPa) = 19.08646 42.07733 30.58189
# Shear Modulus (GPa) = 21.42082 33.20516 27.31299
#
# Velocity S-wave (km/s) = 2.91161 3.62508 3.28776
# Velocity P-wave (km/s) = 4.34246 5.84586 5.14932
#
# Compressibility (1/GPa) = 0.05239317
#
# Stress axis : x y z
#
# Youngs Moduli (GPa) = 55.70537 40.15764 90.01586
#
# Poissons Ratio (x) = -0.13021 0.25051
# Poissons Ratio (y) = -0.18062 0.11199
# Poissons Ratio (z) = 0.15503 0.04996
#
# Static dielectric constant tensor:
#      x y z
#    x 2.023010 -0.024060 -0.035840 
#    y -0.024060 2.189240 0.025710 
#    z -0.035840 0.025710 2.018680 
# 
# From -- ./inp_files/553352.got.cif
#   From: 2010.05.17/outbox.cif.g08.bks.cpg/sg2_277_cif.got.tgz:553352.got - 2010.06.03 11:33:40.
