data_PCOD9088929
_publ_section_title
;
Structure prediction by ZEFSAII (Michael W. Deem and Ramdas Pophale) SiO2 
 PCOD9088929
Probable space group: P -1
;
_chemical_formula_sum "Si O2"
_cell_formula_units_Z 16
_cell_length_a 8.712841
_cell_length_b 23.903453
_cell_length_c 9.326586
_cell_angle_alpha 26.891147
_cell_angle_beta 118.147583
_cell_angle_gamma 128.593002
_cell_volume 666.724918
_symmetry_space_group_name_H-M "P -1"
_symmetry_group_IT_number 2
_symmetry_cell_setting 'triclinic'
loop_
_space_group_symop_operation_xyz
x,y,z
-x,-y,-z
loop_
_atom_site_type_symbol
_atom_site_label
_atom_site_fract_x
_atom_site_fract_y
_atom_site_fract_z
Si Si1 0.677085 0.446007 0.938387
Si Si2 0.256854 0.249693 0.347511
Si Si3 0.429117 0.687050 0.095102
Si Si4 0.395077 0.190872 0.827554
Si Si5 0.188726 0.859233 0.564786
Si Si6 0.359245 0.901884 0.031865
Si Si7 0.228193 0.082596 0.453618
Si Si8 0.915541 0.276373 0.470731
O O1 0.463683 0.386102 0.064616
O O2 0.676154 0.442594 0.770100
O O3 0.762798 0.338853 0.255272
O O4 0.855954 0.597311 0.726258
O O5 0.248690 0.123502 0.535715
O O6 0.037957 0.231544 0.262149
O O7 0.264099 0.216731 0.593505
O O8 0.494200 0.683547 0.293832
O O9 0.310602 0.777264 0.845954
O O10 0.642225 0.777214 0.901412
O O11 0.284552 0.033205 0.219648
O O12 0.559261 0.189825 0.796848
O O13 0.155140 0.833938 0.437492
O O14 0.135389 0.805773 0.214931
O O15 0.500000 0.000000 0.000000
O O16 0.341745 0.994661 0.686470
O O17 0.000000 0.000000 0.500000
#
# Coordination Sequence:
#
# PCOD9088929 Si02
#       8
#     2   2   2   2   2   2   2   2
#     4   9  20  40  60  82 113 160 204 233 283 345
#     4  11  22  36  58  88 118 153 195 242 285 343
#     4  10  22  38  57  85 121 156 188 238 292 350
#     4  12  21  35  60  90 123 146 190 245 291 346
#     4  11  21  34  59  89 117 150 192 241 297 340
#     4  12  19  37  62  91 116 152 195 237 292 350
#     4  11  22  37  58  87 123 155 190 236 295 353
#     4  10  19  37  64  83 113 158 200 239 283 347
#
# _framework density 23.997900999999999
#
# number of rings (size 3 to 8) (size 9 to 14) (size 15 to 20)
#    0.000    1.250    5.000    2.250    1.750    1.500 
#    0.000    0.625    0.000    6.750    0.000    0.000 
#    0.000    0.000    0.000    0.000    0.000    0.000 
#
# Total GULP energy -89285.476819 kJ/mol
# GULP energy per Si atom -5580.342301 kJ/mol
# Density = 2.394328 g / cm^3
# Si number density = 23.997901 Si / 1000 Ang^3
#
#
#
# Elastic Constant Matrix: (Units=GPa)
#
#
# Indices 1 2 3 4 5 6 
#
# 1 98.2846 8.4863 12.0226 2.5476 -6.9734 23.0543
# 2 8.4863 98.7922 16.5066 18.1279 1.4942 -1.5735
# 3 12.0226 16.5066 36.3913 2.4305 -4.4339 4.0538
# 4 2.5476 18.1279 2.4305 29.7508 4.4297 -8.0137
# 5 -6.9734 1.4942 -4.4339 4.4297 25.3978 -3.9948
# 6 23.0543 -1.5735 4.0538 -8.0137 -3.9948 44.2282
#
#
#
# Elastic Compliance Matrix: (Units=1/GPa)
#
#
# Indices 1 2 3 4 5 6 
#
# 1 0.012285 -0.000222 -0.002765 -0.002781 0.002374 -0.006448
# 2 -0.000222 0.012284 -0.005051 -0.007065 -0.000482 -0.000308
# 3 -0.002765 -0.005051 0.031438 -0.000314 0.004887 -0.001235
# 4 -0.002781 -0.007065 -0.000314 0.041316 -0.006328 0.008142
# 5 0.002374 -0.000482 0.004887 -0.006328 0.042161 0.000959
# 6 -0.006448 -0.000308 -0.001235 0.008142 0.000959 0.027635
#
#
# Mechanical properties :
#
#
# Convention : Reuss Voigt Hill
#
# Bulk Modulus (GPa) = 25.04299 34.16659 29.60479
# Shear Modulus (GPa) = 25.44471 32.97219 29.20845
#
# Velocity S-wave (km/s) = 3.25974 3.71072 3.49252
# Velocity P-wave (km/s) = 4.96246 5.71205 5.35040
#
# Compressibility (1/GPa) = 0.03993134
#
# Stress axis : x y z
#
# Youngs Moduli (GPa) = 81.40140 81.40702 31.80902
#
# Poissons Ratio (x) = 0.01804 0.08795
# Poissons Ratio (y) = 0.01804 0.16067
# Poissons Ratio (z) = 0.22506 0.41120
#
# Static dielectric constant tensor:
#      x y z
#    x 1.970420 0.026380 -0.020190 
#    y 0.026380 1.945340 -0.006270 
#    z -0.020190 -0.006270 2.006760 
# 
# From -- ./inp_files/178201.got.cif
#   From: 2010.05.17/outbox.cif.g08.bks.cpg/sg2_90_cif.got.tgz:178201.got - 2010.06.03 11:33:40.
