data_PCOD9088437
_publ_section_title
;
Structure prediction by ZEFSAII (Michael W. Deem and Ramdas Pophale) SiO2 
 PCOD9088437
Probable space group: P -1
;
_chemical_formula_sum "Si O2"
_cell_formula_units_Z 16
_cell_length_a 15.766817
_cell_length_b 19.432411
_cell_length_c 8.745331
_cell_angle_alpha 141.487376
_cell_angle_beta 56.402161
_cell_angle_gamma 151.954865
_cell_volume 692.939465
_symmetry_space_group_name_H-M "P -1"
_symmetry_group_IT_number 2
_symmetry_cell_setting 'triclinic'
loop_
_space_group_symop_operation_xyz
x,y,z
-x,-y,-z
loop_
_atom_site_type_symbol
_atom_site_label
_atom_site_fract_x
_atom_site_fract_y
_atom_site_fract_z
Si Si1 0.450924 0.139576 0.821284
Si Si2 0.424086 0.319566 0.344257
Si Si3 0.056713 0.909564 0.149978
Si Si4 0.845020 0.617177 0.568116
Si Si5 0.087206 0.707765 0.249647
Si Si6 0.857280 0.589534 0.020290
Si Si7 0.265078 0.659515 0.582492
Si Si8 0.655414 0.032445 0.045329
O O1 0.667130 0.384026 0.965471
O O2 0.315997 0.942018 0.493189
O O3 0.454075 0.074203 0.864223
O O4 0.351001 0.162026 0.015075
O O5 0.500000 0.500000 0.500000
O O6 0.618413 0.443645 0.447076
O O7 0.237910 0.166044 0.379499
O O8 0.191918 0.924909 0.039749
O O9 0.919461 0.771915 0.894211
O O10 0.937264 0.783184 0.210183
O O11 0.857148 0.508014 0.447416
O O12 0.973257 0.704809 0.443708
O O13 0.000000 0.500000 0.000000
O O14 0.044519 0.699356 0.101935
O O15 0.769569 0.454953 0.719630
O O16 0.225122 0.742449 0.704664
O O17 0.493119 0.872060 0.792386
#
# Coordination Sequence:
#
# PCOD9088437 Si02
#       8
#     2   2   2   2   2   2   2   2
#     4  11  23  45  60  95 136 167 222 273 312 391
#     4  11  23  46  74  94 120 169 225 285 334 374
#     4  10  23  41  63  97 128 169 221 273 317 392
#     4  11  21  42  64  96 132 167 227 266 313 397
#     4  12  25  38  64  98 142 182 209 253 330 393
#     4  11  25  37  60  92 137 171 209 260 327 379
#     4  10  21  33  62  88 126 175 213 256 317 375
#     4  10  19  37  61  86 128 174 221 257 306 378
#
# _framework density 23.090039000000001
#
# number of rings (size 3 to 8) (size 9 to 14) (size 15 to 20)
#    0.000    1.250    6.250    0.750    3.500    4.500 
#    0.000    0.625    0.000    3.750    0.000    0.000 
#    0.000    0.000    0.000    0.000    0.000    0.000 
#
# Total GULP energy -89151.457019 kJ/mol
# GULP energy per Si atom -5571.966064 kJ/mol
# Density = 2.303749 g / cm^3
# Si number density = 23.090039 Si / 1000 Ang^3
#
#
#
# Elastic Constant Matrix: (Units=GPa)
#
#
# Indices 1 2 3 4 5 6 
#
# 1 69.7629 46.7485 59.8734 10.9653 8.0722 -23.0309
# 2 46.7485 117.6015 36.8189 11.9307 5.4773 -23.8500
# 3 59.8734 36.8189 70.4576 18.6879 20.5338 -2.8010
# 4 10.9653 11.9307 18.6879 27.0032 -1.4875 -8.0307
# 5 8.0722 5.4773 20.5338 -1.4875 45.3656 6.6333
# 6 -23.0309 -23.8500 -2.8010 -8.0307 6.6333 38.4584
#
#
#
# Elastic Compliance Matrix: (Units=1/GPa)
#
#
# Indices 1 2 3 4 5 6 
#
# 1 0.437299 -0.011322 -0.438439 0.210577 0.092210 0.250991
# 2 -0.011322 0.012055 0.004998 -0.004137 -0.001916 0.000526
# 3 -0.438439 0.004998 0.464174 -0.227003 -0.102797 -0.255325
# 4 0.210577 -0.004137 -0.227003 0.151904 0.051780 0.129795
# 5 0.092210 -0.001916 -0.102797 0.051780 0.046889 0.049270
# 6 0.250991 0.000526 -0.255325 0.129795 0.049270 0.176644
#
#
# Mechanical properties :
#
#
# Convention : Reuss Voigt Hill
#
# Bulk Modulus (GPa) = 41.66053 60.52263 51.09158
# Shear Modulus (GPa) = 2.28677 29.79084 16.03880
#
# Velocity S-wave (km/s) = 0.99625 3.59584 2.63842
# Velocity P-wave (km/s) = 4.40513 6.59610 5.60864
#
# Compressibility (1/GPa) = 0.02400354
#
# Stress axis : x y z
#
# Youngs Moduli (GPa) = 2.28676 82.95503 2.15436
#
# Poissons Ratio (x) = 0.93921 0.94456
# Poissons Ratio (y) = 0.02589 -0.01077
# Poissons Ratio (z) = 1.00261 -0.41462
#
# Static dielectric constant tensor:
#      x y z
#    x 1.878890 -0.056710 -0.008340 
#    y -0.056710 2.083350 0.050120 
#    z -0.008340 0.050120 1.889600 
# 
# From -- ./inp_files/337361.got.cif
#   From: 2010.05.17/outbox.cif.g08.bks.cpg/sg2_169_cif.got.tgz:337361.got - 2010.06.03 11:33:40.
