data_PCOD9088064
_publ_section_title
;
Structure prediction by ZEFSAII (Michael W. Deem and Ramdas Pophale) SiO2 
 PCOD9088064
Probable space group: P -1
;
_chemical_formula_sum "Si O2"
_cell_formula_units_Z 14
_cell_length_a 11.459059
_cell_length_b 7.100737
_cell_length_c 17.111999
_cell_angle_alpha 100.785878
_cell_angle_beta 137.526007
_cell_angle_gamma 52.187738
_cell_volume 644.611492
_symmetry_space_group_name_H-M "P -1"
_symmetry_group_IT_number 2
_symmetry_cell_setting 'triclinic'
loop_
_space_group_symop_operation_xyz
x,y,z
-x,-y,-z
loop_
_atom_site_type_symbol
_atom_site_label
_atom_site_fract_x
_atom_site_fract_y
_atom_site_fract_z
Si Si1 0.856468 0.629494 0.520417
Si Si2 0.817749 0.801996 0.218683
Si Si3 0.834791 0.862262 0.912735
Si Si4 0.483099 0.208596 0.330817
Si Si5 0.583608 0.324381 0.712893
Si Si6 0.253027 0.286901 0.997601
Si Si7 0.768216 0.320366 0.656521
O O1 0.639115 0.642694 0.413996
O O2 0.000000 0.500000 0.500000
O O3 0.039840 0.442386 0.667358
O O4 0.718861 0.942981 0.473009
O O5 0.995565 0.844050 0.293347
O O6 0.547648 0.075426 0.136717
O O7 0.780177 0.723551 0.111555
O O8 0.630801 0.867957 0.783265
O O9 0.519809 0.376853 0.315146
O O10 0.087356 0.588805 0.975767
O O11 0.731091 0.140686 0.847806
O O12 0.275686 0.433824 0.308405
O O13 0.836935 0.826536 0.003750
O O14 0.773029 0.173882 0.721030
O O15 0.500000 0.500000 0.500000
#
# Coordination Sequence:
#
# PCOD9088064 Si02
#       7
#     2   2   2   2   2   2   2
#     4  11  22  37  63  93 122 159 201 257 317 368
#     4  11  20  38  60  90 129 158 204 255 310 354
#     4  10  19  41  64  90 119 165 217 238 310 361
#     4   9  20  37  61  91 116 156 203 251 310 360
#     4   9  20  37  61  90 118 156 203 257 304 365
#     4  10  22  36  61  90 123 168 206 252 290 377
#     4  10  19  37  58  90 123 156 201 253 308 368
#
# _framework density 21.718506999999999
#
# number of rings (size 3 to 8) (size 9 to 14) (size 15 to 20)
#    0.857    1.143    2.857    1.714    0.000    2.286 
#    0.000    7.143    0.000    8.571    0.000    0.000 
#    0.000    0.000    0.000    0.000    0.000    0.000 
#
# Total GULP energy -78065.278878 kJ/mol
# GULP energy per Si atom -5576.091348 kJ/mol
# Density = 2.166907 g / cm^3
# Si number density = 21.718507 Si / 1000 Ang^3
#
#
#
# Elastic Constant Matrix: (Units=GPa)
#
#
# Indices 1 2 3 4 5 6 
#
# 1 139.9711 54.4004 68.3200 -25.7664 -10.5289 -2.7519
# 2 54.4004 50.0239 39.6935 -16.8526 0.0722 10.3663
# 3 68.3200 39.6935 137.0379 -27.4669 -18.0604 2.5203
# 4 -25.7664 -16.8526 -27.4669 33.1180 -4.1075 -4.0743
# 5 -10.5289 0.0722 -18.0604 -4.1075 45.1804 -8.5575
# 6 -2.7519 10.3663 2.5203 -4.0743 -8.5575 42.2478
#
#
#
# Elastic Compliance Matrix: (Units=1/GPa)
#
#
# Indices 1 2 3 4 5 6 
#
# 1 0.014911 -0.014569 -0.002026 0.003742 0.004140 0.005866
# 2 -0.014569 0.044206 -0.005502 0.004090 -0.007685 -0.012630
# 3 -0.002026 -0.005502 0.011827 0.006354 0.005257 0.002190
# 4 0.003742 0.004090 0.006354 0.042021 0.008088 0.004552
# 5 0.004140 -0.007685 0.005257 0.008088 0.027499 0.008192
# 6 0.005866 -0.012630 0.002190 0.004552 0.008192 0.029119
#
#
# Mechanical properties :
#
#
# Convention : Reuss Voigt Hill
#
# Bulk Modulus (GPa) = 37.38306 72.42897 54.90601
# Shear Modulus (GPa) = 22.45241 35.08383 28.76812
#
# Velocity S-wave (km/s) = 3.21875 4.02355 3.64344
# Velocity P-wave (km/s) = 5.57348 7.41665 6.56012
#
# Compressibility (1/GPa) = 0.02675008
#
# Stress axis : x y z
#
# Youngs Moduli (GPa) = 67.06371 22.62150 84.55041
#
# Poissons Ratio (x) = 0.32957 0.17133
# Poissons Ratio (y) = 0.97704 0.46519
# Poissons Ratio (z) = 0.13589 0.12446
#
# Static dielectric constant tensor:
#      x y z
#    x 1.828390 -0.005700 -0.018440 
#    y -0.005700 1.817510 0.022700 
#    z -0.018440 0.022700 1.898870 
# 
# From -- ./inp_files/566040.got.cif
#   From: 2010.05.17/outbox.cif.g08.bks.cpg/sg2_284_cif.got.tgz:566040.got - 2010.06.03 11:33:40.
