data_PCOD9088671
_publ_section_title
;
Structure prediction by ZEFSAII (Michael W. Deem and Ramdas Pophale) SiO2 
 PCOD9088671
Probable space group: P -1
;
_chemical_formula_sum "Si O2"
_cell_formula_units_Z 16
_cell_length_a 19.255849
_cell_length_b 9.084630
_cell_length_c 8.102078
_cell_angle_alpha 118.346055
_cell_angle_beta 111.431994
_cell_angle_gamma 30.100482
_cell_volume 622.266182
_symmetry_space_group_name_H-M "P -1"
_symmetry_group_IT_number 2
_symmetry_cell_setting 'triclinic'
loop_
_space_group_symop_operation_xyz
x,y,z
-x,-y,-z
loop_
_atom_site_type_symbol
_atom_site_label
_atom_site_fract_x
_atom_site_fract_y
_atom_site_fract_z
Si Si1 0.226019 0.329805 0.962275
Si Si2 0.259814 0.642582 0.803896
Si Si3 0.524756 0.271420 0.974872
Si Si4 0.909472 0.755901 0.198900
Si Si5 0.921958 0.483065 0.484569
Si Si6 0.579419 0.523291 0.630336
Si Si7 0.654252 0.857816 0.386688
Si Si8 0.142968 0.851818 0.186378
O O1 0.143710 0.651287 0.113034
O O2 0.162402 0.276246 0.811183
O O3 0.313616 0.229475 0.827524
O O4 0.320025 0.089878 0.068528
O O5 0.264964 0.450454 0.624497
O O6 0.203347 0.900908 0.784064
O O7 0.423824 0.346376 0.825008
O O8 0.182628 0.804666 0.002250
O O9 0.471660 0.364406 0.165626
O O10 0.500000 0.500000 0.000000
O O11 0.015588 0.652785 0.351932
O O12 0.000000 0.500000 0.000000
O O13 0.000000 0.500000 0.500000
O O14 0.755635 0.814544 0.512661
O O15 0.990705 0.210045 0.284980
O O16 0.500000 0.500000 0.500000
O O17 0.742527 0.265550 0.661560
O O18 0.506457 0.788091 0.576147
#
# Coordination Sequence:
#
# PCOD9088671 Si02
#       8
#     2   2   2   2   2   2   2   2
#     4  10  21  41  65  91 124 165 205 253 307 371
#     4  10  22  40  63  94 124 160 206 259 309 363
#     4  10  19  37  62  91 121 162 201 246 309 371
#     4  12  26  41  63  89 130 165 204 250 314 371
#     4  12  24  42  66  92 123 165 212 252 307 372
#     4  10  21  38  64  92 124 160 209 257 304 362
#     4  10  22  40  65  90 125 165 208 257 304 364
#     4  10  23  40  68  95 120 161 214 256 303 367
#
# _framework density 25.712467
#
# number of rings (size 3 to 8) (size 9 to 14) (size 15 to 20)
#    0.000    1.500    2.500    2.250    3.500    5.500 
#    0.000    0.000    0.000    3.000    0.000    0.000 
#    0.000    0.000    0.000    0.000    0.000    0.000 
#
# Total GULP energy -89309.930609 kJ/mol
# GULP energy per Si atom -5581.870663 kJ/mol
# Density = 2.565394 g / cm^3
# Si number density = 25.712467 Si / 1000 Ang^3
#
#
#
# Elastic Constant Matrix: (Units=GPa)
#
#
# Indices 1 2 3 4 5 6 
#
# 1 59.3166 27.2280 4.3243 -1.6912 13.3182 10.3507
# 2 27.2280 146.1057 20.4492 -20.4734 15.9621 17.3089
# 3 4.3243 20.4492 62.7208 -18.6856 7.3764 2.5292
# 4 -1.6912 -20.4734 -18.6856 29.9100 -5.8865 18.3008
# 5 13.3182 15.9621 7.3764 -5.8865 32.2693 -3.0283
# 6 10.3507 17.3089 2.5292 18.3008 -3.0283 47.8178
#
#
#
# Elastic Compliance Matrix: (Units=1/GPa)
#
#
# Indices 1 2 3 4 5 6 
#
# 1 0.020442 -0.002341 0.000872 0.001444 -0.007652 -0.004661
# 2 -0.002341 0.009976 0.000971 0.011475 -0.002822 -0.007726
# 3 0.000872 0.000971 0.022214 0.019762 -0.003203 -0.009481
# 4 0.001444 0.011475 0.019762 0.074462 -0.000400 -0.034035
# 5 -0.007652 -0.002822 -0.003203 -0.000400 0.036702 0.005325
# 6 -0.004661 -0.007726 -0.009481 -0.034035 0.005325 0.038583
#
#
# Mechanical properties :
#
#
# Convention : Reuss Voigt Hill
#
# Bulk Modulus (GPa) = 19.36654 41.34957 30.35806
# Shear Modulus (GPa) = 22.66672 36.40883 29.53778
#
# Velocity S-wave (km/s) = 2.97231 3.76706 3.39303
# Velocity P-wave (km/s) = 4.39634 5.91924 5.21369
#
# Compressibility (1/GPa) = 0.05163545
#
# Stress axis : x y z
#
# Youngs Moduli (GPa) = 48.91790 100.23697 45.01763
#
# Poissons Ratio (x) = 0.23467 -0.03925
# Poissons Ratio (y) = 0.11452 -0.04370
# Poissons Ratio (z) = -0.04265 -0.09731
#
# Static dielectric constant tensor:
#      x y z
#    x 2.602140 0.085550 0.172220 
#    y 0.085550 2.055540 -0.016100 
#    z 0.172220 -0.016100 2.134690 
# 
# From -- ./inp_files/217840.got.cif
#   From: 2010.05.17/outbox.cif.g08.bks.cpg/sg2_109_cif.got.tgz:217840.got - 2010.06.03 11:33:40.
