data_PCOD9088866
_publ_section_title
;
Structure prediction by ZEFSAII (Michael W. Deem and Ramdas Pophale) SiO2 
 PCOD9088866
Probable space group: P -1
;
_chemical_formula_sum "Si O2"
_cell_formula_units_Z 15
_cell_length_a 7.378267
_cell_length_b 17.998501
_cell_length_c 5.292536
_cell_angle_alpha 97.977118
_cell_angle_beta 80.843259
_cell_angle_gamma 62.529738
_cell_volume 597.310087
_symmetry_space_group_name_H-M "P -1"
_symmetry_group_IT_number 2
_symmetry_cell_setting 'triclinic'
loop_
_space_group_symop_operation_xyz
x,y,z
-x,-y,-z
loop_
_atom_site_type_symbol
_atom_site_label
_atom_site_fract_x
_atom_site_fract_y
_atom_site_fract_z
Si Si1 0.462869 0.939344 0.674459
Si Si2 0.838577 0.897388 0.960030
Si Si3 0.304423 0.212034 0.760124
Si Si4 0.348120 0.331037 0.181177
Si Si5 0.754406 0.524405 0.113359
Si Si6 0.000000 0.500000 0.500000
Si Si7 0.763952 0.268176 0.332316
Si Si8 0.140873 0.657342 0.158558
O O1 0.655255 0.908381 0.813316
O O2 0.499187 0.854464 0.481214
O O3 0.500000 0.000000 0.500000
O O4 0.240230 0.004967 0.885905
O O5 0.068477 0.834253 0.767575
O O6 0.809238 0.843355 0.167204
O O7 0.113089 0.298876 0.730021
O O8 0.369744 0.246640 0.002778
O O9 0.111934 0.398314 0.354423
O O10 0.523883 0.296704 0.339864
O O11 0.375821 0.389174 0.980291
O O12 0.770290 0.521590 0.410856
O O13 0.748736 0.445641 0.940476
O O14 0.000000 0.500000 0.000000
O O15 0.788092 0.307419 0.605415
O O16 0.823010 0.310458 0.103987
#
# Coordination Sequence:
#
# PCOD9088866 Si02
#       8
#     2   2   2   2   2   1   2   2
#     4   9  17  34  63  94 119 158 213 255 308 382
#     4   9  19  35  62  93 125 160 207 261 312 382
#     4  10  19  37  63  92 121 170 215 255 311 390
#     4  11  25  40  61  90 126 169 216 267 322 371
#     4  10  22  38  62  89 120 166 221 270 303 370
#     4  10  22  40  60  84 120 166 218 264 310 368
#     4  11  26  42  62  97 132 169 208 269 325 378
#     4  11  23  42  64  90 128 173 216 261 321 372
#
# _framework density 25.112587000000001
#
# number of rings (size 3 to 8) (size 9 to 14) (size 15 to 20)
#    0.000    1.867    4.000    0.000    5.600    2.133 
#    0.000    0.667    0.000    7.200    0.000    0.000 
#    0.000    0.000    0.000    0.000    0.000    0.000 
#
# Total GULP energy -83534.494264 kJ/mol
# GULP energy per Si atom -5568.966284 kJ/mol
# Density = 2.505543 g / cm^3
# Si number density = 25.112587 Si / 1000 Ang^3
#
#
#
# Elastic Constant Matrix: (Units=GPa)
#
#
# Indices 1 2 3 4 5 6 
#
# 1 45.1914 30.4008 17.0520 15.2834 3.4915 -24.9185
# 2 30.4008 120.2795 43.4270 25.5416 -9.7739 -17.4473
# 3 17.0520 43.4270 118.8139 24.3855 18.0374 -3.5828
# 4 15.2834 25.5416 24.3855 64.3206 3.8173 -1.3112
# 5 3.4915 -9.7739 18.0374 3.8173 35.8367 -5.7062
# 6 -24.9185 -17.4473 -3.5828 -1.3112 -5.7062 34.4329
#
#
#
# Elastic Compliance Matrix: (Units=1/GPa)
#
#
# Indices 1 2 3 4 5 6 
#
# 1 0.045049 -0.004398 -0.002626 -0.007427 0.001306 0.030033
# 2 -0.004398 0.012719 -0.004419 -0.002668 0.007021 0.003864
# 3 -0.002626 -0.004419 0.011752 -0.001726 -0.007349 -0.004201
# 4 -0.007427 -0.002668 -0.001726 0.019023 -0.002204 -0.006547
# 5 0.001306 0.007021 -0.007349 -0.002204 0.035135 0.009477
# 6 0.030033 0.003864 -0.004201 -0.006547 0.009477 0.053618
#
#
# Mechanical properties :
#
#
# Convention : Reuss Voigt Hill
#
# Bulk Modulus (GPa) = 21.44434 51.78269 36.61351
# Shear Modulus (GPa) = 23.17746 39.81172 31.49459
#
# Velocity S-wave (km/s) = 3.04129 3.98594 3.54522
# Velocity P-wave (km/s) = 4.57060 6.46905 5.60085
#
# Compressibility (1/GPa) = 0.04663236
#
# Stress axis : x y z
#
# Youngs Moduli (GPa) = 22.19821 78.62379 85.09169
#
# Poissons Ratio (x) = 0.34580 0.22345
# Poissons Ratio (y) = 0.09763 0.37605
# Poissons Ratio (z) = 0.05829 0.34747
#
# Static dielectric constant tensor:
#      x y z
#    x 2.042900 0.043980 -0.144280 
#    y 0.043980 2.018570 -0.020680 
#    z -0.144280 -0.020680 2.149050 
# 
# From -- ./inp_files/41725.got.cif
#   From: 2010.05.17/outbox.cif.g08.bks.cpg/sg2_21_cif.got.tgz:41725.got - 2010.06.03 11:33:40.
