data_PCOD9088997
_publ_section_title
;
Structure prediction by ZEFSAII (Michael W. Deem and Ramdas Pophale) SiO2 
 PCOD9088997
Probable space group: P -1
;
_chemical_formula_sum "Si O2"
_cell_formula_units_Z 14
_cell_length_a 10.588350
_cell_length_b 13.653999
_cell_length_c 8.707383
_cell_angle_alpha 29.913223
_cell_angle_beta 65.123634
_cell_angle_gamma 56.411261
_cell_volume 517.679070
_symmetry_space_group_name_H-M "P -1"
_symmetry_group_IT_number 2
_symmetry_cell_setting 'triclinic'
loop_
_space_group_symop_operation_xyz
x,y,z
-x,-y,-z
loop_
_atom_site_type_symbol
_atom_site_label
_atom_site_fract_x
_atom_site_fract_y
_atom_site_fract_z
Si Si1 0.617885 0.681299 0.300789
Si Si2 0.339442 0.815371 0.068028
Si Si3 0.194165 0.028056 0.533642
Si Si4 0.774399 0.575142 0.910751
Si Si5 0.117002 0.811394 0.407268
Si Si6 0.492515 0.732309 0.636766
Si Si7 0.958642 0.510429 0.329277
O O1 0.497340 0.809879 0.056337
O O2 0.639336 0.432450 0.615693
O O3 0.551645 0.743676 0.420701
O O4 0.781876 0.679884 0.191111
O O5 0.211466 0.919344 0.123240
O O6 0.279319 0.918121 0.797012
O O7 0.170200 0.275910 0.216511
O O8 0.025364 0.035849 0.625030
O O9 0.316797 0.896425 0.524060
O O10 0.618654 0.734571 0.691634
O O11 0.904742 0.463964 0.867254
O O12 0.769766 0.388506 0.275504
O O13 0.048737 0.701971 0.460174
O O14 0.500000 0.500000 0.000000
O O15 0.000000 0.500000 0.500000
#
# Coordination Sequence:
#
# PCOD9088997 Si02
#       7
#     2   2   2   2   2   2   2
#     4  10  21  39  65  95 130 176 214 270 328 395
#     4  10  21  42  69  96 130 173 225 265 337 392
#     4  11  23  41  67 102 132 172 224 274 327 399
#     4  11  24  45  67  98 135 178 216 275 339 394
#     4  10  23  43  69  94 135 178 220 267 339 397
#     4  12  23  41  67  98 136 173 223 272 335 391
#     4  10  19  37  64  91 127 170 222 262 321 381
#
# _framework density 27.043780999999999
#
# number of rings (size 3 to 8) (size 9 to 14) (size 15 to 20)
#    0.000    1.429    2.857    3.429    4.000    0.000 
#    2.571    9.286    0.000    0.000    0.000    0.000 
#    0.000    0.000    0.000    0.000    0.000    0.000 
#
# Total GULP energy -78501.209388 kJ/mol
# GULP energy per Si atom -5607.229242 kJ/mol
# Density = 2.698223 g / cm^3
# Si number density = 27.043781 Si / 1000 Ang^3
#
#
#
# Elastic Constant Matrix: (Units=GPa)
#
#
# Indices 1 2 3 4 5 6 
#
# 1 72.0339 23.4873 3.7517 -3.4463 23.6530 -15.7309
# 2 23.4873 190.2523 24.8235 14.4268 2.6103 -29.6894
# 3 3.7517 24.8235 83.7995 3.7685 27.2953 5.3559
# 4 -3.4463 14.4268 3.7685 44.8550 5.2506 2.6753
# 5 23.6530 2.6103 27.2953 5.2506 46.7706 0.5789
# 6 -15.7309 -29.6894 5.3559 2.6753 0.5789 48.7747
#
#
#
# Elastic Compliance Matrix: (Units=1/GPa)
#
#
# Indices 1 2 3 4 5 6 
#
# 1 0.019538 -0.002191 0.003275 0.003070 -0.012071 0.004583
# 2 -0.002191 0.006648 -0.002858 -0.002601 0.002651 0.003765
# 3 0.003275 -0.002858 0.016366 0.001246 -0.011158 -0.002417
# 4 0.003070 -0.002601 0.001246 0.023942 -0.004798 -0.001986
# 5 -0.012071 0.002651 -0.011158 -0.004798 0.034403 -0.001200
# 6 0.004583 0.003765 -0.002417 -0.001986 -0.001200 0.024661
#
#
# Mechanical properties :
#
#
# Convention : Reuss Voigt Hill
#
# Bulk Modulus (GPa) = 25.63893 50.02340 37.83116
# Shear Modulus (GPa) = 35.18459 47.68161 41.43310
#
# Velocity S-wave (km/s) = 3.61088 4.20352 3.91842
# Velocity P-wave (km/s) = 5.18515 6.48820 5.87292
#
# Compressibility (1/GPa) = 0.03900320
#
# Stress axis : x y z
#
# Youngs Moduli (GPa) = 51.18319 150.41914 61.10167
#
# Poissons Ratio (x) = 0.32963 -0.20013
# Poissons Ratio (y) = 0.11216 0.17465
# Poissons Ratio (z) = -0.16764 0.42994
#
# Static dielectric constant tensor:
#      x y z
#    x 2.159090 0.002830 -0.048620 
#    y 0.002830 2.142050 -0.038680 
#    z -0.048620 -0.038680 2.078880 
# 
# From -- ./inp_files/183066.got.cif
#   From: 2010.05.17/outbox.cif.g08.bks.cpg/sg2_92_cif.got.tgz:183066.got - 2010.06.03 11:33:40.
