data_PCOD9088405
_publ_section_title
;
Structure prediction by ZEFSAII (Michael W. Deem and Ramdas Pophale) SiO2 
 PCOD9088405
Probable space group: P -1
;
_chemical_formula_sum "Si O2"
_cell_formula_units_Z 14
_cell_length_a 13.193216
_cell_length_b 9.263310
_cell_length_c 10.718567
_cell_angle_alpha 55.631179
_cell_angle_beta 80.765473
_cell_angle_gamma 44.843694
_cell_volume 694.770560
_symmetry_space_group_name_H-M "P -1"
_symmetry_group_IT_number 2
_symmetry_cell_setting 'triclinic'
loop_
_space_group_symop_operation_xyz
x,y,z
-x,-y,-z
loop_
_atom_site_type_symbol
_atom_site_label
_atom_site_fract_x
_atom_site_fract_y
_atom_site_fract_z
Si Si1 0.911190 0.800463 0.002940
Si Si2 0.740034 0.392298 0.769894
Si Si3 0.567050 0.087012 0.514546
Si Si4 0.254326 0.258120 0.102608
Si Si5 0.698580 0.128980 0.256066
Si Si6 0.995505 0.345848 0.672989
Si Si7 0.570427 0.644856 0.952962
O O1 0.941820 0.679917 0.191728
O O2 0.082717 0.564206 0.018914
O O3 0.785488 0.847937 0.929604
O O4 0.846701 0.081225 0.892625
O O5 0.587714 0.589538 0.613202
O O6 0.671023 0.499631 0.872829
O O7 0.841438 0.430733 0.690726
O O8 0.690925 0.027180 0.431809
O O9 0.500000 0.000000 0.500000
O O10 0.652979 0.930092 0.701548
O O11 0.367323 0.267715 0.030510
O O12 0.608836 0.126368 0.171379
O O13 0.872127 0.952409 0.265478
O O14 0.598285 0.435187 0.129238
O O15 0.000000 0.500000 0.500000
#
# Coordination Sequence:
#
# PCOD9088405 Si02
#       7
#     2   2   2   2   2   2   2
#     4  11  23  39  60  92 118 162 195 249 297 360
#     4  11  21  39  66  86 120 157 210 235 295 355
#     4  11  20  39  63  89 117 162 199 245 288 358
#     4  11  22  39  62  85 125 159 200 238 308 351
#     4  10  20  32  61  89 115 142 207 240 292 337
#     4  12  22  35  62  94 116 148 202 257 285 351
#     4  10  19  37  61  85 112 162 193 242 287 365
#
# _framework density 20.150538000000001
#
# number of rings (size 3 to 8) (size 9 to 14) (size 15 to 20)
#    0.000    1.143    5.714    3.000    0.000    0.571 
#    0.000    2.143    0.000    5.143    0.000    0.000 
#    0.000    0.000    0.000    0.000    0.000    0.000 
#
# Total GULP energy -78109.906560 kJ/mol
# GULP energy per Si atom -5579.279040 kJ/mol
# Density = 2.010467 g / cm^3
# Si number density = 20.150538 Si / 1000 Ang^3
#
#
#
# Elastic Constant Matrix: (Units=GPa)
#
#
# Indices 1 2 3 4 5 6 
#
# 1 115.5854 15.8733 38.8104 12.1239 2.2841 -2.1208
# 2 15.8733 40.9750 10.9292 -6.2313 -1.5124 -10.7381
# 3 38.8104 10.9292 97.8683 -2.3441 -1.7995 12.4536
# 4 12.1239 -6.2313 -2.3441 22.0219 -4.1518 0.9938
# 5 2.2841 -1.5124 -1.7995 -4.1518 35.5478 3.6684
# 6 -2.1208 -10.7381 12.4536 0.9938 3.6684 32.6084
#
#
#
# Elastic Compliance Matrix: (Units=1/GPa)
#
#
# Indices 1 2 3 4 5 6 
#
# 1 0.011803 -0.004308 -0.004664 -0.008735 -0.002370 0.001663
# 2 -0.004308 0.031310 -0.002850 0.010756 0.001626 0.010608
# 3 -0.004664 -0.002850 0.013366 0.003862 0.001996 -0.006689
# 4 -0.008735 0.010756 0.003862 0.055186 0.007769 -0.001057
# 5 -0.002370 0.001626 0.001996 0.007769 0.029770 -0.003967
# 6 0.001663 0.010608 -0.006689 -0.001057 -0.003967 0.037302
#
#
# Mechanical properties :
#
#
# Convention : Reuss Voigt Hill
#
# Bulk Modulus (GPa) = 30.45627 42.85050 36.65339
# Shear Modulus (GPa) = 23.43830 30.62333 27.03081
#
# Velocity S-wave (km/s) = 3.41421 3.90260 3.66655
# Velocity P-wave (km/s) = 5.53982 6.45123 6.01282
#
# Compressibility (1/GPa) = 0.03283396
#
# Stress axis : x y z
#
# Youngs Moduli (GPa) = 84.72545 31.93843 74.81717
#
# Poissons Ratio (x) = 0.13761 0.34893
# Poissons Ratio (y) = 0.36504 0.21325
# Poissons Ratio (z) = 0.39514 0.09103
#
# Static dielectric constant tensor:
#      x y z
#    x 1.714650 -0.020140 0.008370 
#    y -0.020140 1.773470 -0.041790 
#    z 0.008370 -0.041790 1.738340 
# 
# From -- ./inp_files/201547.got.cif
#   From: 2010.05.17/outbox.cif.g08.bks.cpg/sg2_101_cif.got.tgz:201547.got - 2010.06.03 11:33:40.
