data_PCOD9088992
_publ_section_title
;
Structure prediction by ZEFSAII (Michael W. Deem and Ramdas Pophale) SiO2 
 PCOD9088992
Probable space group: P -1
;
_chemical_formula_sum "Si O2"
_cell_formula_units_Z 14
_cell_length_a 13.655352
_cell_length_b 9.703959
_cell_length_c 12.575348
_cell_angle_alpha 117.950255
_cell_angle_beta 114.777402
_cell_angle_gamma 119.947433
_cell_volume 665.195446
_symmetry_space_group_name_H-M "P -1"
_symmetry_group_IT_number 2
_symmetry_cell_setting 'triclinic'
loop_
_space_group_symop_operation_xyz
x,y,z
-x,-y,-z
loop_
_atom_site_type_symbol
_atom_site_label
_atom_site_fract_x
_atom_site_fract_y
_atom_site_fract_z
Si Si1 0.888957 0.357449 0.556456
Si Si2 0.240489 0.187536 0.245964
Si Si3 0.685900 0.587817 0.426338
Si Si4 0.336144 0.384782 0.127340
Si Si5 0.734593 0.111144 0.921635
Si Si6 0.039896 0.814798 0.630570
Si Si7 0.461105 0.886984 0.323687
O O1 0.858704 0.157310 0.408400
O O2 0.925155 0.541700 0.554903
O O3 0.689181 0.150699 0.464108
O O4 0.103878 0.619748 0.820446
O O5 0.500000 0.500000 0.500000
O O6 0.175713 0.194669 0.325812
O O7 0.225976 0.247550 0.145480
O O8 0.160732 0.911454 0.093616
O O9 0.571966 0.598787 0.331302
O O10 0.852022 0.700461 0.470578
O O11 0.483454 0.225840 0.240938
O O12 0.353622 0.582709 0.169544
O O13 0.215509 0.123347 0.894053
O O14 0.673857 0.158787 0.822491
O O15 0.500000 0.000000 0.500000
#
# Coordination Sequence:
#
# PCOD9088992 Si02
#       7
#     2   2   2   2   2   2   2
#     4  11  25  41  63  95 125 159 222 255 296 378
#     4   8  16  34  59  88 119 152 206 251 294 362
#     4  10  19  37  64  91 122 162 208 257 307 361
#     4  10  22  39  61  94 125 161 208 258 307 364
#     4  10  20  40  63  92 125 165 199 261 310 359
#     4  11  23  41  66  93 119 169 216 256 298 368
#     4  12  25  42  65  94 130 166 196 257 327 369
#
# _framework density 21.046447000000001
#
# number of rings (size 3 to 8) (size 9 to 14) (size 15 to 20)
#    0.000    2.000    4.286    2.571    0.000    5.714 
#    0.000    1.429    0.000    0.000    0.000    0.000 
#    0.000    0.000    0.000    0.000    0.000    0.000 
#
# Total GULP energy -78213.909627 kJ/mol
# GULP energy per Si atom -5586.707831 kJ/mol
# Density = 2.099854 g / cm^3
# Si number density = 21.046447 Si / 1000 Ang^3
#
#
#
# Elastic Constant Matrix: (Units=GPa)
#
#
# Indices 1 2 3 4 5 6 
#
# 1 68.8205 13.4338 3.1002 4.4036 -11.6394 19.9526
# 2 13.4338 66.6356 -2.8915 0.3000 0.9243 -14.9994
# 3 3.1002 -2.8915 66.2109 3.4156 -20.8275 10.9632
# 4 4.4036 0.3000 3.4156 17.1648 -10.2298 -4.5688
# 5 -11.6394 0.9243 -20.8275 -10.2298 35.1832 -3.8830
# 6 19.9526 -14.9994 10.9632 -4.5688 -3.8830 29.4932
#
#
#
# Elastic Compliance Matrix: (Units=1/GPa)
#
#
# Indices 1 2 3 4 5 6 
#
# 1 0.025341 -0.010612 0.004860 -0.010628 0.005662 -0.025248
# 2 -0.010612 0.021544 -0.002678 0.007480 -0.001266 0.020123
# 3 0.004860 -0.002678 0.020476 -0.000747 0.012396 -0.010745
# 4 -0.010628 0.007480 -0.000747 0.081587 0.022534 0.026878
# 5 0.005662 -0.001266 0.012396 0.022534 0.044245 0.000233
# 6 -0.025248 0.020123 -0.010745 0.026878 0.000233 0.069409
#
#
# Mechanical properties :
#
#
# Convention : Reuss Voigt Hill
#
# Bulk Modulus (GPa) = 19.80210 25.43911 22.62061
# Shear Modulus (GPa) = 16.87511 28.90322 22.88916
#
# Velocity S-wave (km/s) = 2.83468 3.70984 3.30139
# Velocity P-wave (km/s) = 4.48811 5.51941 5.03026
#
# Compressibility (1/GPa) = 0.05049970
#
# Stress axis : x y z
#
# Youngs Moduli (GPa) = 39.46242 46.41745 48.83809
#
# Poissons Ratio (x) = 0.49257 -0.23735
# Poissons Ratio (y) = 0.41876 0.13081
# Poissons Ratio (z) = -0.19179 0.12433
#
# Static dielectric constant tensor:
#      x y z
#    x 1.827800 0.017580 0.015520 
#    y 0.017580 1.755190 0.002150 
#    z 0.015520 0.002150 1.752340 
# 
# From -- ./inp_files/447865.got.cif
#   From: 2010.05.17/outbox.cif.g08.bks.cpg/sg2_224_cif.got.tgz:447865.got - 2010.06.03 11:33:40.
