data_PCOD9088482
_publ_section_title
;
Structure prediction by ZEFSAII (Michael W. Deem and Ramdas Pophale) SiO2 
 PCOD9088482
Probable space group: P -1
;
_chemical_formula_sum "Si O2"
_cell_formula_units_Z 14
_cell_length_a 12.208579
_cell_length_b 7.895393
_cell_length_c 9.989081
_cell_angle_alpha 71.329898
_cell_angle_beta 132.494430
_cell_angle_gamma 81.233519
_cell_volume 571.307574
_symmetry_space_group_name_H-M "P -1"
_symmetry_group_IT_number 2
_symmetry_cell_setting 'triclinic'
loop_
_space_group_symop_operation_xyz
x,y,z
-x,-y,-z
loop_
_atom_site_type_symbol
_atom_site_label
_atom_site_fract_x
_atom_site_fract_y
_atom_site_fract_z
Si Si1 0.579592 0.999612 0.240079
Si Si2 0.348509 0.589932 0.460305
Si Si3 0.434134 0.746628 0.064150
Si Si4 0.976640 0.668523 0.131022
Si Si5 0.767898 0.960483 0.655223
Si Si6 0.045480 0.019877 0.730412
Si Si7 0.969528 0.663092 0.550521
O O1 0.449829 0.924694 0.113100
O O2 0.610460 0.994973 0.423939
O O3 0.764045 0.819466 0.372756
O O4 0.531103 0.214429 0.069821
O O5 0.500000 0.500000 0.500000
O O6 0.428667 0.471580 0.697759
O O7 0.182410 0.570987 0.293555
O O8 0.284757 0.832161 0.358200
O O9 0.234571 0.819893 0.903836
O O10 0.941842 0.849273 0.166215
O O11 0.949097 0.492430 0.217889
O O12 0.857891 0.768247 0.878676
O O13 0.912201 0.949231 0.675335
O O14 0.974517 0.186110 0.507475
O O15 0.000000 0.500000 0.500000
#
# Coordination Sequence:
#
# PCOD9088482 Si02
#       7
#     2   2   2   2   2   2   2
#     4  10  22  39  62  91 121 161 199 258 300 360
#     4  11  21  38  64  88 121 167 202 246 305 371
#     4  10  20  39  65  82 123 163 204 236 313 371
#     4  10  19  37  61  89 120 163 199 246 300 372
#     4  11  23  38  63  93 128 151 207 259 301 345
#     4   9  19  37  64  91 115 163 203 248 297 367
#     4   9  18  35  61  87 117 155 205 238 296 363
#
# _framework density 24.505191
#
# number of rings (size 3 to 8) (size 9 to 14) (size 15 to 20)
#    0.000    2.000    1.429    3.429    0.000    3.429 
#    0.000    2.857   22.000    0.000    0.000    0.000 
#    0.000    0.000    0.000    0.000    0.000    0.000 
#
# Total GULP energy -78368.170663 kJ/mol
# GULP energy per Si atom -5597.726476 kJ/mol
# Density = 2.444942 g / cm^3
# Si number density = 24.505191 Si / 1000 Ang^3
#
#
#
# Elastic Constant Matrix: (Units=GPa)
#
#
# Indices 1 2 3 4 5 6 
#
# 1 79.3118 12.5413 45.9921 1.3864 -20.2668 -4.2724
# 2 12.5413 57.3057 15.5605 7.7887 -11.7340 0.9448
# 3 45.9921 15.5605 163.8931 1.4784 -58.4427 4.4291
# 4 1.3864 7.7887 1.4784 38.4605 3.6686 -3.6650
# 5 -20.2668 -11.7340 -58.4427 3.6686 49.8235 -7.0263
# 6 -4.2724 0.9448 4.4291 -3.6650 -7.0263 8.4427
#
#
#
# Elastic Compliance Matrix: (Units=1/GPa)
#
#
# Indices 1 2 3 4 5 6 
#
# 1 0.016782 -0.002241 -0.003345 0.000947 0.004355 0.014533
# 2 -0.002241 0.019318 0.000347 -0.004425 0.004089 -0.001995
# 3 -0.003345 0.000347 0.011430 -0.001384 0.012525 0.002096
# 4 0.000947 -0.004425 -0.001384 0.028292 -0.002710 0.011727
# 5 0.004355 0.004089 0.012525 -0.002710 0.041751 0.028745
# 6 0.014533 -0.001995 0.002096 0.011727 0.028745 0.153937
#
#
# Mechanical properties :
#
#
# Convention : Reuss Voigt Hill
#
# Bulk Modulus (GPa) = 26.98994 49.85540 38.42267
# Shear Modulus (GPa) = 16.98728 34.43978 25.71353
#
# Velocity S-wave (km/s) = 2.63575 3.75294 3.24282
# Velocity P-wave (km/s) = 4.50564 6.25847 5.45294
#
# Compressibility (1/GPa) = 0.03705084
#
# Stress axis : x y z
#
# Youngs Moduli (GPa) = 59.58902 51.76475 87.49254
#
# Poissons Ratio (x) = 0.11601 0.29266
# Poissons Ratio (y) = 0.13354 -0.03034
# Poissons Ratio (z) = 0.19933 -0.01795
#
# Static dielectric constant tensor:
#      x y z
#    x 1.966640 -0.027600 -0.016450 
#    y -0.027600 1.959560 0.030250 
#    z -0.016450 0.030250 1.954950 
# 
# From -- ./inp_files/520140.got.cif
#   From: 2010.05.17/outbox.cif.g08.bks.cpg/sg2_261_cif.got.tgz:520140.got - 2010.06.03 11:33:40.
