data_PCOD9088253
_publ_section_title
;
Structure prediction by ZEFSAII (Michael W. Deem and Ramdas Pophale) SiO2 
 PCOD9088253
Probable space group: P -1
;
_chemical_formula_sum "Si O2"
_cell_formula_units_Z 12
_cell_length_a 7.390057
_cell_length_b 8.407523
_cell_length_c 12.914648
_cell_angle_alpha 46.386719
_cell_angle_beta 55.411115
_cell_angle_gamma 64.766648
_cell_volume 477.458700
_symmetry_space_group_name_H-M "P -1"
_symmetry_group_IT_number 2
_symmetry_cell_setting 'triclinic'
loop_
_space_group_symop_operation_xyz
x,y,z
-x,-y,-z
loop_
_atom_site_type_symbol
_atom_site_label
_atom_site_fract_x
_atom_site_fract_y
_atom_site_fract_z
Si Si1 0.542974 0.350000 0.157717
Si Si2 0.675209 0.299128 0.551297
Si Si3 0.283215 0.862086 0.619540
Si Si4 0.984887 0.195837 0.996529
Si Si5 0.836987 0.062551 0.777958
Si Si6 0.909730 0.484694 0.706372
O O1 0.664308 0.359445 0.227969
O O2 0.734774 0.183276 0.125996
O O3 0.293379 0.344989 0.280099
O O4 0.500000 0.500000 0.000000
O O5 0.500000 0.500000 0.500000
O O6 0.727150 0.187264 0.475650
O O7 0.646033 0.118648 0.731204
O O8 0.894635 0.413270 0.463494
O O9 0.500000 0.000000 0.500000
O O10 0.062590 0.994718 0.672157
O O11 0.998919 0.408541 0.825261
O O12 0.162455 0.146908 0.051052
O O13 0.000000 0.000000 0.000000
O O14 0.840912 0.272108 0.759967
#
# Coordination Sequence:
#
# PCOD9088253 Si02
#       6
#     2   2   2   2   2   2
#     4   9  18  35  60  84 109 145 185 228 279 332
#     4  12  24  37  55  84 115 150 192 233 276 330
#     4  11  22  38  56  80 112 150 189 234 282 331
#     4   8  17  34  59  87 114 146 183 224 279 338
#     4  10  20  37  58  82 113 147 184 230 280 335
#     4  10  19  37  60  85 113 148 186 231 278 330
#
# _framework density 25.133064999999998
#
# number of rings (size 3 to 8) (size 9 to 14) (size 15 to 20)
#    0.000    2.000    0.000    4.000    0.000    0.000 
#    0.000   10.000    0.000    0.000    0.000    0.000 
#    0.000    0.000    0.000    0.000    0.000    0.000 
#
# Total GULP energy -66803.802082 kJ/mol
# GULP energy per Si atom -5566.983507 kJ/mol
# Density = 2.507586 g / cm^3
# Si number density = 25.133065 Si / 1000 Ang^3
#
#
#
# Elastic Constant Matrix: (Units=GPa)
#
#
# Indices 1 2 3 4 5 6 
#
# 1 80.1277 36.3634 53.2564 -14.0640 53.4516 -16.2085
# 2 36.3634 95.7966 39.7792 6.8787 12.0186 -24.8082
# 3 53.2564 39.7792 100.0715 0.3899 56.4358 -13.7847
# 4 -14.0640 6.8787 0.3899 38.0593 -11.0609 8.1239
# 5 53.4516 12.0186 56.4358 -11.0609 72.1533 -9.1621
# 6 -16.2085 -24.8082 -13.7847 8.1239 -9.1621 47.4831
#
#
#
# Elastic Compliance Matrix: (Units=1/GPa)
#
#
# Indices 1 2 3 4 5 6 
#
# 1 0.033190 -0.009432 -0.002965 0.008286 -0.019378 0.000384
# 2 -0.009432 0.017551 -0.005895 -0.005534 0.008698 0.006864
# 3 -0.002965 -0.005895 0.022491 -0.004718 -0.015094 0.000332
# 4 0.008286 -0.005534 -0.004718 0.032537 0.002638 -0.006491
# 5 -0.019378 0.008698 -0.015094 0.002638 0.039057 0.000633
# 6 0.000384 0.006864 0.000332 -0.006491 0.000633 0.026106
#
#
# Mechanical properties :
#
#
# Convention : Reuss Voigt Hill
#
# Bulk Modulus (GPa) = 27.28714 59.42153 43.35434
# Shear Modulus (GPa) = 22.75518 41.31226 32.03372
#
# Velocity S-wave (km/s) = 3.01223 4.05871 3.57398
# Velocity P-wave (km/s) = 4.79361 6.75709 5.85820
#
# Compressibility (1/GPa) = 0.03664730
#
# Stress axis : x y z
#
# Youngs Moduli (GPa) = 30.12992 56.97832 44.46286
#
# Poissons Ratio (x) = 0.53739 0.13183
# Poissons Ratio (y) = 0.28417 0.26212
# Poissons Ratio (z) = 0.08933 0.33591
#
# Static dielectric constant tensor:
#      x y z
#    x 2.007910 -0.017670 0.076710 
#    y -0.017670 1.863580 0.007150 
#    z 0.076710 0.007150 2.033520 
# 
# From -- ./inp_files/21803.got.cif
#   From: 2010.05.17/outbox.cif.g08.bks.cpg/sg2_11_cif.got.tgz:21803.got - 2010.06.03 11:33:40.
