data_PCOD9088301
_publ_section_title
;
Structure prediction by ZEFSAII (Michael W. Deem and Ramdas Pophale) SiO2 
 PCOD9088301
Probable space group: P -1
;
_chemical_formula_sum "Si O2"
_cell_formula_units_Z 16
_cell_length_a 7.968102
_cell_length_b 13.998589
_cell_length_c 12.202104
_cell_angle_alpha 137.204012
_cell_angle_beta 118.959893
_cell_angle_gamma 43.049685
_cell_volume 627.235351
_symmetry_space_group_name_H-M "P -1"
_symmetry_group_IT_number 2
_symmetry_cell_setting 'triclinic'
loop_
_space_group_symop_operation_xyz
x,y,z
-x,-y,-z
loop_
_atom_site_type_symbol
_atom_site_label
_atom_site_fract_x
_atom_site_fract_y
_atom_site_fract_z
Si Si1 0.904836 0.717242 0.914457
Si Si2 0.435699 0.382691 0.238042
Si Si3 0.988524 0.167503 0.741573
Si Si4 0.543320 0.221412 0.895205
Si Si5 0.104303 0.790164 0.495017
Si Si6 0.347780 0.104311 0.429426
Si Si7 0.589411 0.629824 0.257768
Si Si8 0.094596 0.993360 0.904402
O O1 0.766898 0.633320 0.793825
O O2 0.176640 0.577519 0.828613
O O3 0.928987 0.754557 0.080065
O O4 0.784490 0.908820 0.980597
O O5 0.350801 0.581643 0.394767
O O6 0.696016 0.216702 0.233817
O O7 0.461930 0.332862 0.074613
O O8 0.035635 0.179516 0.639549
O O9 0.688398 0.295756 0.756945
O O10 0.109305 0.958458 0.632355
O O11 0.388979 0.332789 0.832264
O O12 0.559097 0.044687 0.759386
O O13 0.828478 0.126838 0.873781
O O14 0.928938 0.809863 0.551075
O O15 0.379376 0.254369 0.552548
O O16 0.500000 0.000000 0.500000
O O17 0.000000 0.000000 0.000000
#
# Coordination Sequence:
#
# PCOD9088301 Si02
#       8
#     2   2   2   2   2   2   2   2
#     4  12  23  39  64  95 121 160 212 258 309 360
#     4  11  25  39  66  88 126 166 214 250 294 368
#     4  11  24  35  62  93 136 154 199 257 318 370
#     4  10  21  40  63  92 124 166 201 248 313 365
#     4  11  22  40  57  98 126 164 196 255 313 362
#     4  10  19  37  60  87 132 159 189 246 320 365
#     4  11  21  36  64  93 123 161 194 257 315 375
#     4  10  23  43  62  86 123 167 212 255 298 360
#
# _framework density 25.508766000000001
#
# number of rings (size 3 to 8) (size 9 to 14) (size 15 to 20)
#    0.000    1.250    5.000    1.500    7.000    1.000 
#    0.000    2.500    0.000    1.500    0.000    0.000 
#    0.000    0.000    0.000    0.000    0.000    0.000 
#
# Total GULP energy -89498.817319 kJ/mol
# GULP energy per Si atom -5593.676082 kJ/mol
# Density = 2.545071 g / cm^3
# Si number density = 25.508766 Si / 1000 Ang^3
#
#
#
# Elastic Constant Matrix: (Units=GPa)
#
#
# Indices 1 2 3 4 5 6 
#
# 1 89.1859 22.5483 23.5877 9.7655 -5.2530 -14.1895
# 2 22.5483 77.5066 24.6674 35.9463 9.2857 -13.0773
# 3 23.5877 24.6674 130.6510 35.0760 -1.4533 -13.3116
# 4 9.7655 35.9463 35.0760 47.5034 -3.0453 -7.2232
# 5 -5.2530 9.2857 -1.4533 -3.0453 39.8840 0.1832
# 6 -14.1895 -13.0773 -13.3116 -7.2232 0.1832 32.8317
#
#
#
# Elastic Compliance Matrix: (Units=1/GPa)
#
#
# Indices 1 2 3 4 5 6 
#
# 1 0.013253 -0.004126 -0.001873 0.002550 0.002815 0.003870
# 2 -0.004126 0.023518 0.001448 -0.017836 -0.007348 0.004288
# 3 -0.001873 0.001448 0.010032 -0.007851 -0.000827 0.002113
# 4 0.002550 -0.017836 -0.007851 0.040230 0.007276 -0.000375
# 5 0.002815 -0.007348 -0.000827 0.007276 0.027682 -0.000599
# 6 0.003870 0.004288 0.002113 -0.000375 -0.000599 0.034617
#
#
# Mechanical properties :
#
#
# Convention : Reuss Voigt Hill
#
# Bulk Modulus (GPa) = 26.52355 48.77225 37.64790
# Shear Modulus (GPa) = 29.23970 39.14649 34.19309
#
# Velocity S-wave (km/s) = 3.38932 3.92168 3.66518
# Velocity P-wave (km/s) = 5.07317 6.29821 5.71859
#
# Compressibility (1/GPa) = 0.03770234
#
# Stress axis : x y z
#
# Youngs Moduli (GPa) = 75.45208 42.52148 99.67819
#
# Poissons Ratio (x) = 0.17546 0.18665
# Poissons Ratio (y) = 0.31134 -0.14438
# Poissons Ratio (z) = 0.14129 -0.06159
#
# Static dielectric constant tensor:
#      x y z
#    x 2.063350 0.007880 0.031790 
#    y 0.007880 2.051400 -0.024030 
#    z 0.031790 -0.024030 2.095260 
# 
# From -- ./inp_files/504499.got.cif
#   From: 2010.05.17/outbox.cif.g08.bks.cpg/sg2_253_cif.got.tgz:504499.got - 2010.06.03 11:33:40.
