data_PCOD9088182
_publ_section_title
;
Structure prediction by ZEFSAII (Michael W. Deem and Ramdas Pophale) SiO2 
 PCOD9088182
Probable space group: P -1
;
_chemical_formula_sum "Si O2"
_cell_formula_units_Z 14
_cell_length_a 11.136045
_cell_length_b 9.914121
_cell_length_c 10.808051
_cell_angle_alpha 136.091031
_cell_angle_beta 129.693091
_cell_angle_gamma 72.833465
_cell_volume 605.577038
_symmetry_space_group_name_H-M "P -1"
_symmetry_group_IT_number 2
_symmetry_cell_setting 'triclinic'
loop_
_space_group_symop_operation_xyz
x,y,z
-x,-y,-z
loop_
_atom_site_type_symbol
_atom_site_label
_atom_site_fract_x
_atom_site_fract_y
_atom_site_fract_z
Si Si1 0.740704 0.761915 0.333231
Si Si2 0.333185 0.734776 0.798406
Si Si3 0.771371 0.092060 0.911750
Si Si4 0.675063 0.021399 0.259333
Si Si5 0.387818 0.660026 0.167321
Si Si6 0.087399 0.338420 0.396095
Si Si7 0.509565 0.688001 0.538892
O O1 0.562210 0.731982 0.257750
O O2 0.867803 0.786576 0.544635
O O3 0.774273 0.939850 0.371462
O O4 0.720415 0.549677 0.107101
O O5 0.246677 0.854255 0.728417
O O6 0.257891 0.496840 0.566238
O O7 0.297508 0.788573 0.948843
O O8 0.529020 0.827692 0.982097
O O9 0.699789 0.164035 0.789267
O O10 0.686240 0.856186 0.733735
O O11 0.964958 0.194025 0.123301
O O12 0.588641 0.172847 0.367089
O O13 0.421108 0.622777 0.306428
O O14 0.000000 0.500000 0.500000
O O15 0.500000 0.500000 0.500000
#
# Coordination Sequence:
#
# PCOD9088182 Si02
#       7
#     2   2   2   2   2   2   2
#     4  11  20  35  64  93 110 154 200 245 286 345
#     4   9  17  34  60  87 120 146 194 246 286 340
#     4  10  20  40  59  89 118 156 192 240 298 348
#     4  10  21  35  58  92 119 152 198 244 291 338
#     4  11  21  37  63  90 116 150 204 242 287 346
#     4  10  19  37  59  91 121 148 194 242 299 348
#     4  11  25  38  60  87 123 155 195 245 296 341
#
# _framework density 23.118445000000001
#
# number of rings (size 3 to 8) (size 9 to 14) (size 15 to 20)
#    0.000    1.714    5.714    1.286    8.000    0.000 
#    0.000    5.000    0.000    1.714    0.000    0.000 
#    0.000    0.000    0.000    0.000    0.000    0.000 
#
# Total GULP energy -78245.859596 kJ/mol
# GULP energy per Si atom -5588.989971 kJ/mol
# Density = 2.306583 g / cm^3
# Si number density = 23.118445 Si / 1000 Ang^3
#
#
#
# Elastic Constant Matrix: (Units=GPa)
#
#
# Indices 1 2 3 4 5 6 
#
# 1 26.3391 22.6325 16.7686 0.8666 -3.0614 -1.1792
# 2 22.6325 228.9337 62.7727 -13.1062 3.4278 14.7161
# 3 16.7686 62.7727 108.6511 6.3026 2.9454 0.9968
# 4 0.8666 -13.1062 6.3026 46.8834 -2.9391 -11.4355
# 5 -3.0614 3.4278 2.9454 -2.9391 23.4399 -2.1137
# 6 -1.1792 14.7161 0.9968 -11.4355 -2.1137 34.7011
#
#
#
# Elastic Compliance Matrix: (Units=1/GPa)
#
#
# Indices 1 2 3 4 5 6 
#
# 1 0.045235 -0.003348 -0.005299 0.000299 0.007431 0.003661
# 2 -0.003348 0.005701 -0.002820 0.001486 -0.000912 -0.002016
# 3 -0.005299 -0.002820 0.011854 -0.002482 -0.002105 -0.000271
# 4 0.000299 0.001486 -0.002482 0.024182 0.003856 0.007655
# 5 0.007431 -0.000912 -0.002105 0.003856 0.044939 0.004708
# 6 0.003661 -0.002016 -0.000271 0.007655 0.004708 0.032614
#
#
# Mechanical properties :
#
#
# Convention : Reuss Voigt Hill
#
# Bulk Modulus (GPa) = 25.09077 63.14129 44.11603
# Shear Modulus (GPa) = 24.90731 38.45488 31.68110
#
# Velocity S-wave (km/s) = 3.28590 4.08289 3.70588
# Velocity P-wave (km/s) = 5.02722 7.04258 6.11845
#
# Compressibility (1/GPa) = 0.03985530
#
# Stress axis : x y z
#
# Youngs Moduli (GPa) = 22.10679 175.42169 84.35855
#
# Poissons Ratio (x) = 0.58738 0.44703
# Poissons Ratio (y) = 0.07402 0.23786
# Poissons Ratio (z) = 0.11715 0.49463
#
# Static dielectric constant tensor:
#      x y z
#    x 1.978730 -0.018480 0.011440 
#    y -0.018480 1.893260 0.009860 
#    z 0.011440 0.009860 1.900960 
# 
# From -- ./inp_files/208307.got.cif
#   From: 2010.05.17/outbox.cif.g08.bks.cpg/sg2_105_cif.got.tgz:208307.got - 2010.06.03 11:33:40.
