data_PCOD9088099
_publ_section_title
;
Structure prediction by ZEFSAII (Michael W. Deem and Ramdas Pophale) SiO2 
 PCOD9088099
Probable space group: P -1
;
_chemical_formula_sum "Si O2"
_cell_formula_units_Z 16
_cell_length_a 13.171347
_cell_length_b 9.114941
_cell_length_c 14.039364
_cell_angle_alpha 57.842216
_cell_angle_beta 43.021619
_cell_angle_gamma 89.490324
_cell_volume 732.856187
_symmetry_space_group_name_H-M "P -1"
_symmetry_group_IT_number 2
_symmetry_cell_setting 'triclinic'
loop_
_space_group_symop_operation_xyz
x,y,z
-x,-y,-z
loop_
_atom_site_type_symbol
_atom_site_label
_atom_site_fract_x
_atom_site_fract_y
_atom_site_fract_z
Si Si1 0.704525 0.127942 0.711729
Si Si2 0.083387 0.427223 0.219286
Si Si3 0.742499 0.258855 0.848419
Si Si4 0.085032 0.691333 0.958238
Si Si5 0.658229 0.787292 0.400627
Si Si6 0.741360 0.689034 0.177941
Si Si7 0.906938 0.944667 0.686406
Si Si8 0.018280 0.154243 0.722119
O O1 0.753256 0.281564 0.718609
O O2 0.858145 0.263248 0.472512
O O3 0.733456 0.953393 0.792920
O O4 0.476062 0.979404 0.895867
O O5 0.216674 0.545459 0.181614
O O6 0.130540 0.283074 0.185010
O O7 0.126542 0.610073 0.050878
O O8 0.914836 0.259661 0.762841
O O9 0.265185 0.960356 0.715520
O O10 0.000000 0.500000 0.000000
O O11 0.909660 0.691353 0.101505
O O12 0.676844 0.764541 0.282618
O O13 0.434974 0.563516 0.653415
O O14 0.800470 0.758796 0.366233
O O15 0.843466 0.886759 0.961728
O O16 0.059548 0.143077 0.588091
O O17 0.000000 0.000000 0.500000
#
# Coordination Sequence:
#
# PCOD9088099 Si02
#       8
#     2   2   2   2   2   2   2   2
#     4   9  21  38  55  82 113 140 178 230 279 330
#     4  11  20  35  59  81 107 149 186 222 276 329
#     4  10  20  35  59  86 111 138 181 232 277 329
#     4  11  23  38  56  83 119 151 187 234 277 328
#     4  10  21  38  59  85 115 148 188 232 278 332
#     4  10  21  38  60  85 115 149 187 231 279 333
#     4   9  20  39  57  77 112 149 183 226 276 330
#     4  10  19  37  59  82 113 149 184 225 279 333
#
# _framework density 21.832388000000002
#
# number of rings (size 3 to 8) (size 9 to 14) (size 15 to 20)
#    0.000    2.000    0.000    4.875    0.000    5.000 
#    0.000   12.500    0.000    0.000    0.000    0.000 
#    0.000    0.000    0.000    0.000    0.000    0.000 
#
# Total GULP energy -89285.055852 kJ/mol
# GULP energy per Si atom -5580.315991 kJ/mol
# Density = 2.178270 g / cm^3
# Si number density = 21.832388 Si / 1000 Ang^3
#
#
#
# Elastic Constant Matrix: (Units=GPa)
#
#
# Indices 1 2 3 4 5 6 
#
# 1 59.4639 2.6119 27.0563 -8.9118 -3.9784 2.1062
# 2 2.6119 77.1560 -10.5146 -7.2278 -4.2088 15.7969
# 3 27.0563 -10.5146 55.2836 -18.1267 -10.3265 3.5736
# 4 -8.9118 -7.2278 -18.1267 31.3575 8.8967 5.9128
# 5 -3.9784 -4.2088 -10.3265 8.8967 20.6262 2.2456
# 6 2.1062 15.7969 3.5736 5.9128 2.2456 33.1713
#
#
#
# Elastic Compliance Matrix: (Units=1/GPa)
#
#
# Indices 1 2 3 4 5 6 
#
# 1 0.022179 -0.003025 -0.012357 -0.001247 -0.002177 0.001733
# 2 -0.003025 0.017904 0.009717 0.009612 0.005033 -0.011435
# 3 -0.012357 0.009717 0.034540 0.017899 0.010419 -0.011460
# 4 -0.001247 0.009612 0.017899 0.049421 -0.009043 -0.014624
# 5 -0.002177 0.005033 0.010419 -0.009043 0.058832 -0.005752
# 6 0.001733 -0.011435 -0.011460 -0.014624 -0.005752 0.039713
#
#
# Mechanical properties :
#
#
# Convention : Reuss Voigt Hill
#
# Bulk Modulus (GPa) = 15.80015 25.57898 20.68957
# Shear Modulus (GPa) = 19.60657 28.54766 24.07712
#
# Velocity S-wave (km/s) = 3.00000 3.61997 3.32447
# Velocity P-wave (km/s) = 4.38779 5.40498 4.92273
#
# Compressibility (1/GPa) = 0.06329053
#
# Stress axis : x y z
#
# Youngs Moduli (GPa) = 45.08866 55.85499 28.95188
#
# Poissons Ratio (x) = 0.16897 0.35777
# Poissons Ratio (y) = 0.13640 -0.28132
# Poissons Ratio (z) = 0.55717 -0.54273
#
# Static dielectric constant tensor:
#      x y z
#    x 1.833060 -0.026740 0.050150 
#    y -0.026740 1.856100 -0.039460 
#    z 0.050150 -0.039460 1.835600 
# 
# From -- ./inp_files/272728.got.cif
#   From: 2010.05.17/outbox.cif.g08.bks.cpg/sg2_137_cif.got.tgz:272728.got - 2010.06.03 11:33:40.
