data_PCOD9088122
_publ_section_title
;
Structure prediction by ZEFSAII (Michael W. Deem and Ramdas Pophale) SiO2 
 PCOD9088122
Probable space group: P -1
;
_chemical_formula_sum "Si O2"
_cell_formula_units_Z 16
_cell_length_a 9.104876
_cell_length_b 11.386677
_cell_length_c 16.028611
_cell_angle_alpha 119.914341
_cell_angle_beta 39.091400
_cell_angle_gamma 127.249779
_cell_volume 832.696120
_symmetry_space_group_name_H-M "P -1"
_symmetry_group_IT_number 2
_symmetry_cell_setting 'triclinic'
loop_
_space_group_symop_operation_xyz
x,y,z
-x,-y,-z
loop_
_atom_site_type_symbol
_atom_site_label
_atom_site_fract_x
_atom_site_fract_y
_atom_site_fract_z
Si Si1 0.155275 0.093370 0.221256
Si Si2 0.431627 0.892237 0.283985
Si Si3 0.282180 0.097658 0.537844
Si Si4 0.016184 0.070411 0.926596
Si Si5 0.392831 0.834345 0.825069
Si Si6 0.056875 0.609806 0.400043
Si Si7 0.837886 0.292308 0.429572
Si Si8 0.601268 0.655874 0.558468
O O1 0.153497 0.040611 0.108639
O O2 0.419808 0.146136 0.172646
O O3 0.031344 0.213096 0.316845
O O4 0.947774 0.957218 0.315989
O O5 0.245293 0.722597 0.290756
O O6 0.291735 0.957160 0.435206
O O7 0.499291 0.010651 0.220686
O O8 0.688953 0.889325 0.208865
O O9 0.560930 0.180082 0.483720
O O10 0.261379 0.213072 0.521276
O O11 0.108078 0.810197 0.967671
O O12 0.000000 0.000000 0.000000
O O13 0.410111 0.708686 0.711832
O O14 0.186769 0.647554 0.446703
O O15 0.954104 0.435372 0.369492
O O16 0.809101 0.646483 0.526478
O O17 0.500000 0.500000 0.500000
#
# Coordination Sequence:
#
# PCOD9088122 Si02
#       8
#     2   2   2   2   2   2   2   2
#     4  12  20  36  60  87 118 146 196 241 280 343
#     4  10  19  37  59  85 114 145 197 239 277 341
#     4  11  20  34  60  89 112 149 190 239 291 330
#     4  10  22  37  59  82 113 156 195 237 282 337
#     4  10  22  37  58  85 114 154 194 233 284 340
#     4  11  21  34  53  87 118 148 183 234 294 333
#     4  11  21  32  53  87 119 148 180 230 294 341
#     4  11  21  37  58  85 119 151 184 236 291 345
#
# _framework density 19.214694000000001
#
# number of rings (size 3 to 8) (size 9 to 14) (size 15 to 20)
#    0.000    1.250    5.000    2.250    0.000    2.000 
#    0.000    0.000    0.000   11.250    0.000    0.000 
#    0.000    0.000    0.000    0.000    0.000    0.000 
#
# Total GULP energy -89228.222765 kJ/mol
# GULP energy per Si atom -5576.763923 kJ/mol
# Density = 1.917096 g / cm^3
# Si number density = 19.214694 Si / 1000 Ang^3
#
#
#
# Elastic Constant Matrix: (Units=GPa)
#
#
# Indices 1 2 3 4 5 6 
#
# 1 90.1659 16.6987 21.6189 13.8463 -7.9079 2.4862
# 2 16.6987 90.0858 21.1295 8.3249 -4.5979 -8.8675
# 3 21.6189 21.1295 44.0092 20.0217 2.2107 1.2513
# 4 13.8463 8.3249 20.0217 18.7377 -2.7882 -2.0191
# 5 -7.9079 -4.5979 2.2107 -2.7882 31.2641 4.7587
# 6 2.4862 -8.8675 1.2513 -2.0191 4.7587 24.9099
#
#
#
# Elastic Compliance Matrix: (Units=1/GPa)
#
#
# Indices 1 2 3 4 5 6 
#
# 1 0.013373 -0.001210 -0.003767 -0.005096 0.003419 -0.002642
# 2 -0.001210 0.013437 -0.008126 0.004454 0.001832 0.005323
# 3 -0.003767 -0.008126 0.053064 -0.052531 -0.009422 -0.007641
# 4 -0.005096 0.004454 -0.052531 0.114265 0.011474 0.011803
# 5 0.003419 0.001832 -0.009422 0.011474 0.035583 -0.005083
# 6 -0.002642 0.005323 -0.007641 0.011803 -0.005083 0.044615
#
#
# Mechanical properties :
#
#
# Convention : Reuss Voigt Hill
#
# Bulk Modulus (GPa) = 18.63331 38.12835 28.38083
# Shear Modulus (GPa) = 15.70192 25.96993 20.83592
#
# Velocity S-wave (km/s) = 2.86174 3.68035 3.29656
# Velocity P-wave (km/s) = 4.54290 6.16007 5.41222
#
# Compressibility (1/GPa) = 0.05366732
#
# Stress axis : x y z
#
# Youngs Moduli (GPa) = 74.77679 74.42269 18.84526
#
# Poissons Ratio (x) = 0.09006 0.07098
# Poissons Ratio (y) = 0.09049 0.15314
# Poissons Ratio (z) = 0.28166 0.60478
#
# Static dielectric constant tensor:
#      x y z
#    x 1.713320 -0.000790 0.012020 
#    y -0.000790 1.705680 -0.011070 
#    z 0.012020 -0.011070 1.693500 
# 
# From -- ./inp_files/558575.got.cif
#   From: 2010.05.17/outbox.cif.g08.bks.cpg/sg2_280_cif.got.tgz:558575.got - 2010.06.03 11:33:40.
