data_PCOD9088581
_publ_section_title
;
Structure prediction by ZEFSAII (Michael W. Deem and Ramdas Pophale) SiO2 
 PCOD9088581
Probable space group: P -1
;
_chemical_formula_sum "Si O2"
_cell_formula_units_Z 16
_cell_length_a 9.805957
_cell_length_b 9.881178
_cell_length_c 10.066929
_cell_angle_alpha 99.634370
_cell_angle_beta 125.636888
_cell_angle_gamma 94.287962
_cell_volume 763.295323
_symmetry_space_group_name_H-M "P -1"
_symmetry_group_IT_number 2
_symmetry_cell_setting 'triclinic'
loop_
_space_group_symop_operation_xyz
x,y,z
-x,-y,-z
loop_
_atom_site_type_symbol
_atom_site_label
_atom_site_fract_x
_atom_site_fract_y
_atom_site_fract_z
Si Si1 0.490147 0.230991 0.517062
Si Si2 0.377524 0.602513 0.133503
Si Si3 0.293028 0.322145 0.195337
Si Si4 0.361688 0.986181 0.774892
Si Si5 0.868211 0.956893 0.096977
Si Si6 0.240639 0.948341 0.403497
Si Si7 0.070317 0.731538 0.903668
Si Si8 0.369605 0.761464 0.921975
O O1 0.492998 0.310612 0.671374
O O2 0.444929 0.321930 0.385217
O O3 0.667022 0.179469 0.592909
O O4 0.345479 0.087116 0.411704
O O5 0.339060 0.443342 0.132305
O O6 0.202124 0.664247 0.054558
O O7 0.430466 0.637792 0.015428
O O8 0.124070 0.337990 0.186351
O O9 0.234994 0.173545 0.064998
O O10 0.272813 0.982011 0.583003
O O11 0.402468 0.834205 0.810363
O O12 0.238240 0.019291 0.827495
O O13 0.536096 0.106000 0.908000
O O14 0.046061 0.923440 0.243326
O O15 0.907083 0.099405 0.054094
O O16 0.162116 0.717143 0.811517
#
# Coordination Sequence:
#
# PCOD9088581 Si02
#       8
#     2   2   2   2   2   2   2   2
#     4  11  24  35  60  88 119 155 192 241 294 345
#     4  10  21  41  58  87 120 156 188 240 297 347
#     4  12  23  36  61  89 123 154 189 238 297 349
#     4  10  19  37  62  85 115 153 196 243 287 336
#     4  11  23  36  60  93 115 152 200 239 285 348
#     4  11  22  37  61  89 119 148 195 250 291 329
#     4   9  19  36  59  86 114 150 191 240 283 341
#     4   8  19  33  63  82 111 148 200 226 291 336
#
# _framework density 20.961743999999999
#
# number of rings (size 3 to 8) (size 9 to 14) (size 15 to 20)
#    0.750    1.000    2.500    2.250    8.750    0.000 
#    0.000    0.625    0.000    0.750    0.000    0.000 
#    0.000    0.000    0.000    0.000    0.000    0.000 
#
# Total GULP energy -89114.788377 kJ/mol
# GULP energy per Si atom -5569.674274 kJ/mol
# Density = 2.091403 g / cm^3
# Si number density = 20.961744 Si / 1000 Ang^3
#
#
#
# Elastic Constant Matrix: (Units=GPa)
#
#
# Indices 1 2 3 4 5 6 
#
# 1 73.6764 7.6555 9.7521 -9.7364 10.1709 1.1657
# 2 7.6555 123.5347 25.0850 -35.5297 -1.3683 20.7942
# 3 9.7521 25.0850 61.4544 -22.6214 4.0286 -10.7283
# 4 -9.7364 -35.5297 -22.6214 30.2502 1.7083 -4.5418
# 5 10.1709 -1.3683 4.0286 1.7083 25.6336 -4.6804
# 6 1.1657 20.7942 -10.7283 -4.5418 -4.6804 22.8198
#
#
#
# Elastic Compliance Matrix: (Units=1/GPa)
#
#
# Indices 1 2 3 4 5 6 
#
# 1 0.015278 0.001215 -0.000799 0.005752 -0.006711 -0.002495
# 2 0.001215 0.014668 -0.003370 0.013304 -0.002404 -0.012857
# 3 -0.000799 -0.003370 0.029140 0.020775 -0.002081 0.020519
# 4 0.005752 0.013304 0.020775 0.067899 -0.007666 0.009291
# 5 -0.006711 -0.002404 -0.002081 -0.007666 0.044038 0.009062
# 6 -0.002495 -0.012857 0.020519 0.009291 0.009062 0.069020
#
#
# Mechanical properties :
#
#
# Convention : Reuss Voigt Hill
#
# Bulk Modulus (GPa) = 18.80410 38.18340 28.49375
# Shear Modulus (GPa) = 18.96266 30.15224 24.55745
#
# Velocity S-wave (km/s) = 3.01097 3.79679 3.42649
# Velocity P-wave (km/s) = 4.59109 6.12178 5.41083
#
# Compressibility (1/GPa) = 0.05317988
#
# Stress axis : x y z
#
# Youngs Moduli (GPa) = 65.45221 68.17615 34.31688
#
# Poissons Ratio (x) = -0.08286 0.02742
# Poissons Ratio (y) = -0.07955 0.11564
# Poissons Ratio (z) = 0.05230 0.22973
#
# Static dielectric constant tensor:
#      x y z
#    x 1.831050 -0.028150 -0.022420 
#    y -0.028150 1.791620 -0.020790 
#    z -0.022420 -0.020790 1.705440 
# 
# From -- ./inp_files/417675.got.cif
#   From: 2010.05.17/outbox.cif.g08.bks.cpg/sg2_209_cif.got.tgz:417675.got - 2010.06.03 11:33:40.
