data_PCOD9088711
_publ_section_title
;
Structure prediction by ZEFSAII (Michael W. Deem and Ramdas Pophale) SiO2 
 PCOD9088711
Probable space group: P -1
;
_chemical_formula_sum "Si O2"
_cell_formula_units_Z 16
_cell_length_a 17.148694
_cell_length_b 14.394979
_cell_length_c 7.504279
_cell_angle_alpha 49.691815
_cell_angle_beta 109.258580
_cell_angle_gamma 145.623094
_cell_volume 702.346158
_symmetry_space_group_name_H-M "P -1"
_symmetry_group_IT_number 2
_symmetry_cell_setting 'triclinic'
loop_
_space_group_symop_operation_xyz
x,y,z
-x,-y,-z
loop_
_atom_site_type_symbol
_atom_site_label
_atom_site_fract_x
_atom_site_fract_y
_atom_site_fract_z
Si Si1 0.119341 0.501871 0.915977
Si Si2 0.281676 0.487546 0.909091
Si Si3 0.294380 0.682601 0.169088
Si Si4 0.683247 0.561506 0.385534
Si Si5 0.599025 0.997312 0.403172
Si Si6 0.141206 0.704123 0.218428
Si Si7 0.666917 0.871568 0.327899
Si Si8 0.833461 0.831983 0.504076
O O1 0.145744 0.418796 0.911718
O O2 0.259099 0.775544 0.651406
O O3 0.958007 0.368515 0.935177
O O4 0.154689 0.497527 0.146206
O O5 0.268469 0.387877 0.847137
O O6 0.442571 0.764772 0.673116
O O7 0.283749 0.404957 0.185164
O O8 0.338209 0.606712 0.365119
O O9 0.228212 0.688584 0.261445
O O10 0.422310 0.918020 0.858719
O O11 0.510754 0.401381 0.482784
O O12 0.809081 0.778338 0.342632
O O13 0.651811 0.948844 0.383557
O O14 0.000000 0.500000 0.500000
O O15 0.271363 0.974450 0.989039
O O16 0.784230 0.908347 0.409035
O O17 0.000000 0.000000 0.500000
#
# Coordination Sequence:
#
# PCOD9088711 Si02
#       8
#     2   2   2   2   2   2   2   2
#     4  10  19  37  62  95 133 166 209 259 316 385
#     4  11  22  40  66  95 126 170 223 253 328 380
#     4   9  20  37  62  91 129 167 204 261 323 366
#     4  11  24  44  67  96 127 169 217 275 312 386
#     4   8  20  35  62  95 126 167 211 262 311 388
#     4  11  22  36  60  96 132 170 209 258 319 389
#     4  10  24  42  63  93 134 167 216 267 325 367
#     4  12  26  45  68  90 126 176 214 273 323 375
#
# _framework density 22.780791000000001
#
# number of rings (size 3 to 8) (size 9 to 14) (size 15 to 20)
#    0.750    1.000    1.250    2.625    0.000    9.000 
#    0.000    1.250    0.000    0.000    0.000    0.000 
#    0.000    0.000    0.000    0.000    0.000    0.000 
#
# Total GULP energy -89333.918074 kJ/mol
# GULP energy per Si atom -5583.369880 kJ/mol
# Density = 2.272894 g / cm^3
# Si number density = 22.780791 Si / 1000 Ang^3
#
#
#
# Elastic Constant Matrix: (Units=GPa)
#
#
# Indices 1 2 3 4 5 6 
#
# 1 120.8831 23.8085 4.5811 -1.9626 7.4403 13.3907
# 2 23.8085 76.0347 -23.0808 0.0551 -13.9706 4.5614
# 3 4.5811 -23.0808 44.6364 -2.9631 -5.2693 2.3955
# 4 -1.9626 0.0551 -2.9631 23.1047 5.7725 -4.1857
# 5 7.4403 -13.9706 -5.2693 5.7725 31.3076 1.4256
# 6 13.3907 4.5614 2.3955 -4.1857 1.4256 36.3259
#
#
#
# Elastic Compliance Matrix: (Units=1/GPa)
#
#
# Indices 1 2 3 4 5 6 
#
# 1 0.010124 -0.005357 -0.004260 0.001300 -0.005643 -0.002407
# 2 -0.005357 0.021519 0.013249 -0.002676 0.013710 -0.002448
# 3 -0.004260 0.013249 0.031289 0.000070 0.012298 -0.002631
# 4 0.001300 -0.002676 0.000070 0.047040 -0.010423 0.005681
# 5 -0.005643 0.013710 0.012298 -0.010423 0.043545 -0.003362
# 6 -0.002407 -0.002448 -0.002631 0.005681 -0.003362 0.029683
#
#
# Mechanical properties :
#
#
# Convention : Reuss Voigt Hill
#
# Bulk Modulus (GPa) = 14.24545 28.01909 21.13227
# Shear Modulus (GPa) = 25.08354 33.89732 29.49043
#
# Velocity S-wave (km/s) = 3.32186 3.86162 3.60186
# Velocity P-wave (km/s) = 4.58037 5.67529 5.15697
#
# Compressibility (1/GPa) = 0.07019787
#
# Stress axis : x y z
#
# Youngs Moduli (GPa) = 98.77536 46.47074 31.96021
#
# Poissons Ratio (x) = 0.24892 0.13614
# Poissons Ratio (y) = 0.52909 -0.42344
# Poissons Ratio (z) = 0.42074 -0.61569
#
# Static dielectric constant tensor:
#      x y z
#    x 1.810540 -0.033830 -0.000780 
#    y -0.033830 1.929890 -0.030720 
#    z -0.000780 -0.030720 1.897960 
# 
# From -- ./inp_files/336437.got.cif
#   From: 2010.05.17/outbox.cif.g08.bks.cpg/sg2_169_cif.got.tgz:336437.got - 2010.06.03 11:33:40.
