data_PCOD9088559
_publ_section_title
;
Structure prediction by ZEFSAII (Michael W. Deem and Ramdas Pophale) SiO2 
 PCOD9088559
Probable space group: P -1
;
_chemical_formula_sum "Si O2"
_cell_formula_units_Z 14
_cell_length_a 17.100855
_cell_length_b 8.397270
_cell_length_c 10.400849
_cell_angle_alpha 123.697798
_cell_angle_beta 49.387512
_cell_angle_gamma 147.914297
_cell_volume 602.245560
_symmetry_space_group_name_H-M "P -1"
_symmetry_group_IT_number 2
_symmetry_cell_setting 'triclinic'
loop_
_space_group_symop_operation_xyz
x,y,z
-x,-y,-z
loop_
_atom_site_type_symbol
_atom_site_label
_atom_site_fract_x
_atom_site_fract_y
_atom_site_fract_z
Si Si1 0.093126 0.547994 0.239070
Si Si2 0.254041 0.774900 0.619591
Si Si3 0.339689 0.305294 0.716546
Si Si4 0.306750 0.153672 0.402251
Si Si5 0.104984 0.124585 0.107108
Si Si6 0.812198 0.728963 0.628146
Si Si7 0.856758 0.439071 0.084101
O O1 0.077094 0.308696 0.196655
O O2 0.922486 0.393895 0.309336
O O3 0.179715 0.801200 0.365368
O O4 0.197880 0.696053 0.060666
O O5 0.264749 0.590010 0.452445
O O6 0.259764 0.736347 0.748249
O O7 0.368425 0.117532 0.622487
O O8 0.286380 0.236243 0.594770
O O9 0.509210 0.653218 0.708270
O O10 0.214624 0.197969 0.908318
O O11 0.275583 0.245292 0.356249
O O12 0.186465 0.214798 0.199049
O O13 0.943666 0.767434 0.123750
O O14 0.000000 0.000000 0.500000
O O15 0.000000 0.500000 0.000000
#
# Coordination Sequence:
#
# PCOD9088559 Si02
#       7
#     2   2   2   2   2   2   2
#     4  11  23  40  69 100 135 176 229 277 329 395
#     4  11  23  41  69  99 140 175 222 279 337 399
#     4  11  27  47  68  95 140 182 224 271 342 405
#     4  11  27  49  66  96 138 184 222 281 332 401
#     4  12  24  40  69 107 132 175 224 278 338 397
#     4  12  24  41  71 102 135 171 225 281 336 389
#     4  10  19  37  62 103 133 164 220 279 328 380
#
# _framework density 23.246331999999999
#
# number of rings (size 3 to 8) (size 9 to 14) (size 15 to 20)
#    0.000    0.857    5.714    2.143    4.000    2.857 
#    0.000    0.000    0.000    0.000    0.000    0.000 
#    0.000    0.000    0.000    0.000    0.000    0.000 
#
# Total GULP energy -78387.593332 kJ/mol
# GULP energy per Si atom -5599.113809 kJ/mol
# Density = 2.319342 g / cm^3
# Si number density = 23.246332 Si / 1000 Ang^3
#
#
#
# Elastic Constant Matrix: (Units=GPa)
#
#
# Indices 1 2 3 4 5 6 
#
# 1 107.2869 29.0372 54.7507 11.9724 25.7636 -20.0243
# 2 29.0372 68.6178 12.8612 7.9199 -5.5918 -5.6481
# 3 54.7507 12.8612 104.0129 6.8300 31.1912 -0.3047
# 4 11.9724 7.9199 6.8300 31.3969 -11.2377 1.0234
# 5 25.7636 -5.5918 31.1912 -11.2377 47.2097 12.0165
# 6 -20.0243 -5.6481 -0.3047 1.0234 12.0165 32.8506
#
#
#
# Elastic Compliance Matrix: (Units=1/GPa)
#
#
# Indices 1 2 3 4 5 6 
#
# 1 0.023800 -0.007436 -0.004923 -0.013638 -0.019105 0.020597
# 2 -0.007436 0.018014 -0.000942 0.001638 0.008364 -0.004555
# 3 -0.004923 -0.000942 0.015148 -0.004227 -0.008494 0.000216
# 4 -0.013638 0.001638 -0.004227 0.047750 0.026717 -0.019331
# 5 -0.019105 0.008364 -0.008494 0.026717 0.052267 -0.030238
# 6 0.020597 -0.004555 0.000216 -0.019331 -0.030238 0.053877
#
#
# Mechanical properties :
#
#
# Convention : Reuss Voigt Hill
#
# Bulk Modulus (GPa) = 32.93952 52.57954 42.75953
# Shear Modulus (GPa) = 20.19557 34.50934 27.35246
#
# Velocity S-wave (km/s) = 2.95068 3.85711 3.43393
# Velocity P-wave (km/s) = 5.08028 6.51950 5.84436
#
# Compressibility (1/GPa) = 0.03035867
#
# Stress axis : x y z
#
# Youngs Moduli (GPa) = 42.01721 55.51109 66.01679
#
# Poissons Ratio (x) = 0.41279 0.32501
# Poissons Ratio (y) = 0.31244 0.06221
# Poissons Ratio (z) = 0.20686 0.05231
#
# Static dielectric constant tensor:
#      x y z
#    x 1.891910 0.005960 -0.007910 
#    y 0.005960 1.870500 -0.022750 
#    z -0.007910 -0.022750 1.883190 
# 
# From -- ./inp_files/460754.got.cif
#   From: 2010.05.17/outbox.cif.g08.bks.cpg/sg2_231_cif.got.tgz:460754.got - 2010.06.03 11:33:40.
