data_PCOD9088475
_publ_section_title
;
Structure prediction by ZEFSAII (Michael W. Deem and Ramdas Pophale) SiO2 
 PCOD9088475
Probable space group: P -1
;
_chemical_formula_sum "Si O2"
_cell_formula_units_Z 16
_cell_length_a 15.921581
_cell_length_b 9.412007
_cell_length_c 14.035547
_cell_angle_alpha 80.555859
_cell_angle_beta 149.330584
_cell_angle_gamma 78.566190
_cell_volume 781.358159
_symmetry_space_group_name_H-M "P -1"
_symmetry_group_IT_number 2
_symmetry_cell_setting 'triclinic'
loop_
_space_group_symop_operation_xyz
x,y,z
-x,-y,-z
loop_
_atom_site_type_symbol
_atom_site_label
_atom_site_fract_x
_atom_site_fract_y
_atom_site_fract_z
Si Si1 0.804088 0.599140 0.087677
Si Si2 0.553074 0.583908 0.461799
Si Si3 0.966430 0.716378 0.075788
Si Si4 0.325277 0.163316 0.388328
Si Si5 0.792456 0.837701 0.402134
Si Si6 0.686630 0.079740 0.445980
Si Si7 0.864156 0.037115 0.065740
Si Si8 0.285390 0.072121 0.902151
O O1 0.892895 0.621849 0.075590
O O2 0.770580 0.745160 0.117931
O O3 0.990135 0.378012 0.328548
O O4 0.550140 0.699341 0.809280
O O5 0.500000 0.500000 0.500000
O O6 0.625202 0.699751 0.557943
O O7 0.773956 0.407279 0.641660
O O8 0.331815 0.734460 0.167822
O O9 0.841036 0.926896 0.975224
O O10 0.906565 0.726637 0.906033
O O11 0.500000 0.000000 0.500000
O O12 0.343107 0.053732 0.511267
O O13 0.803114 0.868568 0.297941
O O14 0.761077 0.994600 0.421415
O O15 0.554898 0.895025 0.179226
O O16 0.892800 0.039351 0.697630
O O17 0.824488 0.984890 0.133945
#
# Coordination Sequence:
#
# PCOD9088475 Si02
#       8
#     2   2   2   2   2   2   2   2
#     4  10  19  37  61  89 114 156 208 248 304 367
#     4  12  26  40  63  96 123 159 212 255 307 365
#     4  11  23  39  65  85 124 164 204 256 302 366
#     4  12  22  43  64  86 124 168 201 252 306 369
#     4  10  20  38  64  88 117 157 205 260 302 368
#     4  11  24  38  60  87 123 166 204 246 312 370
#     4  11  24  42  58  91 129 162 202 259 311 361
#     4   9  20  39  63  89 117 156 204 255 315 362
#
# _framework density 20.477164999999999
#
# number of rings (size 3 to 8) (size 9 to 14) (size 15 to 20)
#    0.000    1.250    2.500    4.500    1.750    3.500 
#    0.000    0.625    0.000    0.000    0.000    0.000 
#    0.000    0.000    0.000    0.000    0.000    0.000 
#
# Total GULP energy -89395.894914 kJ/mol
# GULP energy per Si atom -5587.243432 kJ/mol
# Density = 2.043056 g / cm^3
# Si number density = 20.477165 Si / 1000 Ang^3
#
#
#
# Elastic Constant Matrix: (Units=GPa)
#
#
# Indices 1 2 3 4 5 6 
#
# 1 63.6770 10.9320 17.8442 -1.9725 3.4761 -0.9784
# 2 10.9320 33.0298 16.3385 0.8094 3.5896 11.3017
# 3 17.8442 16.3385 162.1412 -19.9377 8.6571 11.1174
# 4 -1.9725 0.8094 -19.9377 34.6527 -5.6082 2.1500
# 5 3.4761 3.5896 8.6571 -5.6082 31.5529 4.3208
# 6 -0.9784 11.3017 11.1174 2.1500 4.3208 24.8493
#
#
#
# Elastic Compliance Matrix: (Units=1/GPa)
#
#
# Indices 1 2 3 4 5 6 
#
# 1 0.017370 -0.006383 -0.001536 -0.000260 -0.001435 0.004546
# 2 -0.006383 0.039435 -0.002269 -0.001735 -0.001166 -0.016818
# 3 -0.001536 -0.002269 0.007288 0.004243 -0.000465 -0.002575
# 4 -0.000260 -0.001735 0.004243 0.032521 0.005512 -0.004892
# 5 -0.001435 -0.001166 -0.000465 0.005512 0.033869 -0.005684
# 6 0.004546 -0.016818 -0.002575 -0.004892 -0.005684 0.050635
#
#
# Mechanical properties :
#
#
# Convention : Reuss Voigt Hill
#
# Bulk Modulus (GPa) = 22.87364 38.78637 30.83001
# Shear Modulus (GPa) = 23.14111 32.45986 27.80048
#
# Velocity S-wave (km/s) = 3.36533 3.98574 3.68860
# Velocity P-wave (km/s) = 5.12788 6.33750 5.76451
#
# Compressibility (1/GPa) = 0.04371844
#
# Stress axis : x y z
#
# Youngs Moduli (GPa) = 57.56891 25.35845 137.20516
#
# Poissons Ratio (x) = 0.16186 0.21069
# Poissons Ratio (y) = 0.36745 0.31135
# Poissons Ratio (z) = 0.08840 0.05754
#
# Static dielectric constant tensor:
#      x y z
#    x 1.690540 -0.007880 0.002410 
#    y -0.007880 1.745830 0.008300 
#    z 0.002410 0.008300 1.800350 
# 
# From -- ./inp_files/315326.got.cif
#   From: 2010.05.17/outbox.cif.g08.bks.cpg/sg2_158_cif.got.tgz:315326.got - 2010.06.03 11:33:40.
