data_PCOD9088151
_publ_section_title
;
Structure prediction by ZEFSAII (Michael W. Deem and Ramdas Pophale) SiO2 
 PCOD9088151
Probable space group: P -1
;
_chemical_formula_sum "Si O2"
_cell_formula_units_Z 16
_cell_length_a 14.317640
_cell_length_b 13.000068
_cell_length_c 7.735194
_cell_angle_alpha 137.367703
_cell_angle_beta 64.548813
_cell_angle_gamma 132.184823
_cell_volume 716.599047
_symmetry_space_group_name_H-M "P -1"
_symmetry_group_IT_number 2
_symmetry_cell_setting 'triclinic'
loop_
_space_group_symop_operation_xyz
x,y,z
-x,-y,-z
loop_
_atom_site_type_symbol
_atom_site_label
_atom_site_fract_x
_atom_site_fract_y
_atom_site_fract_z
Si Si1 0.086582 0.181940 0.887306
Si Si2 0.905087 0.283550 0.258850
Si Si3 0.626131 0.512810 0.854362
Si Si4 0.361063 0.441394 0.508793
Si Si5 0.871094 0.400266 0.075529
Si Si6 0.367570 0.828438 0.647505
Si Si7 0.902331 0.768831 0.464862
Si Si8 0.616639 0.208699 0.985759
O O1 0.076802 0.229259 0.754159
O O2 0.236658 0.316511 0.972325
O O3 0.023413 0.961794 0.676860
O O4 0.992539 0.208616 0.108840
O O5 0.875562 0.287204 0.086383
O O6 0.762592 0.196771 0.336567
O O7 0.000000 0.500000 0.500000
O O8 0.642589 0.544054 0.674865
O O9 0.617959 0.321846 0.643849
O O10 0.500000 0.500000 0.000000
O O11 0.500000 0.500000 0.500000
O O12 0.229538 0.249116 0.429484
O O13 0.369544 0.601266 0.813333
O O14 0.871103 0.580647 0.348031
O O15 0.750359 0.257074 0.877543
O O16 0.000000 0.500000 0.000000
O O17 0.373978 0.805705 0.827239
O O18 0.493056 0.036378 0.785237
#
# Coordination Sequence:
#
# PCOD9088151 Si02
#       8
#     2   2   2   2   2   2   2   2
#     4  11  23  40  62  93 120 163 208 253 310 362
#     4  11  21  37  63  87 124 158 196 251 309 366
#     4  11  23  40  62  87 125 161 198 253 309 365
#     4  10  21  39  60  87 120 160 196 246 307 360
#     4  10  19  37  59  87 118 157 199 248 299 354
#     4   9  18  36  57  86 112 153 199 241 293 353
#     4  10  23  40  61  90 123 158 209 254 297 369
#     4   8  18  33  58  83 111 148 198 240 284 354
#
# _framework density 22.327687000000001
#
# number of rings (size 3 to 8) (size 9 to 14) (size 15 to 20)
#    0.000    2.000    2.500    1.500    1.750    1.500 
#    4.500    0.000    0.000    4.500    0.000    0.000 
#    0.000    0.000    0.000    0.000    0.000    0.000 
#
# Total GULP energy -89075.264089 kJ/mol
# GULP energy per Si atom -5567.204006 kJ/mol
# Density = 2.227687 g / cm^3
# Si number density = 22.327687 Si / 1000 Ang^3
#
#
#
# Elastic Constant Matrix: (Units=GPa)
#
#
# Indices 1 2 3 4 5 6 
#
# 1 92.9352 39.4498 42.7510 9.0070 2.4518 54.2412
# 2 39.4498 98.2627 43.9564 18.0401 2.3796 52.6465
# 3 42.7510 43.9564 87.4267 18.3040 10.8443 39.5350
# 4 9.0070 18.0401 18.3040 40.6689 14.9113 12.5470
# 5 2.4518 2.3796 10.8443 14.9113 23.8973 1.1864
# 6 54.2412 52.6465 39.5350 12.5470 1.1864 62.2556
#
#
#
# Elastic Compliance Matrix: (Units=1/GPa)
#
#
# Indices 1 2 3 4 5 6 
#
# 1 0.023160 0.003257 -0.003776 0.002023 -0.001211 -0.020920
# 2 0.003257 0.020158 -0.003619 -0.003731 0.002466 -0.016881
# 3 -0.003776 -0.003619 0.018501 -0.002171 -0.006052 -0.004846
# 4 0.002023 -0.003731 -0.002171 0.035682 -0.020916 -0.004022
# 5 -0.001211 0.002466 -0.006052 -0.020916 0.057227 0.005938
# 6 -0.020920 -0.016881 -0.004846 -0.004022 0.005938 0.052340
#
#
# Mechanical properties :
#
#
# Convention : Reuss Voigt Hill
#
# Bulk Modulus (GPa) = 18.67650 58.99321 38.83486
# Shear Modulus (GPa) = 21.44166 35.52887 28.48526
#
# Velocity S-wave (km/s) = 3.10226 3.99337 3.57568
# Velocity P-wave (km/s) = 4.60596 6.90953 5.87182
#
# Compressibility (1/GPa) = 0.05354322
#
# Stress axis : x y z
#
# Youngs Moduli (GPa) = 43.17738 49.60907 54.05257
#
# Poissons Ratio (x) = -0.16158 0.20411
# Poissons Ratio (y) = -0.14064 0.19559
# Poissons Ratio (z) = 0.16304 0.17952
#
# Static dielectric constant tensor:
#      x y z
#    x -1.677760 -1.235340 0.446020 
#    y -1.235340 1.454790 0.131650 
#    z 0.446020 0.131650 1.784100 
# 
# From -- ./inp_files/314222.got.cif
#   From: 2010.05.17/outbox.cif.g08.bks.cpg/sg2_158_cif.got.tgz:314222.got - 2010.06.03 11:33:40.
