data_PCOD9088113
_publ_section_title
;
Structure prediction by ZEFSAII (Michael W. Deem and Ramdas Pophale) SiO2 
 PCOD9088113
Probable space group: P -1
;
_chemical_formula_sum "Si O2"
_cell_formula_units_Z 14
_cell_length_a 9.333769
_cell_length_b 16.199366
_cell_length_c 7.320993
_cell_angle_alpha 55.602957
_cell_angle_beta 125.546444
_cell_angle_gamma 140.409462
_cell_volume 559.205637
_symmetry_space_group_name_H-M "P -1"
_symmetry_group_IT_number 2
_symmetry_cell_setting 'triclinic'
loop_
_space_group_symop_operation_xyz
x,y,z
-x,-y,-z
loop_
_atom_site_type_symbol
_atom_site_label
_atom_site_fract_x
_atom_site_fract_y
_atom_site_fract_z
Si Si1 0.863986 0.708080 0.657446
Si Si2 0.652215 0.133166 0.558208
Si Si3 0.015721 0.915025 0.977650
Si Si4 0.444136 0.360289 0.173015
Si Si5 0.952445 0.610495 0.543097
Si Si6 0.937453 0.555368 0.181970
Si Si7 0.306481 0.999548 0.755178
O O1 0.803800 0.639315 0.500543
O O2 0.095142 0.863548 0.660515
O O3 0.641443 0.673521 0.637934
O O4 0.923436 0.633697 0.921189
O O5 0.790546 0.257121 0.371253
O O6 0.838463 0.125544 0.792605
O O7 0.500000 0.000000 0.500000
O O8 0.475194 0.118138 0.589171
O O9 0.766597 0.773757 0.917754
O O10 0.163657 0.004967 0.796881
O O11 0.000000 0.000000 0.000000
O O12 0.689383 0.410548 0.224647
O O13 0.500000 0.500000 0.000000
O O14 0.898160 0.475319 0.714278
O O15 0.983726 0.621627 0.331970
O O16 0.500000 0.000000 0.000000
#
# Coordination Sequence:
#
# PCOD9088113 Si02
#       7
#     2   2   2   2   2   2   2
#     4  10  19  37  59  84 115 159 198 245 300 363
#     4  11  21  37  59  87 119 155 196 247 301 358
#     4  10  22  38  62  89 118 158 205 249 301 367
#     4   9  19  38  59  80 117 155 196 239 300 358
#     4  11  22  37  59  89 118 152 206 249 296 356
#     4  10  22  37  58  87 120 153 199 255 292 357
#     4   9  18  35  58  83 116 158 197 237 300 362
#
# _framework density 25.035513999999999
#
# number of rings (size 3 to 8) (size 9 to 14) (size 15 to 20)
#    0.000    2.000    1.429    3.857    2.000    0.571 
#    0.000    7.857    0.000    0.000    0.000    0.000 
#    0.000    0.000    0.000    0.000    0.000    0.000 
#
# Total GULP energy -78065.652124 kJ/mol
# GULP energy per Si atom -5576.118009 kJ/mol
# Density = 2.497853 g / cm^3
# Si number density = 25.035514 Si / 1000 Ang^3
#
#
#
# Elastic Constant Matrix: (Units=GPa)
#
#
# Indices 1 2 3 4 5 6 
#
# 1 157.0347 61.3260 13.4617 3.1898 -25.1430 -16.5966
# 2 61.3260 106.9418 9.0155 12.9010 -0.6046 2.2359
# 3 13.4617 9.0155 43.5861 -3.4846 -4.7471 -1.0471
# 4 3.1898 12.9010 -3.4846 31.7501 0.7650 -6.6488
# 5 -25.1430 -0.6046 -4.7471 0.7650 38.1582 2.8471
# 6 -16.5966 2.2359 -1.0471 -6.6488 2.8471 50.2730
#
#
#
# Elastic Compliance Matrix: (Units=1/GPa)
#
#
# Indices 1 2 3 4 5 6 
#
# 1 0.010097 -0.005973 -0.000980 0.001886 0.006139 0.003480
# 2 -0.005973 0.013677 -0.001912 -0.005745 -0.003605 -0.003176
# 3 -0.000980 -0.001912 0.024186 0.003606 0.002215 0.000617
# 4 0.001886 -0.005745 0.003606 0.035194 0.000478 0.005581
# 5 0.006139 -0.003605 0.002215 0.000478 0.030418 0.000574
# 6 0.003480 -0.003176 0.000617 0.005581 0.000574 0.021900
#
#
# Mechanical properties :
#
#
# Convention : Reuss Voigt Hill
#
# Bulk Modulus (GPa) = 33.08160 52.79659 42.93909
# Shear Modulus (GPa) = 30.62262 38.95354 34.78808
#
# Velocity S-wave (km/s) = 3.50117 3.94881 3.73171
# Velocity P-wave (km/s) = 5.43938 6.47497 5.97964
#
# Compressibility (1/GPa) = 0.03022829
#
# Stress axis : x y z
#
# Youngs Moduli (GPa) = 99.03747 73.11801 41.34696
#
# Poissons Ratio (x) = 0.43675 0.04052
# Poissons Ratio (y) = 0.59157 0.07907
# Poissons Ratio (z) = 0.09706 0.13982
#
# Static dielectric constant tensor:
#      x y z
#    x 2.099940 -0.001870 -0.021230 
#    y -0.001870 2.228970 0.259980 
#    z -0.021230 0.259980 2.414330 
# 
# From -- ./inp_files/200725.got.cif
#   From: 2010.05.17/outbox.cif.g08.bks.cpg/sg2_101_cif.got.tgz:200725.got - 2010.06.03 11:33:40.
