data_PCOD9088552
_publ_section_title
;
Structure prediction by ZEFSAII (Michael W. Deem and Ramdas Pophale) SiO2 
 PCOD9088552
Probable space group: P -1
;
_chemical_formula_sum "Si O2"
_cell_formula_units_Z 16
_cell_length_a 21.772846
_cell_length_b 9.487040
_cell_length_c 5.094823
_cell_angle_alpha 55.407694
_cell_angle_beta 64.350021
_cell_angle_gamma 58.242530
_cell_volume 722.995827
_symmetry_space_group_name_H-M "P -1"
_symmetry_group_IT_number 2
_symmetry_cell_setting 'triclinic'
loop_
_space_group_symop_operation_xyz
x,y,z
-x,-y,-z
loop_
_atom_site_type_symbol
_atom_site_label
_atom_site_fract_x
_atom_site_fract_y
_atom_site_fract_z
Si Si1 0.776352 0.611427 0.593859
Si Si2 0.193628 0.932722 0.477323
Si Si3 0.035213 0.155344 0.331183
Si Si4 0.269107 0.513699 0.697145
Si Si5 0.937849 0.537828 0.362030
Si Si6 0.583232 0.798774 0.333069
Si Si7 0.729887 0.024701 0.205656
Si Si8 0.583884 0.041108 0.578119
O O1 0.770484 0.579377 0.331252
O O2 0.860023 0.549963 0.594215
O O3 0.738680 0.824106 0.502985
O O4 0.737738 0.512195 0.953916
O O5 0.222675 0.728529 0.515349
O O6 0.221074 0.916313 0.742475
O O7 0.106084 0.046853 0.498066
O O8 0.238635 0.010830 0.109763
O O9 0.969446 0.346392 0.339682
O O10 0.071376 0.261011 0.950801
O O11 0.000000 0.000000 0.500000
O O12 0.354631 0.406216 0.583807
O O13 0.000000 0.500000 0.500000
O O14 0.588091 0.889853 0.506589
O O15 0.500224 0.814264 0.424557
O O16 0.596691 0.933812 0.945680
O O17 0.642910 0.131380 0.295952
#
# Coordination Sequence:
#
# PCOD9088552 Si02
#       8
#     2   2   2   2   2   2   2   2
#     4  12  24  42  71  92 127 166 228 262 319 386
#     4  12  27  42  64  95 137 166 214 269 332 395
#     4  11  26  46  65  95 132 173 219 277 341 393
#     4  12  24  43  66  99 128 174 212 271 320 390
#     4  11  26  44  68  94 127 173 222 276 328 404
#     4  10  19  37  61  98 126 162 217 266 309 381
#     4  12  22  43  64  96 129 172 212 268 322 385
#     4  10  20  35  65  94 127 165 213 267 316 371
#
# _framework density 22.130140999999998
#
# number of rings (size 3 to 8) (size 9 to 14) (size 15 to 20)
#    0.000    0.750    3.750    3.750    5.250    0.500 
#    0.000    1.250    0.000    0.000    0.000    0.000 
#    0.000    0.000    0.000    0.000    0.000    0.000 
#
# Total GULP energy -89157.107708 kJ/mol
# GULP energy per Si atom -5572.319232 kJ/mol
# Density = 2.207977 g / cm^3
# Si number density = 22.130141 Si / 1000 Ang^3
#
#
#
# Elastic Constant Matrix: (Units=GPa)
#
#
# Indices 1 2 3 4 5 6 
#
# 1 124.5968 -8.7067 13.8108 -24.4920 15.5115 -31.6620
# 2 -8.7067 101.7185 15.8495 -0.5678 -14.3128 7.0139
# 3 13.8108 15.8495 49.1313 -7.8837 12.3403 -4.6840
# 4 -24.4920 -0.5678 -7.8837 50.0900 -7.2204 3.7890
# 5 15.5115 -14.3128 12.3403 -7.2204 32.1212 3.0031
# 6 -31.6620 7.0139 -4.6840 3.7890 3.0031 48.8329
#
#
#
# Elastic Compliance Matrix: (Units=1/GPa)
#
#
# Indices 1 2 3 4 5 6 
#
# 1 0.011404 -0.000153 -0.000492 0.004201 -0.005130 0.007358
# 2 -0.000153 0.012143 -0.006146 0.000509 0.008239 -0.002979
# 3 -0.000492 -0.006146 0.026259 0.001732 -0.012547 0.003719
# 4 0.004201 0.000509 0.001732 0.022592 0.002526 0.000909
# 5 -0.005130 0.008239 -0.012547 0.002526 0.043471 -0.008582
# 6 0.007358 -0.002979 0.003719 0.000909 -0.008582 0.026491
#
#
# Mechanical properties :
#
#
# Convention : Reuss Voigt Hill
#
# Bulk Modulus (GPa) = 27.60647 35.26154 31.43400
# Shear Modulus (GPa) = 29.75901 43.17503 36.46702
#
# Velocity S-wave (km/s) = 3.67103 4.42176 4.06377
# Velocity P-wave (km/s) = 5.51999 6.48364 6.02113
#
# Compressibility (1/GPa) = 0.03622339
#
# Stress axis : x y z
#
# Youngs Moduli (GPa) = 87.68844 82.35114 38.08256
#
# Poissons Ratio (x) = 0.01259 0.01875
# Poissons Ratio (y) = 0.01341 0.23406
# Poissons Ratio (z) = 0.04317 0.50613
#
# Static dielectric constant tensor:
#      x y z
#    x 1.802860 -0.118550 0.062020 
#    y -0.118550 1.775090 0.136850 
#    z 0.062020 0.136850 1.702850 
# 
# From -- ./inp_files/47665.got.cif
#   From: 2010.05.17/outbox.cif.g08.bks.cpg/sg2_24_cif.got.tgz:47665.got - 2010.06.03 11:33:40.
