data_PCOD9088376
_publ_section_title
;
Structure prediction by ZEFSAII (Michael W. Deem and Ramdas Pophale) SiO2 
 PCOD9088376
Probable space group: P -1
;
_chemical_formula_sum "Si O2"
_cell_formula_units_Z 12
_cell_length_a 13.522228
_cell_length_b 7.082683
_cell_length_c 12.892753
_cell_angle_alpha 67.403739
_cell_angle_beta 22.525930
_cell_angle_gamma 73.656595
_cell_volume 427.193972
_symmetry_space_group_name_H-M "P -1"
_symmetry_group_IT_number 2
_symmetry_cell_setting 'triclinic'
loop_
_space_group_symop_operation_xyz
x,y,z
-x,-y,-z
loop_
_atom_site_type_symbol
_atom_site_label
_atom_site_fract_x
_atom_site_fract_y
_atom_site_fract_z
Si Si1 0.015239 0.692112 0.085986
Si Si2 0.252372 0.413579 0.182284
Si Si3 0.791926 0.169457 0.924164
Si Si4 0.304726 0.002456 0.287207
Si Si5 0.132636 0.241855 0.008638
Si Si6 0.601772 0.400313 0.645539
O O1 0.754055 0.631116 0.422557
O O2 0.227891 0.804969 0.937788
O O3 0.051107 0.457917 0.072864
O O4 0.966957 0.798671 0.003541
O O5 0.094797 0.600967 0.282907
O O6 0.137952 0.176956 0.381226
O O7 0.500000 0.500000 0.000000
O O8 0.384916 0.399343 0.944331
O O9 0.510129 0.097835 0.158755
O O10 0.059153 0.024106 0.189474
O O11 0.221454 0.758168 0.449277
O O12 0.500000 0.000000 0.000000
O O13 0.448176 0.305809 0.709699
#
# Coordination Sequence:
#
# PCOD9088376 Si02
#       6
#     2   2   2   2   2   2
#     4  11  22  38  60  90 113 153 200 239 282 346
#     4   9  17  35  60  81 114 155 184 234 295 336
#     4  10  19  37  61  81 120 154 186 240 293 341
#     4   8  17  34  61  81 111 157 185 230 295 338
#     4  10  22  40  59  82 125 153 186 243 296 336
#     4  10  19  38  62  84 117 154 194 235 289 349
#
# _framework density 28.090281999999998
#
# number of rings (size 3 to 8) (size 9 to 14) (size 15 to 20)
#    0.000    2.333    1.667    1.000    0.000    0.000 
#    9.000    9.167    0.000    0.000    0.000    0.000 
#    0.000    0.000    0.000    0.000    0.000    0.000 
#
# Total GULP energy -67102.363807 kJ/mol
# GULP energy per Si atom -5591.863651 kJ/mol
# Density = 2.802635 g / cm^3
# Si number density = 28.090282 Si / 1000 Ang^3
#
#
#
# Elastic Constant Matrix: (Units=GPa)
#
#
# Indices 1 2 3 4 5 6 
#
# 1 182.2282 20.8968 5.5843 3.4525 4.8952 -5.3110
# 2 20.8968 196.1012 28.5914 7.3058 1.4285 -36.5797
# 3 5.5843 28.5914 46.8644 4.5002 -3.5482 -10.7479
# 4 3.4525 7.3058 4.5002 49.8350 3.1076 5.5827
# 5 4.8952 1.4285 -3.5482 3.1076 23.1951 -8.5905
# 6 -5.3110 -36.5797 -10.7479 5.5827 -8.5905 68.9735
#
#
#
# Elastic Compliance Matrix: (Units=1/GPa)
#
#
# Indices 1 2 3 4 5 6 
#
# 1 0.005596 -0.000527 -0.000430 -0.000191 -0.001207 -0.000051
# 2 -0.000527 0.006153 -0.002893 -0.000961 0.000497 0.002911
# 3 -0.000430 -0.002893 0.024528 -0.002457 0.005513 0.003140
# 4 -0.000191 -0.000961 -0.002457 0.021060 -0.004262 -0.003143
# 5 -0.001207 0.000497 0.005513 -0.004262 0.047449 0.007284
# 6 -0.000051 0.002911 0.003140 -0.003143 0.007284 0.017689
#
#
# Mechanical properties :
#
#
# Convention : Reuss Voigt Hill
#
# Bulk Modulus (GPa) = 34.99470 59.48208 47.23839
# Shear Modulus (GPa) = 35.79088 53.07549 44.43319
#
# Velocity S-wave (km/s) = 3.57338 4.35151 3.98150
# Velocity P-wave (km/s) = 5.43234 6.81680 6.16357
#
# Compressibility (1/GPa) = 0.02857576
#
# Stress axis : x y z
#
# Youngs Moduli (GPa) = 178.70466 162.53114 40.76987
#
# Poissons Ratio (x) = 0.08568 0.01753
# Poissons Ratio (y) = 0.09421 0.11796
# Poissons Ratio (z) = 0.07683 0.47024
#
# Static dielectric constant tensor:
#      x y z
#    x 2.225050 0.078070 0.000720 
#    y 0.078070 2.261550 0.060120 
#    z 0.000720 0.060120 2.206550 
# 
# From -- ./inp_files/412022.got.cif
#   From: 2010.05.17/outbox.cif.g08.bks.cpg/sg2_207_cif.got.tgz:412022.got - 2010.06.03 11:33:40.
