data_PCOD9088932
_publ_section_title
;
Structure prediction by ZEFSAII (Michael W. Deem and Ramdas Pophale) SiO2 
 PCOD9088932
Probable space group: P -1
;
_chemical_formula_sum "Si O2"
_cell_formula_units_Z 16
_cell_length_a 18.682792
_cell_length_b 18.726630
_cell_length_c 8.930923
_cell_angle_alpha 123.766703
_cell_angle_beta 41.077097
_cell_angle_gamma 158.098501
_cell_volume 620.607760
_symmetry_space_group_name_H-M "P -1"
_symmetry_group_IT_number 2
_symmetry_cell_setting 'triclinic'
loop_
_space_group_symop_operation_xyz
x,y,z
-x,-y,-z
loop_
_atom_site_type_symbol
_atom_site_label
_atom_site_fract_x
_atom_site_fract_y
_atom_site_fract_z
Si Si1 0.300556 0.434217 0.864033
Si Si2 0.380505 0.064549 0.997235
Si Si3 0.605968 0.420838 0.628318
Si Si4 0.278658 0.731554 0.036376
Si Si5 0.848999 0.526531 0.657830
Si Si6 0.768270 0.810972 0.319471
Si Si7 0.856947 0.787446 0.598875
Si Si8 0.121516 0.702442 0.955998
O O1 0.444987 0.571586 0.640063
O O2 0.152408 0.231741 0.854561
O O3 0.597565 0.638397 0.735486
O O4 0.105030 0.362303 0.169550
O O5 0.426834 0.080642 0.121146
O O6 0.684952 0.329116 0.770439
O O7 0.115725 0.938902 0.260261
O O8 0.305505 0.920152 0.866940
O O9 0.615398 0.385018 0.732800
O O10 0.315006 0.213734 0.741450
O O11 0.719631 0.602224 0.677868
O O12 0.849137 0.545528 0.295834
O O13 0.301091 0.777815 0.883293
O O14 0.139444 0.706087 0.323992
O O15 0.033297 0.475135 0.121971
O O16 0.990512 0.034772 0.320889
#
# Coordination Sequence:
#
# PCOD9088932 Si02
#       8
#     2   2   2   2   2   2   2   2
#     4  10  22  38  61  90 118 151 200 249 287 341
#     4  11  21  37  63  87 115 157 196 240 289 350
#     4   9  21  39  59  87 122 155 192 244 295 344
#     4  10  21  40  61  86 121 154 191 241 297 346
#     4  11  23  40  57  89 131 150 183 257 303 329
#     4  10  19  37  64  84 110 160 206 231 284 358
#     4  10  20  38  65  86 113 156 208 238 280 353
#     4   9  20  38  63  88 112 155 204 235 278 360
#
# _framework density 25.781178000000001
#
# number of rings (size 3 to 8) (size 9 to 14) (size 15 to 20)
#    0.000    2.000    1.250    1.875    0.000    2.500 
#    0.000    5.000    0.000    0.000    0.000    0.000 
#    0.000    0.000    0.000    0.000    0.000    0.000 
#
# Total GULP energy -89684.271888 kJ/mol
# GULP energy per Si atom -5605.266993 kJ/mol
# Density = 2.572250 g / cm^3
# Si number density = 25.781178 Si / 1000 Ang^3
#
#
#
# Elastic Constant Matrix: (Units=GPa)
#
#
# Indices 1 2 3 4 5 6 
#
# 1 94.1759 39.9339 9.6080 2.5671 2.6506 3.9212
# 2 39.9339 173.3429 7.8463 31.9290 -4.9762 -0.4352
# 3 9.6080 7.8463 62.1011 23.6282 -6.1617 2.0155
# 4 2.5671 31.9290 23.6282 38.9803 -0.3303 -10.7344
# 5 2.6506 -4.9762 -6.1617 -0.3303 24.1143 -2.9204
# 6 3.9212 -0.4352 2.0155 -10.7344 -2.9204 28.9174
#
#
#
# Elastic Compliance Matrix: (Units=1/GPa)
#
#
# Indices 1 2 3 4 5 6 
#
# 1 0.012433 -0.003522 -0.003243 0.003910 -0.002912 -0.000356
# 2 -0.003522 0.008204 0.003384 -0.009300 0.002474 -0.002837
# 3 -0.003243 0.003384 0.024448 -0.019483 0.006087 -0.007831
# 4 0.003910 -0.009300 -0.019483 0.049962 -0.004367 0.018793
# 5 -0.002912 0.002474 0.006087 -0.004367 0.044140 0.002845
# 6 -0.000356 -0.002837 -0.007831 0.018793 0.002845 0.042396
#
#
# Mechanical properties :
#
#
# Convention : Reuss Voigt Hill
#
# Bulk Modulus (GPa) = 26.09447 49.37738 37.73593
# Shear Modulus (GPa) = 24.86095 36.55118 30.70606
#
# Velocity S-wave (km/s) = 3.10870 3.76938 3.45487
# Velocity P-wave (km/s) = 4.79884 6.17563 5.53024
#
# Compressibility (1/GPa) = 0.03832229
#
# Stress axis : x y z
#
# Youngs Moduli (GPa) = 80.43113 121.89202 40.90350
#
# Poissons Ratio (x) = 0.42931 0.13267
# Poissons Ratio (y) = 0.28328 -0.13843
# Poissons Ratio (z) = 0.26087 -0.41252
#
# Static dielectric constant tensor:
#      x y z
#    x 2.022430 -0.020540 0.010060 
#    y -0.020540 1.999660 -0.034640 
#    z 0.010060 -0.034640 2.044910 
# 
# From -- ./inp_files/349536.got.cif
#   From: 2010.05.17/outbox.cif.g08.bks.cpg/sg2_175_cif.got.tgz:349536.got - 2010.06.03 11:33:40.
