data_PCOD9088764
_publ_section_title
;
Structure prediction by ZEFSAII (Michael W. Deem and Ramdas Pophale) SiO2 
 PCOD9088764
Probable space group: P -1
;
_chemical_formula_sum "Si O2"
_cell_formula_units_Z 16
_cell_length_a 8.529902
_cell_length_b 8.307522
_cell_length_c 15.014836
_cell_angle_alpha 131.960605
_cell_angle_beta 72.697872
_cell_angle_gamma 103.674426
_cell_volume 754.326778
_symmetry_space_group_name_H-M "P -1"
_symmetry_group_IT_number 2
_symmetry_cell_setting 'triclinic'
loop_
_space_group_symop_operation_xyz
x,y,z
-x,-y,-z
loop_
_atom_site_type_symbol
_atom_site_label
_atom_site_fract_x
_atom_site_fract_y
_atom_site_fract_z
Si Si1 0.762749 0.071286 0.635837
Si Si2 0.477698 0.843755 0.684325
Si Si3 0.988267 0.014423 0.900376
Si Si4 0.625933 0.886173 0.871059
Si Si5 0.845365 0.371525 0.368495
Si Si6 0.708040 0.723312 0.103255
Si Si7 0.412130 0.492980 0.138840
Si Si8 0.949051 0.192104 0.473396
O O1 0.686400 0.288502 0.766307
O O2 0.819310 0.112681 0.540465
O O3 0.619838 0.884288 0.603173
O O4 0.924302 0.997190 0.632774
O O5 0.563865 0.867849 0.774467
O O6 0.348515 0.641150 0.623782
O O7 0.363184 0.048580 0.773163
O O8 0.063879 0.793746 0.771260
O O9 0.801842 0.010665 0.897693
O O10 0.098878 0.219107 0.918989
O O11 0.000000 0.000000 0.000000
O O12 0.636688 0.643567 0.816938
O O13 0.500000 0.000000 0.000000
O O14 0.869197 0.278685 0.429778
O O15 0.937414 0.605698 0.433387
O O16 0.608416 0.552137 0.120469
O O17 0.641327 0.652619 0.990865
#
# Coordination Sequence:
#
# PCOD9088764 Si02
#       8
#     2   2   2   2   2   2   2   2
#     4  10  22  39  62  90 117 165 199 258 304 362
#     4  10  21  39  62  90 125 158 205 252 309 363
#     4  11  20  36  62  93 121 159 201 248 312 361
#     4  12  21  36  59  92 126 166 201 247 304 375
#     4  10  22  42  65  89 122 159 205 262 300 364
#     4   9  19  37  59  88 122 165 192 253 304 374
#     4  10  19  37  63  85 130 160 199 244 318 355
#     4  10  22  42  64  90 119 159 213 252 305 353
#
# _framework density 21.210965999999999
#
# number of rings (size 3 to 8) (size 9 to 14) (size 15 to 20)
#    0.000    1.750    2.500    2.250    0.000    2.000 
#    0.000    9.375    0.000    0.000    0.000    0.000 
#    0.000    0.000    0.000    0.000    0.000    0.000 
#
# Total GULP energy -89343.246124 kJ/mol
# GULP energy per Si atom -5583.952883 kJ/mol
# Density = 2.116269 g / cm^3
# Si number density = 21.210966 Si / 1000 Ang^3
#
#
#
# Elastic Constant Matrix: (Units=GPa)
#
#
# Indices 1 2 3 4 5 6 
#
# 1 125.6552 53.4093 33.0262 -12.5918 5.6969 49.7225
# 2 53.4093 90.9758 33.7131 -9.8534 3.0068 37.7878
# 3 33.0262 33.7131 67.9224 -3.4227 -1.2709 22.0409
# 4 -12.5918 -9.8534 -3.4227 32.3777 1.6214 -6.4695
# 5 5.6969 3.0068 -1.2709 1.6214 30.9503 1.1973
# 6 49.7225 37.7878 22.0409 -6.4695 1.1973 38.9923
#
#
#
# Elastic Compliance Matrix: (Units=1/GPa)
#
#
# Indices 1 2 3 4 5 6 
#
# 1 0.016581 -0.001056 -0.001329 0.002328 -0.002394 -0.018909
# 2 -0.001056 0.019683 -0.004350 0.002223 -0.001438 -0.014856
# 3 -0.001329 -0.004350 0.019180 -0.000925 0.001702 -0.005137
# 4 0.002328 0.002223 -0.000925 0.032670 -0.002429 0.000895
# 5 -0.002394 -0.001438 0.001702 -0.002429 0.033007 0.002069
# 6 -0.018909 -0.014856 -0.005137 0.000895 0.002069 0.067144
#
#
# Mechanical properties :
#
#
# Convention : Reuss Voigt Hill
#
# Bulk Modulus (GPa) = 23.82502 58.31672 41.07087
# Shear Modulus (GPa) = 23.17733 31.42440 27.30087
#
# Velocity S-wave (km/s) = 3.30920 3.85322 3.59152
# Velocity P-wave (km/s) = 5.08506 6.88112 6.05011
#
# Compressibility (1/GPa) = 0.04197268
#
# Stress axis : x y z
#
# Youngs Moduli (GPa) = 60.31070 50.80528 52.13665
#
# Poissons Ratio (x) = 0.05366 0.06931
# Poissons Ratio (y) = 0.06370 0.22680
# Poissons Ratio (z) = 0.08018 0.22101
#
# Static dielectric constant tensor:
#      x y z
#    x 1.795010 0.019000 -0.027770 
#    y 0.019000 1.788870 0.015420 
#    z -0.027770 0.015420 1.750900 
# 
# From -- ./inp_files/455206.got.cif
#   From: 2010.05.17/outbox.cif.g08.bks.cpg/sg2_228_cif.got.tgz:455206.got - 2010.06.03 11:33:40.
