data_PCOD9088273
_publ_section_title
;
Structure prediction by ZEFSAII (Michael W. Deem and Ramdas Pophale) SiO2 
 PCOD9088273
Probable space group: P -1
;
_chemical_formula_sum "Si O2"
_cell_formula_units_Z 16
_cell_length_a 18.599991
_cell_length_b 5.735106
_cell_length_c 8.182853
_cell_angle_alpha 57.360762
_cell_angle_beta 76.751963
_cell_angle_gamma 79.069081
_cell_volume 713.158458
_symmetry_space_group_name_H-M "P -1"
_symmetry_group_IT_number 2
_symmetry_cell_setting 'triclinic'
loop_
_space_group_symop_operation_xyz
x,y,z
-x,-y,-z
loop_
_atom_site_type_symbol
_atom_site_label
_atom_site_fract_x
_atom_site_fract_y
_atom_site_fract_z
Si Si1 0.341215 0.928179 0.403356
Si Si2 0.169804 0.462529 0.043577
Si Si3 0.053569 0.373849 0.380039
Si Si4 0.311308 0.563734 0.107778
Si Si5 0.471682 0.695215 0.599591
Si Si6 0.089780 0.745592 0.668399
Si Si7 0.200990 0.826332 0.336555
Si Si8 0.442567 0.767708 0.098785
O O1 0.384378 0.767908 0.588309
O O2 0.256205 0.876573 0.440808
O O3 0.387805 0.816445 0.263657
O O4 0.343726 0.260122 0.267560
O O5 0.117020 0.538353 0.200001
O O6 0.255018 0.532210 0.998780
O O7 0.172595 0.126788 0.166429
O O8 0.130553 0.602893 0.854625
O O9 0.000000 0.500000 0.500000
O O10 0.995198 0.318124 0.285844
O O11 0.088739 0.079605 0.541002
O O12 0.253842 0.675705 0.233808
O O13 0.381472 0.750195 0.994046
O O14 0.500000 0.500000 0.500000
O O15 0.505124 0.512720 0.799840
O O16 0.500000 0.000000 0.500000
O O17 0.136270 0.664642 0.509859
O O18 0.500000 0.000000 0.000000
#
# Coordination Sequence:
#
# PCOD9088273 Si02
#       8
#     2   2   2   2   2   2   2   2
#     4   9  19  37  58  81 116 158 205 257 318 381
#     4  10  21  37  60  87 122 159 202 251 305 375
#     4  10  21  37  61  90 121 157 198 246 304 365
#     4  10  19  38  61  81 121 163 203 258 322 372
#     4  10  19  37  60  86 116 163 212 262 328 400
#     4  10  21  38  58  88 121 156 201 249 303 370
#     4   9  20  38  57  80 121 161 200 253 309 370
#     4  10  21  37  60  86 122 159 207 270 328 384
#
# _framework density 22.435407999999999
#
# number of rings (size 3 to 8) (size 9 to 14) (size 15 to 20)
#    0.000    2.250    1.250    1.125    0.000    2.000 
#    6.750    0.000    2.750    0.000    0.000    0.000 
#    0.000    0.000    0.000    0.000    0.000    0.000 
#
# Total GULP energy -89190.826027 kJ/mol
# GULP energy per Si atom -5574.426627 kJ/mol
# Density = 2.238434 g / cm^3
# Si number density = 22.435408 Si / 1000 Ang^3
#
#
#
# Elastic Constant Matrix: (Units=GPa)
#
#
# Indices 1 2 3 4 5 6 
#
# 1 184.9737 19.3538 73.6490 -19.9727 16.4606 7.2121
# 2 19.3538 77.4889 30.3131 -2.8626 11.2316 -17.3501
# 3 73.6490 30.3131 98.6023 -4.9791 29.5736 -4.3381
# 4 -19.9727 -2.8626 -4.9791 29.4918 -7.3340 -5.0535
# 5 16.4606 11.2316 29.5736 -7.3340 47.6771 -7.3829
# 6 7.2121 -17.3501 -4.3381 -5.0535 -7.3829 41.3355
#
#
#
# Elastic Compliance Matrix: (Units=1/GPa)
#
#
# Indices 1 2 3 4 5 6 
#
# 1 0.008479 0.000165 -0.006721 0.004855 0.001762 -0.001207
# 2 0.000165 0.016262 -0.004869 0.002126 0.000487 0.006633
# 3 -0.006721 -0.004869 0.019169 -0.004262 -0.009238 -0.001030
# 4 0.004855 0.002126 -0.004262 0.039519 0.007437 0.005758
# 5 0.001762 0.000487 -0.009238 0.007437 0.027871 0.004815
# 6 -0.001207 0.006633 -0.001030 0.005758 0.004815 0.028643
#
#
# Mechanical properties :
#
#
# Convention : Reuss Voigt Hill
#
# Bulk Modulus (GPa) = 47.48399 67.52185 57.50292
# Shear Modulus (GPa) = 29.44432 39.55082 34.49757
#
# Velocity S-wave (km/s) = 3.62664 4.20322 3.92553
# Velocity P-wave (km/s) = 6.22474 7.32922 6.79944
#
# Compressibility (1/GPa) = 0.02105973
#
# Stress axis : x y z
#
# Youngs Moduli (GPa) = 117.93433 61.49384 52.16827
#
# Poissons Ratio (x) = -0.01014 0.35060
# Poissons Ratio (y) = -0.01945 0.25402
# Poissons Ratio (z) = 0.79260 0.29943
#
# Static dielectric constant tensor:
#      x y z
#    x 1.877110 -0.051380 -0.028150 
#    y -0.051380 1.162970 -0.068420 
#    z -0.028150 -0.068420 1.805180 
# 
# From -- ./inp_files/128324.got.cif
#   From: 2010.05.17/outbox.cif.g08.bks.cpg/sg2_65_cif.got.tgz:128324.got - 2010.06.03 11:33:40.
