data_PCOD9088215
_publ_section_title
;
Structure prediction by ZEFSAII (Michael W. Deem and Ramdas Pophale) SiO2 
 PCOD9088215
Probable space group: P -1
;
_chemical_formula_sum "Si O2"
_cell_formula_units_Z 16
_cell_length_a 20.643343
_cell_length_b 9.872714
_cell_length_c 10.434716
_cell_angle_alpha 46.841303
_cell_angle_beta 33.212625
_cell_angle_gamma 36.735692
_cell_volume 696.143030
_symmetry_space_group_name_H-M "P -1"
_symmetry_group_IT_number 2
_symmetry_cell_setting 'triclinic'
loop_
_space_group_symop_operation_xyz
x,y,z
-x,-y,-z
loop_
_atom_site_type_symbol
_atom_site_label
_atom_site_fract_x
_atom_site_fract_y
_atom_site_fract_z
Si Si1 0.188933 0.312513 0.001435
Si Si2 0.255194 0.714896 0.796389
Si Si3 0.975350 0.191046 0.328154
Si Si4 0.578427 0.869710 0.790022
Si Si5 0.163976 0.408263 0.256603
Si Si6 0.463459 0.697399 0.291990
Si Si7 0.283553 0.303174 0.585718
Si Si8 0.931486 0.823811 0.074495
O O1 0.304663 0.252217 0.736699
O O2 0.086666 0.245506 0.159008
O O3 0.224443 0.246560 0.134058
O O4 0.077990 0.585076 0.015297
O O5 0.323908 0.696913 0.554064
O O6 0.403399 0.561829 0.733221
O O7 0.148429 0.982419 0.816093
O O8 0.177197 0.608202 0.057828
O O9 0.817128 0.424138 0.437672
O O10 0.024918 0.086983 0.173212
O O11 0.000000 0.000000 0.500000
O O12 0.732662 0.715843 0.711510
O O13 0.594791 0.810645 0.650917
O O14 0.531411 0.126138 0.732743
O O15 0.486635 0.788238 0.063073
O O16 0.000000 0.500000 0.500000
O O17 0.181130 0.226982 0.756960
#
# Coordination Sequence:
#
# PCOD9088215 Si02
#       8
#     2   2   2   2   2   2   2   2
#     4   9  20  36  47  81 120 150 171 209 293 354
#     4  10  20  35  56  83 111 146 191 232 268 328
#     4   9  18  28  51  77 107 145 187 224 260 331
#     4  10  19  37  60  82 110 142 191 239 272 312
#     4  11  23  34  54  84 123 149 170 220 300 345
#     4   9  20  35  57  83 102 145 201 243 256 299
#     4   9  17  34  55  74 109 147 184 225 268 323
#     4   9  17  31  52  77 111 146 181 222 268 326
#
# _framework density 22.983782999999999
#
# number of rings (size 3 to 8) (size 9 to 14) (size 15 to 20)
#    0.000    2.500    1.250    3.000    5.250    0.500 
#    0.000    0.000    0.000    7.500    0.000    0.000 
#    0.000    0.000    0.000    0.000    0.000    0.000 
#
# Total GULP energy -89107.088178 kJ/mol
# GULP energy per Si atom -5569.193011 kJ/mol
# Density = 2.293147 g / cm^3
# Si number density = 22.983783 Si / 1000 Ang^3
#
#
#
# Elastic Constant Matrix: (Units=GPa)
#
#
# Indices 1 2 3 4 5 6 
#
# 1 49.9901 24.5375 30.4666 14.2831 14.4491 -5.2048
# 2 24.5375 63.2075 43.3400 6.5063 6.7573 -11.3363
# 3 30.4666 43.3400 160.1066 6.8822 21.5066 -8.0217
# 4 14.2831 6.5063 6.8822 28.2370 9.5842 11.8810
# 5 14.4491 6.7573 21.5066 9.5842 30.9714 7.0928
# 6 -5.2048 -11.3363 -8.0217 11.8810 7.0928 20.8481
#
#
#
# Elastic Compliance Matrix: (Units=1/GPa)
#
#
# Indices 1 2 3 4 5 6 
#
# 1 0.035621 -0.005219 -0.001637 -0.021301 -0.012768 0.021908
# 2 -0.005219 0.024525 -0.004427 -0.008044 -0.000833 0.015197
# 3 -0.001637 -0.004427 0.008442 0.000705 -0.004726 0.001639
# 4 -0.021301 -0.008044 0.000705 0.067842 0.001323 -0.048533
# 5 -0.012768 -0.000833 -0.004726 0.001323 0.046332 -0.021976
# 6 0.021908 0.015197 0.001639 -0.048533 -0.021976 0.097464
#
#
# Mechanical properties :
#
#
# Convention : Reuss Voigt Hill
#
# Bulk Modulus (GPa) = 21.72833 52.22138 36.97485
# Shear Modulus (GPa) = 15.71678 27.67532 21.69605
#
# Velocity S-wave (km/s) = 2.61783 3.47381 3.07575
# Velocity P-wave (km/s) = 4.31413 6.23379 5.36059
#
# Compressibility (1/GPa) = 0.04602287
#
# Stress axis : x y z
#
# Youngs Moduli (GPa) = 28.07339 40.77521 118.45157
#
# Poissons Ratio (x) = 0.21280 0.19393
# Poissons Ratio (y) = 0.14651 0.52433
# Poissons Ratio (z) = 0.04596 0.18049
#
# Static dielectric constant tensor:
#      x y z
#    x 1.928980 -0.029410 0.042360 
#    y -0.029410 1.836780 0.059220 
#    z 0.042360 0.059220 1.831340 
# 
# From -- ./inp_files/264670.got.cif
#   From: 2010.05.17/outbox.cif.g08.bks.cpg/sg2_133_cif.got.tgz:264670.got - 2010.06.03 11:33:40.
