data_PCOD9088656
_publ_section_title
;
Structure prediction by ZEFSAII (Michael W. Deem and Ramdas Pophale) SiO2 
 PCOD9088656
Probable space group: P -1
;
_chemical_formula_sum "Si O2"
_cell_formula_units_Z 13
_cell_length_a 7.078825
_cell_length_b 10.372710
_cell_length_c 13.878106
_cell_angle_alpha 56.836314
_cell_angle_beta 38.984346
_cell_angle_gamma 80.364746
_cell_volume 467.929509
_symmetry_space_group_name_H-M "P -1"
_symmetry_group_IT_number 2
_symmetry_cell_setting 'triclinic'
loop_
_space_group_symop_operation_xyz
x,y,z
-x,-y,-z
loop_
_atom_site_type_symbol
_atom_site_label
_atom_site_fract_x
_atom_site_fract_y
_atom_site_fract_z
Si Si1 0.883455 0.795809 0.151584
Si Si2 0.709027 0.683482 0.609384
Si Si3 0.216548 0.643715 0.971235
Si Si4 0.000000 0.500000 0.500000
Si Si5 0.936913 0.895971 0.690747
Si Si6 0.434135 0.809000 0.077911
Si Si7 0.174167 0.670357 0.593226
O O1 0.528240 0.710721 0.387113
O O2 0.137562 0.760334 0.135510
O O3 0.974506 0.728497 0.044708
O O4 0.000000 0.000000 0.000000
O O5 0.340519 0.617446 0.828216
O O6 0.734878 0.587796 0.544134
O O7 0.925404 0.615055 0.619051
O O8 0.913936 0.895117 0.441786
O O9 0.604401 0.790825 0.795806
O O10 0.042008 0.472199 0.180347
O O11 0.680567 0.311143 0.734975
O O12 0.210427 0.847967 0.555708
O O13 0.763634 0.815286 0.893999
O O14 0.500000 0.000000 0.000000
#
# Coordination Sequence:
#
# PCOD9088656 Si02
#       7
#     2   2   2   1   2   2   2
#     4  11  23  40  65  96 127 164 214 271 328 368
#     4  11  20  36  62  92 123 172 215 261 311 385
#     4  10  20  35  59  93 125 161 218 261 319 374
#     4  12  24  38  68  90 132 168 220 252 318 388
#     4  10  19  37  62  90 123 166 217 262 311 379
#     4  11  23  44  64  95 129 173 214 256 321 393
#     4  11  20  36  62  92 126 159 215 277 315 365
#
# _framework density 27.781960000000002
#
# number of rings (size 3 to 8) (size 9 to 14) (size 15 to 20)
#    0.000    1.231    1.538    9.692    0.000    0.000 
#    0.000    0.769    0.000    2.769    0.000    0.000 
#    0.000    0.000    0.000    0.000    0.000    0.000 
#
# Total GULP energy -72525.593342 kJ/mol
# GULP energy per Si atom -5578.891796 kJ/mol
# Density = 2.771873 g / cm^3
# Si number density = 27.781960 Si / 1000 Ang^3
#
#
#
# Elastic Constant Matrix: (Units=GPa)
#
#
# Indices 1 2 3 4 5 6 
#
# 1 75.3863 -1.4788 35.6895 6.0309 15.4426 -8.2881
# 2 -1.4788 192.3614 74.9797 17.7628 0.4171 -9.7065
# 3 35.6895 74.9797 220.4079 31.3993 18.8455 -13.4577
# 4 6.0309 17.7628 31.3993 82.5526 -9.5249 7.8534
# 5 15.4426 0.4171 18.8455 -9.5249 53.5923 -0.6146
# 6 -8.2881 -9.7065 -13.4577 7.8534 -0.6146 20.7879
#
#
#
# Elastic Compliance Matrix: (Units=1/GPa)
#
#
# Indices 1 2 3 4 5 6 
#
# 1 0.015944 0.001418 -0.002086 -0.001741 -0.004110 0.006205
# 2 0.001418 0.006227 -0.002088 -0.000865 0.000151 0.002453
# 3 -0.002086 -0.002088 0.006267 -0.002300 -0.001960 0.003061
# 4 -0.001741 -0.000865 -0.002300 0.014497 0.003802 -0.007951
# 5 -0.004110 0.000151 -0.001960 0.003802 0.021166 -0.003648
# 6 0.006205 0.002453 0.003061 -0.007951 -0.003648 0.056602
#
#
# Mechanical properties :
#
#
# Convention : Reuss Voigt Hill
#
# Bulk Modulus (GPa) = 43.61704 78.50406 61.06055
# Shear Modulus (GPa) = 37.35404 56.65091 47.00247
#
# Velocity S-wave (km/s) = 3.67078 4.52057 4.11765
# Velocity P-wave (km/s) = 5.80517 7.45425 6.68079
#
# Compressibility (1/GPa) = 0.02292682
#
# Stress axis : x y z
#
# Youngs Moduli (GPa) = 62.72066 160.60213 159.56195
#
# Poissons Ratio (x) = -0.22780 0.33283
# Poissons Ratio (y) = -0.08896 0.33314
# Poissons Ratio (z) = 0.13083 0.33531
#
# Static dielectric constant tensor:
#      x y z
#    x 1.908960 -0.479200 -0.345700 
#    y -0.479200 1.623950 -0.364650 
#    z -0.345700 -0.364650 2.013730 
# 
# From -- ./inp_files/177482.got.cif
#   From: 2010.05.17/outbox.cif.g08.bks.cpg/sg2_89_cif.got.tgz:177482.got - 2010.06.03 11:33:40.
