data_PCOD9088345
_publ_section_title
;
Structure prediction by ZEFSAII (Michael W. Deem and Ramdas Pophale) SiO2 
 PCOD9088345
Probable space group: P -1
;
_chemical_formula_sum "Si O2"
_cell_formula_units_Z 16
_cell_length_a 18.289033
_cell_length_b 15.106030
_cell_length_c 9.186295
_cell_angle_alpha 118.916494
_cell_angle_beta 40.631248
_cell_angle_gamma 149.018598
_cell_volume 737.474950
_symmetry_space_group_name_H-M "P -1"
_symmetry_group_IT_number 2
_symmetry_cell_setting 'triclinic'
loop_
_space_group_symop_operation_xyz
x,y,z
-x,-y,-z
loop_
_atom_site_type_symbol
_atom_site_label
_atom_site_fract_x
_atom_site_fract_y
_atom_site_fract_z
Si Si1 0.533677 0.385163 0.995142
Si Si2 0.852109 0.866987 0.818757
Si Si3 0.008755 0.660861 0.505838
Si Si4 0.035911 0.201887 0.650922
Si Si5 0.678859 0.493272 0.295511
Si Si6 0.795420 0.386431 0.868876
Si Si7 0.273686 0.302035 0.841182
Si Si8 0.340543 0.046668 0.161735
O O1 0.766858 0.513274 0.713970
O O2 0.392489 0.290363 0.988696
O O3 0.575192 0.519535 0.127077
O O4 0.398626 0.209177 0.172088
O O5 0.895946 0.800978 0.604142
O O6 0.890287 0.876108 0.937510
O O7 0.992584 0.070291 0.712382
O O8 0.969541 0.583020 0.662681
O O9 0.093720 0.630929 0.260305
O O10 0.188976 0.888300 0.395852
O O11 0.205547 0.401068 0.640171
O O12 0.815323 0.092959 0.854565
O O13 0.428907 0.339805 0.561398
O O14 0.789430 0.657232 0.141626
O O15 0.704723 0.398836 0.128058
O O16 0.583462 0.190140 0.934297
#
# Coordination Sequence:
#
# PCOD9088345 Si02
#       8
#     2   2   2   2   2   2   2   2
#     4  10  19  37  60  94 115 148 211 253 278 364
#     4  10  21  37  60  87 123 170 201 241 291 380
#     4  10  20  37  69  87 108 169 212 246 299 361
#     4  10  22  36  60  92 126 154 209 248 299 366
#     4  11  23  38  55  92 131 156 188 265 306 354
#     4  10  22  42  60  90 124 152 212 257 295 359
#     4  11  21  36  60  83 127 167 190 241 318 358
#     4  10  20  37  63  87 117 157 207 250 291 366
#
# _framework density 21.695651999999999
#
# number of rings (size 3 to 8) (size 9 to 14) (size 15 to 20)
#    0.000    1.750    3.750    1.500    1.750    0.500 
#    2.250    0.625    0.000    7.500    0.000    0.000 
#    0.000    0.000    0.000    0.000    0.000    0.000 
#
# Total GULP energy -89204.052733 kJ/mol
# GULP energy per Si atom -5575.253296 kJ/mol
# Density = 2.164627 g / cm^3
# Si number density = 21.695652 Si / 1000 Ang^3
#
#
#
# Elastic Constant Matrix: (Units=GPa)
#
#
# Indices 1 2 3 4 5 6 
#
# 1 78.2051 38.1836 48.6006 0.4148 0.4173 -11.5635
# 2 38.1836 53.5378 37.7632 2.2558 -10.4513 -0.7563
# 3 48.6006 37.7632 102.3667 6.0184 -13.0381 -11.2430
# 4 0.4148 2.2558 6.0184 38.7139 -11.0978 5.1448
# 5 0.4173 -10.4513 -13.0381 -11.0978 45.4151 -1.1604
# 6 -11.5635 -0.7563 -11.2430 5.1448 -1.1604 35.2013
#
#
#
# Elastic Compliance Matrix: (Units=1/GPa)
#
#
# Indices 1 2 3 4 5 6 
#
# 1 0.024406 -0.013710 -0.006552 -0.000699 -0.005289 0.005558
# 2 -0.013710 0.033666 -0.005808 0.001698 0.006476 -0.005670
# 3 -0.006552 -0.005808 0.015836 -0.001620 0.002953 0.003115
# 4 -0.000699 0.001698 -0.001620 0.028557 0.006791 -0.004660
# 5 -0.005289 0.006476 0.002953 0.006791 0.026045 -0.000789
# 6 0.005558 -0.005670 0.003115 -0.004660 -0.000789 0.031762
#
#
# Mechanical properties :
#
#
# Convention : Reuss Voigt Hill
#
# Bulk Modulus (GPa) = 45.93909 53.68936 49.81423
# Shear Modulus (GPa) = 22.76180 31.17023 26.96601
#
# Velocity S-wave (km/s) = 3.24256 3.79450 3.52934
# Velocity P-wave (km/s) = 5.93626 6.63310 6.29433
#
# Compressibility (1/GPa) = 0.02176795
#
# Stress axis : x y z
#
# Youngs Moduli (GPa) = 40.97359 29.70400 63.14910
#
# Poissons Ratio (x) = 0.40723 0.41374
# Poissons Ratio (y) = 0.56173 0.36677
# Poissons Ratio (z) = 0.26845 0.17252
#
# Static dielectric constant tensor:
#      x y z
#    x 1.832720 -0.014110 0.022240 
#    y -0.014110 1.835020 -0.069220 
#    z 0.022240 -0.069220 1.881950 
# 
# From -- ./inp_files/348490.got.cif
#   From: 2010.05.17/outbox.cif.g08.bks.cpg/sg2_175_cif.got.tgz:348490.got - 2010.06.03 11:33:40.
