data_PCOD9088398
_publ_section_title
;
Structure prediction by ZEFSAII (Michael W. Deem and Ramdas Pophale) SiO2 
 PCOD9088398
Probable space group: P -1
;
_chemical_formula_sum "Si O2"
_cell_formula_units_Z 16
_cell_length_a 12.186849
_cell_length_b 16.626346
_cell_length_c 9.534027
_cell_angle_alpha 122.105746
_cell_angle_beta 72.201257
_cell_angle_gamma 153.557890
_cell_volume 650.262149
_symmetry_space_group_name_H-M "P -1"
_symmetry_group_IT_number 2
_symmetry_cell_setting 'triclinic'
loop_
_space_group_symop_operation_xyz
x,y,z
-x,-y,-z
loop_
_atom_site_type_symbol
_atom_site_label
_atom_site_fract_x
_atom_site_fract_y
_atom_site_fract_z
Si Si1 0.157803 0.461522 0.354295
Si Si2 0.452645 0.812013 0.756495
Si Si3 0.734037 0.877815 0.347053
Si Si4 0.635679 0.394851 0.005309
Si Si5 0.788055 0.712565 0.267307
Si Si6 0.832996 0.265798 0.019002
Si Si7 0.257920 0.135704 0.173832
Si Si8 0.198565 0.287060 0.247575
O O1 0.202453 0.582890 0.552495
O O2 0.449830 0.672209 0.354763
O O3 0.112792 0.331830 0.341536
O O4 0.940160 0.312128 0.175284
O O5 0.335371 0.765672 0.906216
O O6 0.660188 0.878717 0.755255
O O7 0.624997 0.028798 0.826757
O O8 0.632079 0.833426 0.192957
O O9 0.827256 0.836887 0.275475
O O10 0.962977 0.108106 0.553721
O O11 0.897721 0.525937 0.990418
O O12 0.737803 0.576128 0.081419
O O13 0.522611 0.326670 0.141617
O O14 0.505618 0.519959 0.281769
O O15 0.214173 0.215124 0.290961
O O16 0.998387 0.902357 0.972235
#
# Coordination Sequence:
#
# PCOD9088398 Si02
#       8
#     2   2   2   2   2   2   2   2
#     4  10  19  37  61  84 114 146 187 237 281 328
#     4  11  22  38  62  84 111 148 194 236 274 335
#     4   9  18  32  52  84 111 144 187 224 281 335
#     4  10  20  36  56  76 116 148 177 236 279 327
#     4   9  17  33  52  82 111 144 190 226 273 333
#     4  10  22  39  61  86 108 147 195 237 281 321
#     4  10  21  39  56  85 118 152 186 222 286 342
#     4   9  19  38  54  82 118 149 186 223 276 347
#
# _framework density 24.605463
#
# number of rings (size 3 to 8) (size 9 to 14) (size 15 to 20)
#    0.000    2.250    1.250    1.500    0.000    2.000 
#   24.750    0.000    0.000    0.750    0.000    0.000 
#    0.000    0.000    0.000    0.000    0.000    0.000 
#
# Total GULP energy -89473.908668 kJ/mol
# GULP energy per Si atom -5592.119292 kJ/mol
# Density = 2.454946 g / cm^3
# Si number density = 24.605463 Si / 1000 Ang^3
#
#
#
# Elastic Constant Matrix: (Units=GPa)
#
#
# Indices 1 2 3 4 5 6 
#
# 1 100.3543 3.8697 30.0019 10.6379 -10.1671 3.1390
# 2 3.8697 68.5144 17.1645 12.0103 2.8370 4.6170
# 3 30.0019 17.1645 111.7207 14.0795 -16.3315 -4.2962
# 4 10.6379 12.0103 14.0795 36.5414 4.2223 3.8066
# 5 -10.1671 2.8370 -16.3315 4.2223 25.1906 6.0262
# 6 3.1390 4.6170 -4.2962 3.8066 6.0262 32.2721
#
#
#
# Elastic Compliance Matrix: (Units=1/GPa)
#
#
# Indices 1 2 3 4 5 6 
#
# 1 0.011388 0.000377 -0.002241 -0.002846 0.004027 -0.001876
# 2 0.000377 0.016103 -0.002451 -0.004023 -0.002148 -0.001791
# 3 -0.002241 -0.002451 0.011528 -0.003945 0.007214 0.001221
# 4 -0.002846 -0.004023 -0.003945 0.032184 -0.008183 -0.001941
# 5 0.004027 -0.002148 0.007214 -0.008183 0.049379 -0.007379
# 6 -0.001876 -0.001791 0.001221 -0.001941 -0.007379 0.033195
#
#
# Mechanical properties :
#
#
# Convention : Reuss Voigt Hill
#
# Bulk Modulus (GPa) = 32.90683 42.51795 37.71239
# Shear Modulus (GPa) = 28.97917 34.10438 31.54178
#
# Velocity S-wave (km/s) = 3.43556 3.72701 3.58425
# Velocity P-wave (km/s) = 5.39818 5.98650 5.69993
#
# Compressibility (1/GPa) = 0.03038882
#
# Stress axis : x y z
#
# Youngs Moduli (GPa) = 87.80820 62.09979 86.74559
#
# Poissons Ratio (x) = -0.02339 0.19440
# Poissons Ratio (y) = -0.03308 0.21262
# Poissons Ratio (z) = 0.19678 0.15221
#
# Static dielectric constant tensor:
#      x y z
#    x 1.999080 -0.032210 0.006460 
#    y -0.032210 2.010340 -0.017110 
#    z 0.006460 -0.017110 1.919300 
# 
# From -- ./inp_files/256108.got.cif
#   From: 2010.05.17/outbox.cif.g08.bks.cpg/sg2_129_cif.got.tgz:256108.got - 2010.06.03 11:33:40.
