data_PCOD9088860
_publ_section_title
;
Structure prediction by ZEFSAII (Michael W. Deem and Ramdas Pophale) SiO2 
 PCOD9088860
Probable space group: P -1
;
_chemical_formula_sum "Si O2"
_cell_formula_units_Z 16
_cell_length_a 9.246330
_cell_length_b 7.427460
_cell_length_c 13.215280
_cell_angle_alpha 47.560097
_cell_angle_beta 90.346567
_cell_angle_gamma 108.385704
_cell_volume 607.250689
_symmetry_space_group_name_H-M "P -1"
_symmetry_group_IT_number 2
_symmetry_cell_setting 'triclinic'
loop_
_space_group_symop_operation_xyz
x,y,z
-x,-y,-z
loop_
_atom_site_type_symbol
_atom_site_label
_atom_site_fract_x
_atom_site_fract_y
_atom_site_fract_z
Si Si1 0.137156 0.415863 0.145419
Si Si2 0.182274 0.922525 0.615177
Si Si3 0.059138 0.461609 0.624889
Si Si4 0.652849 0.780640 0.911351
Si Si5 0.131965 0.888361 0.059095
Si Si6 0.378483 0.438194 0.298520
Si Si7 0.491235 0.047479 0.326791
Si Si8 0.621468 0.538066 0.395192
O O1 0.205312 0.286968 0.108954
O O2 0.114812 0.692534 0.037143
O O3 0.275623 0.519986 0.192118
O O4 0.977831 0.185583 0.279054
O O5 0.134502 0.740243 0.583001
O O6 0.320011 0.877721 0.696768
O O7 0.257297 0.230687 0.459546
O O8 0.189848 0.338934 0.654977
O O9 0.000000 0.500000 0.500000
O O10 0.925324 0.280418 0.771567
O O11 0.602572 0.982590 0.768003
O O12 0.701777 0.880478 0.987899
O O13 0.500000 0.500000 0.000000
O O14 0.000000 0.000000 0.000000
O O15 0.447152 0.263650 0.300071
O O16 0.537712 0.649453 0.270954
O O17 0.417599 0.777207 0.494541
O O18 0.500000 0.500000 0.500000
#
# Coordination Sequence:
#
# PCOD9088860 Si02
#       8
#     2   2   2   2   2   2   2   2
#     4  10  25  42  71 102 134 181 242 286 354 421
#     4  10  19  38  66  96 140 181 220 286 353 415
#     4  11  23  40  69  99 143 179 227 290 353 411
#     4  11  27  48  75  94 134 188 243 295 347 421
#     4  11  28  49  73 105 145 183 235 298 358 418
#     4  10  19  37  63  91 135 178 217 274 342 415
#     4  10  20  41  63  94 134 179 226 276 346 412
#     4  11  22  34  59 100 136 173 220 279 345 412
#
# _framework density 26.34826
#
# number of rings (size 3 to 8) (size 9 to 14) (size 15 to 20)
#    0.000    1.500    2.500    1.875   10.500    3.000 
#    2.250    0.000    0.000    0.000    0.000    0.000 
#    0.000    0.000    0.000    0.000    0.000    0.000 
#
# Total GULP energy -89351.311648 kJ/mol
# GULP energy per Si atom -5584.456978 kJ/mol
# Density = 2.628829 g / cm^3
# Si number density = 26.348260 Si / 1000 Ang^3
#
#
#
# Elastic Constant Matrix: (Units=GPa)
#
#
# Indices 1 2 3 4 5 6 
#
# 1 115.2867 10.9365 12.1040 7.5287 -6.9515 -3.2972
# 2 10.9365 98.1123 10.3484 5.5011 -1.9330 5.7685
# 3 12.1040 10.3484 63.5195 11.2504 -8.4984 1.8543
# 4 7.5287 5.5011 11.2504 25.7926 -3.8845 1.1355
# 5 -6.9515 -1.9330 -8.4984 -3.8845 49.9016 9.6748
# 6 -3.2972 5.7685 1.8543 1.1355 9.6748 54.0292
#
#
#
# Elastic Compliance Matrix: (Units=1/GPa)
#
#
# Indices 1 2 3 4 5 6 
#
# 1 0.009059 -0.000800 -0.001179 -0.001869 0.000772 0.000580
# 2 -0.000800 0.010563 -0.001263 -0.001389 0.000195 -0.001139
# 3 -0.001179 -0.001263 0.017713 -0.006708 0.002445 -0.000842
# 4 -0.001869 -0.001389 -0.006708 0.042896 0.002078 -0.001009
# 5 0.000772 0.000195 0.002445 0.002078 0.021499 -0.003951
# 6 0.000580 -0.001139 -0.000842 -0.001009 -0.003951 0.019423
#
#
# Mechanical properties :
#
#
# Convention : Reuss Voigt Hill
#
# Bulk Modulus (GPa) = 32.41178 38.18849 35.30014
# Shear Modulus (GPa) = 36.25294 42.18001 39.21647
#
# Velocity S-wave (km/s) = 3.71336 4.00542 3.86215
# Velocity P-wave (km/s) = 5.54196 5.99303 5.77190
#
# Compressibility (1/GPa) = 0.03085298
#
# Stress axis : x y z
#
# Youngs Moduli (GPa) = 110.38989 94.66591 56.45491
#
# Poissons Ratio (x) = 0.07569 0.06653
# Poissons Ratio (y) = 0.08826 0.07131
# Poissons Ratio (z) = 0.13010 0.11958
#
# Static dielectric constant tensor:
#      x y z
#    x 2.261060 0.320790 0.057370 
#    y 0.320790 2.993400 0.037760 
#    z 0.057370 0.037760 2.157430 
# 
# From -- ./inp_files/492056.got.cif
#   From: 2010.05.17/outbox.cif.g08.bks.cpg/sg2_247_cif.got.tgz:492056.got - 2010.06.03 11:33:40.
