data_PCOD9088366
_publ_section_title
;
Structure prediction by ZEFSAII (Michael W. Deem and Ramdas Pophale) SiO2 
 PCOD9088366
Probable space group: P -1
;
_chemical_formula_sum "Si O2"
_cell_formula_units_Z 16
_cell_length_a 12.569093
_cell_length_b 11.541458
_cell_length_c 7.144497
_cell_angle_alpha 84.019984
_cell_angle_beta 67.154274
_cell_angle_gamma 45.237064
_cell_volume 655.089135
_symmetry_space_group_name_H-M "P -1"
_symmetry_group_IT_number 2
_symmetry_cell_setting 'triclinic'
loop_
_space_group_symop_operation_xyz
x,y,z
-x,-y,-z
loop_
_atom_site_type_symbol
_atom_site_label
_atom_site_fract_x
_atom_site_fract_y
_atom_site_fract_z
Si Si1 0.218100 0.919330 0.974902
Si Si2 0.562210 0.670456 0.888528
Si Si3 0.456750 0.052711 0.241131
Si Si4 0.185845 0.220107 0.914184
Si Si5 0.176898 0.686841 0.349594
Si Si6 0.090780 0.317298 0.387883
Si Si7 0.158520 0.809495 0.701138
Si Si8 0.160714 0.600304 0.994359
O O1 0.370609 0.779599 0.031153
O O2 0.250172 0.833261 0.768991
O O3 0.213180 0.061532 0.932095
O O4 0.036500 0.025372 0.159072
O O5 0.565870 0.790868 0.760842
O O6 0.646737 0.509146 0.733871
O O7 0.679656 0.586426 0.006121
O O8 0.267005 0.150439 0.393251
O O9 0.624628 0.879274 0.255866
O O10 0.500000 0.000000 0.000000
O O11 0.007852 0.353932 0.904903
O O12 0.140728 0.297138 0.140009
O O13 0.184621 0.787844 0.466836
O O14 0.139865 0.716076 0.148160
O O15 0.036365 0.697158 0.510518
O O16 0.000000 0.500000 0.500000
O O17 0.192097 0.652777 0.779591
#
# Coordination Sequence:
#
# PCOD9088366 Si02
#       8
#     2   2   2   2   2   2   2   2
#     4   9  18  34  59  81 105 151 177 215 274 325
#     4   9  19  34  54  81 115 132 183 231 262 312
#     4   9  18  31  55  80 101 146 179 214 275 319
#     4   9  18  36  57  75 112 143 176 222 267 322
#     4  10  20  34  56  80 113 138 181 225 263 318
#     4  11  17  32  57  79 103 142 179 218 269 318
#     4  10  19  37  61  75 109 149 182 212 274 324
#     4   9  19  35  56  80 112 138 179 227 265 313
#
# _framework density 24.424157999999998
#
# number of rings (size 3 to 8) (size 9 to 14) (size 15 to 20)
#    0.750    1.750    3.750    0.000    0.000    1.000 
#    0.000   11.875   11.000    0.000    0.000    0.000 
#    0.000    0.000    0.000    0.000    0.000    0.000 
#
# Total GULP energy -89206.138667 kJ/mol
# GULP energy per Si atom -5575.383667 kJ/mol
# Density = 2.436857 g / cm^3
# Si number density = 24.424158 Si / 1000 Ang^3
#
#
#
# Elastic Constant Matrix: (Units=GPa)
#
#
# Indices 1 2 3 4 5 6 
#
# 1 72.5412 51.6605 31.4743 6.8201 10.0280 -27.7054
# 2 51.6605 93.7538 10.5104 0.2626 -7.1447 -43.3461
# 3 31.4743 10.5104 68.6350 -7.0207 17.5992 -5.2749
# 4 6.8201 0.2626 -7.0207 21.3491 -5.6051 -1.9276
# 5 10.0280 -7.1447 17.5992 -5.6051 39.9354 7.2473
# 6 -27.7054 -43.3461 -5.2749 -1.9276 7.2473 53.8470
#
#
#
# Elastic Compliance Matrix: (Units=1/GPa)
#
#
# Indices 1 2 3 4 5 6 
#
# 1 0.036479 -0.017415 -0.013068 -0.017932 -0.009786 0.004146
# 2 -0.017415 0.025561 0.004307 0.009352 0.006268 0.011529
# 3 -0.013068 0.004307 0.022009 0.010247 -0.004178 -0.000172
# 4 -0.017932 0.009352 0.010247 0.058415 0.009846 0.000072
# 5 -0.009786 0.006268 -0.004178 0.009846 0.032648 -0.004440
# 6 0.004146 0.011529 -0.000172 0.000072 -0.004440 0.030569
#
#
# Mechanical properties :
#
#
# Convention : Reuss Voigt Hill
#
# Bulk Modulus (GPa) = 31.54737 46.91337 39.23037
# Shear Modulus (GPa) = 18.61514 32.44527 25.53021
#
# Velocity S-wave (km/s) = 2.76372 3.64869 3.23659
# Velocity P-wave (km/s) = 4.80923 6.08277 5.48310
#
# Compressibility (1/GPa) = 0.03169837
#
# Stress axis : x y z
#
# Youngs Moduli (GPa) = 27.41288 39.12181 45.43554
#
# Poissons Ratio (x) = 0.68129 0.59375
# Poissons Ratio (y) = 0.47739 -0.19569
# Poissons Ratio (z) = 0.35823 -0.16850
#
# Static dielectric constant tensor:
#      x y z
#    x 2.027640 -0.044870 0.017380 
#    y -0.044870 1.984100 -0.034940 
#    z 0.017380 -0.034940 1.961480 
# 
# From -- ./inp_files/311682.got.cif
#   From: 2010.05.17/outbox.cif.g08.bks.cpg/sg2_156_cif.got.tgz:311682.got - 2010.06.03 11:33:40.
