data_PCOD9088180
_publ_section_title
;
Structure prediction by ZEFSAII (Michael W. Deem and Ramdas Pophale) SiO2 
 PCOD9088180
Probable space group: P -1
;
_chemical_formula_sum "Si O2"
_cell_formula_units_Z 16
_cell_length_a 8.371294
_cell_length_b 15.528511
_cell_length_c 11.357297
_cell_angle_alpha 63.676339
_cell_angle_beta 56.228409
_cell_angle_gamma 35.304660
_cell_volume 709.099214
_symmetry_space_group_name_H-M "P -1"
_symmetry_group_IT_number 2
_symmetry_cell_setting 'triclinic'
loop_
_space_group_symop_operation_xyz
x,y,z
-x,-y,-z
loop_
_atom_site_type_symbol
_atom_site_label
_atom_site_fract_x
_atom_site_fract_y
_atom_site_fract_z
Si Si1 0.319993 0.926199 0.392287
Si Si2 0.091257 0.637501 0.981017
Si Si3 0.030999 0.871717 0.919715
Si Si4 0.588131 0.727958 0.628328
Si Si5 0.564012 0.921060 0.644301
Si Si6 0.277495 0.534405 0.233436
Si Si7 0.481766 0.800424 0.141141
Si Si8 0.095950 0.802859 0.192261
O O1 0.523952 0.800754 0.485586
O O2 0.294327 0.051272 0.347748
O O3 0.451483 0.850368 0.256686
O O4 0.000000 0.000000 0.500000
O O5 0.207332 0.557208 0.109072
O O6 0.818571 0.674773 0.033004
O O7 0.387211 0.549752 0.839945
O O8 0.940051 0.799369 0.963870
O O9 0.267075 0.821997 0.760026
O O10 0.740504 0.047942 0.935265
O O11 0.809024 0.204002 0.974406
O O12 0.746960 0.564410 0.652025
O O13 0.714288 0.762425 0.643879
O O14 0.231763 0.028532 0.762157
O O15 0.500000 0.000000 0.500000
O O16 0.077459 0.695177 0.271171
O O17 0.325471 0.757125 0.219240
#
# Coordination Sequence:
#
# PCOD9088180 Si02
#       8
#     2   2   2   2   2   2   2   2
#     4  11  21  38  59  90 122 152 194 256 298 344
#     4   9  20  36  59  83 121 161 196 249 299 347
#     4  10  19  37  59  91 119 154 201 250 300 353
#     4  10  20  40  64  86 116 162 202 241 297 359
#     4  10  21  39  61  88 115 155 200 241 297 351
#     4   9  20  41  59  83 124 163 198 235 302 366
#     4  12  21  35  59  92 124 153 205 251 298 344
#     4  11  22  39  63  90 123 161 195 244 301 363
#
# _framework density 22.563838000000001
#
# number of rings (size 3 to 8) (size 9 to 14) (size 15 to 20)
#    0.000    1.750    2.500    3.750    0.000    0.500 
#    0.000    7.500    0.000    0.000    0.000    0.000 
#    0.000    0.000    0.000    0.000    0.000    0.000 
#
# Total GULP energy -89337.175268 kJ/mol
# GULP energy per Si atom -5583.573454 kJ/mol
# Density = 2.251248 g / cm^3
# Si number density = 22.563838 Si / 1000 Ang^3
#
#
#
# Elastic Constant Matrix: (Units=GPa)
#
#
# Indices 1 2 3 4 5 6 
#
# 1 104.8264 23.8765 41.4417 -5.2253 -13.7347 18.0648
# 2 23.8765 85.5872 26.4364 -22.3016 3.7312 15.8246
# 3 41.4417 26.4364 83.2633 -1.8186 -15.7887 3.8190
# 4 -5.2253 -22.3016 -1.8186 31.9034 -2.9583 -14.1872
# 5 -13.7347 3.7312 -15.7887 -2.9583 26.5168 9.5371
# 6 18.0648 15.8246 3.8190 -14.1872 9.5371 31.6858
#
#
#
# Elastic Compliance Matrix: (Units=1/GPa)
#
#
# Indices 1 2 3 4 5 6 
#
# 1 0.014646 -0.001852 -0.004630 -0.003208 0.008655 -0.010908
# 2 -0.001852 0.016826 -0.005118 0.010463 -0.005014 -0.000536
# 3 -0.004630 -0.005118 0.017580 -0.002905 0.008777 -0.000866
# 4 -0.003208 0.010463 -0.002905 0.046064 -0.006781 0.019619
# 5 0.008655 -0.005014 0.008777 -0.006781 0.055752 -0.023305
# 6 -0.010908 -0.000536 -0.000866 0.019619 -0.023305 0.053950
#
#
# Mechanical properties :
#
#
# Convention : Reuss Voigt Hill
#
# Bulk Modulus (GPa) = 38.68255 50.79849 44.74052
# Shear Modulus (GPa) = 21.12962 30.14937 25.63949
#
# Velocity S-wave (km/s) = 3.06345 3.65935 3.37458
# Velocity P-wave (km/s) = 5.44920 6.35740 5.92074
#
# Compressibility (1/GPa) = 0.02585145
#
# Stress axis : x y z
#
# Youngs Moduli (GPa) = 68.27901 59.43276 56.88260
#
# Poissons Ratio (x) = 0.11007 0.26336
# Poissons Ratio (y) = 0.12645 0.29113
# Poissons Ratio (z) = 0.31613 0.30418
#
# Static dielectric constant tensor:
#      x y z
#    x 1.870120 0.029510 -0.016290 
#    y 0.029510 1.878460 0.047940 
#    z -0.016290 0.047940 1.918330 
# 
# From -- ./inp_files/502879.got.cif
#   From: 2010.05.17/outbox.cif.g08.bks.cpg/sg2_252_cif.got.tgz:502879.got - 2010.06.03 11:33:40.
