data_PCOD9088460
_publ_section_title
;
Structure prediction by ZEFSAII (Michael W. Deem and Ramdas Pophale) SiO2 
 PCOD9088460
Probable space group: P -1
;
_chemical_formula_sum "Si O2"
_cell_formula_units_Z 10
_cell_length_a 9.773114
_cell_length_b 11.377773
_cell_length_c 8.932798
_cell_angle_alpha 140.704026
_cell_angle_beta 138.018957
_cell_angle_gamma 37.214678
_cell_volume 358.925338
_symmetry_space_group_name_H-M "P -1"
_symmetry_group_IT_number 2
_symmetry_cell_setting 'triclinic'
loop_
_space_group_symop_operation_xyz
x,y,z
-x,-y,-z
loop_
_atom_site_type_symbol
_atom_site_label
_atom_site_fract_x
_atom_site_fract_y
_atom_site_fract_z
Si Si1 0.984568 0.124500 0.912100
Si Si2 0.159095 0.174300 0.795913
Si Si3 0.308265 0.670068 0.857921
Si Si4 0.689212 0.554387 0.637165
Si Si5 0.472943 0.982220 0.286658
O O1 0.067350 0.883563 0.801156
O O2 0.023934 0.123968 0.766678
O O3 0.749419 0.304767 0.986769
O O4 0.201469 0.146901 0.177448
O O5 0.324399 0.242484 0.089817
O O6 0.335926 0.005536 0.649473
O O7 0.953839 0.368940 0.723842
O O8 0.336790 0.474377 0.589696
O O9 0.497909 0.745023 0.053544
O O10 0.500000 0.500000 0.500000
O O11 0.500000 0.000000 0.500000
#
# Coordination Sequence:
#
# PCOD9088460 Si02
#       5
#     2   2   2   2   2
#     4   9  20  39  57  94 113 150 198 239 291 346
#     4  11  23  37  65  87 115 158 196 238 292 345
#     4   9  20  39  60  83 126 149 188 243 294 339
#     4  11  22  42  58  84 122 157 194 241 290 347
#     4  10  19  37  61  88 120 150 190 245 293 339
#
# _framework density 27.860948
#
# number of rings (size 3 to 8) (size 9 to 14) (size 15 to 20)
#    1.200    0.800    2.000    1.800    0.000    1.600 
#    3.600    1.000    0.000    0.000    0.000    0.000 
#    0.000    0.000    0.000    0.000    0.000    0.000 
#
# Total GULP energy -55909.596046 kJ/mol
# GULP energy per Si atom -5590.959605 kJ/mol
# Density = 2.779753 g / cm^3
# Si number density = 27.860948 Si / 1000 Ang^3
#
#
#
# Elastic Constant Matrix: (Units=GPa)
#
#
# Indices 1 2 3 4 5 6 
#
# 1 215.9335 11.9559 69.9932 19.6446 -29.4085 -21.9409
# 2 11.9559 63.7267 27.2081 17.5461 -9.1789 -10.0283
# 3 69.9932 27.2081 187.2412 10.5517 -29.5570 -2.0070
# 4 19.6446 17.5461 10.5517 50.4433 2.3124 -1.2564
# 5 -29.4085 -9.1789 -29.5570 2.3124 74.4944 1.3118
# 6 -21.9409 -10.0283 -2.0070 -1.2564 1.3118 35.6719
#
#
#
# Elastic Compliance Matrix: (Units=1/GPa)
#
#
# Indices 1 2 3 4 5 6 
#
# 1 0.006046 0.001210 -0.001986 -0.002346 0.001754 0.003800
# 2 0.001210 0.019597 -0.002546 -0.006702 0.001988 0.005801
# 3 -0.001986 -0.002546 0.006676 0.000150 0.001575 -0.001615
# 4 -0.002346 -0.006702 0.000150 0.023086 -0.002366 -0.002418
# 5 0.001754 0.001988 0.001575 -0.002366 0.015040 0.001090
# 6 0.003800 0.005801 -0.001615 -0.002418 0.001090 0.031785
#
#
# Mechanical properties :
#
#
# Convention : Reuss Voigt Hill
#
# Bulk Modulus (GPa) = 38.94974 76.13507 57.54240
# Shear Modulus (GPa) = 42.57748 55.97153 49.27450
#
# Velocity S-wave (km/s) = 3.91348 4.48700 4.21002
# Velocity P-wave (km/s) = 5.86778 7.36413 6.65812
#
# Compressibility (1/GPa) = 0.02567411
#
# Stress axis : x y z
#
# Youngs Moduli (GPa) = 165.39032 51.02946 149.79033
#
# Poissons Ratio (x) = -0.06176 0.29752
# Poissons Ratio (y) = -0.20016 0.38141
# Poissons Ratio (z) = 0.32851 0.12994
#
# Static dielectric constant tensor:
#      x y z
#    x 2.190210 0.071560 -0.001920 
#    y 0.071560 2.255490 0.022700 
#    z -0.001920 0.022700 2.173690 
# 
# From -- ./inp_files/266078.got.cif
#   From: 2010.05.17/outbox.cif.g08.bks.cpg/sg2_134_cif.got.tgz:266078.got - 2010.06.03 11:33:40.
