data_PCOD9088052
_publ_section_title
;
Structure prediction by ZEFSAII (Michael W. Deem and Ramdas Pophale) SiO2 
 PCOD9088052
Probable space group: P -1
;
_chemical_formula_sum "Si O2"
_cell_formula_units_Z 16
_cell_length_a 9.072612
_cell_length_b 15.397391
_cell_length_c 8.855377
_cell_angle_alpha 39.752754
_cell_angle_beta 79.401314
_cell_angle_gamma 88.354833
_cell_volume 764.966791
_symmetry_space_group_name_H-M "P -1"
_symmetry_group_IT_number 2
_symmetry_cell_setting 'triclinic'
loop_
_space_group_symop_operation_xyz
x,y,z
-x,-y,-z
loop_
_atom_site_type_symbol
_atom_site_label
_atom_site_fract_x
_atom_site_fract_y
_atom_site_fract_z
Si Si1 0.641216 0.073344 0.663543
Si Si2 0.130278 0.113888 0.246505
Si Si3 0.153257 0.566463 0.290783
Si Si4 0.681059 0.973578 0.113725
Si Si5 0.830743 0.358518 0.166592
Si Si6 0.173353 0.348887 0.160005
Si Si7 0.932427 0.181011 0.914296
Si Si8 0.231752 0.302543 0.544000
O O1 0.460293 0.030409 0.743105
O O2 0.705229 0.222336 0.383551
O O3 0.736772 0.965431 0.721987
O O4 0.669805 0.071036 0.842200
O O5 0.195462 0.241506 0.171288
O O6 0.000000 0.000000 0.500000
O O7 0.042944 0.170667 0.048336
O O8 0.185575 0.717661 0.157375
O O9 0.259486 0.449728 0.427468
O O10 0.000000 0.500000 0.500000
O O11 0.135367 0.592845 0.079092
O O12 0.681930 0.818949 0.260797
O O13 0.838583 0.033179 0.086265
O O14 0.989319 0.326452 0.243450
O O15 0.785187 0.486827 0.094386
O O16 0.255180 0.321783 0.335489
O O17 0.051084 0.245194 0.678345
#
# Coordination Sequence:
#
# PCOD9088052 Si02
#       8
#     2   2   2   2   2   2   2   2
#     4  11  24  42  59  85 129 164 203 252 305 363
#     4  12  21  36  61  93 121 154 199 255 300 353
#     4   9  19  35  59  93 120 150 195 263 302 351
#     4  11  24  40  60  88 121 170 206 245 305 364
#     4  10  19  37  58  88 123 160 194 247 308 360
#     4  10  20  34  62  91 118 152 202 249 305 353
#     4  11  20  36  61  91 118 152 207 250 296 358
#     4  10  20  37  61  90 119 156 207 250 300 360
#
# _framework density 20.915941
#
# number of rings (size 3 to 8) (size 9 to 14) (size 15 to 20)
#    0.000    1.500    3.750    1.875    0.000    1.000 
#    0.000    9.375    0.000    3.000    0.000    0.000 
#    0.000    0.000    0.000    0.000    0.000    0.000 
#
# Total GULP energy -89254.143913 kJ/mol
# GULP energy per Si atom -5578.383995 kJ/mol
# Density = 2.086834 g / cm^3
# Si number density = 20.915941 Si / 1000 Ang^3
#
#
#
# Elastic Constant Matrix: (Units=GPa)
#
#
# Indices 1 2 3 4 5 6 
#
# 1 36.7913 20.5076 12.9908 -6.5832 -6.2679 -22.1437
# 2 20.5076 109.0698 35.6924 -24.6568 -6.3475 -24.1441
# 3 12.9908 35.6924 89.6085 -3.3613 -1.6164 -11.0024
# 4 -6.5832 -24.6568 -3.3613 31.0718 -1.2526 9.1520
# 5 -6.2679 -6.3475 -1.6164 -1.2526 14.8049 4.0983
# 6 -22.1437 -24.1441 -11.0024 9.1520 4.0983 24.5654
#
#
#
# Elastic Compliance Matrix: (Units=1/GPa)
#
#
# Indices 1 2 3 4 5 6 
#
# 1 0.061935 0.001748 -0.002777 -0.001531 0.011317 0.054986
# 2 0.001748 0.014805 -0.004502 0.008856 0.004563 0.010050
# 3 -0.002777 -0.004502 0.013263 -0.002939 -0.002030 0.000446
# 4 -0.001531 0.008856 -0.002939 0.042294 0.009546 -0.011342
# 5 0.011317 0.004563 -0.002030 0.009546 0.075538 -0.002382
# 6 0.054986 0.010050 0.000446 -0.011342 -0.002382 0.104974
#
#
# Mechanical properties :
#
#
# Convention : Reuss Voigt Hill
#
# Bulk Modulus (GPa) = 12.66754 41.53901 27.10328
# Shear Modulus (GPa) = 14.27808 25.17366 19.72587
#
# Velocity S-wave (km/s) = 2.61557 3.47300 3.07433
# Velocity P-wave (km/s) = 3.89759 5.99879 5.05849
#
# Compressibility (1/GPa) = 0.07894190
#
# Stress axis : x y z
#
# Youngs Moduli (GPa) = 16.14584 67.54320 75.39543
#
# Poissons Ratio (x) = -0.11807 0.20938
# Poissons Ratio (y) = -0.02822 0.33944
# Poissons Ratio (z) = 0.04484 0.30409
#
# Static dielectric constant tensor:
#      x y z
#    x 1.737380 -0.022300 0.025610 
#    y -0.022300 1.782300 -0.005710 
#    z 0.025610 -0.005710 1.793420 
# 
# From -- ./inp_files/205173.got.cif
#   From: 2010.05.17/outbox.cif.g08.bks.cpg/sg2_103_cif.got.tgz:205173.got - 2010.06.03 11:33:40.
