data_PCOD9088876
_publ_section_title
;
Structure prediction by ZEFSAII (Michael W. Deem and Ramdas Pophale) SiO2 
 PCOD9088876
Probable space group: P -1
;
_chemical_formula_sum "Si O2"
_cell_formula_units_Z 12
_cell_length_a 7.191163
_cell_length_b 11.619418
_cell_length_c 9.310429
_cell_angle_alpha 118.136723
_cell_angle_beta 50.748095
_cell_angle_gamma 90.226773
_cell_volume 479.317770
_symmetry_space_group_name_H-M "P -1"
_symmetry_group_IT_number 2
_symmetry_cell_setting 'triclinic'
loop_
_space_group_symop_operation_xyz
x,y,z
-x,-y,-z
loop_
_atom_site_type_symbol
_atom_site_label
_atom_site_fract_x
_atom_site_fract_y
_atom_site_fract_z
Si Si1 0.708285 0.190233 0.381245
Si Si2 0.975998 0.512907 0.188644
Si Si3 0.277295 0.500393 0.430501
Si Si4 0.685643 0.008798 0.043855
Si Si5 0.321348 0.650849 0.092359
Si Si6 0.576064 0.807876 0.199499
O O1 0.720148 0.343323 0.493952
O O2 0.499916 0.175932 0.587194
O O3 0.646541 0.156663 0.229613
O O4 0.006311 0.070432 0.199119
O O5 0.731500 0.534287 0.418696
O O6 0.040721 0.650142 0.257164
O O7 0.187991 0.351990 0.036032
O O8 0.000000 0.500000 0.000000
O O9 0.536639 0.386502 0.153465
O O10 0.000000 0.500000 0.500000
O O11 0.648722 0.918742 0.143769
O O12 0.500000 0.000000 0.000000
O O13 0.500000 0.500000 0.000000
O O14 0.332402 0.791584 0.231197
#
# Coordination Sequence:
#
# PCOD9088876 Si02
#       6
#     2   2   2   2   2   2
#     4  11  23  44  70  91 134 171 216 276 326 377
#     4  11  23  37  59  99 132 166 212 256 322 395
#     4  12  19  39  68  92 130 176 201 265 333 384
#     4  11  26  46  67  95 122 174 233 269 321 381
#     4  10  19  37  63  93 125 164 209 250 329 391
#     4  11  21  45  64  89 135 169 206 275 322 382
#
# _framework density 25.035584
#
# number of rings (size 3 to 8) (size 9 to 14) (size 15 to 20)
#    0.000    1.000    8.333    0.500    0.000    2.667 
#    9.000    0.000    0.000    0.000    0.000    0.000 
#    0.000    0.000    0.000    0.000    0.000    0.000 
#
# Total GULP energy -67022.162996 kJ/mol
# GULP energy per Si atom -5585.180250 kJ/mol
# Density = 2.497860 g / cm^3
# Si number density = 25.035584 Si / 1000 Ang^3
#
#
#
# Elastic Constant Matrix: (Units=GPa)
#
#
# Indices 1 2 3 4 5 6 
#
# 1 89.6247 19.1715 29.7880 5.2351 5.8183 8.1540
# 2 19.1715 96.9622 26.5623 -15.0571 -2.2565 9.7375
# 3 29.7880 26.5623 149.8085 -21.8719 8.4017 -6.0166
# 4 5.2351 -15.0571 -21.8719 56.9741 8.8505 2.5474
# 5 5.8183 -2.2565 8.4017 8.8505 40.3552 0.1084
# 6 8.1540 9.7375 -6.0166 2.5474 0.1084 24.2648
#
#
#
# Elastic Compliance Matrix: (Units=1/GPa)
#
#
# Indices 1 2 3 4 5 6 
#
# 1 0.013021 -0.001811 -0.002734 -0.002407 -0.000870 -0.004070
# 2 -0.001811 0.012063 -0.001596 0.002861 0.000654 -0.004931
# 3 -0.002734 -0.001596 0.008213 0.003164 -0.002108 0.003273
# 4 -0.002407 0.002861 0.003164 0.020542 -0.004652 -0.001690
# 5 -0.000870 0.000654 -0.002108 -0.004652 0.026401 -0.000122
# 6 -0.004070 -0.004931 0.003273 -0.001690 -0.000122 0.045548
#
#
# Mechanical properties :
#
#
# Convention : Reuss Voigt Hill
#
# Bulk Modulus (GPa) = 47.58317 54.15990 50.87154
# Shear Modulus (GPa) = 34.46453 41.71037 38.08745
#
# Velocity S-wave (km/s) = 3.71431 4.08615 3.90466
# Velocity P-wave (km/s) = 6.11901 6.62890 6.37905
#
# Compressibility (1/GPa) = 0.02101583
#
# Stress axis : x y z
#
# Youngs Moduli (GPa) = 76.79787 82.89643 121.75299
#
# Poissons Ratio (x) = 0.15012 0.33290
# Poissons Ratio (y) = 0.13907 0.19430
# Poissons Ratio (z) = 0.20998 0.13229
#
# Static dielectric constant tensor:
#      x y z
#    x 3.435400 1.078150 0.255010 
#    y 1.078150 2.903220 0.207890 
#    z 0.255010 0.207890 2.031600 
# 
# From -- ./inp_files/189632.got.cif
#   From: 2010.05.17/outbox.cif.g08.bks.cpg/sg2_95_cif.got.tgz:189632.got - 2010.06.03 11:33:40.
