data_PCOD9088613
_publ_section_title
;
Structure prediction by ZEFSAII (Michael W. Deem and Ramdas Pophale) SiO2 
 PCOD9088613
Probable space group: P -1
;
_chemical_formula_sum "Si O2"
_cell_formula_units_Z 16
_cell_length_a 8.234357
_cell_length_b 17.739715
_cell_length_c 8.280483
_cell_angle_alpha 82.766008
_cell_angle_beta 49.642408
_cell_angle_gamma 114.616893
_cell_volume 687.831102
_symmetry_space_group_name_H-M "P -1"
_symmetry_group_IT_number 2
_symmetry_cell_setting 'triclinic'
loop_
_space_group_symop_operation_xyz
x,y,z
-x,-y,-z
loop_
_atom_site_type_symbol
_atom_site_label
_atom_site_fract_x
_atom_site_fract_y
_atom_site_fract_z
Si Si1 0.105810 0.768719 0.143680
Si Si2 0.954556 0.316903 0.234179
Si Si3 0.834734 0.561117 0.259349
Si Si4 0.220201 0.241868 0.929807
Si Si5 0.343133 0.126878 0.731514
Si Si6 0.365985 0.033441 0.456654
Si Si7 0.868707 0.421418 0.465174
Si Si8 0.303654 0.907306 0.272451
O O1 0.116189 0.810645 0.300897
O O2 0.037698 0.662707 0.214352
O O3 0.850753 0.738453 0.203709
O O4 0.383438 0.863282 0.835114
O O5 0.615466 0.238542 0.466242
O O6 0.027488 0.380925 0.329161
O O7 0.077997 0.392203 0.986578
O O8 0.048314 0.251916 0.166653
O O9 0.500000 0.500000 0.500000
O O10 0.872206 0.481861 0.298323
O O11 0.159321 0.140035 0.955824
O O12 0.545459 0.326922 0.742314
O O13 0.227974 0.062891 0.658455
O O14 0.486351 0.097647 0.760539
O O15 0.500000 0.000000 0.500000
O O16 0.188755 0.944066 0.462169
O O17 0.000000 0.500000 0.500000
O O18 0.500000 0.000000 0.000000
#
# Coordination Sequence:
#
# PCOD9088613 Si02
#       8
#     2   2   2   2   2   2   2   2
#     4  10  19  37  62  87 128 160 199 261 306 360
#     4  10  21  40  64  85 126 166 206 251 308 365
#     4  11  20  39  63  90 127 167 210 250 302 375
#     4  10  21  39  61  90 123 162 210 247 308 371
#     4  10  19  37  67  89 121 165 204 250 314 375
#     4   9  17  36  63  89 116 160 201 249 312 371
#     4  11  24  39  62  92 124 167 211 255 309 367
#     4   9  20  36  64  92 121 161 203 259 319 363
#
# _framework density 23.261526
#
# number of rings (size 3 to 8) (size 9 to 14) (size 15 to 20)
#    0.000    2.000    5.000    0.375    3.500    0.500 
#    0.000    6.250    5.500    0.000    0.000    0.000 
#    0.000    0.000    0.000    0.000    0.000    0.000 
#
# Total GULP energy -89210.083896 kJ/mol
# GULP energy per Si atom -5575.630244 kJ/mol
# Density = 2.320858 g / cm^3
# Si number density = 23.261526 Si / 1000 Ang^3
#
#
#
# Elastic Constant Matrix: (Units=GPa)
#
#
# Indices 1 2 3 4 5 6 
#
# 1 29.5589 17.3084 17.7945 18.7883 3.6229 1.0571
# 2 17.3084 217.5000 65.9472 53.6114 -12.5237 15.3770
# 3 17.7945 65.9472 89.0531 -2.9434 1.5964 -3.2775
# 4 18.7883 53.6114 -2.9434 56.6894 -8.0790 7.9080
# 5 3.6229 -12.5237 1.5964 -8.0790 22.7099 1.8435
# 6 1.0571 15.3770 -3.2775 7.9080 1.8435 45.7682
#
#
#
# Elastic Compliance Matrix: (Units=1/GPa)
#
#
# Indices 1 2 3 4 5 6 
#
# 1 0.062210 0.007334 -0.018575 -0.030844 -0.015606 0.000727
# 2 0.007334 0.010005 -0.009366 -0.011942 0.000934 -0.002176
# 3 -0.018575 -0.009366 0.022464 0.016106 0.001759 0.002331
# 4 -0.030844 -0.011942 0.016106 0.042007 0.012299 -0.001875
# 5 -0.015606 0.000934 0.001759 0.012299 0.051617 -0.004032
# 6 0.000727 -0.002176 0.002331 -0.001875 -0.004032 0.023217
#
#
# Mechanical properties :
#
#
# Convention : Reuss Voigt Hill
#
# Bulk Modulus (GPa) = 18.70392 59.80135 39.25264
# Shear Modulus (GPa) = 18.48049 40.70428 29.59238
#
# Velocity S-wave (km/s) = 2.82168 4.18766 3.57060
# Velocity P-wave (km/s) = 4.32135 7.01043 5.82324
#
# Compressibility (1/GPa) = 0.05346472
#
# Stress axis : x y z
#
# Youngs Moduli (GPa) = 16.07456 99.94713 44.51646
#
# Poissons Ratio (x) = -0.73302 0.82689
# Poissons Ratio (y) = -0.11789 0.41696
# Poissons Ratio (z) = 0.29858 0.93614
#
# Static dielectric constant tensor:
#      x y z
#    x 1.845810 -0.080990 0.074410 
#    y -0.080990 1.884420 0.161330 
#    z 0.074410 0.161330 1.733010 
# 
# From -- ./inp_files/217625.got.cif
#   From: 2010.05.17/outbox.cif.g08.bks.cpg/sg2_109_cif.got.tgz:217625.got - 2010.06.03 11:33:40.
