data_PCOD9088967
_publ_section_title
;
Structure prediction by ZEFSAII (Michael W. Deem and Ramdas Pophale) SiO2 
 PCOD9088967
Probable space group: P -1
;
_chemical_formula_sum "Si O2"
_cell_formula_units_Z 16
_cell_length_a 8.342123
_cell_length_b 12.292786
_cell_length_c 13.214345
_cell_angle_alpha 37.945784
_cell_angle_beta 118.784207
_cell_angle_gamma 123.706131
_cell_volume 690.639750
_symmetry_space_group_name_H-M "P -1"
_symmetry_group_IT_number 2
_symmetry_cell_setting 'triclinic'
loop_
_space_group_symop_operation_xyz
x,y,z
-x,-y,-z
loop_
_atom_site_type_symbol
_atom_site_label
_atom_site_fract_x
_atom_site_fract_y
_atom_site_fract_z
Si Si1 0.294491 0.406283 0.099624
Si Si2 0.076378 0.714859 0.453069
Si Si3 0.596568 0.352765 0.772748
Si Si4 0.053635 0.844102 0.692077
Si Si5 0.605576 0.930460 0.673805
Si Si6 0.057711 0.521288 0.789412
Si Si7 0.418327 0.831031 0.901983
Si Si8 0.324131 0.562247 0.493386
O O1 0.430049 0.284996 0.206337
O O2 0.137039 0.287274 0.217296
O O3 0.177220 0.404986 0.961887
O O4 0.374145 0.612778 0.016732
O O5 0.103649 0.572210 0.650813
O O6 0.201133 0.676453 0.426676
O O7 0.844756 0.640508 0.425002
O O8 0.173138 0.927807 0.362401
O O9 0.492580 0.511314 0.641809
O O10 0.587001 0.335434 0.659709
O O11 0.828399 0.426797 0.805107
O O12 0.515442 0.180882 0.953029
O O13 0.116265 0.717213 0.722612
O O14 0.226233 0.892093 0.790777
O O15 0.000000 0.000000 0.500000
O O16 0.540510 0.937802 0.764844
O O17 0.500000 0.000000 0.500000
#
# Coordination Sequence:
#
# PCOD9088967 Si02
#       8
#     2   2   2   2   2   2   2   2
#     4  11  21  38  58  94 127 167 200 247 319 382
#     4  10  22  43  62  91 123 165 207 254 319 367
#     4  10  19  39  66  94 108 159 222 258 300 364
#     4  11  20  35  57  93 131 164 197 249 317 376
#     4  12  26  39  59  97 132 162 204 256 315 380
#     4  10  19  37  64  88 121 162 209 248 308 386
#     4  11  22  38  61  93 130 166 206 253 309 380
#     4   9  22  40  71  87 119 163 215 267 307 364
#
# _framework density 23.166927000000001
#
# number of rings (size 3 to 8) (size 9 to 14) (size 15 to 20)
#    0.000    1.500    2.500    4.125    3.500    1.000 
#    0.000    2.500    0.000    0.000    0.000    0.000 
#    0.000    0.000    0.000    0.000    0.000    0.000 
#
# Total GULP energy -89274.022648 kJ/mol
# GULP energy per Si atom -5579.626415 kJ/mol
# Density = 2.311420 g / cm^3
# Si number density = 23.166927 Si / 1000 Ang^3
#
#
#
# Elastic Constant Matrix: (Units=GPa)
#
#
# Indices 1 2 3 4 5 6 
#
# 1 87.2448 7.8925 38.0319 7.2500 -19.8536 -2.4806
# 2 7.8925 46.2816 19.7213 -0.6533 -3.2579 10.8703
# 3 38.0319 19.7213 161.4884 27.0005 -7.1671 4.9351
# 4 7.2500 -0.6533 27.0005 32.6118 0.8130 -8.2819
# 5 -19.8536 -3.2579 -7.1671 0.8130 50.9534 2.6065
# 6 -2.4806 10.8703 4.9351 -8.2819 2.6065 31.7974
#
#
#
# Elastic Compliance Matrix: (Units=1/GPa)
#
#
# Indices 1 2 3 4 5 6 
#
# 1 0.014034 -0.001145 -0.002905 -0.000504 0.004923 0.001402
# 2 -0.001145 0.024907 -0.002613 0.000836 0.001179 -0.008078
# 3 -0.002905 -0.002613 0.008455 -0.007042 0.000130 -0.002491
# 4 -0.000504 0.000836 -0.007042 0.039541 -0.002340 0.011258
# 5 0.004923 0.001179 0.000130 -0.002340 0.021799 -0.002436
# 6 0.001402 -0.008078 -0.002491 0.011258 -0.002436 0.037838
#
#
# Mechanical properties :
#
#
# Convention : Reuss Voigt Hill
#
# Bulk Modulus (GPa) = 29.35133 47.36735 38.35934
# Shear Modulus (GPa) = 29.19564 38.36380 33.77972
#
# Velocity S-wave (km/s) = 3.55382 4.07378 3.82265
# Velocity P-wave (km/s) = 5.43475 6.52825 6.00644
#
# Compressibility (1/GPa) = 0.03407001
#
# Stress axis : x y z
#
# Youngs Moduli (GPa) = 71.25493 40.14870 118.27228
#
# Poissons Ratio (x) = 0.04598 0.34363
# Poissons Ratio (y) = 0.08160 0.30900
# Poissons Ratio (z) = 0.20703 0.10489
#
# Static dielectric constant tensor:
#      x y z
#    x 1.983210 -0.043310 -0.060820 
#    y -0.043310 1.966510 0.033870 
#    z -0.060820 0.033870 1.866310 
# 
# From -- ./inp_files/306039.got.cif
#   From: 2010.05.17/outbox.cif.g08.bks.cpg/sg2_154_cif.got.tgz:306039.got - 2010.06.03 11:33:40.
