data_PCOD9088207
_publ_section_title
;
Structure prediction by ZEFSAII (Michael W. Deem and Ramdas Pophale) SiO2 
 PCOD9088207
Probable space group: P -1
;
_chemical_formula_sum "Si O2"
_cell_formula_units_Z 16
_cell_length_a 9.199704
_cell_length_b 15.636840
_cell_length_c 12.238370
_cell_angle_alpha 152.672025
_cell_angle_beta 78.777400
_cell_angle_gamma 114.815524
_cell_volume 663.108672
_symmetry_space_group_name_H-M "P -1"
_symmetry_group_IT_number 2
_symmetry_cell_setting 'triclinic'
loop_
_space_group_symop_operation_xyz
x,y,z
-x,-y,-z
loop_
_atom_site_type_symbol
_atom_site_label
_atom_site_fract_x
_atom_site_fract_y
_atom_site_fract_z
Si Si1 0.644483 0.288391 0.600333
Si Si2 0.419833 0.272981 0.173294
Si Si3 0.888578 0.162052 0.388178
Si Si4 0.293466 0.698663 0.158663
Si Si5 0.220496 0.166318 0.303005
Si Si6 0.028634 0.820635 0.350577
Si Si7 0.390283 0.930493 0.050753
Si Si8 0.514319 0.480325 0.184092
O O1 0.841742 0.350625 0.611541
O O2 0.616226 0.189369 0.612529
O O3 0.503517 0.119601 0.340132
O O4 0.602024 0.477710 0.831577
O O5 0.350247 0.284850 0.314549
O O6 0.409745 0.412983 0.236869
O O7 0.278836 0.029040 0.869807
O O8 0.604739 0.283399 0.160029
O O9 0.908466 0.114017 0.457611
O O10 0.049577 0.172610 0.316414
O O11 0.183124 0.800312 0.248621
O O12 0.435106 0.689651 0.054003
O O13 0.143574 0.435088 0.909626
O O14 0.219033 0.940909 0.064208
O O15 0.301576 0.301405 0.557059
O O16 0.000000 0.000000 0.500000
O O17 0.500000 0.000000 0.000000
#
# Coordination Sequence:
#
# PCOD9088207 Si02
#       8
#     2   2   2   2   2   2   2   2
#     4   9  20  36  57  80 118 156 187 242 303 346
#     4  10  21  35  57  87 114 145 201 252 285 358
#     4  10  20  39  56  84 114 153 200 244 297 352
#     4  10  21  40  60  87 124 157 196 247 298 357
#     4  10  19  37  60  79 114 159 193 237 305 353
#     4  10  22  39  62  90 120 155 199 247 298 356
#     4   8  17  35  56  81 113 150 192 242 295 348
#     4  11  21  37  57  86 117 156 191 241 306 347
#
# _framework density 24.128774
#
# number of rings (size 3 to 8) (size 9 to 14) (size 15 to 20)
#    0.000    2.250    1.250    1.125    1.750    1.000 
#    2.250    5.000    0.000    0.000    0.000    0.000 
#    0.000    0.000    0.000    0.000    0.000    0.000 
#
# Total GULP energy -89120.316618 kJ/mol
# GULP energy per Si atom -5570.019789 kJ/mol
# Density = 2.407386 g / cm^3
# Si number density = 24.128774 Si / 1000 Ang^3
#
#
#
# Elastic Constant Matrix: (Units=GPa)
#
#
# Indices 1 2 3 4 5 6 
#
# 1 161.2552 37.9288 31.1598 5.2270 -48.4191 -3.7851
# 2 37.9288 54.6473 15.8338 -13.4935 -13.8541 -14.2830
# 3 31.1598 15.8338 79.7484 -17.0140 -21.2801 -6.2830
# 4 5.2270 -13.4935 -17.0140 37.8063 -11.1262 -6.9844
# 5 -48.4191 -13.8541 -21.2801 -11.1262 36.6811 -4.3343
# 6 -3.7851 -14.2830 -6.2830 -6.9844 -4.3343 33.8183
#
#
#
# Elastic Compliance Matrix: (Units=1/GPa)
#
#
# Indices 1 2 3 4 5 6 
#
# 1 0.011404 -0.002215 0.001576 0.003935 0.016749 0.003593
# 2 -0.002215 0.043572 0.012796 0.038501 0.036554 0.033169
# 3 0.001576 0.012796 0.026552 0.030193 0.033968 0.021103
# 4 0.003935 0.038501 0.030193 0.082049 0.067805 0.047947
# 5 0.016749 0.036554 0.033968 0.067805 0.109555 0.051669
# 6 0.003593 0.033169 0.021103 0.047947 0.051669 0.064426
#
#
# Mechanical properties :
#
#
# Convention : Reuss Voigt Hill
#
# Bulk Modulus (GPa) = 9.44813 51.72173 30.58493
# Shear Modulus (GPa) = 14.34628 35.70972 25.02800
#
# Velocity S-wave (km/s) = 2.44103 3.85120 3.22416
# Velocity P-wave (km/s) = 3.44515 6.42323 5.15398
#
# Compressibility (1/GPa) = 0.10584105
#
# Stress axis : x y z
#
# Youngs Moduli (GPa) = 87.69234 22.95054 37.66258
#
# Poissons Ratio (x) = 0.05083 -0.05935
# Poissons Ratio (y) = 0.19420 -0.48192
# Poissons Ratio (z) = -0.13819 -0.29367
#
# Static dielectric constant tensor:
#      x y z
#    x 1.981640 0.021040 -0.043830 
#    y 0.021040 1.944830 0.076720 
#    z -0.043830 0.076720 2.105550 
# 
# From -- ./inp_files/273244.got.cif
#   From: 2010.05.17/outbox.cif.g08.bks.cpg/sg2_137_cif.got.tgz:273244.got - 2010.06.03 11:33:40.
