data_PCOD9088478
_publ_section_title
;
Structure prediction by ZEFSAII (Michael W. Deem and Ramdas Pophale) SiO2 
 PCOD9088478
Probable space group: P -1
;
_chemical_formula_sum "Si O2"
_cell_formula_units_Z 16
_cell_length_a 9.272198
_cell_length_b 13.418611
_cell_length_c 13.313408
_cell_angle_alpha 150.131358
_cell_angle_beta 129.134088
_cell_angle_gamma 53.498059
_cell_volume 635.013600
_symmetry_space_group_name_H-M "P -1"
_symmetry_group_IT_number 2
_symmetry_cell_setting 'triclinic'
loop_
_space_group_symop_operation_xyz
x,y,z
-x,-y,-z
loop_
_atom_site_type_symbol
_atom_site_label
_atom_site_fract_x
_atom_site_fract_y
_atom_site_fract_z
Si Si1 0.378927 0.926576 0.506044
Si Si2 0.997938 0.740519 0.212228
Si Si3 0.392394 0.477679 0.669422
Si Si4 0.696711 0.403215 0.050765
Si Si5 0.248706 0.169603 0.206985
Si Si6 0.597075 0.860553 0.085695
Si Si7 0.916383 0.009247 0.818463
Si Si8 0.887483 0.762698 0.409820
O O1 0.522797 0.728606 0.416910
O O2 0.189454 0.816575 0.330628
O O3 0.411398 0.071291 0.741618
O O4 0.319844 0.107105 0.560059
O O5 0.821646 0.836564 0.151040
O O6 0.974753 0.798130 0.370899
O O7 0.000000 0.500000 0.000000
O O8 0.283567 0.588823 0.812178
O O9 0.292943 0.391474 0.454154
O O10 0.532081 0.640662 0.845454
O O11 0.851589 0.534066 0.193418
O O12 0.500000 0.500000 0.000000
O O13 0.751005 0.172322 0.847418
O O14 0.438416 0.036690 0.131810
O O15 0.165081 0.083066 0.197757
O O16 0.086355 0.134945 0.028536
O O17 0.981449 0.836088 0.614892
#
# Coordination Sequence:
#
# PCOD9088478 Si02
#       8
#     2   2   2   2   2   2   2   2
#     4  10  22  38  61  91 123 160 199 250 313 367
#     4  11  22  40  65  94 121 156 204 255 313 367
#     4  11  20  36  60  91 124 160 203 250 295 362
#     4  12  24  35  59  95 131 154 193 253 317 368
#     4  10  23  40  61  85 123 173 214 238 292 361
#     4  10  19  37  61  89 117 160 203 252 299 358
#     4  11  24  41  58  87 127 171 206 246 294 365
#     4  11  24  38  59  90 124 164 195 251 310 364
#
# _framework density 25.196311000000001
#
# number of rings (size 3 to 8) (size 9 to 14) (size 15 to 20)
#    0.000    1.250    3.750    3.750    3.500    2.500 
#    0.000    0.000    0.000    7.500    0.000    0.000 
#    0.000    0.000    0.000    0.000    0.000    0.000 
#
# Total GULP energy -89233.487261 kJ/mol
# GULP energy per Si atom -5577.092954 kJ/mol
# Density = 2.513896 g / cm^3
# Si number density = 25.196311 Si / 1000 Ang^3
#
#
#
# Elastic Constant Matrix: (Units=GPa)
#
#
# Indices 1 2 3 4 5 6 
#
# 1 43.8016 8.6485 24.0922 -23.1397 0.3020 -0.6616
# 2 8.6485 38.8298 17.2859 2.6027 -4.6774 -14.0724
# 3 24.0922 17.2859 179.4290 7.3102 4.2777 -4.8853
# 4 -23.1397 2.6027 7.3102 34.1751 -10.7191 7.3506
# 5 0.3020 -4.6774 4.2777 -10.7191 45.7612 -0.1056
# 6 -0.6616 -14.0724 -4.8853 7.3506 -0.1056 32.8540
#
#
#
# Elastic Compliance Matrix: (Units=1/GPa)
#
#
# Indices 1 2 3 4 5 6 
#
# 1 0.056042 -0.017348 -0.008549 0.048136 0.009889 -0.018311
# 2 -0.017348 0.038212 -0.000009 -0.019152 -0.000418 0.020300
# 3 -0.008549 -0.000009 0.007221 -0.008784 -0.002671 0.002854
# 4 0.048136 -0.019152 -0.008784 0.075753 0.016232 -0.025437
# 5 0.009889 -0.000418 -0.002671 0.016232 0.025787 -0.003926
# 6 -0.018311 0.020300 0.002854 -0.025437 -0.003926 0.044867
#
#
# Mechanical properties :
#
#
# Convention : Reuss Voigt Hill
#
# Bulk Modulus (GPa) = 20.13554 40.23485 30.18520
# Shear Modulus (GPa) = 15.81035 36.69366 26.25201
#
# Velocity S-wave (km/s) = 2.50769 3.82030 3.23135
# Velocity P-wave (km/s) = 4.04888 5.95507 5.09197
#
# Compressibility (1/GPa) = 0.04966343
#
# Stress axis : x y z
#
# Youngs Moduli (GPa) = 17.84368 26.17008 138.48002
#
# Poissons Ratio (x) = 0.45399 1.18388
# Poissons Ratio (y) = 0.30955 0.00124
# Poissons Ratio (z) = 0.15255 0.00024
#
# Static dielectric constant tensor:
#      x y z
#    x 2.101870 -0.035560 -0.010580 
#    y -0.035560 2.100530 -0.012630 
#    z -0.010580 -0.012630 1.993070 
# 
# From -- ./inp_files/521970.got.cif
#   From: 2010.05.17/outbox.cif.g08.bks.cpg/sg2_261_cif.got.tgz:521970.got - 2010.06.03 11:33:40.
