data_PCOD9088933
_publ_section_title
;
Structure prediction by ZEFSAII (Michael W. Deem and Ramdas Pophale) SiO2 
 PCOD9088933
Probable space group: P -1
;
_chemical_formula_sum "Si O2"
_cell_formula_units_Z 16
_cell_length_a 5.363756
_cell_length_b 12.455107
_cell_length_c 11.452009
_cell_angle_alpha 91.430686
_cell_angle_beta 88.702537
_cell_angle_gamma 62.412903
_cell_volume 677.366158
_symmetry_space_group_name_H-M "P -1"
_symmetry_group_IT_number 2
_symmetry_cell_setting 'triclinic'
loop_
_space_group_symop_operation_xyz
x,y,z
-x,-y,-z
loop_
_atom_site_type_symbol
_atom_site_label
_atom_site_fract_x
_atom_site_fract_y
_atom_site_fract_z
Si Si1 0.203021 0.528812 0.845075
Si Si2 0.647331 0.399792 0.396185
Si Si3 0.575867 0.638152 0.964039
Si Si4 0.903426 0.922493 0.078747
Si Si5 0.141092 0.141159 0.473381
Si Si6 0.987303 0.021922 0.684187
Si Si7 0.545171 0.780870 0.668437
Si Si8 0.355936 0.151837 0.103511
O O1 0.243907 0.544826 0.707870
O O2 0.360808 0.596975 0.909152
O O3 0.882662 0.574097 0.893803
O O4 0.371124 0.397038 0.901197
O O5 0.500000 0.500000 0.500000
O O6 0.443733 0.348638 0.342450
O O7 0.881922 0.272669 0.446083
O O8 0.480791 0.777635 0.945050
O O9 0.077570 0.900854 0.194976
O O10 0.570407 0.010553 0.115036
O O11 0.876164 0.827580 0.990377
O O12 0.000000 0.000000 0.000000
O O13 0.392601 0.175019 0.454176
O O14 0.203003 0.027945 0.381768
O O15 0.079007 0.093888 0.592645
O O16 0.243545 0.889055 0.710213
O O17 0.747597 0.790349 0.766290
#
# Coordination Sequence:
#
# PCOD9088933 Si02
#       8
#     2   2   2   2   2   2   2   2
#     4  10  22  42  64  95 122 161 223 267 313 377
#     4  11  24  40  57  89 126 164 213 259 317 376
#     4  10  21  40  68  92 122 165 213 269 318 377
#     4  10  21  35  54  89 124 150 195 256 317 380
#     4  10  20  38  62  83 115 163 203 253 310 377
#     4   9  20  37  58  90 116 149 206 254 309 379
#     4  10  19  37  64  84 113 158 204 253 310 380
#     4  10  20  35  58  88 114 158 201 246 319 374
#
# _framework density 23.620902000000001
#
# number of rings (size 3 to 8) (size 9 to 14) (size 15 to 20)
#    0.000    2.000    1.250    1.875    1.750    0.500 
#    4.500    0.000    0.000    0.000    0.000    0.000 
#    0.000    0.000    0.000    0.000    0.000    0.000 
#
# Total GULP energy -89166.534430 kJ/mol
# GULP energy per Si atom -5572.908402 kJ/mol
# Density = 2.356714 g / cm^3
# Si number density = 23.620902 Si / 1000 Ang^3
#
#
#
# Elastic Constant Matrix: (Units=GPa)
#
#
# Indices 1 2 3 4 5 6 
#
# 1 63.1109 18.6904 19.9589 13.4731 -5.8341 6.4517
# 2 18.6904 96.9557 55.4943 -8.2042 -7.5657 -2.2311
# 3 19.9589 55.4943 151.1054 -12.0406 -9.7464 3.5410
# 4 13.4731 -8.2042 -12.0406 41.9141 8.7150 -3.5408
# 5 -5.8341 -7.5657 -9.7464 8.7150 24.7131 -5.7777
# 6 6.4517 -2.2311 3.5410 -3.5408 -5.7777 38.2432
#
#
#
# Elastic Compliance Matrix: (Units=1/GPa)
#
#
# Indices 1 2 3 4 5 6 
#
# 1 0.020164 -0.003314 -0.001735 -0.009053 0.005447 -0.003450
# 2 -0.003314 0.013843 -0.004417 0.002405 0.001381 0.002207
# 3 -0.001735 -0.004417 0.008693 0.001972 0.000864 -0.000457
# 4 -0.009053 0.002405 0.001972 0.030249 -0.010665 0.002674
# 5 0.005447 0.001381 0.000864 -0.010665 0.047508 0.005272
# 6 -0.003450 0.002207 -0.000457 0.002674 0.005272 0.027945
#
#
# Mechanical properties :
#
#
# Convention : Reuss Voigt Hill
#
# Bulk Modulus (GPa) = 42.07539 55.49546 48.78542
# Shear Modulus (GPa) = 28.52923 35.44263 31.98593
#
# Velocity S-wave (km/s) = 3.47911 3.87780 3.68385
# Velocity P-wave (km/s) = 5.83012 6.60265 6.22838
#
# Compressibility (1/GPa) = 0.02376687
#
# Stress axis : x y z
#
# Youngs Moduli (GPa) = 49.59242 72.23743 115.03555
#
# Poissons Ratio (x) = 0.23941 0.19964
# Poissons Ratio (y) = 0.16436 0.50814
# Poissons Ratio (z) = 0.08607 0.31909
#
# Static dielectric constant tensor:
#      x y z
#    x 2.076580 -0.070000 0.073700 
#    y -0.070000 1.934590 -0.009360 
#    z 0.073700 -0.009360 1.984630 
# 
# From -- ./inp_files/364526.got.cif
#   From: 2010.05.17/outbox.cif.g08.bks.cpg/sg2_183_cif.got.tgz:364526.got - 2010.06.03 11:33:40.
