data_PCOD9088857
_publ_section_title
;
Structure prediction by ZEFSAII (Michael W. Deem and Ramdas Pophale) SiO2 
 PCOD9088857
Probable space group: P -1
;
_chemical_formula_sum "Si O2"
_cell_formula_units_Z 14
_cell_length_a 13.206822
_cell_length_b 16.393856
_cell_length_c 7.735467
_cell_angle_alpha 93.835370
_cell_angle_beta 123.199504
_cell_angle_gamma 38.810899
_cell_volume 639.079614
_symmetry_space_group_name_H-M "P -1"
_symmetry_group_IT_number 2
_symmetry_cell_setting 'triclinic'
loop_
_space_group_symop_operation_xyz
x,y,z
-x,-y,-z
loop_
_atom_site_type_symbol
_atom_site_label
_atom_site_fract_x
_atom_site_fract_y
_atom_site_fract_z
Si Si1 0.322806 0.593031 0.178247
Si Si2 0.114523 0.539613 0.943263
Si Si3 0.862115 0.275887 0.464840
Si Si4 0.348565 0.297832 0.429113
Si Si5 0.269757 0.462894 0.688442
Si Si6 0.047594 0.071728 0.949822
Si Si7 0.905231 0.105374 0.253507
O O1 0.500000 0.500000 0.500000
O O2 0.546623 0.448959 0.222072
O O3 0.137923 0.783384 0.049069
O O4 0.157933 0.609178 0.031656
O O5 0.180265 0.486853 0.796135
O O6 0.823863 0.680734 0.735342
O O7 0.309966 0.370805 0.225950
O O8 0.876362 0.363927 0.464257
O O9 0.961581 0.164337 0.378260
O O10 0.002127 0.158864 0.753389
O O11 0.223940 0.428024 0.484370
O O12 0.651531 0.103021 0.733756
O O13 0.587040 0.286177 0.965398
O O14 0.973584 0.026746 0.800265
O O15 0.000000 0.000000 0.500000
#
# Coordination Sequence:
#
# PCOD9088857 Si02
#       7
#     2   2   2   2   2   2   2
#     4  10  20  37  60  93 124 165 200 251 318 381
#     4  11  23  41  67  88 125 170 214 253 315 379
#     4  10  19  37  63  91 127 165 205 248 321 386
#     4  10  23  43  62  93 122 166 218 265 302 363
#     4  11  21  40  66  90 125 168 208 254 315 378
#     4   9  20  38  60  89 131 161 207 266 306 360
#     4   9  18  34  57  89 127 162 198 255 305 370
#
# _framework density 21.906504000000002
#
# number of rings (size 3 to 8) (size 9 to 14) (size 15 to 20)
#    0.000    2.000    1.429    2.571    0.000    0.571 
#    2.571    6.429    0.000    0.000    0.000    0.000 
#    0.000    0.000    0.000    0.000    0.000    0.000 
#
# Total GULP energy -78241.726427 kJ/mol
# GULP energy per Si atom -5588.694745 kJ/mol
# Density = 2.185664 g / cm^3
# Si number density = 21.906504 Si / 1000 Ang^3
#
#
#
# Elastic Constant Matrix: (Units=GPa)
#
#
# Indices 1 2 3 4 5 6 
#
# 1 95.8709 45.7124 41.8060 -0.8589 -9.2059 9.8628
# 2 45.7124 121.6394 41.2110 2.6357 -11.2576 2.2475
# 3 41.8060 41.2110 110.5392 -8.4634 -8.0578 6.7526
# 4 -0.8589 2.6357 -8.4634 35.2930 -3.0798 -6.8881
# 5 -9.2059 -11.2576 -8.0578 -3.0798 35.4446 11.2252
# 6 9.8628 2.2475 6.7526 -6.8881 11.2252 36.4754
#
#
#
# Elastic Compliance Matrix: (Units=1/GPa)
#
#
# Indices 1 2 3 4 5 6 
#
# 1 0.014568 -0.003869 -0.003663 -0.000773 0.002946 -0.004075
# 2 -0.003869 0.010710 -0.002514 -0.001334 0.001683 0.000082
# 3 -0.003663 -0.002514 0.011753 0.002861 0.001469 -0.000942
# 4 -0.000773 -0.001334 0.002861 0.030195 0.001019 0.005150
# 5 0.002946 0.001683 0.001469 0.001019 0.033512 -0.011293
# 6 -0.004075 0.000082 -0.000942 0.005150 -0.011293 0.033135
#
#
# Mechanical properties :
#
#
# Convention : Reuss Voigt Hill
#
# Bulk Modulus (GPa) = 59.03494 65.05646 62.04570
# Shear Modulus (GPa) = 31.32634 34.73064 33.02849
#
# Velocity S-wave (km/s) = 3.78564 3.98603 3.88713
# Velocity P-wave (km/s) = 6.79082 7.13767 6.96640
#
# Compressibility (1/GPa) = 0.01693912
#
# Stress axis : x y z
#
# Youngs Moduli (GPa) = 68.64451 93.37111 85.08644
#
# Poissons Ratio (x) = 0.36126 0.31164
# Poissons Ratio (y) = 0.26559 0.21391
# Poissons Ratio (z) = 0.25142 0.23473
#
# Static dielectric constant tensor:
#      x y z
#    x 1.887950 -0.026190 -0.147730 
#    y -0.026190 1.846830 0.014790 
#    z -0.147730 0.014790 1.879190 
# 
# From -- ./inp_files/315493.got.cif
#   From: 2010.05.17/outbox.cif.g08.bks.cpg/sg2_158_cif.got.tgz:315493.got - 2010.06.03 11:33:40.
