data_PCOD9088199
_publ_section_title
;
Structure prediction by ZEFSAII (Michael W. Deem and Ramdas Pophale) SiO2 
 PCOD9088199
Probable space group: P -1
;
_chemical_formula_sum "Si O2"
_cell_formula_units_Z 14
_cell_length_a 16.432987
_cell_length_b 9.554119
_cell_length_c 18.821079
_cell_angle_alpha 30.763058
_cell_angle_beta 22.217268
_cell_angle_gamma 29.787598
_cell_volume 529.971374
_symmetry_space_group_name_H-M "P -1"
_symmetry_group_IT_number 2
_symmetry_cell_setting 'triclinic'
loop_
_space_group_symop_operation_xyz
x,y,z
-x,-y,-z
loop_
_atom_site_type_symbol
_atom_site_label
_atom_site_fract_x
_atom_site_fract_y
_atom_site_fract_z
Si Si1 0.048303 0.251682 0.008768
Si Si2 0.131175 0.736177 0.659279
Si Si3 0.687052 0.027785 0.465091
Si Si4 0.735999 0.716988 0.839901
Si Si5 0.564102 0.770121 0.804255
Si Si6 0.757118 0.602543 0.416600
Si Si7 0.292686 0.750986 0.261653
O O1 0.020672 0.481348 0.867063
O O2 0.315021 0.036503 0.885127
O O3 0.000000 0.500000 0.000000
O O4 0.883961 0.067363 0.236759
O O5 0.305870 0.744368 0.576630
O O6 0.238840 0.653991 0.530438
O O7 0.926309 0.055629 0.692849
O O8 0.450443 0.127135 0.567599
O O9 0.694432 0.759965 0.628395
O O10 0.707663 0.801429 0.743087
O O11 0.975030 0.437758 0.776687
O O12 0.724282 0.993923 0.777421
O O13 0.519336 0.655801 0.072304
O O14 0.500000 0.500000 0.000000
O O15 0.709508 0.515328 0.572085
#
# Coordination Sequence:
#
# PCOD9088199 Si02
#       7
#     2   2   2   2   2   2   2
#     4  10  23  38  67  99 129 162 214 273 324 373
#     4  10  19  37  59  96 134 163 209 265 333 381
#     4  11  23  37  65  94 132 168 220 269 319 385
#     4  10  22  38  58  90 131 166 212 258 322 386
#     4  12  26  46  68  92 130 180 224 266 318 386
#     4  11  21  33  59  96 129 164 204 268 337 380
#     4  10  21  34  61  94 132 165 202 267 333 384
#
# _framework density 26.416520999999999
#
# number of rings (size 3 to 8) (size 9 to 14) (size 15 to 20)
#    0.000    1.429    1.429    5.571   12.000    0.571 
#    0.000    0.714    0.000    1.714    0.000    0.000 
#    0.000    0.000    0.000    0.000    0.000    0.000 
#
# Total GULP energy -78151.851112 kJ/mol
# GULP energy per Si atom -5582.275079 kJ/mol
# Density = 2.635640 g / cm^3
# Si number density = 26.416521 Si / 1000 Ang^3
#
#
#
# Elastic Constant Matrix: (Units=GPa)
#
#
# Indices 1 2 3 4 5 6 
#
# 1 103.4755 50.8026 39.7471 15.8025 26.9192 -31.0712
# 2 50.8026 110.6955 67.9343 2.3997 -0.7134 -26.4797
# 3 39.7471 67.9343 137.0300 -11.8447 15.5499 -24.9296
# 4 15.8025 2.3997 -11.8447 45.5166 -9.4249 -6.3779
# 5 26.9192 -0.7134 15.5499 -9.4249 40.2914 -8.8452
# 6 -31.0712 -26.4797 -24.9296 -6.3779 -8.8452 46.2649
#
#
#
# Elastic Compliance Matrix: (Units=1/GPa)
#
#
# Indices 1 2 3 4 5 6 
#
# 1 0.020299 -0.007921 -0.000175 -0.009015 -0.014654 0.004960
# 2 -0.007921 0.017554 -0.006664 0.002517 0.009488 0.003297
# 3 -0.000175 -0.006664 0.011686 0.003067 -0.003321 0.002153
# 4 -0.009015 0.002517 0.003067 0.028797 0.012360 0.003372
# 5 -0.014654 0.009488 -0.003321 0.012360 0.039627 0.003079
# 6 0.004960 0.003297 0.002153 0.003372 0.003079 0.029047
#
#
# Mechanical properties :
#
#
# Convention : Reuss Voigt Hill
#
# Bulk Modulus (GPa) = 49.95354 74.24099 62.09727
# Shear Modulus (GPa) = 27.29212 39.26238 33.27725
#
# Velocity S-wave (km/s) = 3.21775 3.85941 3.55309
# Velocity P-wave (km/s) = 5.72330 6.93002 6.35536
#
# Compressibility (1/GPa) = 0.02001860
#
# Stress axis : x y z
#
# Youngs Moduli (GPa) = 49.26431 56.96575 85.57239
#
# Poissons Ratio (x) = 0.45123 0.01495
# Poissons Ratio (y) = 0.39023 0.57029
# Poissons Ratio (z) = 0.00861 0.37964
#
# Static dielectric constant tensor:
#      x y z
#    x 2.246660 0.004300 0.107600 
#    y 0.004300 2.089190 -0.064540 
#    z 0.107600 -0.064540 2.370760 
# 
# From -- ./inp_files/600001.got.cif
#   From: 2010.05.17/outbox.cif.g08.bks.cpg/sg2_301_cif.got.tgz:600001.got - 2010.06.03 11:33:40.
