data_PCOD9088601
_publ_section_title
;
Structure prediction by ZEFSAII (Michael W. Deem and Ramdas Pophale) SiO2 
 PCOD9088601
Probable space group: P -1
;
_chemical_formula_sum "Si O2"
_cell_formula_units_Z 14
_cell_length_a 20.137573
_cell_length_b 5.780143
_cell_length_c 4.992773
_cell_angle_alpha 90.755791
_cell_angle_beta 81.992913
_cell_angle_gamma 72.780358
_cell_volume 548.777618
_symmetry_space_group_name_H-M "P -1"
_symmetry_group_IT_number 2
_symmetry_cell_setting 'triclinic'
loop_
_space_group_symop_operation_xyz
x,y,z
-x,-y,-z
loop_
_atom_site_type_symbol
_atom_site_label
_atom_site_fract_x
_atom_site_fract_y
_atom_site_fract_z
Si Si1 0.202509 0.894078 0.737484
Si Si2 0.225416 0.457313 0.362008
Si Si3 0.552206 0.444516 0.718736
Si Si4 0.903702 0.671023 0.461250
Si Si5 0.294137 0.184644 0.819048
Si Si6 0.058014 0.124090 0.050961
Si Si7 0.581434 0.916490 0.864279
O O1 0.237340 0.675414 0.523340
O O2 0.163785 0.096318 0.544275
O O3 0.134346 0.920218 0.965704
O O4 0.260149 0.967886 0.878434
O O5 0.247312 0.401056 0.042313
O O6 0.139861 0.508867 0.435368
O O7 0.276519 0.246585 0.519219
O O8 0.500000 0.500000 0.500000
O O9 0.592250 0.651631 0.714865
O O10 0.591558 0.153707 0.708495
O O11 0.500000 0.500000 0.000000
O O12 0.950561 0.752211 0.653279
O O13 0.937654 0.663501 0.153293
O O14 0.370745 0.125496 0.896966
O O15 0.000000 0.000000 0.000000
O O16 0.500000 0.000000 0.000000
#
# Coordination Sequence:
#
# PCOD9088601 Si02
#       7
#     2   2   2   2   2   2   2
#     4   9  23  38  66  84 131 162 211 262 324 383
#     4  11  22  41  64  91 125 167 219 262 330 390
#     4  10  22  42  68  93 132 173 214 272 339 405
#     4   9  19  38  56  88 122 157 207 261 310 379
#     4  11  25  41  64  96 126 167 217 272 323 404
#     4  10  19  37  62  86 126 165 205 263 324 376
#     4  10  24  46  69 100 137 176 227 286 346 408
#
# _framework density 25.511243
#
# number of rings (size 3 to 8) (size 9 to 14) (size 15 to 20)
#    0.857    1.143    1.429    0.857    4.000    4.571 
#    2.571    1.429    0.000    0.000    0.000    0.000 
#    0.000    0.000    0.000    0.000    0.000    0.000 
#
# Total GULP energy -78052.014187 kJ/mol
# GULP energy per Si atom -5575.143870 kJ/mol
# Density = 2.545318 g / cm^3
# Si number density = 25.511243 Si / 1000 Ang^3
#
#
#
# Elastic Constant Matrix: (Units=GPa)
#
#
# Indices 1 2 3 4 5 6 
#
# 1 122.7011 11.5769 -4.5303 6.2471 18.8918 14.0833
# 2 11.5769 109.7620 0.8770 17.6186 4.7846 8.2698
# 3 -4.5303 0.8770 103.0936 1.6105 11.3526 10.6547
# 4 6.2471 17.6186 1.6105 41.4873 -5.2779 -0.7671
# 5 18.8918 4.7846 11.3526 -5.2779 43.4351 2.3167
# 6 14.0833 8.2698 10.6547 -0.7671 2.3167 19.3805
#
#
#
# Elastic Compliance Matrix: (Units=1/GPa)
#
#
# Indices 1 2 3 4 5 6 
#
# 1 0.009939 0.000105 0.001792 -0.002349 -0.004673 -0.007787
# 2 0.000105 0.010287 0.000673 -0.004712 -0.001670 -0.004822
# 3 0.001792 0.000673 0.010933 -0.001561 -0.003514 -0.007241
# 4 -0.002349 -0.004712 -0.001561 0.027247 0.004990 0.005058
# 5 -0.004673 -0.001670 -0.003514 0.004990 0.026601 0.003058
# 6 -0.007787 -0.004822 -0.007241 0.005058 0.003058 0.063130
#
#
# Mechanical properties :
#
#
# Convention : Reuss Voigt Hill
#
# Bulk Modulus (GPa) = 27.54993 39.04488 33.29740
# Shear Modulus (GPa) = 32.23799 42.70280 37.47040
#
# Velocity S-wave (km/s) = 3.55868 4.09575 3.83662
# Velocity P-wave (km/s) = 5.26386 6.14045 5.71897
#
# Compressibility (1/GPa) = 0.03629774
#
# Stress axis : x y z
#
# Youngs Moduli (GPa) = 100.61431 97.21323 91.46849
#
# Poissons Ratio (x) = -0.01019 -0.16390
# Poissons Ratio (y) = -0.01055 -0.06156
# Poissons Ratio (z) = -0.18029 -0.06542
#
# Static dielectric constant tensor:
#      x y z
#    x 4.421770 1.644960 -1.206430 
#    y 1.644960 3.269060 -0.792330 
#    z -1.206430 -0.792330 2.460930 
# 
# From -- ./inp_files/14808.got.cif
#   From: 2010.05.17/outbox.cif.g08.bks.cpg/sg2_8_cif.got.tgz:14808.got - 2010.06.03 11:33:40.
