data_PCOD9088755
_publ_section_title
;
Structure prediction by ZEFSAII (Michael W. Deem and Ramdas Pophale) SiO2 
 PCOD9088755
Probable space group: P -1
;
_chemical_formula_sum "Si O2"
_cell_formula_units_Z 14
_cell_length_a 12.602377
_cell_length_b 16.893929
_cell_length_c 5.411152
_cell_angle_alpha 99.990825
_cell_angle_beta 75.083870
_cell_angle_gamma 147.202631
_cell_volume 600.977976
_symmetry_space_group_name_H-M "P -1"
_symmetry_group_IT_number 2
_symmetry_cell_setting 'triclinic'
loop_
_space_group_symop_operation_xyz
x,y,z
-x,-y,-z
loop_
_atom_site_type_symbol
_atom_site_label
_atom_site_fract_x
_atom_site_fract_y
_atom_site_fract_z
Si Si1 0.298940 0.300217 0.694853
Si Si2 0.479040 0.356080 0.119174
Si Si3 0.765377 0.961275 0.907999
Si Si4 0.835197 0.212121 0.494601
Si Si5 0.509498 0.884034 0.364890
Si Si6 0.796701 0.940784 0.374446
Si Si7 0.088800 0.343052 0.912291
O O1 0.401772 0.362975 0.396979
O O2 0.444786 0.376009 0.884661
O O3 0.190657 0.145944 0.669935
O O4 0.178088 0.307573 0.817656
O O5 0.349305 0.194651 0.117970
O O6 0.711627 0.480868 0.092322
O O7 0.867128 0.029165 0.621796
O O8 0.603487 0.930118 0.057709
O O9 0.896533 0.035211 0.118044
O O10 0.713937 0.221976 0.557918
O O11 0.960328 0.282155 0.710119
O O12 0.655595 0.036384 0.496659
O O13 0.964108 0.277276 0.204404
O O14 0.566951 0.832499 0.419864
#
# Coordination Sequence:
#
# PCOD9088755 Si02
#       7
#     2   2   2   2   2   2   2
#     4  10  19  37  63  85 115 153 184 227 289 349
#     4  10  19  37  63  85 115 153 184 227 289 349
#     4   8  17  32  62  82 102 142 201 224 269 344
#     4  11  26  37  60  81 120 151 194 235 282 337
#     4   9  22  42  62  77 110 162 196 229 284 334
#     4   8  17  32  62  82 102 142 201 224 269 344
#     4  12  24  38  54  95 120 143 188 240 284 334
#
# _framework density 23.295365
#
# number of rings (size 3 to 8) (size 9 to 14) (size 15 to 20)
#    0.857    1.429    0.000    2.571    4.000    1.143 
#    0.000    2.857    0.000    0.000    0.000    0.000 
#    0.000    0.000    0.000    0.000    0.000    0.000 
#
# Total GULP energy -78123.841346 kJ/mol
# GULP energy per Si atom -5580.274382 kJ/mol
# Density = 2.324234 g / cm^3
# Si number density = 23.295365 Si / 1000 Ang^3
#
#
#
# Elastic Constant Matrix: (Units=GPa)
#
#
# Indices 1 2 3 4 5 6 
#
# 1 135.9184 15.7893 53.3228 1.1377 -12.8625 39.6564
# 2 15.7893 58.4830 21.7435 7.4859 11.5549 18.2213
# 3 53.3228 21.7435 192.6981 14.7153 17.6812 36.3688
# 4 1.1377 7.4859 14.7153 28.7964 6.4674 1.7372
# 5 -12.8625 11.5549 17.6812 6.4674 41.3367 5.2449
# 6 39.6564 18.2213 36.3688 1.7372 5.2449 39.2714
#
#
#
# Elastic Compliance Matrix: (Units=1/GPa)
#
#
# Indices 1 2 3 4 5 6 
#
# 1 0.011834 -0.000270 -0.001687 -0.000197 0.005911 -0.011043
# 2 -0.000270 0.021293 0.000057 -0.004051 -0.004296 -0.008907
# 3 -0.001687 0.000057 0.006885 -0.002641 -0.002534 -0.004243
# 4 -0.000197 -0.004051 -0.002641 0.037865 -0.004155 0.003404
# 5 0.005911 -0.004296 -0.002534 -0.004155 0.029652 -0.005405
# 6 -0.011043 -0.008907 -0.004243 0.003404 -0.005405 0.045248
#
#
# Mechanical properties :
#
#
# Convention : Reuss Voigt Hill
#
# Bulk Modulus (GPa) = 27.61612 63.20118 45.40865
# Shear Modulus (GPa) = 29.64750 41.63047 35.63899
#
# Velocity S-wave (km/s) = 3.57133 4.23196 3.91560
# Velocity P-wave (km/s) = 5.37461 7.14623 6.32278
#
# Compressibility (1/GPa) = 0.03621073
#
# Stress axis : x y z
#
# Youngs Moduli (GPa) = 84.50549 46.96324 145.24170
#
# Poissons Ratio (x) = 0.01267 0.24508
# Poissons Ratio (y) = 0.02280 -0.00822
# Poissons Ratio (z) = 0.14259 -0.00266
#
# Static dielectric constant tensor:
#      x y z
#    x 1.906540 0.013540 0.027230 
#    y 0.013540 1.932470 0.007370 
#    z 0.027230 0.007370 1.967440 
# 
# From -- ./inp_files/100253.got.cif
#   From: 2010.05.17/outbox.cif.g08.bks.cpg/sg2_51_cif.got.tgz:100253.got - 2010.06.03 11:33:40.
