data_PCOD9088795
_publ_section_title
;
Structure prediction by ZEFSAII (Michael W. Deem and Ramdas Pophale) SiO2 
 PCOD9088795
Probable space group: P -1
;
_chemical_formula_sum "Si O2"
_cell_formula_units_Z 12
_cell_length_a 26.475053
_cell_length_b 13.012191
_cell_length_c 11.712376
_cell_angle_alpha 144.641763
_cell_angle_beta 20.366948
_cell_angle_gamma 155.970622
_cell_volume 547.752241
_symmetry_space_group_name_H-M "P -1"
_symmetry_group_IT_number 2
_symmetry_cell_setting 'triclinic'
loop_
_space_group_symop_operation_xyz
x,y,z
-x,-y,-z
loop_
_atom_site_type_symbol
_atom_site_label
_atom_site_fract_x
_atom_site_fract_y
_atom_site_fract_z
Si Si1 0.100800 0.178757 0.560040
Si Si2 0.860905 0.409147 0.823425
Si Si3 0.101313 0.679583 0.787345
Si Si4 0.677813 0.263426 0.433631
Si Si5 0.698167 0.613437 0.258006
Si Si6 0.149704 0.996945 0.512968
O O1 0.292468 0.496154 0.419984
O O2 0.164815 0.101806 0.453230
O O3 0.913172 0.131739 0.969529
O O4 0.000000 0.000000 0.500000
O O5 0.035550 0.617962 0.739648
O O6 0.000000 0.500000 0.500000
O O7 0.772948 0.134476 0.786342
O O8 0.698977 0.423293 0.149973
O O9 0.301085 0.771724 0.510534
O O10 0.896126 0.397797 0.026721
O O11 0.500000 0.000000 0.500000
O O12 0.500000 0.500000 0.500000
O O13 0.727617 0.784183 0.450549
O O14 0.904507 0.785488 0.891258
#
# Coordination Sequence:
#
# PCOD9088795 Si02
#       6
#     2   2   2   2   2   2
#     4  10  19  37  63  88 121 165 207 257 312 370
#     4  10  20  39  64  89 122 168 205 251 317 373
#     4   9  19  38  61  85 124 159 207 254 311 366
#     4   9  19  37  60  87 120 163 206 252 314 367
#     4  10  21  41  61  91 123 162 211 261 311 373
#     4  10  21  38  63  88 125 164 207 258 315 373
#
# _framework density 21.907716000000001
#
# number of rings (size 3 to 8) (size 9 to 14) (size 15 to 20)
#    1.000    1.333    1.667    1.000    0.000    0.667 
#    6.000    5.833    0.000    0.000    0.000    0.000 
#    0.000    0.000    0.000    0.000    0.000    0.000 
#
# Total GULP energy -66840.845742 kJ/mol
# GULP energy per Si atom -5570.070479 kJ/mol
# Density = 2.185785 g / cm^3
# Si number density = 21.907716 Si / 1000 Ang^3
#
#
#
# Elastic Constant Matrix: (Units=GPa)
#
#
# Indices 1 2 3 4 5 6 
#
# 1 213.3455 97.1240 67.4276 17.8489 -36.7107 26.6269
# 2 97.1240 163.0624 65.9037 33.8802 -37.3902 17.4852
# 3 67.4276 65.9037 65.5381 10.7070 -27.5526 17.1381
# 4 17.8489 33.8802 10.7070 35.9330 -3.8777 -5.4878
# 5 -36.7107 -37.3902 -27.5526 -3.8777 42.9111 12.1568
# 6 26.6269 17.4852 17.1381 -5.4878 12.1568 42.7370
#
#
#
# Elastic Compliance Matrix: (Units=1/GPa)
#
#
# Indices 1 2 3 4 5 6 
#
# 1 0.007870 -0.001526 -0.003272 -0.001698 0.004406 -0.004438
# 2 -0.001526 0.014229 -0.005963 -0.010958 0.008021 -0.006168
# 3 -0.003272 -0.005963 0.039496 -0.004928 0.022098 -0.018279
# 4 -0.001698 -0.010958 -0.004928 0.041448 -0.015288 0.017188
# 5 0.004406 0.008021 0.022098 -0.015288 0.056171 -0.032830
# 6 -0.004438 -0.006168 -0.018279 0.017188 -0.032830 0.047564
#
#
# Mechanical properties :
#
#
# Convention : Reuss Voigt Hill
#
# Bulk Modulus (GPa) = 24.95457 100.31742 62.63600
# Shear Modulus (GPa) = 20.69041 38.41559 29.55300
#
# Velocity S-wave (km/s) = 3.07650 4.19205 3.67683
# Velocity P-wave (km/s) = 4.90258 8.32594 6.83215
#
# Compressibility (1/GPa) = 0.04007282
#
# Stress axis : x y z
#
# Youngs Moduli (GPa) = 127.05889 70.27827 25.31913
#
# Poissons Ratio (x) = 0.10727 0.08285
# Poissons Ratio (y) = 0.19394 0.15097
# Poissons Ratio (z) = 0.41575 0.41906
#
# Static dielectric constant tensor:
#      x y z
#    x 1.837870 -0.054140 -0.019020 
#    y -0.054140 1.851520 0.002360 
#    z -0.019020 0.002360 1.840390 
# 
# From -- ./inp_files/474781.got.cif
#   From: 2010.05.17/outbox.cif.g08.bks.cpg/sg2_238_cif.got.tgz:474781.got - 2010.06.03 11:33:40.
