data_PCOD9088964
_publ_section_title
;
Structure prediction by ZEFSAII (Michael W. Deem and Ramdas Pophale) SiO2 
 PCOD9088964
Probable space group: P -1
;
_chemical_formula_sum "Si O2"
_cell_formula_units_Z 16
_cell_length_a 20.394081
_cell_length_b 9.180106
_cell_length_c 13.728162
_cell_angle_alpha 48.717567
_cell_angle_beta 160.134501
_cell_angle_gamma 132.661227
_cell_volume 639.668733
_symmetry_space_group_name_H-M "P -1"
_symmetry_group_IT_number 2
_symmetry_cell_setting 'triclinic'
loop_
_space_group_symop_operation_xyz
x,y,z
-x,-y,-z
loop_
_atom_site_type_symbol
_atom_site_label
_atom_site_fract_x
_atom_site_fract_y
_atom_site_fract_z
Si Si1 0.578798 0.942501 0.768634
Si Si2 0.686438 0.128481 0.040961
Si Si3 0.577407 0.677226 0.661726
Si Si4 0.221099 0.572112 0.430125
Si Si5 0.516463 0.661760 0.184684
Si Si6 0.195140 0.617619 0.604585
Si Si7 0.981377 0.820359 0.362601
Si Si8 0.200458 0.472744 0.108737
O O1 0.406298 0.751686 0.589676
O O2 0.498486 0.123024 0.530959
O O3 0.798155 0.926080 0.049239
O O4 0.604571 0.978192 0.905803
O O5 0.850364 0.080890 0.366011
O O6 0.516311 0.178369 0.852119
O O7 0.781404 0.330400 0.021489
O O8 0.616096 0.544539 0.863988
O O9 0.386076 0.525134 0.416074
O O10 0.757093 0.695913 0.829323
O O11 0.276402 0.383262 0.538305
O O12 0.207504 0.582402 0.523467
O O13 0.001275 0.584407 0.089345
O O14 0.408227 0.687377 0.921867
O O15 0.097406 0.398498 0.604946
O O16 0.077176 0.775418 0.413894
#
# Coordination Sequence:
#
# PCOD9088964 Si02
#       8
#     2   2   2   2   2   2   2   2
#     4  11  23  37  61  96 127 151 193 261 308 342
#     4   9  19  40  63  87 121 164 207 236 290 367
#     4   9  21  42  60  85 118 166 209 230 290 374
#     4  12  23  36  62  97 121 149 199 264 308 336
#     4  10  21  39  65  87 121 166 201 242 289 368
#     4  10  21  38  63  94 115 155 210 248 290 358
#     4  10  19  37  64  88 117 164 202 244 290 365
#     4   9  19  39  66  82 114 167 208 242 282 365
#
# _framework density 25.012945999999999
#
# number of rings (size 3 to 8) (size 9 to 14) (size 15 to 20)
#    0.000    2.000    2.500    1.500    1.750    1.500 
#    0.000    6.250    0.000    0.000    0.000    0.000 
#    0.000    0.000    0.000    0.000    0.000    0.000 
#
# Total GULP energy -89400.583378 kJ/mol
# GULP energy per Si atom -5587.536461 kJ/mol
# Density = 2.495602 g / cm^3
# Si number density = 25.012946 Si / 1000 Ang^3
#
#
#
# Elastic Constant Matrix: (Units=GPa)
#
#
# Indices 1 2 3 4 5 6 
#
# 1 82.8496 9.8260 18.2192 -1.4106 15.4020 -10.0485
# 2 9.8260 60.8181 23.3152 -8.9284 9.0966 -5.3259
# 3 18.2192 23.3152 133.2601 -5.3992 28.3459 -4.4475
# 4 -1.4106 -8.9284 -5.3992 32.1675 -15.1710 -4.0414
# 5 15.4020 9.0966 28.3459 -15.1710 47.0623 -12.2794
# 6 -10.0485 -5.3259 -4.4475 -4.0414 -12.2794 26.4705
#
#
#
# Elastic Compliance Matrix: (Units=1/GPa)
#
#
# Indices 1 2 3 4 5 6 
#
# 1 0.013345 -0.001226 -0.000885 -0.000985 -0.003112 0.003076
# 2 -0.001226 0.018858 -0.003111 0.006068 0.001775 0.004556
# 3 -0.000885 -0.003111 0.009306 -0.002639 -0.006272 -0.002711
# 4 -0.000985 0.006068 -0.002639 0.043078 0.018712 0.015661
# 5 -0.003112 0.001775 -0.006272 0.018712 0.036394 0.017862
# 6 0.003076 0.004556 -0.002711 0.015661 0.017862 0.050084
#
#
# Mechanical properties :
#
#
# Convention : Reuss Voigt Hill
#
# Bulk Modulus (GPa) = 32.19272 42.18318 37.18795
# Shear Modulus (GPa) = 26.06004 36.17788 31.11896
#
# Velocity S-wave (km/s) = 3.23129 3.80724 3.53103
# Velocity P-wave (km/s) = 5.17880 6.01896 5.61462
#
# Compressibility (1/GPa) = 0.03106293
#
# Stress axis : x y z
#
# Youngs Moduli (GPa) = 74.93395 53.02899 107.45432
#
# Poissons Ratio (x) = 0.06504 0.09512
# Poissons Ratio (y) = 0.09190 0.33433
# Poissons Ratio (z) = 0.06633 0.16499
#
# Static dielectric constant tensor:
#      x y z
#    x 2.032240 -0.030660 -0.000150 
#    y -0.030660 2.033930 0.017610 
#    z -0.000150 0.017610 1.995130 
# 
# From -- ./inp_files/218821.got.cif
#   From: 2010.05.17/outbox.cif.g08.bks.cpg/sg2_110_cif.got.tgz:218821.got - 2010.06.03 11:33:40.
