data_PCOD9088807
_publ_section_title
;
Structure prediction by ZEFSAII (Michael W. Deem and Ramdas Pophale) SiO2 
 PCOD9088807
Probable space group: P -1
;
_chemical_formula_sum "Si O2"
_cell_formula_units_Z 16
_cell_length_a 9.198288
_cell_length_b 12.184739
_cell_length_c 17.763287
_cell_angle_alpha 138.954550
_cell_angle_beta 75.950393
_cell_angle_gamma 134.966397
_cell_volume 722.300521
_symmetry_space_group_name_H-M "P -1"
_symmetry_group_IT_number 2
_symmetry_cell_setting 'triclinic'
loop_
_space_group_symop_operation_xyz
x,y,z
-x,-y,-z
loop_
_atom_site_type_symbol
_atom_site_label
_atom_site_fract_x
_atom_site_fract_y
_atom_site_fract_z
Si Si1 0.224147 0.176843 0.623232
Si Si2 0.044474 0.339079 0.905025
Si Si3 0.511855 0.217232 0.800577
Si Si4 0.972329 0.900962 0.677749
Si Si5 0.316900 0.612422 0.862149
Si Si6 0.734665 0.340775 0.417448
Si Si7 0.784883 0.264611 0.204800
Si Si8 0.367225 0.701690 0.345890
O O1 0.401977 0.505175 0.777028
O O2 0.434381 0.234133 0.601900
O O3 0.074964 0.994127 0.625731
O O4 0.000000 0.000000 0.500000
O O5 0.097071 0.379883 0.831215
O O6 0.896432 0.022688 0.772791
O O7 0.288565 0.540832 0.035591
O O8 0.000000 0.500000 0.000000
O O9 0.611969 0.332498 0.762326
O O10 0.238167 0.067494 0.769190
O O11 0.477848 0.984377 0.692289
O O12 0.753682 0.556513 0.540155
O O13 0.203233 0.600116 0.797523
O O14 0.547125 0.925943 0.035854
O O15 0.724738 0.303583 0.309687
O O16 0.000000 0.500000 0.500000
O O17 0.063046 0.428386 0.264551
O O18 0.500000 0.000000 0.500000
#
# Coordination Sequence:
#
# PCOD9088807 Si02
#       8
#     2   2   2   2   2   2   2   2
#     4  10  20  37  60  89 123 160 206 253 311 374
#     4  11  21  37  59  90 121 158 205 250 304 367
#     4  10  20  38  61  84 121 158 200 243 307 365
#     4   9  20  35  59  87 114 158 201 243 304 367
#     4  10  22  38  62  89 123 173 197 255 321 363
#     4  10  19  37  63  89 117 162 202 250 308 367
#     4  11  21  39  64  88 128 159 212 253 309 371
#     4  11  22  37  62  93 118 159 211 260 299 365
#
# _framework density 22.151444999999999
#
# number of rings (size 3 to 8) (size 9 to 14) (size 15 to 20)
#    0.000    1.750    1.250    4.875    0.000    1.500 
#    0.000    0.625   19.250    0.000    0.000    0.875 
#    0.000    0.000    0.000    0.000    0.000    0.000 
#
# Total GULP energy -89157.048049 kJ/mol
# GULP energy per Si atom -5572.315503 kJ/mol
# Density = 2.210103 g / cm^3
# Si number density = 22.151445 Si / 1000 Ang^3
#
#
#
# Elastic Constant Matrix: (Units=GPa)
#
#
# Indices 1 2 3 4 5 6 
#
# 1 123.1198 4.3155 44.3770 3.2727 -24.3550 -9.0933
# 2 4.3155 23.8819 -1.0360 -1.6099 5.3569 -17.3922
# 3 44.3770 -1.0360 76.9623 -0.4142 -12.4582 -26.1173
# 4 3.2727 -1.6099 -0.4142 27.6578 -14.1629 -0.6946
# 5 -24.3550 5.3569 -12.4582 -14.1629 54.1044 0.2727
# 6 -9.0933 -17.3922 -26.1173 -0.6946 0.2727 27.0446
#
#
#
# Elastic Compliance Matrix: (Units=1/GPa)
#
#
# Indices 1 2 3 4 5 6 
#
# 1 0.014038 -0.024560 -0.017098 -0.001738 0.004498 -0.027676
# 2 -0.024560 0.200758 0.084531 0.016813 -0.008090 0.202994
# 3 -0.017098 0.084531 0.060465 0.010588 0.000088 0.107275
# 4 -0.001738 0.016813 0.010588 0.043857 0.011363 0.021465
# 5 0.004498 -0.008090 0.000088 0.011363 0.024321 -0.003559
# 6 -0.027676 0.202994 0.107275 0.021465 -0.003559 0.262399
#
#
# Mechanical properties :
#
#
# Convention : Reuss Voigt Hill
#
# Bulk Modulus (GPa) = 2.77002 35.47521 19.12262
# Shear Modulus (GPa) = 7.80729 33.51519 20.66124
#
# Velocity S-wave (km/s) = 1.87940 3.89395 3.05737
# Velocity P-wave (km/s) = 2.44187 6.02219 4.59508
#
# Compressibility (1/GPa) = 0.36100783
#
# Stress axis : x y z
#
# Youngs Moduli (GPa) = 71.23690 4.98112 16.53842
#
# Poissons Ratio (x) = 0.12233 0.28277
# Poissons Ratio (y) = 1.74955 -1.39801
# Poissons Ratio (z) = 1.21800 -0.42106
#
# Static dielectric constant tensor:
#      x y z
#    x 1.857630 -0.018170 -0.034010 
#    y -0.018170 1.816390 0.030140 
#    z -0.034010 0.030140 1.822210 
# 
# From -- ./inp_files/560029.got.cif
#   From: 2010.05.17/outbox.cif.g08.bks.cpg/sg2_281_cif.got.tgz:560029.got - 2010.06.03 11:33:40.
