data_PCOD9088453
_publ_section_title
;
Structure prediction by ZEFSAII (Michael W. Deem and Ramdas Pophale) SiO2 
 PCOD9088453
Probable space group: P -1
;
_chemical_formula_sum "Si O2"
_cell_formula_units_Z 14
_cell_length_a 10.902478
_cell_length_b 12.057704
_cell_length_c 9.045547
_cell_angle_alpha 129.110709
_cell_angle_beta 106.510828
_cell_angle_gamma 47.720128
_cell_volume 661.986550
_symmetry_space_group_name_H-M "P -1"
_symmetry_group_IT_number 2
_symmetry_cell_setting 'triclinic'
loop_
_space_group_symop_operation_xyz
x,y,z
-x,-y,-z
loop_
_atom_site_type_symbol
_atom_site_label
_atom_site_fract_x
_atom_site_fract_y
_atom_site_fract_z
Si Si1 0.163775 0.721068 0.154053
Si Si2 0.678555 0.815478 0.833991
Si Si3 0.303512 0.352469 0.020858
Si Si4 0.544590 0.031999 0.387310
Si Si5 0.626053 0.325755 0.086567
Si Si6 0.363262 0.738647 0.462963
Si Si7 0.817885 0.016535 0.115200
O O1 0.211079 0.758491 0.357736
O O2 0.988916 0.897065 0.168185
O O3 0.172541 0.546201 0.047325
O O4 0.311517 0.658714 0.035805
O O5 0.734991 0.643416 0.814698
O O6 0.795367 0.869116 0.932239
O O7 0.500000 0.000000 0.000000
O O8 0.484579 0.302652 0.017065
O O9 0.378797 0.174702 0.344259
O O10 0.326665 0.176155 0.818551
O O11 0.625658 0.125917 0.513983
O O12 0.500000 0.000000 0.500000
O O13 0.532634 0.519672 0.310866
O O14 0.789549 0.140126 0.070487
O O15 0.330051 0.820579 0.684775
#
# Coordination Sequence:
#
# PCOD9088453 Si02
#       7
#     2   2   2   2   2   2   2
#     4  11  25  38  60  94 129 158 194 251 318 347
#     4  10  19  37  61  88 113 160 208 241 296 349
#     4  10  19  40  62  84 120 160 208 240 290 372
#     4  11  19  35  64  90 114 149 211 255 284 346
#     4  11  21  40  63  89 119 164 205 248 295 363
#     4  11  22  38  62  91 117 161 211 241 294 361
#     4  12  22  40  62  92 126 159 199 254 302 361
#
# _framework density 21.148465999999999
#
# number of rings (size 3 to 8) (size 9 to 14) (size 15 to 20)
#    0.000    1.143    5.714    4.714    0.000    1.714 
#    0.000    0.000    0.000    1.714    0.000    0.000 
#    0.000    0.000    0.000    0.000    0.000    0.000 
#
# Total GULP energy -78126.615817 kJ/mol
# GULP energy per Si atom -5580.472558 kJ/mol
# Density = 2.110033 g / cm^3
# Si number density = 21.148466 Si / 1000 Ang^3
#
#
#
# Elastic Constant Matrix: (Units=GPa)
#
#
# Indices 1 2 3 4 5 6 
#
# 1 27.1146 13.7039 12.4069 11.8401 9.9757 14.3578
# 2 13.7039 131.0036 16.9098 3.3682 -0.4541 21.9092
# 3 12.4069 16.9098 34.3140 5.4535 5.4403 -1.3635
# 4 11.8401 3.3682 5.4535 34.9758 12.9375 0.3951
# 5 9.9757 -0.4541 5.4403 12.9375 26.7261 -3.6910
# 6 14.3578 21.9092 -1.3635 0.3951 -3.6910 38.9453
#
#
#
# Elastic Compliance Matrix: (Units=1/GPa)
#
#
# Indices 1 2 3 4 5 6 
#
# 1 0.079453 0.000567 -0.024475 -0.014605 -0.022071 -0.032411
# 2 0.000567 0.009138 -0.004925 -0.000380 0.000373 -0.005483
# 3 -0.024475 -0.004925 0.040394 0.001608 0.001897 0.013371
# 4 -0.014605 -0.000380 0.001608 0.037974 -0.012704 0.004065
# 5 -0.022071 0.000373 0.001897 -0.012704 0.053243 0.013168
# 6 -0.032411 -0.005483 0.013371 0.004065 0.013168 0.042385
#
#
# Mechanical properties :
#
#
# Convention : Reuss Voigt Hill
#
# Bulk Modulus (GPa) = 14.02135 30.94151 22.48143
# Shear Modulus (GPa) = 14.53383 30.09019 22.31201
#
# Velocity S-wave (km/s) = 2.62435 3.77610 3.25163
# Velocity P-wave (km/s) = 3.97835 5.80296 4.97502
#
# Compressibility (1/GPa) = 0.07131982
#
# Stress axis : x y z
#
# Youngs Moduli (GPa) = 12.58608 109.43610 24.75627
#
# Poissons Ratio (x) = -0.06208 0.60591
# Poissons Ratio (y) = -0.00714 0.12192
# Poissons Ratio (z) = 0.30804 0.53894
#
# Static dielectric constant tensor:
#      x y z
#    x 1.821920 0.019110 0.007760 
#    y 0.019110 1.829050 -0.008960 
#    z 0.007760 -0.008960 1.792370 
# 
# From -- ./inp_files/260662.got.cif
#   From: 2010.05.17/outbox.cif.g08.bks.cpg/sg2_131_cif.got.tgz:260662.got - 2010.06.03 11:33:40.
