data_PCOD9088719
_publ_section_title
;
Structure prediction by ZEFSAII (Michael W. Deem and Ramdas Pophale) SiO2 
 PCOD9088719
Probable space group: P -1
;
_chemical_formula_sum "Si O2"
_cell_formula_units_Z 14
_cell_length_a 12.111788
_cell_length_b 9.569132
_cell_length_c 9.361602
_cell_angle_alpha 55.385190
_cell_angle_beta 72.671176
_cell_angle_gamma 118.094602
_cell_volume 494.193947
_symmetry_space_group_name_H-M "P -1"
_symmetry_group_IT_number 2
_symmetry_cell_setting 'triclinic'
loop_
_space_group_symop_operation_xyz
x,y,z
-x,-y,-z
loop_
_atom_site_type_symbol
_atom_site_label
_atom_site_fract_x
_atom_site_fract_y
_atom_site_fract_z
Si Si1 0.838359 0.454575 0.075661
Si Si2 0.582937 0.591374 0.097667
Si Si3 0.491413 0.177696 0.534286
Si Si4 0.745161 0.565278 0.579393
Si Si5 0.768788 0.889899 0.152611
Si Si6 0.919825 0.119142 0.497869
Si Si7 0.886411 0.441579 0.440510
O O1 0.712277 0.368256 0.310603
O O2 0.663768 0.162202 0.215568
O O3 0.964049 0.747408 0.773940
O O4 0.000000 0.500000 0.000000
O O5 0.468944 0.277637 0.347087
O O6 0.445232 0.589324 0.176512
O O7 0.725800 0.770244 0.080469
O O8 0.722482 0.774010 0.801337
O O9 0.419582 0.219529 0.661377
O O10 0.802083 0.781403 0.317888
O O11 0.917258 0.732617 0.530582
O O12 0.714779 0.355118 0.623574
O O13 0.951760 0.237819 0.876617
O O14 0.848510 0.227498 0.489686
O O15 0.000000 0.500000 0.500000
#
# Coordination Sequence:
#
# PCOD9088719 Si02
#       7
#     2   2   2   2   2   2   2
#     4  11  26  48  69  92 125 184 227 270 328 380
#     4  11  24  40  68 106 132 169 214 265 338 397
#     4  10  24  44  68  96 134 166 225 276 313 396
#     4  10  22  37  62  97 139 175 207 268 329 389
#     4  11  20  42  67 101 136 173 213 261 336 399
#     4  11  24  43  64  96 136 169 225 273 322 384
#     4  10  19  37  62  96 138 172 207 264 322 397
#
# _framework density 28.328959000000001
#
# number of rings (size 3 to 8) (size 9 to 14) (size 15 to 20)
#    0.000    1.429    4.286    2.143    0.000    8.000 
#    0.000    3.571    0.000    0.000    0.000    0.000 
#    0.000    0.000    0.000    0.000    0.000    0.000 
#
# Total GULP energy -78511.128215 kJ/mol
# GULP energy per Si atom -5607.937730 kJ/mol
# Density = 2.826448 g / cm^3
# Si number density = 28.328959 Si / 1000 Ang^3
#
#
#
# Elastic Constant Matrix: (Units=GPa)
#
#
# Indices 1 2 3 4 5 6 
#
# 1 187.9518 32.4764 35.7968 15.4976 -19.0571 -38.6882
# 2 32.4764 124.7432 20.0773 12.1982 -2.5105 -23.7700
# 3 35.7968 20.0773 164.3208 9.1058 -16.9898 -4.7751
# 4 15.4976 12.1982 9.1058 39.0092 -7.4025 4.3141
# 5 -19.0571 -2.5105 -16.9898 -7.4025 43.9152 7.1692
# 6 -38.6882 -23.7700 -4.7751 4.3141 7.1692 54.7619
#
#
#
# Elastic Compliance Matrix: (Units=1/GPa)
#
#
# Indices 1 2 3 4 5 6 
#
# 1 0.006899 -0.000472 -0.001025 -0.002602 0.001380 0.004604
# 2 -0.000472 0.009342 -0.000868 -0.003209 -0.001210 0.004057
# 3 -0.001025 -0.000868 0.006634 -0.000380 0.002134 -0.000772
# 4 -0.002602 -0.003209 -0.000380 0.029293 0.004484 -0.006159
# 5 0.001380 -0.001210 0.002134 0.004484 0.025379 -0.003040
# 6 0.004604 0.004057 -0.000772 -0.006159 -0.003040 0.024091
#
#
# Mechanical properties :
#
#
# Convention : Reuss Voigt Hill
#
# Bulk Modulus (GPa) = 55.10729 72.63519 63.87124
# Shear Modulus (GPa) = 44.47807 53.44829 48.96318
#
# Velocity S-wave (km/s) = 3.96669 4.34833 4.16189
# Velocity P-wave (km/s) = 6.36195 7.13486 6.75946
#
# Compressibility (1/GPa) = 0.01814642
#
# Stress axis : x y z
#
# Youngs Moduli (GPa) = 144.93908 107.04868 150.73350
#
# Poissons Ratio (x) = 0.05050 0.15445
# Poissons Ratio (y) = 0.06838 0.13083
# Poissons Ratio (z) = 0.14852 0.09291
#
# Static dielectric constant tensor:
#      x y z
#    x 2.274090 0.043980 0.041220 
#    y 0.043980 2.162470 0.030230 
#    z 0.041220 0.030230 2.198140 
# 
# From -- ./inp_files/427366.got.cif
#   From: 2010.05.17/outbox.cif.g08.bks.cpg/sg2_214_cif.got.tgz:427366.got - 2010.06.03 11:33:40.
