data_PCOD9088031
_publ_section_title
;
Structure prediction by ZEFSAII (Michael W. Deem and Ramdas Pophale) SiO2 
 PCOD9088031
Probable space group: P -1
;
_chemical_formula_sum "Si O2"
_cell_formula_units_Z 16
_cell_length_a 8.622003
_cell_length_b 10.638866
_cell_length_c 20.526739
_cell_angle_alpha 38.088817
_cell_angle_beta 36.633611
_cell_angle_gamma 47.059597
_cell_volume 686.738500
_symmetry_space_group_name_H-M "P -1"
_symmetry_group_IT_number 2
_symmetry_cell_setting 'triclinic'
loop_
_space_group_symop_operation_xyz
x,y,z
-x,-y,-z
loop_
_atom_site_type_symbol
_atom_site_label
_atom_site_fract_x
_atom_site_fract_y
_atom_site_fract_z
Si Si1 0.290255 0.081083 0.441935
Si Si2 0.670000 0.668785 0.213613
Si Si3 0.268573 0.400070 0.918075
Si Si4 0.140684 0.140697 0.664336
Si Si5 0.304837 0.098843 0.140713
Si Si6 0.732057 0.540065 0.625527
Si Si7 0.373400 0.299554 0.647119
Si Si8 0.780486 0.893915 0.689159
O O1 0.192987 0.244102 0.464357
O O2 0.085093 0.918712 0.573766
O O3 0.570946 0.958500 0.414329
O O4 0.291712 0.182125 0.327431
O O5 0.502672 0.891206 0.168170
O O6 0.463847 0.500455 0.350588
O O7 0.789270 0.654288 0.250370
O O8 0.831932 0.648168 0.101204
O O9 0.479214 0.493352 0.231604
O O10 0.388348 0.232476 0.998663
O O11 0.000000 0.500000 0.000000
O O12 0.197727 0.194116 0.698330
O O13 0.959519 0.975001 0.769166
O O14 0.975063 0.359959 0.611863
O O15 0.269264 0.197067 0.185304
O O16 0.500000 0.500000 0.500000
O O17 0.617981 0.123977 0.650845
#
# Coordination Sequence:
#
# PCOD9088031 Si02
#       8
#     2   2   2   2   2   2   2   2
#     4  10  19  39  55  85 123 148 191 246 280 359
#     4   8  20  36  59  83 110 155 193 230 295 338
#     4  10  20  38  60  85 113 153 197 242 288 337
#     4  10  21  34  59  87 112 152 194 233 299 333
#     4  10  19  39  60  81 115 153 196 240 281 354
#     4   9  20  37  60  84 116 149 195 244 290 340
#     4  10  19  37  58  86 120 153 193 236 289 353
#     4   9  21  36  59  83 117 159 188 232 302 338
#
# _framework density 23.298534
#
# number of rings (size 3 to 8) (size 9 to 14) (size 15 to 20)
#    0.750    1.750    0.000    1.875    0.000    1.500 
#    9.000    5.000    2.750    0.000    0.000    0.000 
#    0.000    0.000    0.000    0.000    0.000    0.000 
#
# Total GULP energy -89078.599249 kJ/mol
# GULP energy per Si atom -5567.412453 kJ/mol
# Density = 2.324551 g / cm^3
# Si number density = 23.298534 Si / 1000 Ang^3
#
#
#
# Elastic Constant Matrix: (Units=GPa)
#
#
# Indices 1 2 3 4 5 6 
#
# 1 95.3036 37.8831 22.4499 10.4143 33.3778 12.5421
# 2 37.8831 78.3790 -5.1952 23.3996 8.9788 15.0497
# 3 22.4499 -5.1952 48.9839 6.8497 32.0470 6.3219
# 4 10.4143 23.3996 6.8497 35.6166 8.1794 9.9272
# 5 33.3778 8.9788 32.0470 8.1794 36.7007 15.8626
# 6 12.5421 15.0497 6.3219 9.9272 15.8626 36.0687
#
#
#
# Elastic Compliance Matrix: (Units=1/GPa)
#
#
# Indices 1 2 3 4 5 6 
#
# 1 0.019656 -0.008739 0.002539 0.002952 -0.020609 0.004618
# 2 -0.008739 0.022230 0.009441 -0.012488 -0.001267 -0.003897
# 3 0.002539 0.009441 0.059041 -0.008259 -0.060202 0.013579
# 4 0.002952 -0.012488 -0.008259 0.038212 0.001454 -0.005525
# 5 -0.020609 -0.001267 -0.060202 0.001454 0.112149 -0.031475
# 6 0.004618 -0.003897 0.013579 -0.005525 -0.031475 0.040728
#
#
# Mechanical properties :
#
#
# Convention : Reuss Voigt Hill
#
# Bulk Modulus (GPa) = 9.31013 36.99355 23.15184
# Shear Modulus (GPa) = 15.55996 32.84578 24.20287
#
# Velocity S-wave (km/s) = 2.58709 3.75878 3.22656
# Velocity P-wave (km/s) = 3.59565 5.89495 4.88258
#
# Compressibility (1/GPa) = 0.10740988
#
# Stress axis : x y z
#
# Youngs Moduli (GPa) = 50.87476 44.98465 16.93730
#
# Poissons Ratio (x) = 0.39312 -0.04301
# Poissons Ratio (y) = 0.44460 -0.15991
# Poissons Ratio (z) = -0.12918 -0.42471
#
# Static dielectric constant tensor:
#      x y z
#    x 1.910890 0.038340 0.081380 
#    y 0.038340 1.916710 -0.020360 
#    z 0.081380 -0.020360 1.997760 
# 
# From -- ./inp_files/355202.got.cif
#   From: 2010.05.17/outbox.cif.g08.bks.cpg/sg2_178_cif.got.tgz:355202.got - 2010.06.03 11:33:40.
