data_PCOD9088836
_publ_section_title
;
Structure prediction by ZEFSAII (Michael W. Deem and Ramdas Pophale) SiO2 
 PCOD9088836
Probable space group: P -1
;
_chemical_formula_sum "Si O2"
_cell_formula_units_Z 16
_cell_length_a 10.849368
_cell_length_b 10.971567
_cell_length_c 19.200751
_cell_angle_alpha 43.239872
_cell_angle_beta 150.031556
_cell_angle_gamma 120.282787
_cell_volume 726.419423
_symmetry_space_group_name_H-M "P -1"
_symmetry_group_IT_number 2
_symmetry_cell_setting 'triclinic'
loop_
_space_group_symop_operation_xyz
x,y,z
-x,-y,-z
loop_
_atom_site_type_symbol
_atom_site_label
_atom_site_fract_x
_atom_site_fract_y
_atom_site_fract_z
Si Si1 0.339838 0.295189 0.727124
Si Si2 0.389099 0.011122 0.120488
Si Si3 0.888026 0.746222 0.947593
Si Si4 0.369783 0.220426 0.324391
Si Si5 0.243957 0.625125 0.636111
Si Si6 0.753744 0.168888 0.749879
Si Si7 0.558957 0.517906 0.638484
Si Si8 0.545544 0.317516 0.145527
O O1 0.361317 0.394980 0.770054
O O2 0.372975 0.451278 0.624889
O O3 0.046878 0.297399 0.572277
O O4 0.536041 0.091584 0.875673
O O5 0.553853 0.139888 0.173661
O O6 0.424862 0.849230 0.264433
O O7 0.070603 0.131599 0.922400
O O8 0.889997 0.715760 0.878416
O O9 0.703235 0.661134 0.934838
O O10 0.767347 0.975764 0.797011
O O11 0.167956 0.663469 0.157456
O O12 0.579076 0.275393 0.357577
O O13 0.331664 0.340240 0.325434
O O14 0.500000 0.000000 0.500000
O O15 0.235494 0.684096 0.688666
O O16 0.603618 0.361213 0.554929
O O17 0.500000 0.500000 0.000000
#
# Coordination Sequence:
#
# PCOD9088836 Si02
#       8
#     2   2   2   2   2   2   2   2
#     4  10  21  41  66  93 125 171 214 268 323 374
#     4  10  22  41  63  91 136 168 216 275 315 381
#     4  10  20  40  61  94 129 159 219 266 311 392
#     4  10  19  37  63  90 128 171 206 265 325 377
#     4   9  22  41  64  92 132 165 219 267 314 392
#     4  10  21  38  61  95 130 162 222 269 313 381
#     4  11  21  35  66  92 124 172 211 264 329 375
#     4  10  23  42  62  89 134 176 206 267 330 380
#
# _framework density 22.025841
#
# number of rings (size 3 to 8) (size 9 to 14) (size 15 to 20)
#    0.000    2.000    2.500    0.375    1.750    2.000 
#    2.250    0.625    0.000    0.000    0.000    0.000 
#    0.000    0.000    0.000    0.000    0.000    0.000 
#
# Total GULP energy -89082.204555 kJ/mol
# GULP energy per Si atom -5567.637785 kJ/mol
# Density = 2.197571 g / cm^3
# Si number density = 22.025841 Si / 1000 Ang^3
#
#
#
# Elastic Constant Matrix: (Units=GPa)
#
#
# Indices 1 2 3 4 5 6 
#
# 1 25.6259 22.0490 15.4757 -6.2642 9.2122 -10.7498
# 2 22.0490 134.3031 10.0076 -12.9301 -5.0063 -14.6449
# 3 15.4757 10.0076 69.5353 -5.8741 -9.7588 7.4073
# 4 -6.2642 -12.9301 -5.8741 26.3506 -0.8276 10.3146
# 5 9.2122 -5.0063 -9.7588 -0.8276 27.4585 -6.5377
# 6 -10.7498 -14.6449 7.4073 10.3146 -6.5377 32.9705
#
#
#
# Elastic Compliance Matrix: (Units=1/GPa)
#
#
# Indices 1 2 3 4 5 6 
#
# 1 0.084046 -0.010946 -0.024149 -0.000187 -0.033700 0.021342
# 2 -0.010946 0.009649 0.002082 0.002510 0.006423 0.000738
# 3 -0.024149 0.002082 0.023050 0.005138 0.014230 -0.010913
# 4 -0.000187 0.002510 0.005138 0.045932 0.000299 -0.014411
# 5 -0.033700 0.006423 0.014230 0.000299 0.053781 -0.000761
# 6 0.021342 0.000738 -0.010913 -0.014411 -0.000761 0.044425
#
#
# Mechanical properties :
#
#
# Convention : Reuss Voigt Hill
#
# Bulk Modulus (GPa) = 19.71586 36.05877 27.88731
# Shear Modulus (GPa) = 14.54270 29.48471 22.01370
#
# Velocity S-wave (km/s) = 2.57233 3.66271 3.16484
# Velocity P-wave (km/s) = 4.21820 5.85610 5.10329
#
# Compressibility (1/GPa) = 0.05072059
#
# Stress axis : x y z
#
# Youngs Moduli (GPa) = 11.89821 103.63560 43.38472
#
# Poissons Ratio (x) = 1.13436 1.04768
# Poissons Ratio (y) = 0.13023 -0.09033
# Poissons Ratio (z) = 0.28733 -0.21579
#
# Static dielectric constant tensor:
#      x y z
#    x 1.890090 -0.153620 0.042940 
#    y -0.153620 1.958240 -0.004000 
#    z 0.042940 -0.004000 1.828130 
# 
# From -- ./inp_files/519609.got.cif
#   From: 2010.05.17/outbox.cif.g08.bks.cpg/sg2_260_cif.got.tgz:519609.got - 2010.06.03 11:33:40.
