data_PCOD9088297
_publ_section_title
;
Structure prediction by ZEFSAII (Michael W. Deem and Ramdas Pophale) SiO2 
 PCOD9088297
Probable space group: P -1
;
_chemical_formula_sum "Si O2"
_cell_formula_units_Z 12
_cell_length_a 7.139726
_cell_length_b 16.147041
_cell_length_c 7.033200
_cell_angle_alpha 45.057160
_cell_angle_beta 61.258428
_cell_angle_gamma 60.512610
_cell_volume 487.765167
_symmetry_space_group_name_H-M "P -1"
_symmetry_group_IT_number 2
_symmetry_cell_setting 'triclinic'
loop_
_space_group_symop_operation_xyz
x,y,z
-x,-y,-z
loop_
_atom_site_type_symbol
_atom_site_label
_atom_site_fract_x
_atom_site_fract_y
_atom_site_fract_z
Si Si1 0.828667 0.241415 0.323072
Si Si2 0.675143 0.841013 0.866734
Si Si3 0.544925 0.887442 0.406990
Si Si4 0.593935 0.327139 0.804315
Si Si5 0.755174 0.479214 0.162089
Si Si6 0.018705 0.860207 0.170655
O O1 0.638796 0.178354 0.460171
O O2 0.747559 0.385961 0.147905
O O3 0.063300 0.194874 0.180279
O O4 0.901188 0.202064 0.567360
O O5 0.615110 0.862335 0.634998
O O6 0.554456 0.969463 0.803394
O O7 0.569284 0.730624 0.150790
O O8 0.779147 0.846170 0.255018
O O9 0.707035 0.416822 0.485902
O O10 0.437297 0.398290 0.930612
O O11 0.790275 0.210452 0.947405
O O12 0.000000 0.500000 0.000000
O O13 0.000000 0.000000 0.000000
#
# Coordination Sequence:
#
# PCOD9088297 Si02
#       6
#     2   2   2   2   2   2
#     4  10  21  37  60  89 117 163 205 242 297 361
#     4  10  19  37  60  87 125 154 192 254 304 352
#     4  10  21  36  59  90 125 159 196 243 308 362
#     4  10  20  37  62  88 117 159 204 242 302 358
#     4  10  20  38  64  86 117 164 203 247 300 351
#     4  10  20  37  58  86 125 158 192 252 304 351
#
# _framework density 24.602003
#
# number of rings (size 3 to 8) (size 9 to 14) (size 15 to 20)
#    0.000    2.000    3.333    0.500    0.000    0.667 
#    0.000    1.667    0.000    0.000    0.000    0.000 
#    0.000    0.000    0.000    0.000    0.000    0.000 
#
# Total GULP energy -67087.186922 kJ/mol
# GULP energy per Si atom -5590.598910 kJ/mol
# Density = 2.454601 g / cm^3
# Si number density = 24.602003 Si / 1000 Ang^3
#
#
#
# Elastic Constant Matrix: (Units=GPa)
#
#
# Indices 1 2 3 4 5 6 
#
# 1 192.1653 83.9054 44.7466 3.7306 -49.8587 -24.4013
# 2 83.9054 212.6867 38.6854 -15.2189 -29.4355 -58.0577
# 3 44.7466 38.6854 77.8148 -1.0484 -28.3991 -10.5756
# 4 3.7306 -15.2189 -1.0484 46.1907 1.7847 -12.5228
# 5 -49.8587 -29.4355 -28.3991 1.7847 55.1315 15.1786
# 6 -24.4013 -58.0577 -10.5756 -12.5228 15.1786 38.2079
#
#
#
# Elastic Compliance Matrix: (Units=1/GPa)
#
#
# Indices 1 2 3 4 5 6 
#
# 1 0.008120 -0.003321 -0.001376 -0.002981 0.005943 -0.003580
# 2 -0.003321 0.012331 -0.002666 0.010024 -0.003810 0.020678
# 3 -0.001376 -0.002666 0.017074 -0.001629 0.007167 -0.003585
# 4 -0.002981 0.010024 -0.001629 0.032470 -0.006411 0.026065
# 5 0.005943 -0.003810 0.007167 -0.006411 0.029148 -0.013690
# 6 -0.003580 0.020678 -0.003585 0.026065 -0.013690 0.068296
#
#
# Mechanical properties :
#
#
# Convention : Reuss Voigt Hill
#
# Bulk Modulus (GPa) = 43.86038 90.81574 67.33806
# Shear Modulus (GPa) = 26.34858 48.92799 37.63828
#
# Velocity S-wave (km/s) = 3.27615 4.46441 3.91562
# Velocity P-wave (km/s) = 5.67253 7.97300 6.91904
#
# Compressibility (1/GPa) = 0.02279962
#
# Stress axis : x y z
#
# Youngs Moduli (GPa) = 123.15936 81.09585 58.56817
#
# Poissons Ratio (x) = 0.26931 0.08057
# Poissons Ratio (y) = 0.40900 0.15614
# Poissons Ratio (z) = 0.16943 0.21620
#
# Static dielectric constant tensor:
#      x y z
#    x 1.917470 0.003910 0.052740 
#    y 0.003910 2.085380 -0.002230 
#    z 0.052740 -0.002230 2.093440 
# 
# From -- ./inp_files/78807.got.cif
#   From: 2010.05.17/outbox.cif.g08.bks.cpg/sg2_40_cif.got.tgz:78807.got - 2010.06.03 11:33:40.
