data_PCOD9088652
_publ_section_title
;
Structure prediction by ZEFSAII (Michael W. Deem and Ramdas Pophale) SiO2 
 PCOD9088652
Probable space group: P -1
;
_chemical_formula_sum "Si O2"
_cell_formula_units_Z 12
_cell_length_a 12.059286
_cell_length_b 12.178458
_cell_length_c 14.977310
_cell_angle_alpha 152.510268
_cell_angle_beta 138.307115
_cell_angle_gamma 60.781128
_cell_volume 556.002556
_symmetry_space_group_name_H-M "P -1"
_symmetry_group_IT_number 2
_symmetry_cell_setting 'triclinic'
loop_
_space_group_symop_operation_xyz
x,y,z
-x,-y,-z
loop_
_atom_site_type_symbol
_atom_site_label
_atom_site_fract_x
_atom_site_fract_y
_atom_site_fract_z
Si Si1 0.929674 0.336280 0.466789
Si Si2 0.366284 0.567864 0.715451
Si Si3 0.686449 0.652378 0.290445
Si Si4 0.725550 0.203930 0.439204
Si Si5 0.964285 0.201767 0.739815
Si Si6 0.686393 0.674428 0.856362
O O1 0.855098 0.500368 0.483196
O O2 0.850693 0.325189 0.511106
O O3 0.165030 0.457938 0.702320
O O4 0.800522 0.994926 0.113818
O O5 0.371464 0.383940 0.666625
O O6 0.463641 0.552342 0.670603
O O7 0.513481 0.904416 0.075078
O O8 0.825756 0.974328 0.568723
O O9 0.500000 0.500000 0.000000
O O10 0.848363 0.125817 0.522617
O O11 0.696402 0.440467 0.636978
O O12 0.000000 0.500000 0.000000
O O13 0.181512 0.257619 0.924241
#
# Coordination Sequence:
#
# PCOD9088652 Si02
#       6
#     2   2   2   2   2   2
#     4  10  23  37  60  88 122 160 196 245 295 361
#     4  11  22  37  59  92 122 154 199 246 302 352
#     4  11  22  39  62  88 120 163 196 245 307 350
#     4  10  19  37  62  90 118 156 206 242 296 354
#     4   9  19  37  60  89 116 155 201 248 289 350
#     4   9  20  36  62  90 118 158 200 248 293 355
#
# _framework density 21.582633999999999
#
# number of rings (size 3 to 8) (size 9 to 14) (size 15 to 20)
#    0.000    2.000    1.667    2.500    2.333    4.667 
#    0.000    8.333    0.000   12.000    0.000    0.000 
#    0.000    0.000    0.000    0.000    0.000    0.000 
#
# Total GULP energy -66937.434287 kJ/mol
# GULP energy per Si atom -5578.119524 kJ/mol
# Density = 2.153351 g / cm^3
# Si number density = 21.582634 Si / 1000 Ang^3
#
#
#
# Elastic Constant Matrix: (Units=GPa)
#
#
# Indices 1 2 3 4 5 6 
#
# 1 71.5850 2.0389 26.5451 6.1921 -5.0240 -4.0569
# 2 2.0389 99.3518 8.8849 -17.4597 6.2419 1.9199
# 3 26.5451 8.8849 40.4653 -6.2770 0.9607 -9.3821
# 4 6.1921 -17.4597 -6.2770 30.8981 -12.9594 5.5801
# 5 -5.0240 6.2419 0.9607 -12.9594 37.2956 -1.4682
# 6 -4.0569 1.9199 -9.3821 5.5801 -1.4682 38.2728
#
#
#
# Elastic Compliance Matrix: (Units=1/GPa)
#
#
# Indices 1 2 3 4 5 6 
#
# 1 0.019791 -0.000360 -0.014027 -0.006639 0.000768 -0.000325
# 2 -0.000360 0.011416 -0.001704 0.006672 0.000325 -0.001989
# 3 -0.014027 -0.001704 0.037091 0.008483 0.000643 0.006479
# 4 -0.006639 0.006672 0.008483 0.045762 0.013470 -0.005114
# 5 0.000768 0.000325 0.000643 0.013470 0.031505 -0.000533
# 6 -0.000325 -0.001989 0.006479 -0.005114 -0.000533 0.028507
#
#
# Mechanical properties :
#
#
# Convention : Reuss Voigt Hill
#
# Bulk Modulus (GPa) = 27.68943 31.81555 29.75249
# Shear Modulus (GPa) = 22.90503 32.88883 27.89693
#
# Velocity S-wave (km/s) = 3.26125 3.90790 3.59912
# Velocity P-wave (km/s) = 5.19984 5.92752 5.57556
#
# Compressibility (1/GPa) = 0.03611486
#
# Stress axis : x y z
#
# Youngs Moduli (GPa) = 50.52833 87.59957 26.96057
#
# Poissons Ratio (x) = 0.03156 0.37818
# Poissons Ratio (y) = 0.01821 0.04594
# Poissons Ratio (z) = 0.70877 0.14927
#
# Static dielectric constant tensor:
#      x y z
#    x 1.783550 -0.012380 0.016270 
#    y -0.012380 1.860020 -0.050530 
#    z 0.016270 -0.050530 1.780630 
# 
# From -- ./inp_files/166737.got.cif
#   From: 2010.05.17/outbox.cif.g08.bks.cpg/sg2_84_cif.got.tgz:166737.got - 2010.06.03 11:33:40.
