data_PCOD9088307
_publ_section_title
;
Structure prediction by ZEFSAII (Michael W. Deem and Ramdas Pophale) SiO2 
 PCOD9088307
Probable space group: P -1
;
_chemical_formula_sum "Si O2"
_cell_formula_units_Z 16
_cell_length_a 9.261760
_cell_length_b 15.720816
_cell_length_c 13.641094
_cell_angle_alpha 142.497489
_cell_angle_beta 124.917017
_cell_angle_gamma 37.954270
_cell_volume 736.152095
_symmetry_space_group_name_H-M "P -1"
_symmetry_group_IT_number 2
_symmetry_cell_setting 'triclinic'
loop_
_space_group_symop_operation_xyz
x,y,z
-x,-y,-z
loop_
_atom_site_type_symbol
_atom_site_label
_atom_site_fract_x
_atom_site_fract_y
_atom_site_fract_z
Si Si1 0.876943 0.751841 0.941336
Si Si2 0.421055 0.354339 0.198646
Si Si3 0.893395 0.179942 0.755011
Si Si4 0.560891 0.198323 0.888925
Si Si5 0.076201 0.786910 0.426854
Si Si6 0.539105 0.022460 0.423787
Si Si7 0.608418 0.626084 0.220788
Si Si8 0.081544 0.993286 0.914705
O O1 0.133061 0.565979 0.833680
O O2 0.707627 0.710122 0.858669
O O3 0.932048 0.801286 0.110989
O O4 0.815980 0.907883 0.983078
O O5 0.256075 0.578626 0.350752
O O6 0.693747 0.223795 0.221711
O O7 0.460033 0.304496 0.050509
O O8 0.846467 0.214234 0.652798
O O9 0.627112 0.342420 0.839142
O O10 0.014193 0.963248 0.620919
O O11 0.389831 0.318619 0.840314
O O12 0.818203 0.119687 0.883564
O O13 0.587960 0.015583 0.733427
O O14 0.818461 0.860370 0.371698
O O15 0.450087 0.227504 0.584022
O O16 0.500000 0.000000 0.500000
O O17 0.000000 0.000000 0.000000
#
# Coordination Sequence:
#
# PCOD9088307 Si02
#       8
#     2   2   2   2   2   2   2   2
#     4  12  22  38  62  89 115 154 201 243 298 342
#     4  11  23  38  61  83 122 158 200 236 284 354
#     4  10  21  35  60  92 126 147 187 248 299 350
#     4  10  19  37  60  88 118 151 196 235 296 347
#     4  10  21  37  56  94 124 154 184 240 305 345
#     4   9  18  33  56  86 122 145 181 239 297 344
#     4  10  20  33  61  91 116 149 185 247 298 354
#     4  10  24  40  59  82 115 160 202 247 279 340
#
# _framework density 21.734639999999999
#
# number of rings (size 3 to 8) (size 9 to 14) (size 15 to 20)
#    0.000    1.750    1.250    3.750    3.500    1.500 
#    0.000    0.625    2.750    1.500    0.000    0.000 
#    0.000    0.000    0.000    0.000    0.000    0.000 
#
# Total GULP energy -89096.046703 kJ/mol
# GULP energy per Si atom -5568.502919 kJ/mol
# Density = 2.168517 g / cm^3
# Si number density = 21.734640 Si / 1000 Ang^3
#
#
#
# Elastic Constant Matrix: (Units=GPa)
#
#
# Indices 1 2 3 4 5 6 
#
# 1 98.6172 25.8614 28.8806 25.2352 -6.6285 -10.9466
# 2 25.8614 57.8219 25.5538 39.6874 -7.2024 -7.7109
# 3 28.8806 25.5538 79.4937 30.5824 -2.3225 -10.0246
# 4 25.2352 39.6874 30.5824 36.1443 0.9342 -8.2744
# 5 -6.6285 -7.2024 -2.3225 0.9342 34.6989 -1.1441
# 6 -10.9466 -7.7109 -10.0246 -8.2744 -1.1441 33.1697
#
#
#
# Elastic Compliance Matrix: (Units=1/GPa)
#
#
# Indices 1 2 3 4 5 6 
#
# 1 0.012939 0.002797 -0.001091 -0.010808 0.003337 0.002010
# 2 0.002797 0.092874 0.014816 -0.117422 0.023916 -0.001476
# 3 -0.001091 0.014816 0.021405 -0.033434 0.005246 0.001394
# 4 -0.010808 -0.117422 -0.033434 0.194785 -0.033707 0.006460
# 5 0.003337 0.023916 0.005246 -0.033707 0.035715 0.001070
# 6 0.002010 -0.001476 0.001394 0.006460 0.001070 0.032538
#
#
# Mechanical properties :
#
#
# Convention : Reuss Voigt Hill
#
# Bulk Modulus (GPa) = 6.23983 44.05825 25.14904
# Shear Modulus (GPa) = 12.17634 31.17838 21.67736
#
# Velocity S-wave (km/s) = 2.36948 3.79159 3.16153
# Velocity P-wave (km/s) = 3.21917 6.28357 4.99231
#
# Compressibility (1/GPa) = 0.16026081
#
# Stress axis : x y z
#
# Youngs Moduli (GPa) = 77.28400 10.76731 46.71820
#
# Poissons Ratio (x) = -0.03011 0.05098
# Poissons Ratio (y) = -0.21615 -0.69216
# Poissons Ratio (z) = 0.08433 -0.15953
#
# Static dielectric constant tensor:
#      x y z
#    x 1.736600 0.013980 0.068940 
#    y 0.013980 1.829080 0.027960 
#    z 0.068940 0.027960 1.865900 
# 
# From -- ./inp_files/504498.got.cif
#   From: 2010.05.17/outbox.cif.g08.bks.cpg/sg2_253_cif.got.tgz:504498.got - 2010.06.03 11:33:40.
