data_PCOD9088317
_publ_section_title
;
Structure prediction by ZEFSAII (Michael W. Deem and Ramdas Pophale) SiO2 
 PCOD9088317
Probable space group: P -1
;
_chemical_formula_sum "Si O2"
_cell_formula_units_Z 14
_cell_length_a 10.521636
_cell_length_b 8.912371
_cell_length_c 20.603543
_cell_angle_alpha 138.281470
_cell_angle_beta 152.325914
_cell_angle_gamma 42.885244
_cell_volume 580.861508
_symmetry_space_group_name_H-M "P -1"
_symmetry_group_IT_number 2
_symmetry_cell_setting 'triclinic'
loop_
_space_group_symop_operation_xyz
x,y,z
-x,-y,-z
loop_
_atom_site_type_symbol
_atom_site_label
_atom_site_fract_x
_atom_site_fract_y
_atom_site_fract_z
Si Si1 0.760492 0.433986 0.546081
Si Si2 0.513469 0.660562 0.943211
Si Si3 0.412295 0.724568 0.718314
Si Si4 0.850714 0.844331 0.037821
Si Si5 0.081930 0.241434 0.749364
Si Si6 0.464397 0.872609 0.508031
Si Si7 0.477264 0.317575 0.714943
O O1 0.500000 0.500000 0.500000
O O2 0.678966 0.297160 0.403772
O O3 0.011354 0.304638 0.663206
O O4 0.748801 0.689559 0.595631
O O5 0.699259 0.743996 0.996745
O O6 0.724868 0.606587 0.081857
O O7 0.416108 0.449601 0.797806
O O8 0.267842 0.879920 0.922237
O O9 0.362873 0.507507 0.668392
O O10 0.728563 0.745135 0.885960
O O11 0.235278 0.973263 0.743141
O O12 0.184645 0.765564 0.166780
O O13 0.782564 0.262215 0.655738
O O14 0.500000 0.000000 0.500000
O O15 0.372450 0.081306 0.585283
#
# Coordination Sequence:
#
# PCOD9088317 Si02
#       7
#     2   2   2   2   2   2   2
#     4  10  22  37  59  83 116 156 196 237 283 350
#     4   9  18  35  56  86 112 153 195 236 286 338
#     4  10  19  37  60  89 110 156 200 238 288 337
#     4   9  19  32  58  86 116 147 198 240 280 345
#     4  10  22  38  62  83 119 152 198 240 280 356
#     4  11  22  38  56  90 119 152 193 238 297 340
#     4  11  21  34  60  88 123 145 191 242 301 333
#
# _framework density 24.102131
#
# number of rings (size 3 to 8) (size 9 to 14) (size 15 to 20)
#    0.000    2.000    1.429    3.857    6.000    0.571 
#    2.571    0.714    0.000    1.714    0.000    0.000 
#    0.000    0.000    0.000    0.000    0.000    0.000 
#
# Total GULP energy -78257.022354 kJ/mol
# GULP energy per Si atom -5589.787311 kJ/mol
# Density = 2.404727 g / cm^3
# Si number density = 24.102131 Si / 1000 Ang^3
#
#
#
# Elastic Constant Matrix: (Units=GPa)
#
#
# Indices 1 2 3 4 5 6 
#
# 1 57.4260 5.7950 33.9284 -12.8303 -8.1063 1.4820
# 2 5.7950 109.2721 27.5146 -11.5164 -8.6918 -5.4089
# 3 33.9284 27.5146 120.5967 -4.9764 -43.1304 5.5167
# 4 -12.8303 -11.5164 -4.9764 45.2950 -4.1455 -15.1589
# 5 -8.1063 -8.6918 -43.1304 -4.1455 42.1038 1.8294
# 6 1.4820 -5.4089 5.5167 -15.1589 1.8294 28.6070
#
#
#
# Elastic Compliance Matrix: (Units=1/GPa)
#
#
# Indices 1 2 3 4 5 6 
#
# 1 0.022923 0.001502 -0.007612 0.007353 -0.002552 0.004624
# 2 0.001502 0.010490 -0.003000 0.004335 -0.000401 0.004807
# 3 -0.007612 -0.003000 0.016693 -0.001412 0.015098 -0.005106
# 4 0.007353 0.004335 -0.001412 0.031081 0.003187 0.016977
# 5 -0.002552 -0.000401 0.015098 0.003187 0.039116 -0.003668
# 6 0.004624 0.004807 -0.005106 0.016977 -0.003668 0.045841
#
#
# Mechanical properties :
#
#
# Convention : Reuss Voigt Hill
#
# Bulk Modulus (GPa) = 31.36269 46.86343 39.11306
# Shear Modulus (GPa) = 25.64180 37.87163 31.75671
#
# Velocity S-wave (km/s) = 3.26526 3.96826 3.63380
# Velocity P-wave (km/s) = 5.22078 6.36255 5.81973
#
# Compressibility (1/GPa) = 0.03188502
#
# Stress axis : x y z
#
# Youngs Moduli (GPa) = 43.62444 95.32681 59.90422
#
# Poissons Ratio (x) = -0.14318 0.45602
# Poissons Ratio (y) = -0.06552 0.17973
# Poissons Ratio (z) = 0.33209 0.28600
#
# Static dielectric constant tensor:
#      x y z
#    x 1.947050 0.063980 -0.041220 
#    y 0.063980 2.175740 -0.068900 
#    z -0.041220 -0.068900 2.030260 
# 
# From -- ./inp_files/257434.got.cif
#   From: 2010.05.17/outbox.cif.g08.bks.cpg/sg2_129_cif.got.tgz:257434.got - 2010.06.03 11:33:40.
