data_PCOD9088354
_publ_section_title
;
Structure prediction by ZEFSAII (Michael W. Deem and Ramdas Pophale) SiO2 
 PCOD9088354
Probable space group: P -1
;
_chemical_formula_sum "Si O2"
_cell_formula_units_Z 16
_cell_length_a 8.913660
_cell_length_b 16.058364
_cell_length_c 11.384935
_cell_angle_alpha 150.438052
_cell_angle_beta 116.123039
_cell_angle_gamma 60.368925
_cell_volume 698.658190
_symmetry_space_group_name_H-M "P -1"
_symmetry_group_IT_number 2
_symmetry_cell_setting 'triclinic'
loop_
_space_group_symop_operation_xyz
x,y,z
-x,-y,-z
loop_
_atom_site_type_symbol
_atom_site_label
_atom_site_fract_x
_atom_site_fract_y
_atom_site_fract_z
Si Si1 0.692742 0.799396 0.644436
Si Si2 0.520347 0.288997 0.348641
Si Si3 0.970605 0.660226 0.092059
Si Si4 0.036528 0.686286 0.709302
Si Si5 0.650346 0.157921 0.975688
Si Si6 0.311622 0.472651 0.883097
Si Si7 0.227594 0.515434 0.366928
Si Si8 0.361950 0.167246 0.710536
O O1 0.525668 0.821285 0.696523
O O2 0.713210 0.612638 0.356861
O O3 0.846936 0.811092 0.800627
O O4 0.689978 0.949129 0.732954
O O5 0.345805 0.421859 0.401806
O O6 0.651255 0.401863 0.571289
O O7 0.602315 0.199404 0.146835
O O8 0.830801 0.830681 0.303991
O O9 0.865703 0.607743 0.883084
O O10 0.000000 0.500000 0.000000
O O11 0.160919 0.640138 0.077708
O O12 0.083606 0.667846 0.564448
O O13 0.000000 0.500000 0.500000
O O14 0.190563 0.760951 0.906477
O O15 0.479169 0.225526 0.923234
O O16 0.313759 0.316123 0.780496
O O17 0.500000 0.500000 0.000000
O O18 0.500000 0.000000 0.500000
#
# Coordination Sequence:
#
# PCOD9088354 Si02
#       8
#     2   2   2   2   2   2   2   2
#     4  12  23  41  63  95 138 169 225 271 338 405
#     4  10  22  35  64  92 128 167 215 268 332 390
#     4  10  22  39  65  92 132 170 224 274 333 392
#     4  11  23  38  65  97 126 166 221 273 329 398
#     4  11  24  42  64  92 136 177 213 275 344 401
#     4  11  26  41  68 100 130 176 228 286 328 395
#     4  10  19  37  60  97 120 166 216 270 324 387
#     4  11  23  45  69  94 130 179 225 270 341 403
#
# _framework density 22.901042
#
# number of rings (size 3 to 8) (size 9 to 14) (size 15 to 20)
#    0.000    1.250    5.000    0.750    5.250    0.000 
#    0.000    0.625    2.750    0.000    0.000    0.000 
#    0.000    0.000    0.000    0.000    0.000    0.000 
#
# Total GULP energy -89109.788992 kJ/mol
# GULP energy per Si atom -5569.361812 kJ/mol
# Density = 2.284892 g / cm^3
# Si number density = 22.901042 Si / 1000 Ang^3
#
#
#
# Elastic Constant Matrix: (Units=GPa)
#
#
# Indices 1 2 3 4 5 6 
#
# 1 165.5451 21.3952 51.0816 1.0201 9.2247 -27.8010
# 2 21.3952 49.2025 10.9305 -4.6135 9.7089 -4.4006
# 3 51.0816 10.9305 67.4296 5.8630 -5.4733 -11.3468
# 4 1.0201 -4.6135 5.8630 24.7641 -7.1674 1.3819
# 5 9.2247 9.7089 -5.4733 -7.1674 36.3574 6.7320
# 6 -27.8010 -4.4006 -11.3468 1.3819 6.7320 37.3598
#
#
#
# Elastic Compliance Matrix: (Units=1/GPa)
#
#
# Indices 1 2 3 4 5 6 
#
# 1 0.009299 -0.001436 -0.006132 -0.000696 -0.004082 0.005649
# 2 -0.001436 0.023299 -0.003184 0.003327 -0.005989 0.001665
# 3 -0.006132 -0.003184 0.020831 -0.003972 0.004629 0.000701
# 4 -0.000696 0.003327 -0.003972 0.044627 0.008317 -0.004481
# 5 -0.004082 -0.005989 0.004629 0.008317 0.034104 -0.008790
# 6 0.005649 0.001665 0.000701 -0.004481 -0.008790 0.033130
#
#
# Mechanical properties :
#
#
# Convention : Reuss Voigt Hill
#
# Bulk Modulus (GPa) = 31.32409 49.88798 40.60604
# Shear Modulus (GPa) = 25.32488 32.94758 29.13623
#
# Velocity S-wave (km/s) = 3.32902 3.79713 3.57075
# Velocity P-wave (km/s) = 5.33706 6.40747 5.89661
#
# Compressibility (1/GPa) = 0.03192431
#
# Stress axis : x y z
#
# Youngs Moduli (GPa) = 107.54098 42.92101 48.00587
#
# Poissons Ratio (x) = 0.06162 0.29436
# Poissons Ratio (y) = 0.15440 0.15287
# Poissons Ratio (z) = 0.65942 0.13668
#
# Static dielectric constant tensor:
#      x y z
#    x 1.460580 -0.271670 -0.113620 
#    y -0.271670 1.760810 0.010390 
#    z -0.113620 0.010390 1.952850 
# 
# From -- ./inp_files/314764.got.cif
#   From: 2010.05.17/outbox.cif.g08.bks.cpg/sg2_158_cif.got.tgz:314764.got - 2010.06.03 11:33:40.
