data_PCOD9088017
_publ_section_title
;
Structure prediction by ZEFSAII (Michael W. Deem and Ramdas Pophale) SiO2 
 PCOD9088017
Probable space group: P -1
;
_chemical_formula_sum "Si O2"
_cell_formula_units_Z 16
_cell_length_a 12.440125
_cell_length_b 17.754797
_cell_length_c 8.500441
_cell_angle_alpha 86.105329
_cell_angle_beta 51.095717
_cell_angle_gamma 129.096716
_cell_volume 725.891036
_symmetry_space_group_name_H-M "P -1"
_symmetry_group_IT_number 2
_symmetry_cell_setting 'triclinic'
loop_
_space_group_symop_operation_xyz
x,y,z
-x,-y,-z
loop_
_atom_site_type_symbol
_atom_site_label
_atom_site_fract_x
_atom_site_fract_y
_atom_site_fract_z
Si Si1 0.837691 0.355695 0.311004
Si Si2 0.739974 0.407312 0.855335
Si Si3 0.936979 0.130464 0.204395
Si Si4 0.312573 0.861830 0.360247
Si Si5 0.469595 0.646489 0.266494
Si Si6 0.392326 0.787116 0.778710
Si Si7 0.132862 0.798028 0.215825
Si Si8 0.226406 0.380429 0.665896
O O1 0.714047 0.214802 0.477496
O O2 0.644435 0.328085 0.568467
O O3 0.803240 0.343392 0.156404
O O4 0.125076 0.490274 0.127425
O O5 0.566920 0.370332 0.887609
O O6 0.000000 0.500000 0.500000
O O7 0.580988 0.259978 0.096854
O O8 0.819348 0.123581 0.458407
O O9 0.690812 0.955354 0.415294
O O10 0.218000 0.222010 0.984226
O O11 0.008883 0.228359 0.993708
O O12 0.141829 0.758974 0.376723
O O13 0.635267 0.028185 0.003691
O O14 0.279571 0.492372 0.544897
O O15 0.247294 0.793723 0.980052
O O16 0.840331 0.686916 0.434862
O O17 0.500000 0.500000 0.500000
#
# Coordination Sequence:
#
# PCOD9088017 Si02
#       8
#     2   2   2   2   2   2   2   2
#     4  11  21  36  61  89 115 151 196 237 289 345
#     4  10  21  38  60  85 118 155 193 237 287 344
#     4  10  23  41  60  86 118 153 195 240 290 341
#     4  10  21  36  62  87 112 153 196 241 286 341
#     4  10  22  41  61  84 120 157 189 238 291 344
#     4  11  22  37  60  89 118 151 193 243 288 342
#     4  10  19  37  58  84 118 152 195 239 287 341
#     4  10  20  38  60  83 118 156 189 236 292 344
#
# _framework density 22.041875999999998
#
# number of rings (size 3 to 8) (size 9 to 14) (size 15 to 20)
#    0.000    1.750    0.000    5.625    0.000    4.000 
#    0.000    9.375    0.000    0.000    0.000    0.000 
#    0.000    0.000    0.000    0.000    0.000    0.000 
#
# Total GULP energy -89092.912337 kJ/mol
# GULP energy per Si atom -5568.307021 kJ/mol
# Density = 2.199171 g / cm^3
# Si number density = 22.041876 Si / 1000 Ang^3
#
#
#
# Elastic Constant Matrix: (Units=GPa)
#
#
# Indices 1 2 3 4 5 6 
#
# 1 141.5227 41.6703 29.9970 -7.0153 4.8644 26.6895
# 2 41.6703 85.0035 16.0539 -8.0322 -4.1080 29.0815
# 3 29.9970 16.0539 66.1981 -26.0798 9.2196 5.6844
# 4 -7.0153 -8.0322 -26.0798 30.6385 2.4101 2.9232
# 5 4.8644 -4.1080 9.2196 2.4101 26.5460 -7.1715
# 6 26.6895 29.0815 5.6844 2.9232 -7.1715 40.1853
#
#
#
# Elastic Compliance Matrix: (Units=1/GPa)
#
#
# Indices 1 2 3 4 5 6 
#
# 1 0.009366 -0.002759 -0.003259 -0.000804 -0.002037 -0.004069
# 2 -0.002759 0.017400 0.000010 0.005027 -0.000281 -0.011177
# 3 -0.003259 0.000010 0.029137 0.025720 -0.013545 -0.006252
# 4 -0.000804 0.005027 0.025720 0.058350 -0.017097 -0.014038
# 5 -0.002037 -0.000281 -0.013545 -0.017097 0.047837 0.013254
# 6 -0.004069 -0.011177 -0.006252 -0.014038 0.013254 0.039947
#
#
# Mechanical properties :
#
#
# Convention : Reuss Voigt Hill
#
# Bulk Modulus (GPa) = 22.78574 52.01853 37.40213
# Shear Modulus (GPa) = 21.86445 33.14082 27.50264
#
# Velocity S-wave (km/s) = 3.15294 3.88176 3.53618
# Velocity P-wave (km/s) = 4.85949 6.61376 5.80329
#
# Compressibility (1/GPa) = 0.04388709
#
# Stress axis : x y z
#
# Youngs Moduli (GPa) = 106.76353 57.47082 34.32107
#
# Poissons Ratio (x) = 0.15854 0.11185
# Poissons Ratio (y) = 0.29452 -0.00033
# Poissons Ratio (z) = 0.34795 -0.00055
#
# Static dielectric constant tensor:
#      x y z
#    x 25.615200 0.798310 -0.303560 
#    y 0.798310 1.883080 -0.043310 
#    z -0.303560 -0.043310 1.905600 
# 
# From -- ./inp_files/279384.got.cif
#   From: 2010.05.17/outbox.cif.g08.bks.cpg/sg2_140_cif.got.tgz:279384.got - 2010.06.03 11:33:40.
