data_PCOD9088787
_publ_section_title
;
Structure prediction by ZEFSAII (Michael W. Deem and Ramdas Pophale) SiO2 
 PCOD9088787
Probable space group: P -1
;
_chemical_formula_sum "Si O2"
_cell_formula_units_Z 16
_cell_length_a 20.887917
_cell_length_b 9.173246
_cell_length_c 13.046152
_cell_angle_alpha 43.227066
_cell_angle_beta 24.388719
_cell_angle_gamma 47.322183
_cell_volume 706.059912
_symmetry_space_group_name_H-M "P -1"
_symmetry_group_IT_number 2
_symmetry_cell_setting 'triclinic'
loop_
_space_group_symop_operation_xyz
x,y,z
-x,-y,-z
loop_
_atom_site_type_symbol
_atom_site_label
_atom_site_fract_x
_atom_site_fract_y
_atom_site_fract_z
Si Si1 0.549727 0.992258 0.791366
Si Si2 0.653886 0.292193 0.098021
Si Si3 0.299347 0.389362 0.948381
Si Si4 0.573605 0.985255 0.530824
Si Si5 0.024455 0.673962 0.461153
Si Si6 0.988386 0.116636 0.346381
Si Si7 0.326638 0.731643 0.355949
Si Si8 0.698840 0.642710 0.258373
O O1 0.624187 0.968385 0.583111
O O2 0.659587 0.085605 0.669585
O O3 0.399667 0.164495 0.918582
O O4 0.477183 0.774059 0.045946
O O5 0.687347 0.083993 0.231055
O O6 0.502524 0.226652 0.290523
O O7 0.651512 0.477005 0.093160
O O8 0.788989 0.331430 0.798587
O O9 0.113367 0.373593 0.235042
O O10 0.327461 0.481312 0.747227
O O11 0.430187 0.164200 0.648732
O O12 0.000000 0.500000 0.500000
O O13 0.988770 0.922782 0.363870
O O14 0.824762 0.240825 0.507501
O O15 0.000000 0.000000 0.500000
O O16 0.134645 0.256065 0.042091
O O17 0.314633 0.517651 0.547135
#
# Coordination Sequence:
#
# PCOD9088787 Si02
#       8
#     2   2   2   2   2   2   2   2
#     4  10  21  39  61  85 119 154 196 241 288 342
#     4  10  20  32  58  93 115 149 201 235 278 342
#     4  10  19  37  63  88 114 155 194 237 285 346
#     4  10  20  37  61  88 116 155 192 238 284 347
#     4  10  20  35  59  87 114 150 198 236 282 345
#     4  12  21  40  62  86 115 150 199 242 291 344
#     4  11  23  35  58  93 118 149 190 250 297 333
#     4  11  21  36  62  91 118 148 195 246 288 339
#
# _framework density 22.660968
#
# number of rings (size 3 to 8) (size 9 to 14) (size 15 to 20)
#    0.000    1.500    3.750    2.625    0.000    2.000 
#    0.000    0.000    0.000   26.250    0.000    0.000 
#    0.000    0.000    0.000    0.000    0.000    0.000 
#
# Total GULP energy -89240.410843 kJ/mol
# GULP energy per Si atom -5577.525678 kJ/mol
# Density = 2.260939 g / cm^3
# Si number density = 22.660968 Si / 1000 Ang^3
#
#
#
# Elastic Constant Matrix: (Units=GPa)
#
#
# Indices 1 2 3 4 5 6 
#
# 1 94.5611 16.2608 45.2781 3.1996 15.1550 -7.1189
# 2 16.2608 62.4166 25.0568 -5.5597 1.9564 13.5958
# 3 45.2781 25.0568 132.3666 -10.9194 -9.9389 -3.8765
# 4 3.1996 -5.5597 -10.9194 36.0904 1.6849 2.8917
# 5 15.1550 1.9564 -9.9389 1.6849 32.7926 0.5747
# 6 -7.1189 13.5958 -3.8765 2.8917 0.5747 31.5000
#
#
#
# Elastic Compliance Matrix: (Units=1/GPa)
#
#
# Indices 1 2 3 4 5 6 
#
# 1 0.015585 -0.002841 -0.005595 -0.003473 -0.008630 0.004536
# 2 -0.002841 0.020497 -0.002989 0.003356 -0.000810 -0.010150
# 3 -0.005595 -0.002989 0.010745 0.002935 0.005853 0.000972
# 4 -0.003473 0.003356 0.002935 0.029752 0.000847 -0.004619
# 5 -0.008630 -0.000810 0.005853 0.000847 0.036290 -0.001620
# 6 0.004536 -0.010150 0.000972 -0.004619 -0.001620 0.037725
#
#
# Mechanical properties :
#
#
# Convention : Reuss Voigt Hill
#
# Bulk Modulus (GPa) = 41.70921 51.39284 46.55103
# Shear Modulus (GPa) = 27.55804 33.59317 30.57560
#
# Velocity S-wave (km/s) = 3.49105 3.85440 3.67722
# Velocity P-wave (km/s) = 5.89030 6.52203 6.21419
#
# Compressibility (1/GPa) = 0.02397552
#
# Stress axis : x y z
#
# Youngs Moduli (GPa) = 64.16561 48.78795 93.07082
#
# Poissons Ratio (x) = 0.13861 0.52071
# Poissons Ratio (y) = 0.18230 0.27823
# Poissons Ratio (z) = 0.35899 0.14585
#
# Static dielectric constant tensor:
#      x y z
#    x 1.861230 0.029480 0.003180 
#    y 0.029480 1.907110 0.011120 
#    z 0.003180 0.011120 1.901730 
# 
# From -- ./inp_files/277781.got.cif
#   From: 2010.05.17/outbox.cif.g08.bks.cpg/sg2_139_cif.got.tgz:277781.got - 2010.06.03 11:33:40.
