data_PCOD9088935
_publ_section_title
;
Structure prediction by ZEFSAII (Michael W. Deem and Ramdas Pophale) SiO2 
 PCOD9088935
Probable space group: P -1
;
_chemical_formula_sum "Si O2"
_cell_formula_units_Z 16
_cell_length_a 8.988592
_cell_length_b 15.749794
_cell_length_c 16.434074
_cell_angle_alpha 47.604093
_cell_angle_beta 50.114721
_cell_angle_gamma 92.120730
_cell_volume 738.706097
_symmetry_space_group_name_H-M "P -1"
_symmetry_group_IT_number 2
_symmetry_cell_setting 'triclinic'
loop_
_space_group_symop_operation_xyz
x,y,z
-x,-y,-z
loop_
_atom_site_type_symbol
_atom_site_label
_atom_site_fract_x
_atom_site_fract_y
_atom_site_fract_z
Si Si1 0.995763 0.411605 0.370403
Si Si2 0.483932 0.919081 0.475440
Si Si3 0.383592 0.640153 0.762331
Si Si4 0.332888 0.640025 0.347977
Si Si5 0.014530 0.891349 0.159744
Si Si6 0.730285 0.008848 0.164381
Si Si7 0.289411 0.507295 0.043952
Si Si8 0.377945 0.456719 0.349956
O O1 0.834401 0.444466 0.449306
O O2 0.663828 0.175880 0.610433
O O3 0.213694 0.542873 0.128464
O O4 0.205755 0.440506 0.344859
O O5 0.588860 0.840904 0.515312
O O6 0.713040 0.062811 0.223125
O O7 0.083807 0.714739 0.718049
O O8 0.500000 0.000000 0.500000
O O9 0.384544 0.523821 0.785931
O O10 0.500929 0.673327 0.791295
O O11 0.000000 0.500000 0.000000
O O12 0.521360 0.623524 0.253562
O O13 0.000000 0.500000 0.500000
O O14 0.600562 0.876001 0.103156
O O15 0.032149 0.847019 0.090682
O O16 0.800814 0.906254 0.219988
O O17 0.882258 0.741016 0.372232
O O18 0.500000 0.500000 0.000000
#
# Coordination Sequence:
#
# PCOD9088935 Si02
#       8
#     2   2   2   2   2   2   2   2
#     4   9  19  37  59  84 122 157 197 246 301 363
#     4  10  21  39  60  84 121 157 205 258 302 362
#     4  10  21  37  59  88 118 162 206 244 307 370
#     4   9  21  37  58  91 119 152 197 247 295 358
#     4  10  20  37  62  85 118 160 200 243 300 365
#     4   9  19  37  57  81 120 154 194 251 301 346
#     4  10  19  37  64  84 118 163 201 250 310 359
#     4  11  20  38  65  88 119 161 203 240 308 368
#
# _framework density 21.659493000000001
#
# number of rings (size 3 to 8) (size 9 to 14) (size 15 to 20)
#    0.000    2.250    2.500    0.000    0.000    6.500 
#    2.250    6.250    2.750    0.000    0.000    0.000 
#    0.000    0.000    0.000    0.000    0.000    0.000 
#
# Total GULP energy -89127.657449 kJ/mol
# GULP energy per Si atom -5570.478591 kJ/mol
# Density = 2.161019 g / cm^3
# Si number density = 21.659493 Si / 1000 Ang^3
#
#
#
# Elastic Constant Matrix: (Units=GPa)
#
#
# Indices 1 2 3 4 5 6 
#
# 1 79.6854 27.9053 19.9579 6.9467 6.2319 11.8169
# 2 27.9053 147.6919 43.3180 53.8195 10.9045 15.8550
# 3 19.9579 43.3180 69.9287 31.1630 14.5712 12.9194
# 4 6.9467 53.8195 31.1630 44.3655 6.3282 3.8309
# 5 6.2319 10.9045 14.5712 6.3282 29.1269 9.4458
# 6 11.8169 15.8550 12.9194 3.8309 9.4458 29.4725
#
#
#
# Elastic Compliance Matrix: (Units=1/GPa)
#
#
# Indices 1 2 3 4 5 6 
#
# 1 0.014558 -0.002755 -0.003537 0.003843 -0.000086 -0.003276
# 2 -0.002755 0.013337 0.000177 -0.015545 0.000249 -0.004207
# 3 -0.003537 0.000177 0.024393 -0.015418 -0.006444 -0.005300
# 4 0.003843 -0.015545 -0.015418 0.051109 -0.000718 0.007167
# 5 -0.000086 0.000249 -0.006444 -0.000718 0.040983 -0.010316
# 6 -0.003276 -0.004207 -0.005300 0.007167 -0.010316 0.042205
#
#
# Mechanical properties :
#
#
# Convention : Reuss Voigt Hill
#
# Bulk Modulus (GPa) = 24.96466 53.29649 39.13058
# Shear Modulus (GPa) = 23.56618 34.33463 28.95041
#
# Velocity S-wave (km/s) = 3.30211 3.98578 3.65994
# Velocity P-wave (km/s) = 5.10779 6.77066 5.99714
#
# Compressibility (1/GPa) = 0.04005663
#
# Stress axis : x y z
#
# Youngs Moduli (GPa) = 68.69176 74.97770 40.99516
#
# Poissons Ratio (x) = 0.20660 0.14502
# Poissons Ratio (y) = 0.18928 -0.00726
# Poissons Ratio (z) = 0.24299 -0.01328
#
# Static dielectric constant tensor:
#      x y z
#    x 1.770420 0.008910 -0.031160 
#    y 0.008910 1.831280 0.033790 
#    z -0.031160 0.033790 1.813080 
# 
# From -- ./inp_files/313995.got.cif
#   From: 2010.05.17/outbox.cif.g08.bks.cpg/sg2_157_cif.got.tgz:313995.got - 2010.06.03 11:33:40.
