data_PCOD9088213
_publ_section_title
;
Structure prediction by ZEFSAII (Michael W. Deem and Ramdas Pophale) SiO2 
 PCOD9088213
Probable space group: P -1
;
_chemical_formula_sum "Si O2"
_cell_formula_units_Z 14
_cell_length_a 19.470462
_cell_length_b 7.609885
_cell_length_c 11.579835
_cell_angle_alpha 83.363582
_cell_angle_beta 31.460044
_cell_angle_gamma 105.492605
_cell_volume 630.441566
_symmetry_space_group_name_H-M "P -1"
_symmetry_group_IT_number 2
_symmetry_cell_setting 'triclinic'
loop_
_space_group_symop_operation_xyz
x,y,z
-x,-y,-z
loop_
_atom_site_type_symbol
_atom_site_label
_atom_site_fract_x
_atom_site_fract_y
_atom_site_fract_z
Si Si1 0.268488 0.661446 0.745876
Si Si2 0.645875 0.880650 0.312303
Si Si3 0.894145 0.601048 0.785938
Si Si4 0.441136 0.774664 0.257005
Si Si5 0.347377 0.662061 0.133930
Si Si6 0.085266 0.777213 0.280355
Si Si7 0.440790 0.489303 0.821733
O O1 0.457403 0.761322 0.525628
O O2 0.280828 0.645168 0.593303
O O3 0.281328 0.882075 0.737642
O O4 0.103952 0.419226 0.077301
O O5 0.597947 0.683321 0.486673
O O6 0.796926 0.986194 0.989452
O O7 0.835990 0.346502 0.846538
O O8 0.068840 0.803341 0.437824
O O9 0.742429 0.599125 0.965651
O O10 0.372078 0.676489 0.234305
O O11 0.551646 0.707245 0.144649
O O12 0.434333 0.930820 0.947612
O O13 0.128399 0.433928 0.439308
O O14 0.455206 0.614579 0.910181
#
# Coordination Sequence:
#
# PCOD9088213 Si02
#       7
#     2   2   2   2   2   2   2
#     4   9  17  32  55  81 109 142 186 221 263 331
#     4   9  17  31  59  83 107 144 177 224 283 319
#     4   8  17  30  56  83 105 140 178 218 276 322
#     4  11  22  35  60  82 106 147 194 219 264 320
#     4  10  22  39  57  78 111 149 185 225 263 327
#     4   9  17  33  58  81 111 148 175 218 287 323
#     4  10  19  37  60  82 108 143 184 230 266 323
#
# _framework density 22.206658999999998
#
# number of rings (size 3 to 8) (size 9 to 14) (size 15 to 20)
#    0.000    2.571    1.429    1.286    6.000    2.286 
#    0.000    4.286   12.571    0.000    0.000    0.000 
#    0.000    0.000    0.000    0.000    0.000    0.000 
#
# Total GULP energy -78162.477340 kJ/mol
# GULP energy per Si atom -5583.034096 kJ/mol
# Density = 2.215612 g / cm^3
# Si number density = 22.206659 Si / 1000 Ang^3
#
#
#
# Elastic Constant Matrix: (Units=GPa)
#
#
# Indices 1 2 3 4 5 6 
#
# 1 95.3707 38.9095 56.3451 9.0554 52.4965 -2.5170
# 2 38.9095 83.6841 45.2862 16.2991 25.8038 -4.7015
# 3 56.3451 45.2862 127.5143 9.6394 55.7788 -1.3120
# 4 9.0554 16.2991 9.6394 18.7317 9.7212 3.3453
# 5 52.4965 25.8038 55.7788 9.7212 48.1887 6.6485
# 6 -2.5170 -4.7015 -1.3120 3.3453 6.6485 30.2659
#
#
#
# Elastic Compliance Matrix: (Units=1/GPa)
#
#
# Indices 1 2 3 4 5 6 
#
# 1 0.031190 -0.005732 0.005169 0.005956 -0.039465 0.009938
# 2 -0.005732 0.018815 -0.004962 -0.013783 0.004306 0.002808
# 3 0.005169 -0.004962 0.018395 0.004851 -0.026022 0.005637
# 4 0.005956 -0.013783 0.004851 0.070381 -0.018201 -0.005217
# 5 -0.039465 0.004306 -0.026022 -0.018201 0.098453 -0.023357
# 6 0.009938 0.002808 0.005637 -0.005217 -0.023357 0.040255
#
#
# Mechanical properties :
#
#
# Convention : Reuss Voigt Hill
#
# Bulk Modulus (GPa) = 17.43714 65.29451 41.36583
# Shear Modulus (GPa) = 16.25197 30.50582 23.37889
#
# Velocity S-wave (km/s) = 2.70821 3.71040 3.24819
# Velocity P-wave (km/s) = 4.20101 6.91542 5.72152
#
# Compressibility (1/GPa) = 0.05734884
#
# Stress axis : x y z
#
# Youngs Moduli (GPa) = 32.06129 53.15043 54.36347
#
# Poissons Ratio (x) = 0.30466 -0.28099
# Poissons Ratio (y) = 0.18378 0.26975
# Poissons Ratio (z) = -0.16571 0.26373
#
# Static dielectric constant tensor:
#      x y z
#    x 1.820290 0.010780 0.039460 
#    y 0.010780 1.839490 0.012120 
#    z 0.039460 0.012120 1.875720 
# 
# From -- ./inp_files/233780.got.cif
#   From: 2010.05.17/outbox.cif.g08.bks.cpg/sg2_117_cif.got.tgz:233780.got - 2010.06.03 11:33:40.
