data_PCOD9088198
_publ_section_title
;
Structure prediction by ZEFSAII (Michael W. Deem and Ramdas Pophale) SiO2 
 PCOD9088198
Probable space group: P -1
;
_chemical_formula_sum "Si O2"
_cell_formula_units_Z 16
_cell_length_a 14.956161
_cell_length_b 9.185511
_cell_length_c 20.644279
_cell_angle_alpha 143.589455
_cell_angle_beta 150.593301
_cell_angle_gamma 40.359772
_cell_volume 808.322542
_symmetry_space_group_name_H-M "P -1"
_symmetry_group_IT_number 2
_symmetry_cell_setting 'triclinic'
loop_
_space_group_symop_operation_xyz
x,y,z
-x,-y,-z
loop_
_atom_site_type_symbol
_atom_site_label
_atom_site_fract_x
_atom_site_fract_y
_atom_site_fract_z
Si Si1 0.204958 0.009233 0.358336
Si Si2 0.318630 0.395327 0.870777
Si Si3 0.149081 0.741431 0.005488
Si Si4 0.435963 0.823953 0.311847
Si Si5 0.939331 0.642214 0.078609
Si Si6 0.268129 0.595619 0.689819
Si Si7 0.045340 0.423115 0.590598
Si Si8 0.581371 0.047162 0.999506
O O1 0.279787 0.905899 0.297407
O O2 0.084762 0.824497 0.247922
O O3 0.401345 0.021364 0.521237
O O4 0.074324 0.289589 0.370450
O O5 0.179603 0.351305 0.710548
O O6 0.500000 0.500000 0.000000
O O7 0.203066 0.593647 0.919808
O O8 0.417174 0.145390 0.881673
O O9 0.332333 0.824895 0.179010
O O10 0.086486 0.545924 0.946907
O O11 0.000000 0.000000 0.000000
O O12 0.552343 0.537031 0.284419
O O13 0.740385 0.816812 0.998793
O O14 0.000000 0.500000 0.000000
O O15 0.173839 0.396997 0.598107
O O16 0.314374 0.738046 0.833590
O O17 0.114759 0.722674 0.586245
O O18 0.500000 0.000000 0.000000
#
# Coordination Sequence:
#
# PCOD9088198 Si02
#       8
#     2   2   2   2   2   2   2   2
#     4  10  20  36  64  88 127 165 218 259 307 383
#     4  12  22  38  63  95 127 160 212 268 317 371
#     4  12  25  40  63  92 131 167 216 269 323 380
#     4  10  19  37  59  95 121 168 212 256 310 383
#     4  12  24  42  64  93 127 173 216 263 324 384
#     4  10  19  37  62  89 123 161 210 252 311 383
#     4  10  20  36  62  93 121 162 210 256 314 375
#     4  12  23  41  64  93 129 167 210 267 318 382
#
# _framework density 19.794079
#
# number of rings (size 3 to 8) (size 9 to 14) (size 15 to 20)
#    0.000    1.000    6.250    0.750    1.750    0.000 
#    0.000    1.250    0.000    0.000    0.000    0.000 
#    0.000    0.000    0.000    0.000    0.000    0.000 
#
# Total GULP energy -89091.878505 kJ/mol
# GULP energy per Si atom -5568.242407 kJ/mol
# Density = 1.974903 g / cm^3
# Si number density = 19.794079 Si / 1000 Ang^3
#
#
#
# Elastic Constant Matrix: (Units=GPa)
#
#
# Indices 1 2 3 4 5 6 
#
# 1 96.2811 41.0367 9.9598 -9.6817 -11.2023 -20.9773
# 2 41.0367 110.1414 31.3358 -23.2825 -1.9751 -10.7392
# 3 9.9598 31.3358 109.0906 -34.4401 -13.0981 13.7675
# 4 -9.6817 -23.2825 -34.4401 35.3837 5.9720 -5.6261
# 5 -11.2023 -1.9751 -13.0981 5.9720 38.2048 -0.4056
# 6 -20.9773 -10.7392 13.7675 -5.6261 -0.4056 38.4926
#
#
#
# Elastic Compliance Matrix: (Units=1/GPa)
#
#
# Indices 1 2 3 4 5 6 
#
# 1 0.014298 -0.004259 0.000000 0.001561 0.003801 0.006872
# 2 -0.004259 0.012755 -0.001953 0.006143 -0.002189 0.002811
# 3 0.000000 -0.001953 0.014170 0.011388 0.002935 -0.003918
# 4 0.001561 0.006143 0.011388 0.045006 -0.002302 0.005045
# 5 0.003801 -0.002189 0.002935 -0.002302 0.028546 0.000375
# 6 0.006872 0.002811 -0.003918 0.005045 0.000375 0.032651
#
#
# Mechanical properties :
#
#
# Convention : Reuss Voigt Hill
#
# Bulk Modulus (GPa) = 34.72453 53.35307 44.03880
# Shear Modulus (GPa) = 29.50715 37.96161 33.73438
#
# Velocity S-wave (km/s) = 3.86515 4.38405 4.13275
# Velocity P-wave (km/s) = 6.12374 7.25528 6.71339
#
# Compressibility (1/GPa) = 0.02879808
#
# Stress axis : x y z
#
# Youngs Moduli (GPa) = 69.94005 78.39989 70.57158
#
# Poissons Ratio (x) = 0.33390 0.00001
# Poissons Ratio (y) = 0.29787 0.13785
# Poissons Ratio (z) = 0.00001 0.15315
#
# Static dielectric constant tensor:
#      x y z
#    x 1.692880 -0.031360 -0.042750 
#    y -0.031360 1.737190 -0.023030 
#    z -0.042750 -0.023030 1.524200 
# 
# From -- ./inp_files/597274.got.cif
#   From: 2010.05.17/outbox.cif.g08.bks.cpg/sg2_299_cif.got.tgz:597274.got - 2010.06.03 11:33:40.
