data_PCOD9088462
_publ_section_title
;
Structure prediction by ZEFSAII (Michael W. Deem and Ramdas Pophale) SiO2 
 PCOD9088462
Probable space group: P -1
;
_chemical_formula_sum "Si O2"
_cell_formula_units_Z 16
_cell_length_a 7.685401
_cell_length_b 14.436262
_cell_length_c 7.591057
_cell_angle_alpha 73.928039
_cell_angle_beta 64.438949
_cell_angle_gamma 53.392863
_cell_volume 609.690094
_symmetry_space_group_name_H-M "P -1"
_symmetry_group_IT_number 2
_symmetry_cell_setting 'triclinic'
loop_
_space_group_symop_operation_xyz
x,y,z
-x,-y,-z
loop_
_atom_site_type_symbol
_atom_site_label
_atom_site_fract_x
_atom_site_fract_y
_atom_site_fract_z
Si Si1 0.252184 0.080279 0.444911
Si Si2 0.922938 0.218551 0.222704
Si Si3 0.953039 0.558823 0.758662
Si Si4 0.234778 0.924104 0.835241
Si Si5 0.661939 0.837632 0.320123
Si Si6 0.365296 0.218495 0.985686
Si Si7 0.389648 0.508978 0.733287
Si Si8 0.124984 0.617711 0.292426
O O1 0.012063 0.164039 0.407681
O O2 0.348212 0.150462 0.465188
O O3 0.180104 0.180579 0.063863
O O4 0.456787 0.972423 0.300164
O O5 0.413331 0.224975 0.753687
O O6 0.791843 0.167233 0.215564
O O7 0.749514 0.356659 0.221058
O O8 0.190030 0.487475 0.800937
O O9 0.027031 0.597686 0.528395
O O10 0.774213 0.669733 0.889724
O O11 0.870705 0.475869 0.787454
O O12 0.418898 0.867788 0.943670
O O13 0.217267 0.017600 0.655577
O O14 0.000000 0.000000 0.000000
O O15 0.942474 0.747592 0.243262
O O16 0.500000 0.500000 0.500000
O O17 0.613459 0.417774 0.792957
#
# Coordination Sequence:
#
# PCOD9088462 Si02
#       8
#     2   2   2   2   2   2   2   2
#     4  11  23  41  64  92 122 163 215 256 304 375
#     4  11  23  42  66  91 124 164 207 258 310 366
#     4   9  19  36  60  87 117 160 205 252 309 364
#     4  12  25  41  64  93 124 162 207 257 315 371
#     4  11  23  39  64  91 126 171 207 255 312 365
#     4  11  23  42  62  90 132 166 202 258 316 369
#     4   9  18  34  59  88 116 152 201 252 301 355
#     4  10  19  37  61  88 120 160 210 253 301 366
#
# _framework density 26.242842
#
# number of rings (size 3 to 8) (size 9 to 14) (size 15 to 20)
#    0.000    1.500    0.000    7.125    0.000    4.000 
#    0.000    6.250    0.000    0.000    0.000    0.000 
#    0.000    0.000    0.000    0.000    0.000    0.000 
#
# Total GULP energy -89253.535317 kJ/mol
# GULP energy per Si atom -5578.345957 kJ/mol
# Density = 2.618311 g / cm^3
# Si number density = 26.242842 Si / 1000 Ang^3
#
#
#
# Elastic Constant Matrix: (Units=GPa)
#
#
# Indices 1 2 3 4 5 6 
#
# 1 139.0828 64.4943 47.1875 -0.4740 35.4597 -34.1079
# 2 64.4943 134.0639 50.4940 16.8621 19.2901 -35.3899
# 3 47.1875 50.4940 82.0594 4.3635 18.3353 -12.3417
# 4 -0.4740 16.8621 4.3635 37.7076 9.0399 1.7636
# 5 35.4597 19.2901 18.3353 9.0399 43.4001 5.9747
# 6 -34.1079 -35.3899 -12.3417 1.7636 5.9747 63.2540
#
#
#
# Elastic Compliance Matrix: (Units=1/GPa)
#
#
# Indices 1 2 3 4 5 6 
#
# 1 0.013671 -0.002828 -0.003135 0.003974 -0.010247 0.006035
# 2 -0.002828 0.012774 -0.005043 -0.005194 -0.000824 0.004861
# 3 -0.003135 -0.005043 0.017508 0.000867 -0.002655 -0.000869
# 4 0.003974 -0.005194 0.000867 0.030645 -0.007586 -0.000732
# 5 -0.010247 -0.000824 -0.002655 -0.007586 0.035813 -0.009675
# 6 0.006035 0.004861 -0.000869 -0.000732 -0.009675 0.022547
#
#
# Mechanical properties :
#
#
# Convention : Reuss Voigt Hill
#
# Bulk Modulus (GPa) = 45.57653 75.50641 60.54147
# Shear Modulus (GPa) = 30.80998 41.74102 36.27550
#
# Velocity S-wave (km/s) = 3.43013 3.99252 3.72196
# Velocity P-wave (km/s) = 5.75263 7.07731 6.44907
#
# Compressibility (1/GPa) = 0.02194112
#
# Stress axis : x y z
#
# Youngs Moduli (GPa) = 73.14718 78.28487 57.11529
#
# Poissons Ratio (x) = 0.22141 0.17907
# Poissons Ratio (y) = 0.20688 0.28801
# Poissons Ratio (z) = 0.22934 0.39476
#
# Static dielectric constant tensor:
#      x y z
#    x 1.964610 0.017530 -0.080730 
#    y 0.017530 2.033250 -0.062630 
#    z -0.080730 -0.062630 2.485470 
# 
# From -- ./inp_files/394146.got.cif
#   From: 2010.05.17/outbox.cif.g08.bks.cpg/sg2_198_cif.got.tgz:394146.got - 2010.06.03 11:33:40.
