data_PCOD9088839
_publ_section_title
;
Structure prediction by ZEFSAII (Michael W. Deem and Ramdas Pophale) SiO2 
 PCOD9088839
Probable space group: P -1
;
_chemical_formula_sum "Si O2"
_cell_formula_units_Z 14
_cell_length_a 8.215832
_cell_length_b 9.613944
_cell_length_c 10.939318
_cell_angle_alpha 42.632773
_cell_angle_beta 113.078250
_cell_angle_gamma 103.910503
_cell_volume 536.790394
_symmetry_space_group_name_H-M "P -1"
_symmetry_group_IT_number 2
_symmetry_cell_setting 'triclinic'
loop_
_space_group_symop_operation_xyz
x,y,z
-x,-y,-z
loop_
_atom_site_type_symbol
_atom_site_label
_atom_site_fract_x
_atom_site_fract_y
_atom_site_fract_z
Si Si1 0.050316 0.369583 0.720355
Si Si2 0.683279 0.277780 0.692840
Si Si3 0.119821 0.947121 0.689384
Si Si4 0.847942 0.685617 0.850770
Si Si5 0.341175 0.250158 0.713549
Si Si6 0.733374 0.427027 0.174817
Si Si7 0.494129 0.216992 0.426476
O O1 0.238385 0.256976 0.807825
O O2 0.084131 0.538577 0.723144
O O3 0.000000 0.500000 0.500000
O O4 0.892955 0.230783 0.798219
O O5 0.554983 0.214215 0.804493
O O6 0.674478 0.524636 0.503167
O O7 0.594860 0.193112 0.599399
O O8 0.247927 0.756340 0.798776
O O9 0.964640 0.877616 0.778481
O O10 0.238915 0.100670 0.693275
O O11 0.000000 0.000000 0.500000
O O12 0.713954 0.707633 0.682830
O O13 0.719736 0.635519 0.957096
O O14 0.000000 0.500000 0.000000
O O15 0.598492 0.374154 0.273825
O O16 0.500000 0.000000 0.500000
#
# Coordination Sequence:
#
# PCOD9088839 Si02
#       7
#     2   2   2   2   2   2   2
#     4  10  19  37  63  90 132 176 219 273 337 401
#     4  10  21  36  62  99 131 167 223 282 344 383
#     4  11  21  38  65  96 126 169 232 277 322 398
#     4  10  25  42  64  95 140 180 215 276 363 403
#     4  10  20  35  58  91 132 167 215 280 328 395
#     4  11  22  42  62  95 138 177 217 284 345 409
#     4  12  23  39  69 102 127 174 237 286 323 405
#
# _framework density 26.080946000000001
#
# number of rings (size 3 to 8) (size 9 to 14) (size 15 to 20)
#    0.000    1.429    2.857    4.714    2.000    4.571 
#    0.000    0.714    0.000    4.286    0.000    0.000 
#    0.000    0.000    0.000    0.000    0.000    0.000 
#
# Total GULP energy -78241.411024 kJ/mol
# GULP energy per Si atom -5588.672216 kJ/mol
# Density = 2.602158 g / cm^3
# Si number density = 26.080946 Si / 1000 Ang^3
#
#
#
# Elastic Constant Matrix: (Units=GPa)
#
#
# Indices 1 2 3 4 5 6 
#
# 1 216.9496 37.2075 10.7033 -8.0955 -1.0678 29.8647
# 2 37.2075 175.5005 6.7156 1.5562 7.6092 24.0229
# 3 10.7033 6.7156 32.2144 -2.0216 5.3081 4.6914
# 4 -8.0955 1.5562 -2.0216 21.2508 3.3227 -3.8066
# 5 -1.0678 7.6092 5.3081 3.3227 36.7152 2.7324
# 6 29.8647 24.0229 4.6914 -3.8066 2.7324 43.4723
#
#
#
# Elastic Compliance Matrix: (Units=1/GPa)
#
#
# Indices 1 2 3 4 5 6 
#
# 1 0.005253 -0.000692 -0.001173 0.001310 0.000572 -0.003021
# 2 -0.000692 0.006328 -0.000574 -0.001176 -0.000919 -0.003005
# 3 -0.001173 -0.000574 0.032808 0.003138 -0.004805 -0.001840
# 4 0.001310 -0.001176 0.003138 0.049440 -0.004948 0.004052
# 5 0.000572 -0.000919 -0.004805 -0.004948 0.028706 -0.001604
# 6 -0.003021 -0.003005 -0.001840 0.004052 -0.001604 0.027394
#
#
# Mechanical properties :
#
#
# Convention : Reuss Voigt Hill
#
# Bulk Modulus (GPa) = 25.30915 59.32416 42.31666
# Shear Modulus (GPa) = 29.76575 44.95688 37.36132
#
# Velocity S-wave (km/s) = 3.38195 4.15630 3.78896
# Velocity P-wave (km/s) = 4.99753 6.76969 5.94996
#
# Compressibility (1/GPa) = 0.03951140
#
# Stress axis : x y z
#
# Youngs Moduli (GPa) = 190.34935 158.02261 30.48010
#
# Poissons Ratio (x) = 0.10931 0.03576
# Poissons Ratio (y) = 0.13167 0.01750
# Poissons Ratio (z) = 0.22335 0.09074
#
# Static dielectric constant tensor:
#      x y z
#    x 2.265990 -0.108070 0.072700 
#    y -0.108070 2.050760 -0.052810 
#    z 0.072700 -0.052810 2.197210 
# 
# From -- ./inp_files/381133.got.cif
#   From: 2010.05.17/outbox.cif.g08.bks.cpg/sg2_191_cif.got.tgz:381133.got - 2010.06.03 11:33:40.
