data_PCOD9088097
_publ_section_title
;
Structure prediction by ZEFSAII (Michael W. Deem and Ramdas Pophale) SiO2 
 PCOD9088097
Probable space group: P -1
;
_chemical_formula_sum "Si O2"
_cell_formula_units_Z 16
_cell_length_a 10.495462
_cell_length_b 16.053448
_cell_length_c 7.627283
_cell_angle_alpha 70.553479
_cell_angle_beta 42.835996
_cell_angle_gamma 56.540164
_cell_volume 723.148858
_symmetry_space_group_name_H-M "P -1"
_symmetry_group_IT_number 2
_symmetry_cell_setting 'triclinic'
loop_
_space_group_symop_operation_xyz
x,y,z
-x,-y,-z
loop_
_atom_site_type_symbol
_atom_site_label
_atom_site_fract_x
_atom_site_fract_y
_atom_site_fract_z
Si Si1 0.889133 0.993089 0.332672
Si Si2 0.612844 0.197689 0.292254
Si Si3 0.623012 0.595166 0.714026
Si Si4 0.671429 0.090466 0.847808
Si Si5 0.474999 0.294621 0.731421
Si Si6 0.066582 0.398328 0.895977
Si Si7 0.372577 0.097590 0.440657
Si Si8 0.367927 0.497248 0.871493
O O1 0.806630 0.084857 0.210190
O O2 0.733710 0.040359 0.628025
O O3 0.850225 0.902030 0.366930
O O4 0.120266 0.957435 0.205988
O O5 0.575467 0.291500 0.141918
O O6 0.595032 0.248661 0.462290
O O7 0.414478 0.179184 0.445165
O O8 0.801093 0.601295 0.409436
O O9 0.539572 0.528729 0.739647
O O10 0.701413 0.543707 0.858381
O O11 0.587624 0.208483 0.819541
O O12 0.489239 0.082972 0.146777
O O13 0.235254 0.313583 0.914182
O O14 0.459936 0.400916 0.718512
O O15 0.000000 0.500000 0.000000
O O16 0.841996 0.408239 0.060330
O O17 0.500000 0.000000 0.500000
#
# Coordination Sequence:
#
# PCOD9088097 Si02
#       8
#     2   2   2   2   2   2   2   2
#     4   9  20  37  58  81 108 147 183 220 274 321
#     4   9  19  35  54  80 113 143 179 226 269 319
#     4  10  20  36  57  83 112 141 181 228 270 323
#     4  10  19  37  59  82 112 142 182 227 266 321
#     4   9  19  36  55  79 111 144 181 227 269 316
#     4   9  19  35  55  78 107 143 180 221 270 319
#     4  10  20  35  55  80 110 144 180 222 272 321
#     4  10  20  36  58  81 109 146 181 221 277 326
#
# _framework density 22.125457999999998
#
# number of rings (size 3 to 8) (size 9 to 14) (size 15 to 20)
#    0.000    2.500    0.000    1.500    0.000    6.500 
#    0.000   22.500    0.000    0.000    0.000    0.000 
#    0.000    0.000    0.000    0.000    0.000    0.000 
#
# Total GULP energy -89138.820384 kJ/mol
# GULP energy per Si atom -5571.176274 kJ/mol
# Density = 2.207510 g / cm^3
# Si number density = 22.125458 Si / 1000 Ang^3
#
#
#
# Elastic Constant Matrix: (Units=GPa)
#
#
# Indices 1 2 3 4 5 6 
#
# 1 79.2576 25.9821 4.2980 5.0852 1.3163 16.8193
# 2 25.9821 97.8178 4.0472 2.4941 -4.2029 0.4268
# 3 4.2980 4.0472 58.1304 -0.3325 9.7283 9.4742
# 4 5.0852 2.4941 -0.3325 21.3108 -1.1100 -3.3557
# 5 1.3163 -4.2029 9.7283 -1.1100 38.0563 -1.7305
# 6 16.8193 0.4268 9.4742 -3.3557 -1.7305 31.3988
#
#
#
# Elastic Compliance Matrix: (Units=1/GPa)
#
#
# Indices 1 2 3 4 5 6 
#
# 1 0.016371 -0.004298 0.000942 -0.005003 -0.001866 -0.009633
# 2 -0.004298 0.011479 -0.001220 0.000175 0.001853 0.002635
# 3 0.000942 -0.001220 0.019210 -0.001120 -0.005415 -0.006703
# 4 -0.005003 0.000175 -0.001120 0.049529 0.002307 0.008436
# 5 -0.001866 0.001853 -0.005415 0.002307 0.028198 0.004409
# 6 -0.009633 0.002635 -0.006703 0.008436 0.004409 0.040140
#
#
# Mechanical properties :
#
#
# Convention : Reuss Voigt Hill
#
# Bulk Modulus (GPa) = 26.37894 33.76227 30.07060
# Shear Modulus (GPa) = 26.77881 31.54508 29.16194
#
# Velocity S-wave (km/s) = 3.48273 3.77999 3.63440
# Velocity P-wave (km/s) = 5.30292 5.86035 5.58859
#
# Compressibility (1/GPa) = 0.03790903
#
# Stress axis : x y z
#
# Youngs Moduli (GPa) = 61.08313 87.11655 52.05540
#
# Poissons Ratio (x) = 0.37443 -0.04906
# Poissons Ratio (y) = 0.26254 0.06351
# Poissons Ratio (z) = -0.05757 0.10628
#
# Static dielectric constant tensor:
#      x y z
#    x 1.831970 -0.008450 0.018780 
#    y -0.008450 1.863260 0.049220 
#    z 0.018780 0.049220 1.900300 
# 
# From -- ./inp_files/276316.got.cif
#   From: 2010.05.17/outbox.cif.g08.bks.cpg/sg2_139_cif.got.tgz:276316.got - 2010.06.03 11:33:40.
