data_PCOD9088352
_publ_section_title
;
Structure prediction by ZEFSAII (Michael W. Deem and Ramdas Pophale) SiO2 
 PCOD9088352
Probable space group: P -1
;
_chemical_formula_sum "Si O2"
_cell_formula_units_Z 16
_cell_length_a 9.277139
_cell_length_b 8.710494
_cell_length_c 19.727706
_cell_angle_alpha 61.568697
_cell_angle_beta 55.162012
_cell_angle_gamma 105.290672
_cell_volume 771.141892
_symmetry_space_group_name_H-M "P -1"
_symmetry_group_IT_number 2
_symmetry_cell_setting 'triclinic'
loop_
_space_group_symop_operation_xyz
x,y,z
-x,-y,-z
loop_
_atom_site_type_symbol
_atom_site_label
_atom_site_fract_x
_atom_site_fract_y
_atom_site_fract_z
Si Si1 0.881700 0.724035 0.834960
Si Si2 0.188192 0.259512 0.439851
Si Si3 0.752897 0.362942 0.049586
Si Si4 0.544285 0.919090 0.411108
Si Si5 0.194904 0.985575 0.279896
Si Si6 0.986011 0.502719 0.583795
Si Si7 0.333729 0.612048 0.673417
Si Si8 0.249126 0.746882 0.077818
O O1 0.808690 0.508187 0.848397
O O2 0.771065 0.823116 0.817347
O O3 0.794426 0.585550 0.959637
O O4 0.193420 0.982107 0.702921
O O5 0.174912 0.440740 0.371240
O O6 0.477945 0.396883 0.344380
O O7 0.038119 0.155092 0.574751
O O8 0.000000 0.000000 0.500000
O O9 0.473468 0.154549 0.205406
O O10 0.729700 0.226401 0.016147
O O11 0.000000 0.500000 0.000000
O O12 0.457609 0.764421 0.536862
O O13 0.283606 0.729974 0.478294
O O14 0.632656 0.185432 0.335632
O O15 0.131739 0.764122 0.301906
O O16 0.000000 0.500000 0.500000
O O17 0.021185 0.355174 0.807094
O O18 0.500000 0.000000 0.000000
#
# Coordination Sequence:
#
# PCOD9088352 Si02
#       8
#     2   2   2   2   2   2   2   2
#     4   9  21  40  65  89 125 173 222 251 325 393
#     4  11  22  39  65  97 131 166 210 274 330 383
#     4  10  24  41  67  91 128 179 219 264 330 391
#     4  10  19  37  60  96 123 165 205 266 315 389
#     4  11  23  43  61  94 131 173 216 260 327 397
#     4  10  24  37  60  93 134 163 205 267 329 376
#     4  10  20  37  67  93 125 163 217 260 328 383
#     4   9  22  40  65  97 132 169 220 272 318 387
#
# _framework density 20.748449999999998
#
# number of rings (size 3 to 8) (size 9 to 14) (size 15 to 20)
#    0.750    1.250    2.500    0.375    7.000    0.500 
#    0.000    1.250    0.000    1.500    0.000    0.000 
#    0.000    0.000    0.000    0.000    0.000    0.000 
#
# Total GULP energy -89127.268516 kJ/mol
# GULP energy per Si atom -5570.454282 kJ/mol
# Density = 2.070123 g / cm^3
# Si number density = 20.748450 Si / 1000 Ang^3
#
#
#
# Elastic Constant Matrix: (Units=GPa)
#
#
# Indices 1 2 3 4 5 6 
#
# 1 134.9168 57.0490 54.0854 -24.5235 -36.9324 -14.2449
# 2 57.0490 54.8674 17.6603 -20.8765 -10.0081 -10.7421
# 3 54.0854 17.6603 114.3191 -12.6051 -42.7910 -9.0448
# 4 -24.5235 -20.8765 -12.6051 28.5173 6.2297 -4.2227
# 5 -36.9324 -10.0081 -42.7910 6.2297 45.6247 -5.4260
# 6 -14.2449 -10.7421 -9.0448 -4.2227 -5.4260 28.7610
#
#
#
# Elastic Compliance Matrix: (Units=1/GPa)
#
#
# Indices 1 2 3 4 5 6 
#
# 1 0.017903 -0.014061 -0.001843 0.002911 0.009916 0.005334
# 2 -0.014061 0.043146 0.003583 0.023119 -0.000090 0.013655
# 3 -0.001843 0.003583 0.015855 0.006242 0.014387 0.009042
# 4 0.002911 0.023119 0.006242 0.058812 0.007887 0.022162
# 5 0.009916 -0.000090 0.014387 0.007887 0.044598 0.018974
# 6 0.005334 0.013655 0.009042 0.022162 0.018974 0.052188
#
#
# Mechanical properties :
#
#
# Convention : Reuss Voigt Hill
#
# Bulk Modulus (GPa) = 19.13467 62.41031 40.77249
# Shear Modulus (GPa) = 18.21049 32.26785 25.23917
#
# Velocity S-wave (km/s) = 2.96578 3.94787 3.49153
# Velocity P-wave (km/s) = 4.57931 7.13623 5.99566
#
# Compressibility (1/GPa) = 0.05226115
#
# Stress axis : x y z
#
# Youngs Moduli (GPa) = 55.85503 23.17689 63.07189
#
# Poissons Ratio (x) = 0.32590 0.11626
# Poissons Ratio (y) = 0.78540 -0.22598
# Poissons Ratio (z) = 0.10296 -0.08304
#
# Static dielectric constant tensor:
#      x y z
#    x 1.756170 -0.007410 0.017140 
#    y -0.007410 1.802230 0.016250 
#    z 0.017140 0.016250 1.786000 
# 
# From -- ./inp_files/606383.got.cif
#   From: 2010.05.17/outbox.cif.g08.bks.cpg/sg2_304_cif.got.tgz:606383.got - 2010.06.03 11:33:40.
