data_PCOD9088930
_publ_section_title
;
Structure prediction by ZEFSAII (Michael W. Deem and Ramdas Pophale) SiO2 
 PCOD9088930
Probable space group: P -1
;
_chemical_formula_sum "Si O2"
_cell_formula_units_Z 16
_cell_length_a 11.194303
_cell_length_b 15.982750
_cell_length_c 9.048303
_cell_angle_alpha 128.291011
_cell_angle_beta 97.585305
_cell_angle_gamma 123.997435
_cell_volume 713.913975
_symmetry_space_group_name_H-M "P -1"
_symmetry_group_IT_number 2
_symmetry_cell_setting 'triclinic'
loop_
_space_group_symop_operation_xyz
x,y,z
-x,-y,-z
loop_
_atom_site_type_symbol
_atom_site_label
_atom_site_fract_x
_atom_site_fract_y
_atom_site_fract_z
Si Si1 0.115868 0.868504 0.035710
Si Si2 0.248338 0.644051 0.701411
Si Si3 0.967724 0.872186 0.262989
Si Si4 0.760235 0.461128 0.706477
Si Si5 0.153040 0.359160 0.524734
Si Si6 0.494040 0.000126 0.320513
Si Si7 0.491368 0.530337 0.205095
Si Si8 0.966189 0.296073 0.729303
O O1 0.081275 0.951898 0.210820
O O2 0.346204 0.990865 0.241838
O O3 0.932085 0.658601 0.854371
O O4 0.053274 0.819874 0.802004
O O5 0.313857 0.678803 0.578484
O O6 0.268586 0.541907 0.663822
O O7 0.000000 0.500000 0.500000
O O8 0.378844 0.819538 0.017418
O O9 0.052072 0.831448 0.326737
O O10 0.000000 0.000000 0.500000
O O11 0.715606 0.679028 0.992516
O O12 0.573879 0.396830 0.679527
O O13 0.905767 0.536155 0.951883
O O14 0.300397 0.363935 0.569754
O O15 0.097577 0.363760 0.680622
O O16 0.500000 0.000000 0.500000
O O17 0.740529 0.176448 0.514645
O O18 0.500000 0.500000 0.000000
#
# Coordination Sequence:
#
# PCOD9088930 Si02
#       8
#     2   2   2   2   2   2   2   2
#     4   9  20  37  59  83 120 152 199 243 300 352
#     4  11  22  39  62  90 122 153 211 251 283 364
#     4  10  21  38  60  87 116 151 202 244 295 369
#     4   9  18  38  60  87 120 154 202 245 292 362
#     4  11  21  39  62  88 121 158 198 252 300 343
#     4  12  20  40  65  82 119 166 197 244 305 356
#     4  10  19  37  64  83 119 159 195 248 304 346
#     4  10  21  38  63  85 123 157 195 246 306 351
#
# _framework density 22.411664999999999
#
# number of rings (size 3 to 8) (size 9 to 14) (size 15 to 20)
#    0.000    2.000    7.500    0.000    1.750    5.000 
#    0.000    4.375    0.000    0.000    0.000    0.000 
#    0.000    0.000    0.000    0.000    0.000    0.000 
#
# Total GULP energy -89274.259708 kJ/mol
# GULP energy per Si atom -5579.641232 kJ/mol
# Density = 2.236065 g / cm^3
# Si number density = 22.411665 Si / 1000 Ang^3
#
#
#
# Elastic Constant Matrix: (Units=GPa)
#
#
# Indices 1 2 3 4 5 6 
#
# 1 101.9175 29.5946 67.0676 -6.5095 4.4812 21.5049
# 2 29.5946 52.8392 29.0679 -14.5723 -1.2188 17.5795
# 3 67.0676 29.0679 166.4011 -28.0275 -7.4328 16.2136
# 4 -6.5095 -14.5723 -28.0275 31.3790 15.4299 -2.7265
# 5 4.4812 -1.2188 -7.4328 15.4299 55.6645 -1.8081
# 6 21.5049 17.5795 16.2136 -2.7265 -1.8081 33.9741
#
#
#
# Elastic Compliance Matrix: (Units=1/GPa)
#
#
# Indices 1 2 3 4 5 6 
#
# 1 0.016004 -0.005277 -0.005791 -0.004156 -0.001189 -0.005033
# 2 -0.005277 0.028878 0.000189 0.012952 -0.002859 -0.010805
# 3 -0.005791 0.000189 0.009620 0.007625 -0.000373 -0.000431
# 4 -0.004156 0.012952 0.007625 0.049457 -0.012215 -0.004391
# 5 -0.001189 -0.002859 -0.000373 -0.012215 0.021418 0.002569
# 6 -0.005033 -0.010805 -0.000431 -0.004391 0.002569 0.038201
#
#
# Mechanical properties :
#
#
# Convention : Reuss Voigt Hill
#
# Bulk Modulus (GPa) = 30.54045 63.62421 47.08233
# Shear Modulus (GPa) = 25.47766 37.23203 31.35485
#
# Velocity S-wave (km/s) = 3.37531 4.08030 3.74443
# Velocity P-wave (km/s) = 5.37093 7.11681 6.30460
#
# Compressibility (1/GPa) = 0.03274346
#
# Stress axis : x y z
#
# Youngs Moduli (GPa) = 62.48480 34.62868 103.94577
#
# Poissons Ratio (x) = 0.18274 0.60198
# Poissons Ratio (y) = 0.32973 -0.01964
# Poissons Ratio (z) = 0.36187 -0.00654
#
# Static dielectric constant tensor:
#      x y z
#    x 1.887410 -0.049140 -0.060880 
#    y -0.049140 1.928390 -0.012630 
#    z -0.060880 -0.012630 1.876410 
# 
# From -- ./inp_files/282304.got.cif
#   From: 2010.05.17/outbox.cif.g08.bks.cpg/sg2_142_cif.got.tgz:282304.got - 2010.06.03 11:33:40.
