data_PCOD9088814
_publ_section_title
;
Structure prediction by ZEFSAII (Michael W. Deem and Ramdas Pophale) SiO2 
 PCOD9088814
Probable space group: P -1
;
_chemical_formula_sum "Si O2"
_cell_formula_units_Z 16
_cell_length_a 5.483430
_cell_length_b 16.323397
_cell_length_c 11.884577
_cell_angle_alpha 41.674899
_cell_angle_beta 97.816029
_cell_angle_gamma 110.821805
_cell_volume 646.593836
_symmetry_space_group_name_H-M "P -1"
_symmetry_group_IT_number 2
_symmetry_cell_setting 'triclinic'
loop_
_space_group_symop_operation_xyz
x,y,z
-x,-y,-z
loop_
_atom_site_type_symbol
_atom_site_label
_atom_site_fract_x
_atom_site_fract_y
_atom_site_fract_z
Si Si1 0.587029 0.323738 0.443658
Si Si2 0.900914 0.726219 0.880676
Si Si3 0.900103 0.177779 0.836907
Si Si4 0.350669 0.402074 0.786946
Si Si5 0.991878 0.268193 0.366439
Si Si6 0.832916 0.969313 0.705737
Si Si7 0.623183 0.227948 0.967033
Si Si8 0.242485 0.100385 0.775475
O O1 0.662806 0.457861 0.383059
O O2 0.813746 0.328254 0.365621
O O3 0.534133 0.199080 0.652042
O O4 0.293697 0.300074 0.398049
O O5 0.817966 0.854717 0.733543
O O6 0.964205 0.683186 0.808950
O O7 0.155212 0.769317 0.933170
O O8 0.693586 0.618045 0.060062
O O9 0.142067 0.283701 0.820406
O O10 0.063567 0.180525 0.728469
O O11 0.668216 0.203679 0.866120
O O12 0.796667 0.020230 0.020771
O O13 0.616388 0.375121 0.815580
O O14 0.820569 0.106257 0.520339
O O15 0.632647 0.889038 0.874883
O O16 0.115107 0.024401 0.730136
#
# Coordination Sequence:
#
# PCOD9088814 Si02
#       8
#     2   2   2   2   2   2   2   2
#     4  11  27  45  63  94 136 168 213 268 317 374
#     4  10  22  39  64  93 126 169 215 261 316 384
#     4  10  20  39  67  91 124 162 216 257 326 381
#     4  10  23  42  62  91 126 173 212 260 318 381
#     4  11  26  41  65  95 130 172 214 264 321 375
#     4  10  20  39  61  95 131 165 206 267 324 377
#     4  10  19  37  63  89 124 168 213 262 310 383
#     4  10  20  42  62  96 125 162 209 271 318 379
#
# _framework density 24.745055000000001
#
# number of rings (size 3 to 8) (size 9 to 14) (size 15 to 20)
#    0.000    1.750    3.750    1.125    8.750    2.500 
#    4.500    0.625    0.000    0.000    0.000    0.000 
#    0.000    0.000    0.000    0.000    0.000    0.000 
#
# Total GULP energy -89158.110055 kJ/mol
# GULP energy per Si atom -5572.381878 kJ/mol
# Density = 2.468873 g / cm^3
# Si number density = 24.745055 Si / 1000 Ang^3
#
#
#
# Elastic Constant Matrix: (Units=GPa)
#
#
# Indices 1 2 3 4 5 6 
#
# 1 -1.5057 17.1526 -74.7953 -14.0185 -51.8317 -22.5490
# 2 17.1526 70.7913 -0.1053 13.3236 -23.1068 -15.2121
# 3 -74.7953 -0.1053 -57.4646 0.8410 -42.5079 2.8332
# 4 -14.0185 13.3236 0.8410 34.8749 -13.8655 -1.6294
# 5 -51.8317 -23.1068 -42.5079 -13.8655 7.8950 9.3799
# 6 -22.5490 -15.2121 2.8332 -1.6294 9.3799 34.3560
#
#
#
# Elastic Compliance Matrix: (Units=1/GPa)
#
#
# Indices 1 2 3 4 5 6 
#
# 1 0.015387 -0.003713 -0.017259 0.007399 -0.002854 0.011009
# 2 -0.003713 0.019845 -0.002028 -0.005125 0.009371 0.003716
# 3 -0.017259 -0.002028 0.021296 -0.016150 -0.022828 -0.008515
# 4 0.007399 -0.005125 -0.016150 0.038027 0.009781 0.003052
# 5 -0.002854 0.009371 -0.022828 0.009781 0.035711 -0.005127
# 6 0.011009 0.003716 -0.008515 0.003052 -0.005127 0.040224
#
#
# Mechanical properties :
#
#
# Convention : Reuss Voigt Hill
#
# Bulk Modulus (GPa) = 94.97653 -11.51943 41.72855
# Shear Modulus (GPa) = 22.72739 20.06312 21.39526
#
# Velocity S-wave (km/s) = 3.03390 2.85053 2.94365
# Velocity P-wave (km/s) = 7.12307 2.48369 5.33417
#
# Compressibility (1/GPa) = 0.01052892
#
# Stress axis : x y z
#
# Youngs Moduli (GPa) = 64.98853 50.39176 46.95766
#
# Poissons Ratio (x) = 0.18709 0.81043
# Poissons Ratio (y) = 0.24128 0.09523
# Poissons Ratio (z) = 1.12162 0.10219
#
# Static dielectric constant tensor:
#      x y z
#    x 2.159400 0.036990 0.023960 
#    y 0.036990 1.934140 0.001020 
#    z 0.023960 0.001020 2.015200 
# 
# From -- ./inp_files/76563.got.cif
#   From: 2010.05.17/outbox.cif.g08.bks.cpg/sg2_39_cif.got.tgz:76563.got - 2010.06.03 11:33:40.
