data_PCOD9088951
_publ_section_title
;
Structure prediction by ZEFSAII (Michael W. Deem and Ramdas Pophale) SiO2 
 PCOD9088951
Probable space group: P -1
;
_chemical_formula_sum "Si O2"
_cell_formula_units_Z 16
_cell_length_a 9.402866
_cell_length_b 22.386661
_cell_length_c 9.322460
_cell_angle_alpha 143.101279
_cell_angle_beta 132.163185
_cell_angle_gamma 54.677072
_cell_volume 869.545922
_symmetry_space_group_name_H-M "P -1"
_symmetry_group_IT_number 2
_symmetry_cell_setting 'triclinic'
loop_
_space_group_symop_operation_xyz
x,y,z
-x,-y,-z
loop_
_atom_site_type_symbol
_atom_site_label
_atom_site_fract_x
_atom_site_fract_y
_atom_site_fract_z
Si Si1 0.199038 0.238588 0.845431
Si Si2 0.180148 0.621318 0.114447
Si Si3 0.144716 0.392499 0.614433
Si Si4 0.182599 0.698062 0.935253
Si Si5 0.033682 0.886628 0.354936
Si Si6 0.398189 0.237442 0.684184
Si Si7 0.581333 0.692056 0.611048
Si Si8 0.468863 0.886525 0.729875
O O1 0.310172 0.208237 0.718121
O O2 0.004196 0.309980 0.821279
O O3 0.127914 0.146807 0.711899
O O4 0.331731 0.298639 0.155313
O O5 0.375804 0.648484 0.374050
O O6 0.149583 0.505606 0.883931
O O7 0.195348 0.646914 0.003384
O O8 0.249328 0.318112 0.658791
O O9 0.270481 0.373505 0.517300
O O10 0.933872 0.363757 0.372984
O O11 0.058900 0.805038 0.086997
O O12 0.397256 0.716505 0.069675
O O13 0.241534 0.874804 0.549275
O O14 0.000000 0.000000 0.500000
O O15 0.444827 0.147009 0.430722
O O16 0.558731 0.803874 0.743162
O O17 0.500000 0.000000 0.000000
#
# Coordination Sequence:
#
# PCOD9088951 Si02
#       8
#     2   2   2   2   2   2   2   2
#     4  11  23  40  59  89 126 156 192 253 304 347
#     4  11  21  37  63  91 116 157 218 244 285 358
#     4  11  21  36  66  86 117 165 205 250 290 349
#     4  10  20  38  58  91 117 156 205 245 288 359
#     4  10  19  37  64  87 116 152 200 242 291 358
#     4  10  24  40  57  90 129 150 196 251 302 354
#     4  11  20  37  62  88 117 160 203 248 291 347
#     4  10  20  39  64  89 114 154 204 242 289 367
#
# _framework density 18.400407999999999
#
# number of rings (size 3 to 8) (size 9 to 14) (size 15 to 20)
#    0.000    1.500    7.500    1.500    1.750    1.500 
#    0.000    7.500    0.000    0.000    0.000    0.000 
#    0.000    0.000    0.000    0.000    0.000    0.000 
#
# Total GULP energy -89347.671033 kJ/mol
# GULP energy per Si atom -5584.229440 kJ/mol
# Density = 1.835853 g / cm^3
# Si number density = 18.400408 Si / 1000 Ang^3
#
#
#
# Elastic Constant Matrix: (Units=GPa)
#
#
# Indices 1 2 3 4 5 6 
#
# 1 102.1911 22.3678 42.0210 -11.6140 9.1122 8.1177
# 2 22.3678 39.0110 29.0656 3.4762 5.1300 -1.9665
# 3 42.0210 29.0656 123.4231 5.9522 20.8972 2.2841
# 4 -11.6140 3.4762 5.9522 31.8024 -2.3732 3.9401
# 5 9.1122 5.1300 20.8972 -2.3732 19.4473 -5.3663
# 6 8.1177 -1.9665 2.2841 3.9401 -5.3663 16.2258
#
#
#
# Elastic Compliance Matrix: (Units=1/GPa)
#
#
# Indices 1 2 3 4 5 6 
#
# 1 0.014561 -0.006965 -0.002796 0.007654 -0.004066 -0.010939
# 2 -0.006965 0.035049 -0.006311 -0.006348 0.003112 0.011191
# 3 -0.002796 -0.006311 0.012895 -0.003113 -0.012522 -0.004567
# 4 0.007654 -0.006348 -0.003113 0.037238 0.002569 -0.012353
# 5 -0.004066 0.003112 -0.012522 0.002569 0.074008 0.028027
# 6 -0.010939 0.011191 -0.004567 -0.012353 0.028027 0.081371
#
#
# Mechanical properties :
#
#
# Convention : Reuss Voigt Hill
#
# Bulk Modulus (GPa) = 32.93449 50.17043 41.55246
# Shear Modulus (GPa) = 16.81325 24.90649 20.85987
#
# Velocity S-wave (km/s) = 3.02610 3.68310 3.37064
# Velocity P-wave (km/s) = 5.49066 6.73885 6.14652
#
# Compressibility (1/GPa) = 0.03036330
#
# Stress axis : x y z
#
# Youngs Moduli (GPa) = 68.67714 28.53112 77.54997
#
# Poissons Ratio (x) = 0.19871 0.21680
# Poissons Ratio (y) = 0.47831 0.48940
# Poissons Ratio (z) = 0.19199 0.18005
#
# Static dielectric constant tensor:
#      x y z
#    x 1.616460 -0.013860 0.016080 
#    y -0.013860 1.644700 -0.003080 
#    z 0.016080 -0.003080 1.641440 
# 
# From -- ./inp_files/202291.got.cif
#   From: 2010.05.17/outbox.cif.g08.bks.cpg/sg2_102_cif.got.tgz:202291.got - 2010.06.03 11:33:40.
