data_PCOD9088233
_publ_section_title
;
Structure prediction by ZEFSAII (Michael W. Deem and Ramdas Pophale) SiO2 
 PCOD9088233
Probable space group: P -1
;
_chemical_formula_sum "Si O2"
_cell_formula_units_Z 16
_cell_length_a 9.062944
_cell_length_b 30.577185
_cell_length_c 30.905819
_cell_angle_alpha 9.602769
_cell_angle_beta 141.858160
_cell_angle_gamma 141.298484
_cell_volume 881.370605
_symmetry_space_group_name_H-M "P -1"
_symmetry_group_IT_number 2
_symmetry_cell_setting 'triclinic'
loop_
_space_group_symop_operation_xyz
x,y,z
-x,-y,-z
loop_
_atom_site_type_symbol
_atom_site_label
_atom_site_fract_x
_atom_site_fract_y
_atom_site_fract_z
Si Si1 0.771868 0.173005 0.655033
Si Si2 0.333949 0.085221 0.581074
Si Si3 0.570538 0.691410 0.767465
Si Si4 0.972919 0.646279 0.179067
Si Si5 0.499491 0.723616 0.245054
Si Si6 0.795377 0.233612 0.311754
Si Si7 0.017454 0.227436 0.746391
Si Si8 0.465264 0.446308 0.890142
O O1 0.500542 0.119166 0.628862
O O2 0.886762 0.423635 0.411097
O O3 0.814618 0.196732 0.692619
O O4 0.910800 0.923185 0.914968
O O5 0.429267 0.310388 0.350734
O O6 0.060514 0.144727 0.468944
O O7 0.388253 0.807425 0.842173
O O8 0.358502 0.723245 0.722377
O O9 0.483564 0.539765 0.852470
O O10 0.674977 0.989112 0.495291
O O11 0.769709 0.506429 0.014276
O O12 0.807022 0.607417 0.136540
O O13 0.256033 0.657942 0.226486
O O14 0.500000 0.500000 0.500000
O O15 0.731616 0.749546 0.243527
O O16 0.500000 0.000000 0.000000
O O17 0.000000 0.500000 0.500000
O O18 0.000000 0.000000 0.000000
#
# Coordination Sequence:
#
# PCOD9088233 Si02
#       8
#     2   2   2   2   2   2   2   2
#     4  10  20  38  59  80 117 151 183 235 290 337
#     4  10  21  36  59  84 108 148 188 228 280 336
#     4  10  21  37  56  80 114 148 179 231 274 326
#     4  10  19  37  60  84 108 149 196 233 278 338
#     4  12  21  38  65  84 109 159 199 231 279 354
#     4  10  21  37  57  79 113 152 183 213 282 347
#     4  12  24  38  58  88 122 147 189 247 291 332
#     4  10  21  35  58  85 113 139 186 244 274 313
#
# _framework density 18.153544
#
# number of rings (size 3 to 8) (size 9 to 14) (size 15 to 20)
#    0.000    1.500    2.500    3.000    0.000    3.000 
#    2.250    0.000    5.500    0.000    0.000    0.000 
#    0.000    0.000    0.000    0.000    0.000    0.000 
#
# Total GULP energy -89276.970268 kJ/mol
# GULP energy per Si atom -5579.810642 kJ/mol
# Density = 1.811223 g / cm^3
# Si number density = 18.153544 Si / 1000 Ang^3
#
#
#
# Elastic Constant Matrix: (Units=GPa)
#
#
# Indices 1 2 3 4 5 6 
#
# 1 88.0920 62.4930 49.0561 1.3374 15.3155 -1.9761
# 2 62.4930 134.4619 41.7270 0.7981 21.4014 -10.9158
# 3 49.0561 41.7270 159.6279 -20.5786 8.7588 -14.7603
# 4 1.3374 0.7981 -20.5786 42.6227 0.8611 13.8210
# 5 15.3155 21.4014 8.7588 0.8611 26.8353 -0.3584
# 6 -1.9761 -10.9158 -14.7603 13.8210 -0.3584 31.7998
#
#
#
# Elastic Compliance Matrix: (Units=1/GPa)
#
#
# Indices 1 2 3 4 5 6 
#
# 1 0.019644 -0.007364 -0.004356 -0.001640 -0.003900 -0.002660
# 2 -0.007364 0.012172 -0.000436 -0.001423 -0.005262 0.004077
# 3 -0.004356 -0.000436 0.008351 0.003557 0.000019 0.001910
# 4 -0.001640 -0.001423 0.003557 0.029005 -0.000175 -0.011548
# 5 -0.003900 -0.005262 0.000019 -0.000175 0.043666 -0.001472
# 6 -0.002660 0.004077 0.001910 -0.011548 -0.001472 0.038570
#
#
# Mechanical properties :
#
#
# Convention : Reuss Voigt Hill
#
# Bulk Modulus (GPa) = 63.06761 76.52601 69.79681
# Shear Modulus (GPa) = 27.62335 35.51195 31.56765
#
# Velocity S-wave (km/s) = 3.90507 4.42769 4.17457
# Velocity P-wave (km/s) = 7.42626 8.26956 7.85923
#
# Compressibility (1/GPa) = 0.01585600
#
# Stress axis : x y z
#
# Youngs Moduli (GPa) = 50.90486 82.15636 119.74176
#
# Poissons Ratio (x) = 0.60499 0.52154
# Poissons Ratio (y) = 0.37486 0.05227
# Poissons Ratio (z) = 0.22172 0.03586
#
# Static dielectric constant tensor:
#      x y z
#    x 1.559700 0.023520 0.004450 
#    y 0.023520 1.653490 0.013150 
#    z 0.004450 0.013150 1.615430 
# 
# From -- ./inp_files/56182.got.cif
#   From: 2010.05.17/outbox.cif.g08.bks.cpg/sg2_29_cif.got.tgz:56182.got - 2010.06.03 11:33:40.
