data_PCOD9088712
_publ_section_title
;
Structure prediction by ZEFSAII (Michael W. Deem and Ramdas Pophale) SiO2 
 PCOD9088712
Probable space group: P -1
;
_chemical_formula_sum "Si O2"
_cell_formula_units_Z 14
_cell_length_a 8.981533
_cell_length_b 9.082151
_cell_length_c 14.471577
_cell_angle_alpha 39.632890
_cell_angle_beta 71.934292
_cell_angle_gamma 67.706446
_cell_volume 696.376139
_symmetry_space_group_name_H-M "P -1"
_symmetry_group_IT_number 2
_symmetry_cell_setting 'triclinic'
loop_
_space_group_symop_operation_xyz
x,y,z
-x,-y,-z
loop_
_atom_site_type_symbol
_atom_site_label
_atom_site_fract_x
_atom_site_fract_y
_atom_site_fract_z
Si Si1 0.170248 0.514310 0.501494
Si Si2 0.613991 0.981274 0.596793
Si Si3 0.410877 0.401635 0.347023
Si Si4 0.486342 0.370740 0.964647
Si Si5 0.924567 0.990289 0.618670
Si Si6 0.865477 0.351566 0.112511
Si Si7 0.681828 0.011026 0.217964
O O1 0.292679 0.529976 0.386680
O O2 0.135740 0.748569 0.455181
O O3 0.240724 0.268031 0.660368
O O4 0.000000 0.500000 0.500000
O O5 0.573710 0.253845 0.437569
O O6 0.759258 0.905426 0.676747
O O7 0.449843 0.948731 0.692526
O O8 0.655635 0.813793 0.580911
O O9 0.432222 0.549363 0.180940
O O10 0.298927 0.449593 0.938249
O O11 0.500000 0.500000 0.000000
O O12 0.578388 0.104950 0.101637
O O13 0.000000 0.000000 0.500000
O O14 0.059260 0.824902 0.734599
O O15 0.811758 0.170497 0.136023
O O16 0.000000 0.500000 0.000000
#
# Coordination Sequence:
#
# PCOD9088712 Si02
#       7
#     2   2   2   2   2   2   2
#     4  11  23  43  62  94 135 164 208 272 323 369
#     4  10  20  37  64  96 121 169 218 251 309 388
#     4  10  20  36  67  89 127 169 209 256 318 372
#     4  10  19  37  62  96 121 168 215 246 309 391
#     4  12  25  40  66  97 127 163 219 268 318 376
#     4  11  22  38  62  96 131 165 208 268 312 376
#     4  10  21  40  66  91 128 171 214 254 316 383
#
# _framework density 20.104075999999999
#
# number of rings (size 3 to 8) (size 9 to 14) (size 15 to 20)
#    0.000    1.429    4.286    2.571    4.000    2.286 
#    0.000    2.143    0.000    3.429    0.000    0.000 
#    0.000    0.000    0.000    0.000    0.000    0.000 
#
# Total GULP energy -78019.668255 kJ/mol
# GULP energy per Si atom -5572.833447 kJ/mol
# Density = 2.005832 g / cm^3
# Si number density = 20.104076 Si / 1000 Ang^3
#
#
#
# Elastic Constant Matrix: (Units=GPa)
#
#
# Indices 1 2 3 4 5 6 
#
# 1 127.3128 38.2560 49.4142 -7.9347 22.9950 -14.1169
# 2 38.2560 111.3556 52.7227 5.6874 5.3573 -18.1447
# 3 49.4142 52.7227 153.2827 2.5915 31.9327 -20.9312
# 4 -7.9347 5.6874 2.5915 17.9106 -5.8680 0.1000
# 5 22.9950 5.3573 31.9327 -5.8680 47.7515 -6.5746
# 6 -14.1169 -18.1447 -20.9312 0.1000 -6.5746 21.2693
#
#
#
# Elastic Compliance Matrix: (Units=1/GPa)
#
#
# Indices 1 2 3 4 5 6 
#
# 1 0.010272 -0.002487 -0.001680 0.004699 -0.002664 0.002197
# 2 -0.002487 0.012424 -0.002945 -0.003931 0.002220 0.006754
# 3 -0.001680 -0.002945 0.009813 -0.002949 -0.005173 0.004444
# 4 0.004699 -0.003931 -0.002949 0.062097 0.007634 -0.001069
# 5 -0.002664 0.002220 -0.005173 0.007634 0.026826 0.003292
# 6 0.002197 0.006754 0.004444 -0.001069 0.003292 0.059632
#
#
# Mechanical properties :
#
#
# Convention : Reuss Voigt Hill
#
# Bulk Modulus (GPa) = 54.69567 74.74854 64.72211
# Shear Modulus (GPa) = 24.82834 34.15681 29.49257
#
# Velocity S-wave (km/s) = 3.51806 4.12636 3.83429
# Velocity P-wave (km/s) = 6.61571 7.74364 7.20179
#
# Compressibility (1/GPa) = 0.01828298
#
# Stress axis : x y z
#
# Youngs Moduli (GPa) = 97.35402 80.49175 101.90550
#
# Poissons Ratio (x) = 0.20019 0.17124
# Poissons Ratio (y) = 0.24213 0.30013
# Poissons Ratio (z) = 0.16360 0.23706
#
# Static dielectric constant tensor:
#      x y z
#    x 1.778380 0.008020 -0.011150 
#    y 0.008020 1.708670 -0.035450 
#    z -0.011150 -0.035450 1.804680 
# 
# From -- ./inp_files/299377.got.cif
#   From: 2010.05.17/outbox.cif.g08.bks.cpg/sg2_150_cif.got.tgz:299377.got - 2010.06.03 11:33:40.
