data_PCOD9088037
_publ_section_title
;
Structure prediction by ZEFSAII (Michael W. Deem and Ramdas Pophale) SiO2 
 PCOD9088037
Probable space group: P -1
;
_chemical_formula_sum "Si O2"
_cell_formula_units_Z 16
_cell_length_a 7.871115
_cell_length_b 20.780740
_cell_length_c 12.460542
_cell_angle_alpha 23.087608
_cell_angle_beta 123.708354
_cell_angle_gamma 121.763147
_cell_volume 664.070881
_symmetry_space_group_name_H-M "P -1"
_symmetry_group_IT_number 2
_symmetry_cell_setting 'triclinic'
loop_
_space_group_symop_operation_xyz
x,y,z
-x,-y,-z
loop_
_atom_site_type_symbol
_atom_site_label
_atom_site_fract_x
_atom_site_fract_y
_atom_site_fract_z
Si Si1 0.402215 0.447758 0.196296
Si Si2 0.868027 0.882245 0.214870
Si Si3 0.234412 0.479439 0.312196
Si Si4 0.496180 0.921316 0.246447
Si Si5 0.515153 0.209394 0.111635
Si Si6 0.725847 0.084486 0.585885
Si Si7 0.775410 0.972368 0.424570
Si Si8 0.791980 0.585199 0.041710
O O1 0.244221 0.478556 0.187356
O O2 0.448567 0.255735 0.503334
O O3 0.633264 0.525864 0.169044
O O4 0.298445 0.498615 0.970622
O O5 0.782990 0.717748 0.374973
O O6 0.037222 0.855254 0.407838
O O7 0.670449 0.981219 0.025633
O O8 0.000000 0.000000 0.000000
O O9 0.029846 0.548227 0.186078
O O10 0.429111 0.610438 0.196040
O O11 0.380389 0.899848 0.357778
O O12 0.701475 0.019194 0.208435
O O13 0.603672 0.188986 0.294951
O O14 0.299661 0.106637 0.172996
O O15 0.654228 0.085411 0.287263
O O16 0.757869 0.775758 0.725131
O O17 0.000000 0.000000 0.500000
#
# Coordination Sequence:
#
# PCOD9088037 Si02
#       8
#     2   2   2   2   2   2   2   2
#     4  10  23  35  60  92 126 159 205 267 310 364
#     4  10  22  41  64  87 123 174 214 255 313 372
#     4  12  24  36  65  97 125 162 214 265 311 379
#     4   9  20  40  58  85 120 168 209 246 312 370
#     4  10  22  35  59  99 127 157 208 260 326 371
#     4   9  20  37  63  88 129 165 199 264 316 376
#     4  10  19  37  58  86 125 167 198 257 314 379
#     4  10  21  37  58  90 132 158 201 258 322 368
#
# _framework density 24.093813999999998
#
# number of rings (size 3 to 8) (size 9 to 14) (size 15 to 20)
#    0.000    2.000    1.250    1.875   12.250    0.500 
#    0.000    5.625    0.000    0.750    0.000    0.000 
#    0.000    0.000    0.000    0.000    0.000    0.000 
#
# Total GULP energy -89128.759950 kJ/mol
# GULP energy per Si atom -5570.547497 kJ/mol
# Density = 2.403898 g / cm^3
# Si number density = 24.093814 Si / 1000 Ang^3
#
#
#
# Elastic Constant Matrix: (Units=GPa)
#
#
# Indices 1 2 3 4 5 6 
#
# 1 55.0628 11.7869 3.4761 -0.1138 6.0509 9.7507
# 2 11.7869 85.4012 27.0948 -10.0022 -0.3155 17.4426
# 3 3.4761 27.0948 84.6248 -21.4311 -7.4241 10.2212
# 4 -0.1138 -10.0022 -21.4311 37.9344 7.9408 -8.2245
# 5 6.0509 -0.3155 -7.4241 7.9408 44.8198 -0.3431
# 6 9.7507 17.4426 10.2212 -8.2245 -0.3431 39.3640
#
#
#
# Elastic Compliance Matrix: (Units=1/GPa)
#
#
# Indices 1 2 3 4 5 6 
#
# 1 0.019600 -0.001923 -0.000136 -0.000896 -0.002555 -0.004177
# 2 -0.001923 0.014209 -0.003767 0.000681 -0.000421 -0.004703
# 3 -0.000136 -0.003767 0.015014 0.007080 0.001219 -0.000706
# 4 -0.000896 0.000681 0.007080 0.032513 -0.004425 0.004836
# 5 -0.002555 -0.000421 0.001219 -0.004425 0.023638 -0.000215
# 6 -0.004177 -0.004703 -0.000706 0.004836 -0.000215 0.029714
#
#
# Mechanical properties :
#
#
# Convention : Reuss Voigt Hill
#
# Bulk Modulus (GPa) = 26.90285 34.42269 30.66277
# Shear Modulus (GPa) = 31.50019 36.60571 34.05295
#
# Velocity S-wave (km/s) = 3.61972 3.90205 3.76353
# Velocity P-wave (km/s) = 5.35350 5.88381 5.62491
#
# Compressibility (1/GPa) = 0.03717078
#
# Stress axis : x y z
#
# Youngs Moduli (GPa) = 51.02045 70.37959 66.60587
#
# Poissons Ratio (x) = 0.13536 0.00905
# Poissons Ratio (y) = 0.09813 0.25088
# Poissons Ratio (z) = 0.00693 0.26510
#
# Static dielectric constant tensor:
#      x y z
#    x 2.022060 -0.087410 -0.059880 
#    y -0.087410 1.824140 0.070840 
#    z -0.059880 0.070840 1.965520 
# 
# From -- ./inp_files/508578.got.cif
#   From: 2010.05.17/outbox.cif.g08.bks.cpg/sg2_255_cif.got.tgz:508578.got - 2010.06.03 11:33:40.
