data_PCOD9088041
_publ_section_title
;
Structure prediction by ZEFSAII (Michael W. Deem and Ramdas Pophale) SiO2 
 PCOD9088041
Probable space group: P -1
;
_chemical_formula_sum "Si O2"
_cell_formula_units_Z 16
_cell_length_a 21.079372
_cell_length_b 9.071030
_cell_length_c 20.476349
_cell_angle_alpha 41.732117
_cell_angle_beta 159.976311
_cell_angle_gamma 125.137302
_cell_volume 744.628742
_symmetry_space_group_name_H-M "P -1"
_symmetry_group_IT_number 2
_symmetry_cell_setting 'triclinic'
loop_
_space_group_symop_operation_xyz
x,y,z
-x,-y,-z
loop_
_atom_site_type_symbol
_atom_site_label
_atom_site_fract_x
_atom_site_fract_y
_atom_site_fract_z
Si Si1 0.198323 0.758334 0.083673
Si Si2 0.290594 0.641711 0.064203
Si Si3 0.879826 0.520369 0.268039
Si Si4 0.356518 0.260626 0.467747
Si Si5 0.516048 0.011056 0.840808
Si Si6 0.469427 0.274838 0.245192
Si Si7 0.789526 0.333280 0.454697
Si Si8 0.181747 0.891193 0.586604
O O1 0.266914 0.614613 0.127038
O O2 0.179745 0.564798 0.178567
O O3 0.405340 0.774777 0.298877
O O4 0.990072 0.052526 0.771790
O O5 0.425569 0.372062 0.244100
O O6 0.403737 0.810231 0.111496
O O7 0.044514 0.825935 0.736283
O O8 0.869016 0.272026 0.358884
O O9 0.118897 0.478079 0.516564
O O10 0.727632 0.753483 0.096644
O O11 0.758023 0.629124 0.045098
O O12 0.355103 0.175938 0.568840
O O13 0.369063 0.038450 0.507663
O O14 0.382543 0.926194 0.783888
O O15 0.576883 0.411228 0.265397
O O16 0.759575 0.266367 0.373911
#
# Coordination Sequence:
#
# PCOD9088041 Si02
#       8
#     2   2   2   2   2   2   2   2
#     4   9  18  37  63  83 107 149 188 233 278 326
#     4  10  23  38  53  84 122 147 185 230 281 335
#     4  11  21  37  61  84 112 144 197 237 271 327
#     4   9  17  36  63  82 112 143 189 233 278 326
#     4  10  19  37  58  87 109 148 188 239 270 330
#     4  11  23  37  55  84 120 151 182 230 284 334
#     4  11  20  36  60  88 105 150 191 233 275 331
#     4  11  21  36  63  83 107 153 194 230 279 328
#
# _framework density 21.487219
#
# number of rings (size 3 to 8) (size 9 to 14) (size 15 to 20)
#    0.000    1.750    7.500    0.750    0.000    2.500 
#    0.000    1.250    0.000    2.250    0.000    0.000 
#    0.000    0.000    0.000    0.000    0.000    0.000 
#
# Total GULP energy -89402.153909 kJ/mol
# GULP energy per Si atom -5587.634619 kJ/mol
# Density = 2.143831 g / cm^3
# Si number density = 21.487219 Si / 1000 Ang^3
#
#
#
# Elastic Constant Matrix: (Units=GPa)
#
#
# Indices 1 2 3 4 5 6 
#
# 1 23.7604 10.1801 1.4154 -3.5429 3.8433 3.3275
# 2 10.1801 65.1415 11.8388 17.0538 8.2182 11.5592
# 3 1.4154 11.8388 38.7787 11.5439 -2.6815 2.0186
# 4 -3.5429 17.0538 11.5439 29.9375 9.0845 -2.3823
# 5 3.8433 8.2182 -2.6815 9.0845 13.6642 -7.1791
# 6 3.3275 11.5592 2.0186 -2.3823 -7.1791 32.4073
#
#
#
# Elastic Compliance Matrix: (Units=1/GPa)
#
#
# Indices 1 2 3 4 5 6 
#
# 1 0.055826 -0.007870 -0.008489 0.023581 -0.032435 -0.007848
# 2 -0.007870 0.023239 -0.004093 -0.009946 -0.011469 -0.010498
# 3 -0.008489 -0.004093 0.035021 -0.020190 0.027664 0.004794
# 4 0.023581 -0.009946 -0.020190 0.064328 -0.049392 -0.003829
# 5 -0.032435 -0.011469 0.027664 -0.049392 0.145492 0.034298
# 6 -0.007848 -0.010498 0.004794 -0.003829 0.034298 0.042425
#
#
# Mechanical properties :
#
#
# Convention : Reuss Voigt Hill
#
# Bulk Modulus (GPa) = 13.66491 19.39435 16.52963
# Shear Modulus (GPa) = 11.58402 22.15156 16.86779
#
# Velocity S-wave (km/s) = 2.32440 3.21427 2.80485
# Velocity P-wave (km/s) = 3.68472 4.77713 4.26604
#
# Compressibility (1/GPa) = 0.07318012
#
# Stress axis : x y z
#
# Youngs Moduli (GPa) = 17.91273 43.03189 28.55469
#
# Poissons Ratio (x) = 0.33868 0.24240
# Poissons Ratio (y) = 0.14098 0.11688
# Poissons Ratio (z) = 0.15206 0.17614
#
# Static dielectric constant tensor:
#      x y z
#    x 1.781200 0.033050 -0.020830 
#    y 0.033050 1.800650 0.009080 
#    z -0.020830 0.009080 1.818030 
# 
# From -- ./inp_files/200620.got.cif
#   From: 2010.05.17/outbox.cif.g08.bks.cpg/sg2_101_cif.got.tgz:200620.got - 2010.06.03 11:33:40.
