data_PCOD9088779
_publ_section_title
;
Structure prediction by ZEFSAII (Michael W. Deem and Ramdas Pophale) SiO2 
 PCOD9088779
Probable space group: P -1
;
_chemical_formula_sum "Si O2"
_cell_formula_units_Z 16
_cell_length_a 27.012209
_cell_length_b 11.601493
_cell_length_c 10.095995
_cell_angle_alpha 125.069045
_cell_angle_beta 144.019505
_cell_angle_gamma 28.822471
_cell_volume 788.809312
_symmetry_space_group_name_H-M "P -1"
_symmetry_group_IT_number 2
_symmetry_cell_setting 'triclinic'
loop_
_space_group_symop_operation_xyz
x,y,z
-x,-y,-z
loop_
_atom_site_type_symbol
_atom_site_label
_atom_site_fract_x
_atom_site_fract_y
_atom_site_fract_z
Si Si1 0.309107 0.744787 0.245142
Si Si2 0.265273 0.834131 0.901870
Si Si3 0.173950 0.231495 0.271599
Si Si4 0.609327 0.052758 0.705346
Si Si5 0.266302 0.399822 0.233385
Si Si6 0.819271 0.315693 0.506500
Si Si7 0.140326 0.716792 0.930192
Si Si8 0.886196 0.415876 0.463723
O O1 0.500000 0.500000 0.500000
O O2 0.204289 0.029244 0.252851
O O3 0.266159 0.784382 0.023971
O O4 0.263737 0.670359 0.176217
O O5 0.293466 0.656210 0.756722
O O6 0.080488 0.151311 0.687209
O O7 0.383339 0.799339 0.124850
O O8 0.309190 0.056818 0.335250
O O9 0.183126 0.337275 0.472609
O O10 0.000000 0.500000 0.000000
O O11 0.717874 0.790508 0.854302
O O12 0.435239 0.227948 0.438358
O O13 0.245779 0.482832 0.393504
O O14 0.131195 0.651340 0.006962
O O15 0.862371 0.337670 0.480070
O O16 0.977051 0.020747 0.721189
O O17 0.190687 0.535083 0.804354
#
# Coordination Sequence:
#
# PCOD9088779 Si02
#       8
#     2   2   2   2   2   2   2   2
#     4  11  21  35  58  92 127 147 188 261 313 330
#     4  10  19  37  63  87 113 154 204 253 289 351
#     4  11  19  37  67  91 107 157 211 244 286 364
#     4  10  22  39  58  81 122 159 200 239 299 357
#     4  11  24  39  56  84 123 166 192 236 304 367
#     4  11  20  38  62  88 116 159 205 237 299 362
#     4  11  21  38  58  91 124 148 197 258 300 345
#     4  11  19  37  65  94 110 152 207 256 291 344
#
# _framework density 20.283736000000001
#
# number of rings (size 3 to 8) (size 9 to 14) (size 15 to 20)
#    0.000    1.250    6.250    2.625    0.000    0.500 
#    0.000    8.750    0.000    0.000    0.000    0.000 
#    0.000    0.000    0.000    0.000    0.000    0.000 
#
# Total GULP energy -89338.377914 kJ/mol
# GULP energy per Si atom -5583.648620 kJ/mol
# Density = 2.023757 g / cm^3
# Si number density = 20.283736 Si / 1000 Ang^3
#
#
#
# Elastic Constant Matrix: (Units=GPa)
#
#
# Indices 1 2 3 4 5 6 
#
# 1 46.2573 2.6494 -0.3048 14.3639 -6.7172 12.9974
# 2 2.6494 70.6572 22.1048 19.2097 -13.9974 11.9662
# 3 -0.3048 22.1048 35.5932 19.5865 -0.8598 -0.6516
# 4 14.3639 19.2097 19.5865 26.7801 -2.9111 4.4644
# 5 -6.7172 -13.9974 -0.8598 -2.9111 20.0864 -3.7110
# 6 12.9974 11.9662 -0.6516 4.4644 -3.7110 33.6766
#
#
#
# Elastic Compliance Matrix: (Units=1/GPa)
#
#
# Indices 1 2 3 4 5 6 
#
# 1 0.035207 0.006816 0.012723 -0.030146 0.010744 -0.010583
# 2 0.006816 0.024136 -0.008087 -0.012023 0.015521 -0.008059
# 3 0.012723 -0.008087 0.057642 -0.044419 -0.004526 0.004468
# 4 -0.030146 -0.012023 -0.044419 0.093600 -0.006439 0.001930
# 5 0.010744 0.015521 -0.004526 -0.006439 0.062700 -0.001986
# 6 -0.010583 -0.008059 0.004468 0.001930 -0.001986 0.036254
#
#
# Mechanical properties :
#
#
# Convention : Reuss Voigt Hill
#
# Bulk Modulus (GPa) = 7.14854 22.37849 14.76351
# Shear Modulus (GPa) = 15.00312 24.64584 19.82448
#
# Velocity S-wave (km/s) = 2.72262 3.48954 3.12966
# Velocity P-wave (km/s) = 3.66272 5.22423 4.51154
#
# Compressibility (1/GPa) = 0.13988875
#
# Stress axis : x y z
#
# Youngs Moduli (GPa) = 28.40371 41.43242 17.34838
#
# Poissons Ratio (x) = -0.28241 -0.22073
# Poissons Ratio (y) = -0.19360 0.14030
# Poissons Ratio (z) = -0.36139 0.33508
#
# Static dielectric constant tensor:
#      x y z
#    x 1.708340 0.002330 0.003640 
#    y 0.002330 1.750450 0.000320 
#    z 0.003640 0.000320 1.751620 
# 
# From -- ./inp_files/457370.got.cif
#   From: 2010.05.17/outbox.cif.g08.bks.cpg/sg2_229_cif.got.tgz:457370.got - 2010.06.03 11:33:40.
