data_PCOD9088580
_publ_section_title
;
Structure prediction by ZEFSAII (Michael W. Deem and Ramdas Pophale) SiO2 
 PCOD9088580
Probable space group: P -1
;
_chemical_formula_sum "Si O2"
_cell_formula_units_Z 16
_cell_length_a 5.267874
_cell_length_b 18.447426
_cell_length_c 13.509704
_cell_angle_alpha 34.270565
_cell_angle_beta 78.864184
_cell_angle_gamma 72.319010
_cell_volume 700.242594
_symmetry_space_group_name_H-M "P -1"
_symmetry_group_IT_number 2
_symmetry_cell_setting 'triclinic'
loop_
_space_group_symop_operation_xyz
x,y,z
-x,-y,-z
loop_
_atom_site_type_symbol
_atom_site_label
_atom_site_fract_x
_atom_site_fract_y
_atom_site_fract_z
Si Si1 0.092329 0.782321 0.282086
Si Si2 0.471922 0.212892 0.251718
Si Si3 0.779134 0.509572 0.420040
Si Si4 0.365928 0.060241 0.737747
Si Si5 0.175699 0.030258 0.570737
Si Si6 0.350558 0.198955 0.874507
Si Si7 0.637019 0.239796 0.426667
Si Si8 0.285526 0.495055 0.935514
O O1 0.126466 0.629622 0.489279
O O2 0.381682 0.798650 0.210692
O O3 0.927780 0.892826 0.244889
O O4 0.896974 0.800360 0.180097
O O5 0.276953 0.115748 0.381625
O O6 0.472583 0.253893 0.320584
O O7 0.757892 0.120169 0.302928
O O8 0.382807 0.348970 0.044780
O O9 0.500000 0.500000 0.500000
O O10 0.726271 0.661885 0.214319
O O11 0.000000 0.500000 0.500000
O O12 0.343263 0.021329 0.669531
O O13 0.473258 0.193309 0.577931
O O14 0.559903 0.936421 0.917587
O O15 0.885677 0.114151 0.528669
O O16 0.724810 0.376116 0.276144
O O17 0.500000 0.500000 0.000000
O O18 0.000000 0.500000 0.000000
#
# Coordination Sequence:
#
# PCOD9088580 Si02
#       8
#     2   2   2   2   2   2   2   2
#     4  10  21  38  62  85 113 159 199 237 291 352
#     4   9  19  37  60  84 108 160 198 233 291 354
#     4   8  16  34  58  82 105 144 197 238 278 344
#     4  11  24  35  54  90 122 151 193 249 295 342
#     4  10  20  36  57  83 120 150 195 241 293 344
#     4  10  21  38  62  84 114 158 199 236 291 355
#     4  10  21  36  58  85 120 154 194 248 291 343
#     4  10  19  37  62  85 109 150 198 239 281 352
#
# _framework density 22.849222999999999
#
# number of rings (size 3 to 8) (size 9 to 14) (size 15 to 20)
#    0.000    2.250    1.250    1.125    3.500    0.000 
#    0.000    2.500    2.750    0.000    0.000    0.000 
#    0.000    0.000    0.000    0.000    0.000    0.000 
#
# Total GULP energy -89241.070671 kJ/mol
# GULP energy per Si atom -5577.566917 kJ/mol
# Density = 2.279722 g / cm^3
# Si number density = 22.849223 Si / 1000 Ang^3
#
#
#
# Elastic Constant Matrix: (Units=GPa)
#
#
# Indices 1 2 3 4 5 6 
#
# 1 102.8505 2.1569 18.8132 3.5586 7.5183 -6.0813
# 2 2.1569 43.3715 48.7610 -12.9618 10.9370 4.9525
# 3 18.8132 48.7610 138.2280 -33.7766 -9.9799 -4.2090
# 4 3.5586 -12.9618 -33.7766 35.5379 -1.7191 10.6130
# 5 7.5183 10.9370 -9.9799 -1.7191 24.9630 -5.9796
# 6 -6.0813 4.9525 -4.2090 10.6130 -5.9796 23.4271
#
#
#
# Elastic Compliance Matrix: (Units=1/GPa)
#
#
# Indices 1 2 3 4 5 6 
#
# 1 0.011439 0.006470 -0.005595 -0.004671 -0.008722 0.000486
# 2 0.006470 0.083795 -0.034634 0.006207 -0.061868 -0.040860
# 3 -0.005595 -0.034634 0.025083 0.009030 0.030904 0.014173
# 4 -0.004671 0.006207 0.009030 0.045928 0.000277 -0.021638
# 5 -0.008722 -0.061868 0.030904 0.000277 0.091661 0.039637
# 6 0.000486 -0.040860 0.014173 -0.021638 0.039637 0.073916
#
#
# Mechanical properties :
#
#
# Convention : Reuss Voigt Hill
#
# Bulk Modulus (GPa) = 18.94054 47.10137 33.02096
# Shear Modulus (GPa) = 11.99213 31.10019 21.54616
#
# Velocity S-wave (km/s) = 2.29342 3.69332 3.07411
# Velocity P-wave (km/s) = 3.91413 6.23267 5.20416
#
# Compressibility (1/GPa) = 0.05279680
#
# Stress axis : x y z
#
# Youngs Moduli (GPa) = 87.42356 11.93389 39.86795
#
# Poissons Ratio (x) = -0.07721 0.22307
# Poissons Ratio (y) = -0.56561 1.38079
# Poissons Ratio (z) = 0.48916 0.41332
#
# Static dielectric constant tensor:
#      x y z
#    x 1.904500 0.040660 -0.033370 
#    y 0.040660 1.900610 -0.057140 
#    z -0.033370 -0.057140 1.942070 
# 
# From -- ./inp_files/113381.got.cif
#   From: 2010.05.17/outbox.cif.g08.bks.cpg/sg2_57_cif.got.tgz:113381.got - 2010.06.03 11:33:40.
