data_PCOD9088635
_publ_section_title
;
Structure prediction by ZEFSAII (Michael W. Deem and Ramdas Pophale) SiO2 
 PCOD9088635
Probable space group: P -1
;
_chemical_formula_sum "Si O2"
_cell_formula_units_Z 14
_cell_length_a 8.267596
_cell_length_b 18.131518
_cell_length_c 8.260010
_cell_angle_alpha 68.884861
_cell_angle_beta 143.129371
_cell_angle_gamma 124.226023
_cell_volume 604.151058
_symmetry_space_group_name_H-M "P -1"
_symmetry_group_IT_number 2
_symmetry_cell_setting 'triclinic'
loop_
_space_group_symop_operation_xyz
x,y,z
-x,-y,-z
loop_
_atom_site_type_symbol
_atom_site_label
_atom_site_fract_x
_atom_site_fract_y
_atom_site_fract_z
Si Si1 0.613060 0.135369 0.088022
Si Si2 0.698002 0.936531 0.415792
Si Si3 0.378820 0.399729 0.546524
Si Si4 0.574557 0.906991 0.684117
Si Si5 0.652355 0.318079 0.065059
Si Si6 0.783156 0.767417 0.644401
Si Si7 0.085026 0.204773 0.916633
O O1 0.459626 0.074553 0.169027
O O2 0.548753 0.220479 0.970908
O O3 0.979604 0.185887 0.350758
O O4 0.549090 0.085112 0.905821
O O5 0.677391 0.969198 0.555036
O O6 0.653056 0.836772 0.500139
O O7 0.000000 0.000000 0.500000
O O8 0.500000 0.500000 0.500000
O O9 0.399509 0.336157 0.472245
O O10 0.020820 0.360282 0.349253
O O11 0.584891 0.387851 0.857657
O O12 0.223371 0.828490 0.412172
O O13 0.836968 0.877066 0.938022
O O14 0.406232 0.284860 0.040067
O O15 0.939620 0.768640 0.940471
#
# Coordination Sequence:
#
# PCOD9088635 Si02
#       7
#     2   2   2   2   2   2   2
#     4  10  20  38  63  85 122 166 206 248 313 359
#     4  11  23  40  60  91 126 162 210 259 304 367
#     4  11  22  38  61  92 122 159 205 250 304 368
#     4  10  22  37  60  91 122 161 209 253 302 365
#     4  10  20  37  61  88 120 160 204 248 303 367
#     4  10  21  39  63  85 123 164 204 250 313 364
#     4  10  19  37  62  89 118 161 206 252 303 364
#
# _framework density 23.173013999999998
#
# number of rings (size 3 to 8) (size 9 to 14) (size 15 to 20)
#    0.000    1.714    2.857    3.000    2.000    1.143 
#    0.000    2.143    0.000    0.000    0.000    0.000 
#    0.000    0.000    0.000    0.000    0.000    0.000 
#
# Total GULP energy -77958.410541 kJ/mol
# GULP energy per Si atom -5568.457896 kJ/mol
# Density = 2.312027 g / cm^3
# Si number density = 23.173014 Si / 1000 Ang^3
#
#
#
# Elastic Constant Matrix: (Units=GPa)
#
#
# Indices 1 2 3 4 5 6 
#
# 1 124.4210 21.8928 9.3287 2.5543 -18.9572 27.8146
# 2 21.8928 112.1782 18.3662 -22.6021 1.5316 0.6740
# 3 9.3287 18.3662 80.1787 -10.1516 14.7448 -0.9520
# 4 2.5543 -22.6021 -10.1516 38.4054 2.1262 6.0246
# 5 -18.9572 1.5316 14.7448 2.1262 40.5063 1.7741
# 6 27.8146 0.6740 -0.9520 6.0246 1.7741 28.6235
#
#
#
# Elastic Compliance Matrix: (Units=1/GPa)
#
#
# Indices 1 2 3 4 5 6 
#
# 1 0.012618 -0.002335 -0.002649 -0.001376 0.007576 -0.012474
# 2 -0.002335 0.010818 -0.001150 0.006178 -0.001441 0.000765
# 3 -0.002649 -0.001150 0.014763 0.003340 -0.006869 0.002815
# 4 -0.001376 0.006178 0.003340 0.031650 -0.003530 -0.005140
# 5 0.007576 -0.001441 -0.006869 -0.003530 0.031357 -0.008757
# 6 -0.012474 0.000765 0.002815 -0.005140 -0.008757 0.048759
#
#
# Mechanical properties :
#
#
# Convention : Reuss Voigt Hill
#
# Bulk Modulus (GPa) = 38.56251 46.21702 42.38977
# Shear Modulus (GPa) = 29.26097 39.31971 34.29034
#
# Velocity S-wave (km/s) = 3.55733 4.12368 3.85093
# Velocity P-wave (km/s) = 5.79224 6.53151 6.17295
#
# Compressibility (1/GPa) = 0.02593192
#
# Stress axis : x y z
#
# Youngs Moduli (GPa) = 79.25235 92.43776 67.73533
#
# Poissons Ratio (x) = 0.21580 0.17943
# Poissons Ratio (y) = 0.18502 0.07791
# Poissons Ratio (z) = 0.20993 0.10633
#
# Static dielectric constant tensor:
#      x y z
#    x 1.994510 -0.060800 0.001810 
#    y -0.060800 1.981310 0.048290 
#    z 0.001810 0.048290 1.946280 
# 
# From -- ./inp_files/36046.got.cif
#   From: 2010.05.17/outbox.cif.g08.bks.cpg/sg2_19_cif.got.tgz:36046.got - 2010.06.03 11:33:40.
