data_PCOD9088079
_publ_section_title
;
Structure prediction by ZEFSAII (Michael W. Deem and Ramdas Pophale) SiO2 
 PCOD9088079
Probable space group: P -1
;
_chemical_formula_sum "Si O2"
_cell_formula_units_Z 16
_cell_length_a 25.594132
_cell_length_b 9.413513
_cell_length_c 10.810073
_cell_angle_alpha 123.961893
_cell_angle_beta 21.797705
_cell_angle_gamma 125.637700
_cell_volume 784.653189
_symmetry_space_group_name_H-M "P -1"
_symmetry_group_IT_number 2
_symmetry_cell_setting 'triclinic'
loop_
_space_group_symop_operation_xyz
x,y,z
-x,-y,-z
loop_
_atom_site_type_symbol
_atom_site_label
_atom_site_fract_x
_atom_site_fract_y
_atom_site_fract_z
Si Si1 0.250417 0.068788 0.692501
Si Si2 0.006241 0.122308 0.428743
Si Si3 0.298601 0.688010 0.323693
Si Si4 0.051422 0.505944 0.589621
Si Si5 0.153814 0.110073 0.669757
Si Si6 0.481008 0.685403 0.683176
Si Si7 0.211438 0.807517 0.233359
Si Si8 0.866924 0.529724 0.220598
O O1 0.238652 0.169958 0.638828
O O2 0.370646 0.173460 0.570123
O O3 0.286491 0.883165 0.484475
O O4 0.097242 0.049698 0.087557
O O5 0.082010 0.321387 0.391977
O O6 0.847033 0.130476 0.734975
O O7 0.000000 0.000000 0.500000
O O8 0.166307 0.604692 0.484146
O O9 0.272976 0.572909 0.449066
O O10 0.428243 0.681948 0.941568
O O11 0.079127 0.649324 0.490032
O O12 0.902095 0.469152 0.975785
O O13 0.137150 0.268470 0.695035
O O14 0.225611 0.970861 0.373750
O O15 0.000000 0.000000 0.000000
O O16 0.500000 0.500000 0.500000
O O17 0.357449 0.740100 0.896323
O O18 0.000000 0.500000 0.000000
#
# Coordination Sequence:
#
# PCOD9088079 Si02
#       8
#     2   2   2   2   2   2   2   2
#     4  12  22  43  71  95 128 174 224 261 324 396
#     4  12  26  38  66 104 137 169 209 273 338 386
#     4  10  21  38  64  94 126 169 218 266 322 381
#     4  10  19  37  58  94 133 166 210 262 321 384
#     4  12  20  38  67 105 125 168 220 275 316 388
#     4  11  25  46  68  92 130 177 222 269 323 394
#     4  11  23  41  67  96 129 171 228 261 324 388
#     4  10  20  33  61  93 137 164 204 267 329 376
#
# _framework density 20.391175
#
# number of rings (size 3 to 8) (size 9 to 14) (size 15 to 20)
#    0.000    1.000    5.000    3.750    3.500    1.000 
#    0.000    1.250    0.000    0.000    0.000    0.000 
#    0.000    0.000    0.000    0.000    0.000    0.000 
#
# Total GULP energy -89259.069777 kJ/mol
# GULP energy per Si atom -5578.691861 kJ/mol
# Density = 2.034476 g / cm^3
# Si number density = 20.391175 Si / 1000 Ang^3
#
#
#
# Elastic Constant Matrix: (Units=GPa)
#
#
# Indices 1 2 3 4 5 6 
#
# 1 98.1708 54.0536 28.4968 11.0533 -21.4834 -12.2496
# 2 54.0536 99.9755 33.4262 31.6355 -3.4321 -6.9544
# 3 28.4968 33.4262 82.3267 27.5514 -12.0161 1.3446
# 4 11.0533 31.6355 27.5514 38.6423 5.5546 3.7216
# 5 -21.4834 -3.4321 -12.0161 5.5546 25.7974 4.0640
# 6 -12.2496 -6.9544 1.3446 3.7216 4.0640 48.5340
#
#
#
# Elastic Compliance Matrix: (Units=1/GPa)
#
#
# Indices 1 2 3 4 5 6 
#
# 1 0.018829 -0.009545 -0.001097 0.001082 0.013317 0.002217
# 2 -0.009545 0.019289 -0.001082 -0.011930 -0.003570 0.001599
# 3 -0.001097 -0.001082 0.019314 -0.014088 0.011101 -0.000816
# 4 0.001082 -0.011930 -0.014088 0.048156 -0.017095 -0.003307
# 5 0.013317 -0.003570 0.011101 -0.017095 0.058394 -0.001037
# 6 0.002217 0.001599 -0.000816 -0.003307 -0.001037 0.021756
#
#
# Mechanical properties :
#
#
# Convention : Reuss Voigt Hill
#
# Bulk Modulus (GPa) = 29.42579 56.93625 43.18102
# Shear Modulus (GPa) = 22.67440 33.56117 28.11778
#
# Velocity S-wave (km/s) = 3.33824 4.06133 3.71741
# Velocity P-wave (km/s) = 5.41484 7.06931 6.29665
#
# Compressibility (1/GPa) = 0.03398379
#
# Stress axis : x y z
#
# Youngs Moduli (GPa) = 53.10888 51.84420 51.77590
#
# Poissons Ratio (x) = 0.49484 0.05680
# Poissons Ratio (y) = 0.50691 0.05604
# Poissons Ratio (z) = 0.05826 0.05611
#
# Static dielectric constant tensor:
#      x y z
#    x 1.766000 0.008420 0.029220 
#    y 0.008420 1.702050 -0.062040 
#    z 0.029220 -0.062040 1.754890 
# 
# From -- ./inp_files/354538.got.cif
#   From: 2010.05.17/outbox.cif.g08.bks.cpg/sg2_178_cif.got.tgz:354538.got - 2010.06.03 11:33:40.
