data_PCOD9088229
_publ_section_title
;
Structure prediction by ZEFSAII (Michael W. Deem and Ramdas Pophale) SiO2 
 PCOD9088229
Probable space group: P -1
;
_chemical_formula_sum "Si O2"
_cell_formula_units_Z 16
_cell_length_a 11.722967
_cell_length_b 11.211067
_cell_length_c 8.042971
_cell_angle_alpha 83.803348
_cell_angle_beta 103.751941
_cell_angle_gamma 143.196152
_cell_volume 608.911670
_symmetry_space_group_name_H-M "P -1"
_symmetry_group_IT_number 2
_symmetry_cell_setting 'triclinic'
loop_
_space_group_symop_operation_xyz
x,y,z
-x,-y,-z
loop_
_atom_site_type_symbol
_atom_site_label
_atom_site_fract_x
_atom_site_fract_y
_atom_site_fract_z
Si Si1 0.536374 0.116180 0.154069
Si Si2 0.628556 0.470711 0.517209
Si Si3 0.246094 0.498031 0.998389
Si Si4 0.398974 0.361041 0.768637
Si Si5 0.789216 0.138844 0.390705
Si Si6 0.962991 0.059588 0.324791
Si Si7 0.156542 0.848064 0.225414
Si Si8 0.164870 0.569356 0.305927
O O1 0.604755 0.074585 0.320459
O O2 0.343198 0.028915 0.152663
O O3 0.693271 0.345338 0.127234
O O4 0.500000 0.000000 0.000000
O O5 0.451164 0.347328 0.602847
O O6 0.601872 0.503045 0.319309
O O7 0.667560 0.360870 0.540293
O O8 0.822417 0.696390 0.636809
O O9 0.421519 0.546531 0.078060
O O10 0.193293 0.527719 0.144518
O O11 0.045031 0.273729 0.903566
O O12 0.186245 0.149126 0.799115
O O13 0.812738 0.049136 0.285844
O O14 0.820898 0.101678 0.582882
O O15 0.969236 0.371627 0.365654
O O16 0.000000 0.000000 0.500000
O O17 0.159954 0.705357 0.254643
#
# Coordination Sequence:
#
# PCOD9088229 Si02
#       8
#     2   2   2   2   2   2   2   2
#     4  12  23  38  59  87 120 162 206 238 290 362
#     4   8  17  31  55  87 108 141 195 246 289 331
#     4  11  22  37  58  87 122 161 199 243 296 352
#     4   9  17  33  56  86 111 142 196 249 288 337
#     4  11  23  38  59  90 121 156 198 247 308 350
#     4   9  18  35  58  83 110 144 194 249 286 341
#     4  12  24  39  55  88 131 158 193 248 298 356
#     4  10  19  37  60  83 117 158 198 240 289 351
#
# _framework density 26.276389000000002
#
# number of rings (size 3 to 8) (size 9 to 14) (size 15 to 20)
#    0.000    1.750    2.500    2.625    1.750    2.000 
#    0.000    0.000    0.000    6.750    0.000   43.750 
#    0.000    0.000    0.000    0.000    0.000    0.000 
#
# Total GULP energy -89355.715198 kJ/mol
# GULP energy per Si atom -5584.732200 kJ/mol
# Density = 2.621658 g / cm^3
# Si number density = 26.276389 Si / 1000 Ang^3
#
#
#
# Elastic Constant Matrix: (Units=GPa)
#
#
# Indices 1 2 3 4 5 6 
#
# 1 93.3696 25.0119 24.7558 13.0914 19.9048 0.0818
# 2 25.0119 89.6707 -1.9634 -4.0482 -1.7363 30.3610
# 3 24.7558 -1.9634 74.5997 15.5424 16.5696 9.5769
# 4 13.0914 -4.0482 15.5424 37.5720 11.9358 11.2591
# 5 19.9048 -1.7363 16.5696 11.9358 40.5315 2.3338
# 6 0.0818 30.3610 9.5769 11.2591 2.3338 34.7974
#
#
#
# Elastic Compliance Matrix: (Units=1/GPa)
#
#
# Indices 1 2 3 4 5 6 
#
# 1 0.016365 -0.008964 -0.004612 -0.006537 -0.005273 0.011520
# 2 -0.008964 0.022448 0.004040 0.010482 0.002019 -0.024204
# 3 -0.004612 0.004040 0.017157 -0.001659 -0.003658 -0.007454
# 4 -0.006537 0.010482 -0.001659 0.038828 -0.005897 -0.020842
# 5 -0.005273 0.002019 -0.003658 -0.005897 0.030631 -0.000889
# 6 0.011520 -0.024204 -0.007454 -0.020842 -0.000889 0.058684
#
#
# Mechanical properties :
#
#
# Convention : Reuss Voigt Hill
#
# Bulk Modulus (GPa) = 27.10122 39.24984 33.17553
# Shear Modulus (GPa) = 23.20366 36.56922 29.88644
#
# Velocity S-wave (km/s) = 2.97486 3.73462 3.37618
# Velocity P-wave (km/s) = 4.70489 5.79363 5.27741
#
# Compressibility (1/GPa) = 0.03689871
#
# Stress axis : x y z
#
# Youngs Moduli (GPa) = 61.10661 44.54737 58.28566
#
# Poissons Ratio (x) = 0.39930 0.26883
# Poissons Ratio (y) = 0.54773 -0.23549
# Poissons Ratio (z) = 0.28184 -0.17998
#
# Static dielectric constant tensor:
#      x y z
#    x 2.098110 -0.016080 -0.018520 
#    y -0.016080 2.219810 0.062210 
#    z -0.018520 0.062210 2.095540 
# 
# From -- ./inp_files/291630.got.cif
#   From: 2010.05.17/outbox.cif.g08.bks.cpg/sg2_146_cif.got.tgz:291630.got - 2010.06.03 11:33:40.
