data_PCOD9088088
_publ_section_title
;
Structure prediction by ZEFSAII (Michael W. Deem and Ramdas Pophale) SiO2 
 PCOD9088088
Probable space group: P -1
;
_chemical_formula_sum "Si O2"
_cell_formula_units_Z 16
_cell_length_a 7.598807
_cell_length_b 10.296044
_cell_length_c 16.223057
_cell_angle_alpha 55.650632
_cell_angle_beta 55.069174
_cell_angle_gamma 42.999613
_cell_volume 685.235358
_symmetry_space_group_name_H-M "P -1"
_symmetry_group_IT_number 2
_symmetry_cell_setting 'triclinic'
loop_
_space_group_symop_operation_xyz
x,y,z
-x,-y,-z
loop_
_atom_site_type_symbol
_atom_site_label
_atom_site_fract_x
_atom_site_fract_y
_atom_site_fract_z
Si Si1 0.865003 0.871330 0.496290
Si Si2 0.905447 0.373041 0.998687
Si Si3 0.568436 0.230138 0.089956
Si Si4 0.840772 0.418302 0.606687
Si Si5 0.996673 0.182846 0.209645
Si Si6 0.246004 0.716141 0.596263
Si Si7 0.580374 0.707193 0.708419
Si Si8 0.566185 0.914189 0.106055
O O1 0.653293 0.833784 0.595080
O O2 0.970616 0.801874 0.399964
O O3 0.122586 0.724983 0.538920
O O4 0.762903 0.089716 0.465771
O O5 0.818263 0.235476 0.039971
O O6 0.982204 0.322030 0.092476
O O7 0.637320 0.590628 0.979813
O O8 0.165058 0.305842 0.899408
O O9 0.412399 0.282194 0.199712
O O10 0.630076 0.034905 0.104002
O O11 0.546208 0.533011 0.603648
O O12 0.773374 0.487363 0.695203
O O13 0.000000 0.500000 0.500000
O O14 0.284752 0.971865 0.195240
O O15 0.956749 0.252790 0.289079
O O16 0.725376 0.206520 0.258201
O O17 0.500000 0.000000 0.000000
#
# Coordination Sequence:
#
# PCOD9088088 Si02
#       8
#     2   2   2   2   2   2   2   2
#     4  10  20  36  58  80 109 145 181 226 274 321
#     4   9  20  37  58  82 108 146 183 220 271 321
#     4  10  19  37  59  80 112 145 180 225 270 321
#     4   9  19  35  54  79 108 140 180 223 267 320
#     4   9  19  35  53  80 112 140 181 223 264 322
#     4  10  20  36  57  82 110 145 182 222 275 324
#     4   9  19  36  57  80 109 146 183 224 271 320
#     4  10  20  35  55  81 110 142 181 225 270 321
#
# _framework density 23.349644000000001
#
# number of rings (size 3 to 8) (size 9 to 14) (size 15 to 20)
#    0.000    2.500    0.000    1.500    0.000    6.500 
#    0.000   25.000    0.000    0.000    0.000    0.000 
#    0.000    0.000    0.000    0.000    0.000    0.000 
#
# Total GULP energy -89326.860106 kJ/mol
# GULP energy per Si atom -5582.928757 kJ/mol
# Density = 2.329650 g / cm^3
# Si number density = 23.349644 Si / 1000 Ang^3
#
#
#
# Elastic Constant Matrix: (Units=GPa)
#
#
# Indices 1 2 3 4 5 6 
#
# 1 72.0003 -2.3364 15.6003 15.6005 -9.5233 14.3030
# 2 -2.3364 58.0107 31.8775 28.4072 -1.9285 8.4690
# 3 15.6003 31.8775 104.7724 34.3454 -0.8249 5.1360
# 4 15.6005 28.4072 34.3454 38.0049 -5.8343 1.0532
# 5 -9.5233 -1.9285 -0.8249 -5.8343 46.5667 10.0902
# 6 14.3030 8.4690 5.1360 1.0532 10.0902 30.2821
#
#
#
# Elastic Compliance Matrix: (Units=1/GPa)
#
#
# Indices 1 2 3 4 5 6 
#
# 1 0.021307 0.010880 -0.000896 -0.014735 0.006081 -0.014469
# 2 0.010880 0.034574 -0.002508 -0.027121 0.003370 -0.014562
# 3 -0.000896 -0.002508 0.013893 -0.010493 -0.001259 -0.000447
# 4 -0.014735 -0.027121 -0.010493 0.061784 0.000374 0.014051
# 5 0.006081 0.003370 -0.001259 0.000374 0.025507 -0.012113
# 6 -0.014469 -0.014562 -0.000447 0.014051 -0.012113 0.047553
#
#
# Mechanical properties :
#
#
# Convention : Reuss Voigt Hill
#
# Bulk Modulus (GPa) = 11.80267 36.11844 23.96056
# Shear Modulus (GPa) = 22.94561 35.61355 29.27958
#
# Velocity S-wave (km/s) = 3.13820 3.90965 3.54498
# Velocity P-wave (km/s) = 4.26577 5.99021 5.19997
#
# Compressibility (1/GPa) = 0.08472657
#
# Stress axis : x y z
#
# Youngs Moduli (GPa) = 46.93239 28.92385 71.97922
#
# Poissons Ratio (x) = -0.31470 0.06446
# Poissons Ratio (y) = -0.51064 0.18055
# Poissons Ratio (z) = 0.04203 0.07255
#
# Static dielectric constant tensor:
#      x y z
#    x 1.924960 0.021860 -0.001580 
#    y 0.021860 1.901110 -0.026540 
#    z -0.001580 -0.026540 1.895880 
# 
# From -- ./inp_files/446630.got.cif
#   From: 2010.05.17/outbox.cif.g08.bks.cpg/sg2_224_cif.got.tgz:446630.got - 2010.06.03 11:33:40.
