data_PCOD9088009
_publ_section_title
;
Structure prediction by ZEFSAII (Michael W. Deem and Ramdas Pophale) SiO2 
 PCOD9088009
Probable space group: P -1
;
_chemical_formula_sum "Si O2"
_cell_formula_units_Z 16
_cell_length_a 6.386643
_cell_length_b 8.618521
_cell_length_c 23.757158
_cell_angle_alpha 128.245853
_cell_angle_beta 64.464793
_cell_angle_gamma 84.821100
_cell_volume 800.414146
_symmetry_space_group_name_H-M "P -1"
_symmetry_group_IT_number 2
_symmetry_cell_setting 'triclinic'
loop_
_space_group_symop_operation_xyz
x,y,z
-x,-y,-z
loop_
_atom_site_type_symbol
_atom_site_label
_atom_site_fract_x
_atom_site_fract_y
_atom_site_fract_z
Si Si1 0.643864 0.664729 0.776472
Si Si2 0.104147 0.744655 0.911486
Si Si3 0.101990 0.514853 0.183785
Si Si4 0.650490 0.440169 0.048741
Si Si5 0.720909 0.608508 0.622899
Si Si6 0.211660 0.679370 0.548220
Si Si7 0.814230 0.995836 0.286178
Si Si8 0.314349 0.886278 0.123718
O O1 0.377041 0.669393 0.829281
O O2 0.877688 0.492079 0.752844
O O3 0.683780 0.608169 0.693535
O O4 0.622970 0.910172 0.844033
O O5 0.153437 0.605365 0.932518
O O6 0.912488 0.701935 0.884688
O O7 0.000000 0.000000 0.000000
O O8 0.372931 0.490132 0.121287
O O9 0.860885 0.745018 0.236622
O O10 0.569293 0.664616 0.072197
O O11 0.743848 0.219365 0.948821
O O12 0.765554 0.381530 0.534138
O O13 0.980647 0.632389 0.586870
O O14 0.463244 0.825366 0.672012
O O15 0.500000 0.500000 0.500000
O O16 0.156574 0.913278 0.635551
O O17 0.056371 0.972187 0.213643
#
# Coordination Sequence:
#
# PCOD9088009 Si02
#       8
#     2   2   2   2   2   2   2   2
#     4  11  23  36  58  87 117 151 197 242 283 346
#     4  11  23  37  56  78 121 165 198 234 293 340
#     4  10  23  39  54  82 122 160 192 236 294 340
#     4   9  21  38  53  81 117 157 197 245 287 337
#     4  10  21  35  64  94 111 147 195 237 291 353
#     4   9  19  39  62  90 120 143 184 242 301 345
#     4  10  21  37  62  86 116 151 192 242 290 345
#     4  10  19  37  58  83 117 148 200 251 284 329
#
# _framework density 19.989650000000001
#
# number of rings (size 3 to 8) (size 9 to 14) (size 15 to 20)
#    0.000    2.000    1.250    1.500    5.250    3.000 
#    0.000    3.125    0.000    7.500    0.000    0.000 
#    0.000    0.000    0.000    0.000    0.000    0.000 
#
# Total GULP energy -89274.542241 kJ/mol
# GULP energy per Si atom -5579.658890 kJ/mol
# Density = 1.994415 g / cm^3
# Si number density = 19.989650 Si / 1000 Ang^3
#
#
#
# Elastic Constant Matrix: (Units=GPa)
#
#
# Indices 1 2 3 4 5 6 
#
# 1 70.2521 19.5301 23.6028 -8.7595 14.1085 -15.4009
# 2 19.5301 63.7683 19.0675 -6.9963 13.8437 -10.2330
# 3 23.6028 19.0675 94.0865 -9.8555 26.6870 -16.6665
# 4 -8.7595 -6.9963 -9.8555 19.3158 -5.1238 10.5383
# 5 14.1085 13.8437 26.6870 -5.1238 38.1623 -7.7742
# 6 -15.4009 -10.2330 -16.6665 10.5383 -7.7742 26.0381
#
#
#
# Elastic Compliance Matrix: (Units=1/GPa)
#
#
# Indices 1 2 3 4 5 6 
#
# 1 0.017916 -0.003115 -0.001724 0.001708 -0.002678 0.006778
# 2 -0.003115 0.018497 -0.001160 0.002231 -0.003915 0.002612
# 3 -0.001724 -0.001160 0.014566 0.001458 -0.007936 0.004888
# 4 0.001708 0.002231 0.001458 0.067680 0.001726 -0.024056
# 5 -0.002678 -0.003915 -0.007936 0.001726 0.034692 0.001457
# 6 0.006778 0.002612 0.004888 -0.024056 0.001457 0.056741
#
#
# Mechanical properties :
#
#
# Convention : Reuss Voigt Hill
#
# Bulk Modulus (GPa) = 25.65403 39.16752 32.41077
# Shear Modulus (GPa) = 21.26894 27.76370 24.51632
#
# Velocity S-wave (km/s) = 3.26544 3.73084 3.50587
# Velocity P-wave (km/s) = 5.20374 6.18024 5.71289
#
# Compressibility (1/GPa) = 0.03898023
#
# Stress axis : x y z
#
# Youngs Moduli (GPa) = 55.81454 54.06381 68.65436
#
# Poissons Ratio (x) = 0.16842 0.11836
# Poissons Ratio (y) = 0.17387 0.07965
# Poissons Ratio (z) = 0.09623 0.06272
#
# Static dielectric constant tensor:
#      x y z
#    x 1.717980 -0.030620 0.020410 
#    y -0.030620 1.708030 0.012940 
#    z 0.020410 0.012940 1.725530 
# 
# From -- ./inp_files/44579.got.cif
#   From: 2010.05.17/outbox.cif.g08.bks.cpg/sg2_23_cif.got.tgz:44579.got - 2010.06.03 11:33:40.
