data_PCOD9088530
_publ_section_title
;
Structure prediction by ZEFSAII (Michael W. Deem and Ramdas Pophale) SiO2 
 PCOD9088530
Probable space group: P -1
;
_chemical_formula_sum "Si O2"
_cell_formula_units_Z 11
_cell_length_a 11.061359
_cell_length_b 14.096779
_cell_length_c 15.029210
_cell_angle_alpha 159.599682
_cell_angle_beta 145.951335
_cell_angle_gamma 32.837574
_cell_volume 432.394384
_symmetry_space_group_name_H-M "P -1"
_symmetry_group_IT_number 2
_symmetry_cell_setting 'triclinic'
loop_
_space_group_symop_operation_xyz
x,y,z
-x,-y,-z
loop_
_atom_site_type_symbol
_atom_site_label
_atom_site_fract_x
_atom_site_fract_y
_atom_site_fract_z
Si Si1 0.500000 0.000000 0.500000
Si Si2 0.610360 0.219769 0.131870
Si Si3 0.622591 0.475853 0.925439
Si Si4 0.948015 0.833100 0.737061
Si Si5 0.117930 0.092169 0.522573
Si Si6 0.359636 0.782999 0.579292
O O1 0.541830 0.650947 0.231386
O O2 0.689633 0.978059 0.675652
O O3 0.506663 0.352269 0.088863
O O4 0.491002 0.464816 0.345640
O O5 0.877873 0.155537 0.225617
O O6 0.533228 0.943109 0.857610
O O7 0.787885 0.165762 0.715855
O O8 0.778448 0.656193 0.215894
O O9 0.000000 0.500000 0.500000
O O10 0.000000 0.000000 0.000000
O O11 0.848043 0.195452 0.462239
O O12 0.231987 0.959138 0.569119
#
# Coordination Sequence:
#
# PCOD9088530 Si02
#       6
#     1   2   2   2   2   2
#     4  12  28  46  72 100 140 190 224 286 348 398
#     4  10  19  37  61  93 129 170 220 275 333 400
#     4  10  21  35  61  91 133 172 221 271 330 400
#     4  12  27  46  70 100 139 183 232 285 337 409
#     4   9  18  33  56  95 127 167 222 271 326 405
#     4   9  17  32  61  90 128 169 215 274 337 391
#
# _framework density 25.439737000000001
#
# number of rings (size 3 to 8) (size 9 to 14) (size 15 to 20)
#    0.000    1.818    1.818    2.182    5.091    7.273 
#    0.000    0.000    0.000    6.545    0.000    0.000 
#    0.000    0.000    0.000    0.000    0.000    0.000 
#
# Total GULP energy -61420.065800 kJ/mol
# GULP energy per Si atom -5583.642345 kJ/mol
# Density = 2.538184 g / cm^3
# Si number density = 25.439737 Si / 1000 Ang^3
#
#
#
# Elastic Constant Matrix: (Units=GPa)
#
#
# Indices 1 2 3 4 5 6 
#
# 1 149.5819 37.7214 9.3263 4.2606 22.5181 -25.0207
# 2 37.7214 134.4315 26.3817 -22.2268 7.5349 11.9608
# 3 9.3263 26.3817 207.3594 16.7833 20.9942 -0.0081
# 4 4.2606 -22.2268 16.7833 34.7868 -1.8794 0.6983
# 5 22.5181 7.5349 20.9942 -1.8794 43.6665 4.6273
# 6 -25.0207 11.9608 -0.0081 0.6983 4.6273 47.0965
#
#
#
# Elastic Compliance Matrix: (Units=1/GPa)
#
#
# Indices 1 2 3 4 5 6 
#
# 1 0.009784 -0.004014 0.001038 -0.004714 -0.005781 0.006856
# 2 -0.004014 0.010739 -0.002098 0.008586 0.002146 -0.005199
# 3 0.001038 -0.002098 0.005734 -0.004441 -0.003277 0.001473
# 4 -0.004714 0.008586 -0.004441 0.037354 0.005303 -0.005760
# 5 -0.005781 0.002146 -0.003277 0.005303 0.027999 -0.006447
# 6 0.006856 -0.005199 0.001473 -0.005760 -0.006447 0.026914
#
#
# Mechanical properties :
#
#
# Convention : Reuss Voigt Hill
#
# Bulk Modulus (GPa) = 62.08260 70.91460 66.49860
# Shear Modulus (GPa) = 37.30135 52.97286 45.13710
#
# Velocity S-wave (km/s) = 3.83334 4.56816 4.21678
# Velocity P-wave (km/s) = 6.63697 7.46727 7.06433
#
# Compressibility (1/GPa) = 0.01610757
#
# Stress axis : x y z
#
# Youngs Moduli (GPa) = 102.20459 93.12094 174.39530
#
# Poissons Ratio (x) = 0.37383 -0.18099
# Poissons Ratio (y) = 0.41030 0.36590
# Poissons Ratio (z) = -0.10607 0.19538
#
# Static dielectric constant tensor:
#      x y z
#    x 2.054030 0.176670 -0.130180 
#    y 0.176670 2.257660 -0.225000 
#    z -0.130180 -0.225000 2.071390 
# 
# From -- ./inp_files/40968.got.cif
#   From: 2010.05.17/outbox.cif.g08.bks.cpg/sg2_21_cif.got.tgz:40968.got - 2010.06.03 11:33:40.
