data_PCOD9088651
_publ_section_title
;
Structure prediction by ZEFSAII (Michael W. Deem and Ramdas Pophale) SiO2 
 PCOD9088651
Probable space group: P -1
;
_chemical_formula_sum "Si O2"
_cell_formula_units_Z 16
_cell_length_a 13.501727
_cell_length_b 7.715171
_cell_length_c 9.205218
_cell_angle_alpha 117.979419
_cell_angle_beta 123.611827
_cell_angle_gamma 93.958685
_cell_volume 630.857116
_symmetry_space_group_name_H-M "P -1"
_symmetry_group_IT_number 2
_symmetry_cell_setting 'triclinic'
loop_
_space_group_symop_operation_xyz
x,y,z
-x,-y,-z
loop_
_atom_site_type_symbol
_atom_site_label
_atom_site_fract_x
_atom_site_fract_y
_atom_site_fract_z
Si Si1 0.562612 0.331323 0.499853
Si Si2 0.279878 0.283973 0.510411
Si Si3 0.000649 0.164548 0.195729
Si Si4 0.282477 0.624508 0.069029
Si Si5 0.994113 0.417524 0.795811
Si Si6 0.461511 0.678063 0.965079
Si Si7 0.724119 0.965544 0.858430
Si Si8 0.706905 0.065980 0.407988
O O1 0.500000 0.500000 0.500000
O O2 0.610883 0.366103 0.722643
O O3 0.427966 0.117403 0.258720
O O4 0.673938 0.264764 0.503461
O O5 0.380476 0.538889 0.706754
O O6 0.269175 0.223318 0.309257
O O7 0.131227 0.221842 0.417941
O O8 0.322753 0.118546 0.563607
O O9 0.019431 0.396331 0.238922
O O10 0.852325 0.049672 0.098487
O O11 0.000000 0.000000 0.000000
O O12 0.248735 0.829174 0.143951
O O13 0.348493 0.667632 0.981071
O O14 0.137303 0.420867 0.883782
O O15 0.865695 0.189735 0.566588
O O16 0.000000 0.500000 0.000000
O O17 0.500000 0.500000 0.000000
O O18 0.593452 0.906144 0.139279
#
# Coordination Sequence:
#
# PCOD9088651 Si02
#       8
#     2   2   2   2   2   2   2   2
#     4  12  23  32  59  94 124 150 200 261 303 354
#     4  10  20  39  65  86 120 161 205 249 294 366
#     4   9  20  34  61  93 114 156 205 249 299 359
#     4  11  21  40  64  89 118 165 206 242 308 363
#     4  11  21  37  61  92 126 157 192 261 312 351
#     4  10  22  40  65  87 120 169 207 240 298 375
#     4  10  19  37  62  90 118 154 203 253 295 360
#     4  11  21  39  59  88 125 160 194 250 313 349
#
# _framework density 25.362317999999998
#
# number of rings (size 3 to 8) (size 9 to 14) (size 15 to 20)
#    0.000    1.500    3.750    3.375    3.500    1.000 
#    0.000    5.625    2.750    0.000    0.000    0.000 
#    0.000    0.000    0.000    0.000    0.000    0.000 
#
# Total GULP energy -89108.645307 kJ/mol
# GULP energy per Si atom -5569.290332 kJ/mol
# Density = 2.530459 g / cm^3
# Si number density = 25.362318 Si / 1000 Ang^3
#
#
#
# Elastic Constant Matrix: (Units=GPa)
#
#
# Indices 1 2 3 4 5 6 
#
# 1 77.7918 2.0400 47.5152 5.2744 42.7841 -8.4936
# 2 2.0400 95.1432 19.3816 -1.4385 2.8542 -16.7011
# 3 47.5152 19.3816 144.6979 24.0116 36.8111 -6.6940
# 4 5.2744 -1.4385 24.0116 34.9455 -0.2130 10.7464
# 5 42.7841 2.8542 36.8111 -0.2130 51.5761 0.5980
# 6 -8.4936 -16.7011 -6.6940 10.7464 0.5980 19.3812
#
#
#
# Elastic Compliance Matrix: (Units=1/GPa)
#
#
# Indices 1 2 3 4 5 6 
#
# 1 0.030616 0.004329 -0.001402 -0.010841 -0.024952 0.023444
# 2 0.004329 0.013391 -0.000714 -0.004497 -0.004024 0.015807
# 3 -0.001402 -0.000714 0.011380 -0.010341 -0.007063 0.008653
# 4 -0.010841 -0.004497 -0.010341 0.049661 0.017295 -0.040267
# 5 -0.024952 -0.004024 -0.007063 0.017295 0.045745 -0.027843
# 6 0.023444 0.015807 0.008653 -0.040267 -0.027843 0.101667
#
#
# Mechanical properties :
#
#
# Convention : Reuss Voigt Hill
#
# Bulk Modulus (GPa) = 16.71880 50.61185 33.66533
# Shear Modulus (GPa) = 18.65882 37.76031 28.20956
#
# Velocity S-wave (km/s) = 2.71530 3.86273 3.33868
# Velocity P-wave (km/s) = 4.05423 6.31610 5.30707
#
# Compressibility (1/GPa) = 0.05981289
#
# Stress axis : x y z
#
# Youngs Moduli (GPa) = 32.66316 74.67975 87.87346
#
# Poissons Ratio (x) = -0.32329 0.12318
# Poissons Ratio (y) = -0.14140 0.06272
# Poissons Ratio (z) = 0.04579 0.05330
#
# Static dielectric constant tensor:
#      x y z
#    x 2.349450 0.088590 0.047050 
#    y 0.088590 2.032810 0.038100 
#    z 0.047050 0.038100 2.214120 
# 
# From -- ./inp_files/448238.got.cif
#   From: 2010.05.17/outbox.cif.g08.bks.cpg/sg2_225_cif.got.tgz:448238.got - 2010.06.03 11:33:40.
