data_PCOD9088388
_publ_section_title
;
Structure prediction by ZEFSAII (Michael W. Deem and Ramdas Pophale) SiO2 
 PCOD9088388
Probable space group: P -1
;
_chemical_formula_sum "Si O2"
_cell_formula_units_Z 16
_cell_length_a 13.118099
_cell_length_b 11.411634
_cell_length_c 15.110345
_cell_angle_alpha 26.908177
_cell_angle_beta 137.679477
_cell_angle_gamma 144.181023
_cell_volume 597.956923
_symmetry_space_group_name_H-M "P -1"
_symmetry_group_IT_number 2
_symmetry_cell_setting 'triclinic'
loop_
_space_group_symop_operation_xyz
x,y,z
-x,-y,-z
loop_
_atom_site_type_symbol
_atom_site_label
_atom_site_fract_x
_atom_site_fract_y
_atom_site_fract_z
Si Si1 0.129289 0.307677 0.298263
Si Si2 0.582887 0.967219 0.471332
Si Si3 0.751914 0.666611 0.301866
Si Si4 0.550161 0.127235 0.155197
Si Si5 0.162266 0.986856 0.044066
Si Si6 0.950236 0.634061 0.609195
Si Si7 0.251278 0.843138 0.901970
Si Si8 0.312227 0.178203 0.201738
O O1 0.176074 0.378164 0.383318
O O2 0.937701 0.283111 0.181721
O O3 0.251670 0.566865 0.136810
O O4 0.089131 0.981383 0.467218
O O5 0.436959 0.623483 0.625657
O O6 0.731973 0.016484 0.604748
O O7 0.613087 0.018488 0.352805
O O8 0.486759 0.161777 0.297430
O O9 0.861637 0.573534 0.498024
O O10 0.741707 0.927902 0.173736
O O11 0.840454 0.789140 0.181164
O O12 0.601960 0.031322 0.162677
O O13 0.346364 0.008831 0.119034
O O14 0.641062 0.486475 0.973862
O O15 0.018728 0.641782 0.169158
O O16 0.187778 0.070090 0.108080
#
# Coordination Sequence:
#
# PCOD9088388 Si02
#       8
#     2   2   2   2   2   2   2   2
#     4   9  20  41  59  81 110 162 204 232 283 341
#     4  10  20  35  56  88 121 157 193 222 286 361
#     4  11  20  34  56  92 115 154 187 234 289 345
#     4  11  22  37  56  90 126 153 181 239 297 348
#     4  11  20  35  59  92 118 150 190 232 297 347
#     4  10  19  37  61  83 110 149 201 239 277 337
#     4  10  22  39  61  85 121 152 193 241 290 348
#     4  10  21  36  57  83 123 160 190 229 280 356
#
# _framework density 26.757781999999999
#
# number of rings (size 3 to 8) (size 9 to 14) (size 15 to 20)
#    0.000    1.750    5.000    1.500    1.750    1.000 
#    6.750    0.000    0.000    1.500    0.000    0.000 
#    0.000    0.000    0.000    0.000    0.000    0.000 
#
# Total GULP energy -89557.481441 kJ/mol
# GULP energy per Si atom -5597.342590 kJ/mol
# Density = 2.669688 g / cm^3
# Si number density = 26.757782 Si / 1000 Ang^3
#
#
#
# Elastic Constant Matrix: (Units=GPa)
#
#
# Indices 1 2 3 4 5 6 
#
# 1 87.6260 28.7149 27.8710 3.1503 -33.2288 -1.2824
# 2 28.7149 80.9495 49.6825 12.6621 15.8206 -27.7632
# 3 27.8710 49.6825 163.5323 5.8682 -40.5747 -9.3384
# 4 3.1503 12.6621 5.8682 46.0461 -31.9674 1.7169
# 5 -33.2288 15.8206 -40.5747 -31.9674 11.0988 12.8021
# 6 -1.2824 -27.7632 -9.3384 1.7169 12.8021 26.1049
#
#
#
# Elastic Compliance Matrix: (Units=1/GPa)
#
#
# Indices 1 2 3 4 5 6 
#
# 1 0.009806 0.002119 -0.003312 -0.005067 -0.005846 0.004751
# 2 0.002119 0.008281 0.000366 0.006926 0.013634 0.001900
# 3 -0.003312 0.000366 0.005983 -0.003518 -0.003909 0.004515
# 4 -0.005067 0.006926 -0.003518 0.013728 -0.009396 0.009563
# 5 -0.005846 0.013634 -0.003909 -0.009396 -0.008483 0.017593
# 6 0.004751 0.001900 0.004515 0.009563 0.017593 0.032920
#
#
# Mechanical properties :
#
#
# Convention : Reuss Voigt Hill
#
# Bulk Modulus (GPa) = 44.61396 60.51606 52.56501
# Shear Modulus (GPa) = 70.06608 31.70593 50.88600
#
# Velocity S-wave (km/s) = 5.12271 3.44601 4.36561
# Velocity P-wave (km/s) = 7.19020 6.20473 6.71556
#
# Compressibility (1/GPa) = 0.02241451
#
# Stress axis : x y z
#
# Youngs Moduli (GPa) = 101.97719 120.75976 167.14971
#
# Poissons Ratio (x) = -0.25589 0.55367
# Poissons Ratio (y) = -0.21609 -0.06115
# Poissons Ratio (z) = 0.33779 -0.04418
#
# Static dielectric constant tensor:
#      x y z
#    x 2.108000 0.015590 -0.017380 
#    y 0.015590 2.140180 0.066150 
#    z -0.017380 0.066150 2.089630 
# 
# From -- ./inp_files/532279.got.cif
#   From: 2010.05.17/outbox.cif.g08.bks.cpg/sg2_267_cif.got.tgz:532279.got - 2010.06.03 11:33:40.
