data_PCOD9088412
_publ_section_title
;
Structure prediction by ZEFSAII (Michael W. Deem and Ramdas Pophale) SiO2 
 PCOD9088412
Probable space group: P -1
;
_chemical_formula_sum "Si O2"
_cell_formula_units_Z 16
_cell_length_a 10.819853
_cell_length_b 8.807371
_cell_length_c 14.903380
_cell_angle_alpha 40.917706
_cell_angle_beta 67.642507
_cell_angle_gamma 87.938398
_cell_volume 782.644469
_symmetry_space_group_name_H-M "P -1"
_symmetry_group_IT_number 2
_symmetry_cell_setting 'triclinic'
loop_
_space_group_symop_operation_xyz
x,y,z
-x,-y,-z
loop_
_atom_site_type_symbol
_atom_site_label
_atom_site_fract_x
_atom_site_fract_y
_atom_site_fract_z
Si Si1 0.378303 0.740686 0.382945
Si Si2 0.831936 0.652784 0.752523
Si Si3 0.508940 0.300542 0.014169
Si Si4 0.859285 0.214610 0.459388
Si Si5 0.727057 0.111619 0.348701
Si Si6 0.499766 0.404232 0.406852
Si Si7 0.975383 0.746754 0.867717
Si Si8 0.704728 0.616357 0.102771
O O1 0.216719 0.693324 0.482962
O O2 0.397521 0.548431 0.393076
O O3 0.461043 0.704463 0.464804
O O4 0.454344 0.024441 0.196544
O O5 0.965543 0.648790 0.658649
O O6 0.884772 0.684900 0.827355
O O7 0.817242 0.914222 0.617602
O O8 0.678835 0.414345 0.887827
O O9 0.500000 0.500000 0.000000
O O10 0.402578 0.304824 0.962054
O O11 0.792475 0.231090 0.373553
O O12 0.857226 0.061560 0.285418
O O13 0.690339 0.328477 0.213342
O O14 0.589930 0.844414 0.516362
O O15 0.644926 0.593291 0.230536
O O16 0.000000 0.500000 0.000000
O O17 0.873135 0.791293 0.951103
#
# Coordination Sequence:
#
# PCOD9088412 Si02
#       8
#     2   2   2   2   2   2   2   2
#     4  11  24  40  55  85 124 157 190 243 295 341
#     4  10  20  33  57  92 115 147 193 241 295 339
#     4  12  21  35  62  89 117 149 190 249 291 339
#     4  10  19  37  61  85 119 149 193 243 285 349
#     4  10  20  35  61  88 112 151 199 239 286 347
#     4  11  24  38  57  85 121 159 196 234 291 355
#     4   9  19  32  53  87 117 142 185 249 289 332
#     4  11  20  36  61  88 116 150 199 243 290 341
#
# _framework density 20.443511999999998
#
# number of rings (size 3 to 8) (size 9 to 14) (size 15 to 20)
#    0.000    1.500    3.750    1.875    1.750    0.500 
#    0.000    1.250    0.000   17.250    0.000    0.000 
#    0.000    0.000    0.000    0.000    0.000    0.000 
#
# Total GULP energy -89283.940723 kJ/mol
# GULP energy per Si atom -5580.246295 kJ/mol
# Density = 2.039698 g / cm^3
# Si number density = 20.443512 Si / 1000 Ang^3
#
#
#
# Elastic Constant Matrix: (Units=GPa)
#
#
# Indices 1 2 3 4 5 6 
#
# 1 82.5051 23.7627 49.1246 8.9146 -1.1429 -27.8120
# 2 23.7627 57.8397 26.5955 7.5187 -11.2421 -36.6937
# 3 49.1246 26.5955 113.3118 18.0191 2.0795 -19.8609
# 4 8.9146 7.5187 18.0191 21.0352 -10.5766 -5.6420
# 5 -1.1429 -11.2421 2.0795 -10.5766 48.9446 15.0399
# 6 -27.8120 -36.6937 -19.8609 -5.6420 15.0399 32.5100
#
#
#
# Elastic Compliance Matrix: (Units=1/GPa)
#
#
# Indices 1 2 3 4 5 6 
#
# 1 0.024980 0.016527 -0.007128 -0.004075 -0.008092 0.038706
# 2 0.016527 0.076012 -0.005204 -0.010112 -0.015516 0.102177
# 3 -0.007128 -0.005204 0.014072 -0.009625 -0.002902 -0.003703
# 4 -0.004075 -0.010112 -0.009625 0.065205 0.017474 -0.017547
# 5 -0.008092 -0.015516 -0.002902 0.017474 0.032289 -0.038114
# 6 0.038706 0.102177 -0.003703 -0.017547 -0.038114 0.191524
#
#
# Mechanical properties :
#
#
# Convention : Reuss Voigt Hill
#
# Bulk Modulus (GPa) = 8.10018 50.29133 29.19576
# Shear Modulus (GPa) = 11.44572 30.77621 21.11096
#
# Velocity S-wave (km/s) = 2.36873 3.88419 3.21697
# Velocity P-wave (km/s) = 3.38408 6.69100 5.30196
#
# Compressibility (1/GPa) = 0.12345403
#
# Stress axis : x y z
#
# Youngs Moduli (GPa) = 40.03134 13.15575 71.06429
#
# Poissons Ratio (x) = -0.21742 0.50656
# Poissons Ratio (y) = -0.66159 0.36981
# Poissons Ratio (z) = 0.28535 0.06846
#
# Static dielectric constant tensor:
#      x y z
#    x 1.760110 -0.036530 -0.003830 
#    y -0.036530 1.724780 0.067890 
#    z -0.003830 0.067890 1.758340 
# 
# From -- ./inp_files/320162.got.cif
#   From: 2010.05.17/outbox.cif.g08.bks.cpg/sg2_161_cif.got.tgz:320162.got - 2010.06.03 11:33:40.
