data_PCOD9088784
_publ_section_title
;
Structure prediction by ZEFSAII (Michael W. Deem and Ramdas Pophale) SiO2 
 PCOD9088784
Probable space group: P -1
;
_chemical_formula_sum "Si O2"
_cell_formula_units_Z 16
_cell_length_a 9.387790
_cell_length_b 12.194646
_cell_length_c 14.445530
_cell_angle_alpha 59.937440
_cell_angle_beta 64.577219
_cell_angle_gamma 115.239686
_cell_volume 738.719283
_symmetry_space_group_name_H-M "P -1"
_symmetry_group_IT_number 2
_symmetry_cell_setting 'triclinic'
loop_
_space_group_symop_operation_xyz
x,y,z
-x,-y,-z
loop_
_atom_site_type_symbol
_atom_site_label
_atom_site_fract_x
_atom_site_fract_y
_atom_site_fract_z
Si Si1 0.592017 0.494017 0.237459
Si Si2 0.945722 0.031227 0.118921
Si Si3 0.227142 0.657930 0.708458
Si Si4 0.643152 0.327676 0.656431
Si Si5 0.760899 0.677503 0.419915
Si Si6 0.000478 0.403339 0.394302
Si Si7 0.130789 0.222927 0.349020
Si Si8 0.136498 0.858118 0.724047
O O1 0.764899 0.479806 0.201036
O O2 0.348678 0.330823 0.451216
O O3 0.445248 0.418874 0.212191
O O4 0.785719 0.739631 0.103662
O O5 0.911213 0.107619 0.180223
O O6 0.671688 0.864625 0.204622
O O7 0.967964 0.907773 0.212264
O O8 0.062292 0.566131 0.697046
O O9 0.118850 0.694292 0.792721
O O10 0.549289 0.901649 0.495208
O O11 0.814261 0.566016 0.473654
O O12 0.765782 0.291587 0.579387
O O13 0.718911 0.373895 0.724154
O O14 0.500000 0.500000 0.500000
O O15 0.004309 0.257188 0.428962
O O16 0.067850 0.219211 0.263230
O O17 0.000000 0.000000 0.500000
#
# Coordination Sequence:
#
# PCOD9088784 Si02
#       8
#     2   2   2   2   2   2   2   2
#     4  12  23  39  64  96 124 168 207 259 321 371
#     4  11  23  39  64  95 130 158 214 259 315 375
#     4  10  19  37  63  87 122 164 211 254 307 372
#     4  10  20  37  64  90 124 168 207 257 308 379
#     4  10  20  39  61  89 121 164 206 252 311 370
#     4  10  20  37  65  92 120 164 214 251 311 371
#     4  11  21  37  65  93 126 163 211 258 312 374
#     4  10  20  37  61  87 123 168 204 259 308 364
#
# _framework density 21.659108
#
# number of rings (size 3 to 8) (size 9 to 14) (size 15 to 20)
#    0.000    1.500    5.000    0.750    0.000    3.000 
#    0.000    0.625   11.000    0.000    0.000    0.000 
#    0.000    0.000    0.000    0.000    0.000    0.000 
#
# Total GULP energy -89335.129289 kJ/mol
# GULP energy per Si atom -5583.445581 kJ/mol
# Density = 2.160981 g / cm^3
# Si number density = 21.659108 Si / 1000 Ang^3
#
#
#
# Elastic Constant Matrix: (Units=GPa)
#
#
# Indices 1 2 3 4 5 6 
#
# 1 162.1896 70.4951 28.6917 -12.8293 -2.6173 4.2331
# 2 70.4951 154.2369 21.7650 8.7752 -6.0725 5.1643
# 3 28.6917 21.7650 45.7922 -20.6821 7.2951 -1.0054
# 4 -12.8293 8.7752 -20.6821 32.6161 -1.1336 -1.4347
# 5 -2.6173 -6.0725 7.2951 -1.1336 16.9234 -10.3068
# 6 4.2331 5.1643 -1.0054 -1.4347 -10.3068 48.7901
#
#
#
# Elastic Compliance Matrix: (Units=1/GPa)
#
#
# Indices 1 2 3 4 5 6 
#
# 1 0.008411 -0.003587 -0.002548 0.002699 0.001258 -0.000058
# 2 -0.003587 0.009804 -0.007040 -0.008321 0.005463 0.000038
# 3 -0.002548 -0.007040 0.042075 0.026795 -0.020275 -0.001662
# 4 0.002699 -0.008321 0.026795 0.050609 -0.010435 0.000483
# 5 0.001258 0.005463 -0.020275 -0.010435 0.078529 0.015177
# 6 -0.000058 0.000038 -0.001662 0.000483 0.015177 0.023683
#
#
# Mechanical properties :
#
#
# Convention : Reuss Voigt Hill
#
# Bulk Modulus (GPa) = 29.46318 67.12471 48.29394
# Shear Modulus (GPa) = 19.93837 35.75037 27.84437
#
# Velocity S-wave (km/s) = 3.03735 4.06716 3.58938
# Velocity P-wave (km/s) = 5.09248 7.28796 6.28680
#
# Compressibility (1/GPa) = 0.03394067
#
# Stress axis : x y z
#
# Youngs Moduli (GPa) = 118.89854 102.00377 23.76687
#
# Poissons Ratio (x) = 0.36586 0.06055
# Poissons Ratio (y) = 0.42645 0.16732
# Poissons Ratio (z) = 0.30291 0.71811
#
# Static dielectric constant tensor:
#      x y z
#    x 1.814290 -0.002650 -0.001560 
#    y -0.002650 1.828890 0.016930 
#    z -0.001560 0.016930 1.818260 
# 
# From -- ./inp_files/418168.got.cif
#   From: 2010.05.17/outbox.cif.g08.bks.cpg/sg2_210_cif.got.tgz:418168.got - 2010.06.03 11:33:40.
