data_PCOD9088959
_publ_section_title
;
Structure prediction by ZEFSAII (Michael W. Deem and Ramdas Pophale) SiO2 
 PCOD9088959
Probable space group: P -1
;
_chemical_formula_sum "Si O2"
_cell_formula_units_Z 16
_cell_length_a 26.814508
_cell_length_b 8.578635
_cell_length_c 20.545595
_cell_angle_alpha 39.201786
_cell_angle_beta 18.869059
_cell_angle_gamma 30.902934
_cell_volume 765.269027
_symmetry_space_group_name_H-M "P -1"
_symmetry_group_IT_number 2
_symmetry_cell_setting 'triclinic'
loop_
_space_group_symop_operation_xyz
x,y,z
-x,-y,-z
loop_
_atom_site_type_symbol
_atom_site_label
_atom_site_fract_x
_atom_site_fract_y
_atom_site_fract_z
Si Si1 0.031971 0.615293 0.018819
Si Si2 0.883529 0.319684 0.963520
Si Si3 0.874925 0.982780 0.608027
Si Si4 0.949832 0.259215 0.658169
Si Si5 0.469283 0.710477 0.279975
Si Si6 0.695280 0.649772 0.357937
Si Si7 0.094257 0.274309 0.598764
Si Si8 0.511358 0.693633 0.080610
O O1 0.114654 0.547025 0.012219
O O2 0.202790 0.422625 0.815896
O O3 0.866039 0.575819 0.219926
O O4 0.924605 0.986847 0.025378
O O5 0.681734 0.551475 0.098706
O O6 0.059405 0.246203 0.725173
O O7 0.944253 0.989758 0.448223
O O8 0.943893 0.638501 0.649918
O O9 0.645849 0.233629 0.802195
O O10 0.000000 0.000000 0.500000
O O11 0.000000 0.500000 0.500000
O O12 0.021953 0.138914 0.680551
O O13 0.724791 0.424116 0.880876
O O14 0.376065 0.560900 0.477091
O O15 0.478712 0.650343 0.210265
O O16 0.318766 0.080219 0.363140
O O17 0.500000 0.000000 0.500000
O O18 0.500000 0.000000 0.000000
#
# Coordination Sequence:
#
# PCOD9088959 Si02
#       8
#     2   2   2   2   2   2   2   2
#     4  10  24  42  65  92 134 166 209 273 332 375
#     4  11  22  41  65  97 122 169 216 270 318 384
#     4  11  24  40  62  94 133 167 207 276 328 364
#     4  10  19  37  64  87 120 168 210 255 315 377
#     4  12  23  37  70  95 123 172 222 257 317 394
#     4  11  23  43  65  96 132 170 212 266 329 389
#     4  11  21  40  64  92 127 167 220 257 314 397
#     4  12  20  39  66  94 122 171 222 254 311 393
#
# _framework density 20.907678000000001
#
# number of rings (size 3 to 8) (size 9 to 14) (size 15 to 20)
#    0.000    1.000    7.500    0.750    0.000    3.000 
#    0.000    0.000    0.000    0.000    0.000    0.000 
#    0.000    0.000    0.000    0.000    0.000    0.000 
#
# Total GULP energy -89206.355775 kJ/mol
# GULP energy per Si atom -5575.397236 kJ/mol
# Density = 2.086009 g / cm^3
# Si number density = 20.907678 Si / 1000 Ang^3
#
#
#
# Elastic Constant Matrix: (Units=GPa)
#
#
# Indices 1 2 3 4 5 6 
#
# 1 138.3556 13.7316 40.0836 1.7917 -15.3993 2.6054
# 2 13.7316 24.0388 18.6680 19.2425 -1.9022 -10.0935
# 3 40.0836 18.6680 114.7368 24.3953 -6.8917 -0.5775
# 4 1.7917 19.2425 24.3953 32.4786 -13.2445 -4.9476
# 5 -15.3993 -1.9022 -6.8917 -13.2445 30.8487 5.0948
# 6 2.6054 -10.0935 -0.5775 -4.9476 5.0948 21.6896
#
#
#
# Elastic Compliance Matrix: (Units=1/GPa)
#
#
# Indices 1 2 3 4 5 6 
#
# 1 0.012459 -0.024849 -0.004008 0.021321 0.014895 -0.011802
# 2 -0.024849 0.174379 0.002042 -0.118594 -0.064033 0.072177
# 3 -0.004008 0.002042 0.012025 -0.011739 -0.004240 0.000070
# 4 0.021321 -0.118594 -0.011739 0.127613 0.062712 -0.043684
# 5 0.014895 -0.064033 -0.004240 0.062712 0.067367 -0.033220
# 6 -0.011802 0.072177 0.000070 -0.043684 -0.033220 0.078952
#
#
# Mechanical properties :
#
#
# Convention : Reuss Voigt Hill
#
# Bulk Modulus (GPa) = 6.88546 46.89974 26.89260
# Shear Modulus (GPa) = 8.69813 30.64658 19.67236
#
# Velocity S-wave (km/s) = 2.04188 3.83274 3.07076
# Velocity P-wave (km/s) = 2.97649 6.48591 5.04611
#
# Compressibility (1/GPa) = 0.14523367
#
# Stress axis : x y z
#
# Youngs Moduli (GPa) = 80.26298 5.73463 83.15870
#
# Poissons Ratio (x) = 0.14250 0.33327
# Poissons Ratio (y) = 1.99444 -0.16978
# Poissons Ratio (z) = 0.32167 -0.01171
#
# Static dielectric constant tensor:
#      x y z
#    x 1.753780 -0.003620 0.043600 
#    y -0.003620 1.816700 -0.000630 
#    z 0.043600 -0.000630 1.710350 
# 
# From -- ./inp_files/599746.got.cif
#   From: 2010.05.17/outbox.cif.g08.bks.cpg/sg2_300_cif.got.tgz:599746.got - 2010.06.03 11:33:40.
