data_PCOD9088440
_publ_section_title
;
Structure prediction by ZEFSAII (Michael W. Deem and Ramdas Pophale) SiO2 
 PCOD9088440
Probable space group: P -1
;
_chemical_formula_sum "Si O2"
_cell_formula_units_Z 14
_cell_length_a 32.964236
_cell_length_b 15.262683
_cell_length_c 25.782830
_cell_angle_alpha 160.595803
_cell_angle_beta 171.381590
_cell_angle_gamma 19.653281
_cell_volume 634.701142
_symmetry_space_group_name_H-M "P -1"
_symmetry_group_IT_number 2
_symmetry_cell_setting 'triclinic'
loop_
_space_group_symop_operation_xyz
x,y,z
-x,-y,-z
loop_
_atom_site_type_symbol
_atom_site_label
_atom_site_fract_x
_atom_site_fract_y
_atom_site_fract_z
Si Si1 0.084485 0.610873 0.867169
Si Si2 0.350707 0.172809 0.033678
Si Si3 0.448542 0.210958 0.506701
Si Si4 0.501082 0.767416 0.251476
Si Si5 0.908384 0.233258 0.596294
Si Si6 0.936204 0.214511 0.378797
Si Si7 0.725924 0.678925 0.229676
O O1 0.301517 0.443052 0.088388
O O2 0.819553 0.790674 0.659170
O O3 0.926131 0.404476 0.521610
O O4 0.264512 0.724891 0.115823
O O5 0.165799 0.244066 0.890452
O O6 0.251893 0.955487 0.747559
O O7 0.634618 0.983981 0.304906
O O8 0.259375 0.479903 0.438484
O O9 0.500000 0.000000 0.500000
O O10 0.345751 0.039082 0.234457
O O11 0.336293 0.741256 0.975753
O O12 0.489592 0.507738 0.128315
O O13 0.993863 0.077973 0.671149
O O14 0.182894 0.278477 0.690144
O O15 0.000000 0.500000 0.500000
#
# Coordination Sequence:
#
# PCOD9088440 Si02
#       7
#     2   2   2   2   2   2   2
#     4  11  22  38  64  89 115 156 203 245 290 348
#     4  10  19  37  61  87 115 150 202 252 286 337
#     4  12  24  39  60  88 121 156 196 243 299 358
#     4  11  23  38  58  89 127 157 190 244 301 353
#     4  10  21  37  60  86 116 155 200 245 291 348
#     4  10  21  38  62  87 117 155 200 246 292 344
#     4  10  20  36  60  88 118 153 193 242 295 344
#
# _framework density 22.057625999999999
#
# number of rings (size 3 to 8) (size 9 to 14) (size 15 to 20)
#    0.000    1.429    0.000    7.714    0.000    4.000 
#    0.000    0.000    0.000    5.143    0.000    0.000 
#    0.000    0.000    0.000    0.000    0.000    0.000 
#
# Total GULP energy -78062.832557 kJ/mol
# GULP energy per Si atom -5575.916611 kJ/mol
# Density = 2.200742 g / cm^3
# Si number density = 22.057626 Si / 1000 Ang^3
#
#
#
# Elastic Constant Matrix: (Units=GPa)
#
#
# Indices 1 2 3 4 5 6 
#
# 1 119.4501 76.0585 32.9321 -9.1749 26.1003 21.8769
# 2 76.0585 152.7301 35.0794 -24.9094 14.7752 -3.8332
# 3 32.9321 35.0794 61.7578 -14.6561 23.1309 10.5060
# 4 -9.1749 -24.9094 -14.6561 26.2057 -5.2305 7.3012
# 5 26.1003 14.7752 23.1309 -5.2305 40.1858 2.3384
# 6 21.8769 -3.8332 10.5060 7.3012 2.3384 48.1489
#
#
#
# Elastic Compliance Matrix: (Units=1/GPa)
#
#
# Indices 1 2 3 4 5 6 
#
# 1 0.016186 -0.007611 -0.000773 -0.001385 -0.007029 -0.007240
# 2 -0.007611 0.011881 -0.002881 0.006498 0.002851 0.003909
# 3 -0.000773 -0.002881 0.026530 0.011365 -0.011833 -0.006816
# 4 -0.001385 0.006498 0.011365 0.052668 -0.000635 -0.009289
# 5 -0.007029 0.002851 -0.011833 -0.000635 0.034873 0.004405
# 6 -0.007240 0.003909 -0.006816 -0.009289 0.004405 0.027052
#
#
# Mechanical properties :
#
#
# Convention : Reuss Voigt Hill
#
# Bulk Modulus (GPa) = 31.18407 69.11979 50.15193
# Shear Modulus (GPa) = 24.70239 35.56593 30.13416
#
# Velocity S-wave (km/s) = 3.35012 4.01984 3.70016
# Velocity P-wave (km/s) = 5.39747 7.27664 6.40633
#
# Compressibility (1/GPa) = 0.03206766
#
# Stress axis : x y z
#
# Youngs Moduli (GPa) = 61.78053 84.16484 37.69373
#
# Poissons Ratio (x) = 0.64057 0.02912
# Poissons Ratio (y) = 0.47020 0.10861
# Poissons Ratio (z) = 0.04773 0.24251
#
# Static dielectric constant tensor:
#      x y z
#    x 1.801880 0.005110 -0.027290 
#    y 0.005110 1.920370 -0.054120 
#    z -0.027290 -0.054120 1.917760 
# 
# From -- ./inp_files/614541.got.cif
#   From: 2010.05.17/outbox.cif.g08.bks.cpg/sg2_308_cif.got.tgz:614541.got - 2010.06.03 11:33:40.
