data_PCOD9088255
_publ_section_title
;
Structure prediction by ZEFSAII (Michael W. Deem and Ramdas Pophale) SiO2 
 PCOD9088255
Probable space group: P -1
;
_chemical_formula_sum "Si O2"
_cell_formula_units_Z 12
_cell_length_a 8.923592
_cell_length_b 10.188279
_cell_length_c 16.573124
_cell_angle_alpha 33.498381
_cell_angle_beta 136.775754
_cell_angle_gamma 138.908677
_cell_volume 525.315457
_symmetry_space_group_name_H-M "P -1"
_symmetry_group_IT_number 2
_symmetry_cell_setting 'triclinic'
loop_
_space_group_symop_operation_xyz
x,y,z
-x,-y,-z
loop_
_atom_site_type_symbol
_atom_site_label
_atom_site_fract_x
_atom_site_fract_y
_atom_site_fract_z
Si Si1 0.731042 0.340273 0.626913
Si Si2 0.118563 0.116985 0.640880
Si Si3 0.009383 0.443707 0.126832
Si Si4 0.166737 0.908673 0.057740
Si Si5 0.225505 0.342037 0.747519
Si Si6 0.395174 0.241894 0.398205
O O1 0.693213 0.195586 0.770834
O O2 0.977586 0.342265 0.683619
O O3 0.530907 0.221148 0.542062
O O4 0.771336 0.640338 0.498746
O O5 0.158447 0.855464 0.771371
O O6 0.832007 0.012280 0.579446
O O7 0.190071 0.223013 0.704622
O O8 0.994653 0.672896 0.056147
O O9 0.267093 0.445767 0.250718
O O10 0.000000 0.500000 0.000000
O O11 0.000000 0.000000 0.000000
O O12 0.304884 0.153059 0.930486
O O13 0.418847 0.630544 0.665530
#
# Coordination Sequence:
#
# PCOD9088255 Si02
#       6
#     2   2   2   2   2   2
#     4  10  21  36  57  88 120 151 185 236 297 342
#     4   9  19  36  58  85 112 147 198 236 277 332
#     4  10  20  39  61  86 112 151 201 237 281 340
#     4  10  21  38  58  83 121 154 185 237 295 344
#     4  10  19  37  60  85 115 155 192 233 285 341
#     4   9  20  35  59  89 107 153 196 238 283 331
#
# _framework density 22.843416999999999
#
# number of rings (size 3 to 8) (size 9 to 14) (size 15 to 20)
#    1.000    1.333    1.667    2.000    0.000    4.667 
#    0.000    3.333    0.000   12.000    0.000    0.000 
#    0.000    0.000    0.000    0.000    0.000    0.000 
#
# Total GULP energy -66958.189891 kJ/mol
# GULP energy per Si atom -5579.849158 kJ/mol
# Density = 2.279142 g / cm^3
# Si number density = 22.843417 Si / 1000 Ang^3
#
#
#
# Elastic Constant Matrix: (Units=GPa)
#
#
# Indices 1 2 3 4 5 6 
#
# 1 55.7955 31.1124 20.7523 0.7600 -0.9738 -9.2523
# 2 31.1124 75.5615 45.9550 -5.9866 -11.5395 8.4884
# 3 20.7523 45.9550 179.8502 6.9396 -33.8287 0.4865
# 4 0.7600 -5.9866 6.9396 33.4310 -7.3893 9.1550
# 5 -0.9738 -11.5395 -33.8287 -7.3893 34.2541 -10.9406
# 6 -9.2523 8.4884 0.4865 9.1550 -10.9406 41.4714
#
#
#
# Elastic Compliance Matrix: (Units=1/GPa)
#
#
# Indices 1 2 3 4 5 6 
#
# 1 0.026642 -0.012800 0.000068 -0.005873 -0.001753 0.009397
# 2 -0.012800 0.023089 -0.004318 0.008194 0.002113 -0.008782
# 3 0.000068 -0.004318 0.008050 -0.001713 0.007104 0.003057
# 4 -0.005873 0.008194 -0.001713 0.035672 0.005607 -0.009363
# 5 -0.001753 0.002113 0.007104 0.005607 0.040837 0.008628
# 6 0.009397 -0.008782 0.003057 -0.009363 0.008628 0.032314
#
#
# Mechanical properties :
#
#
# Convention : Reuss Voigt Hill
#
# Bulk Modulus (GPa) = 42.22709 56.31629 49.27169
# Shear Modulus (GPa) = 23.96965 36.05714 30.01340
#
# Velocity S-wave (km/s) = 3.24281 3.97728 3.62867
# Velocity P-wave (km/s) = 5.70497 6.76745 6.25879
#
# Compressibility (1/GPa) = 0.02368148
#
# Stress axis : x y z
#
# Youngs Moduli (GPa) = 37.53414 43.31072 124.22959
#
# Poissons Ratio (x) = 0.55437 -0.00843
# Poissons Ratio (y) = 0.48043 0.53639
# Poissons Ratio (z) = -0.00255 0.18700
#
# Static dielectric constant tensor:
#      x y z
#    x 1.902540 0.006090 0.039870 
#    y 0.006090 1.805520 -0.031700 
#    z 0.039870 -0.031700 1.905450 
# 
# From -- ./inp_files/498606.got.cif
#   From: 2010.05.17/outbox.cif.g08.bks.cpg/sg2_250_cif.got.tgz:498606.got - 2010.06.03 11:33:40.
