data_PCOD9088442
_publ_section_title
;
Structure prediction by ZEFSAII (Michael W. Deem and Ramdas Pophale) SiO2 
 PCOD9088442
Probable space group: P -1
;
_chemical_formula_sum "Si O2"
_cell_formula_units_Z 16
_cell_length_a 11.885745
_cell_length_b 12.359880
_cell_length_c 9.171053
_cell_angle_alpha 99.587980
_cell_angle_beta 56.796957
_cell_angle_gamma 132.712630
_cell_volume 780.964683
_symmetry_space_group_name_H-M "P -1"
_symmetry_group_IT_number 2
_symmetry_cell_setting 'triclinic'
loop_
_space_group_symop_operation_xyz
x,y,z
-x,-y,-z
loop_
_atom_site_type_symbol
_atom_site_label
_atom_site_fract_x
_atom_site_fract_y
_atom_site_fract_z
Si Si1 0.837265 0.793527 0.931773
Si Si2 0.713594 0.105462 0.810669
Si Si3 0.524507 0.022120 0.314640
Si Si4 0.887823 0.326725 0.986963
Si Si5 0.764943 0.627343 0.213748
Si Si6 0.584345 0.720323 0.528160
Si Si7 0.258547 0.050064 0.775849
Si Si8 0.798966 0.904469 0.699455
O O1 0.778887 0.800199 0.815095
O O2 0.726437 0.639708 0.075120
O O3 0.805034 0.884756 0.068065
O O4 0.063396 0.895902 0.802033
O O5 0.837837 0.272258 0.839620
O O6 0.670793 0.085223 0.663039
O O7 0.786830 0.025697 0.779144
O O8 0.500000 0.000000 0.000000
O O9 0.500000 0.000000 0.500000
O O10 0.633440 0.970231 0.200125
O O11 0.684792 0.201380 0.186899
O O12 0.027738 0.306412 0.919237
O O13 0.000000 0.500000 0.000000
O O14 0.735456 0.717810 0.356031
O O15 0.617260 0.455891 0.349244
O O16 0.599781 0.825227 0.422973
O O17 0.643023 0.795691 0.661078
O O18 0.000000 0.000000 0.500000
#
# Coordination Sequence:
#
# PCOD9088442 Si02
#       8
#     2   2   2   2   2   2   2   2
#     4  10  20  35  62  88 119 159 204 256 311 377
#     4  10  24  41  62  96 127 166 216 259 311 388
#     4  11  23  40  66  93 125 162 219 265 307 376
#     4  11  24  42  65  86 127 180 208 257 323 384
#     4  10  22  41  59  89 129 165 207 250 329 386
#     4  10  22  37  65  93 123 162 204 265 321 380
#     4  10  19  37  61  87 117 162 205 252 310 370
#     4  12  22  36  66  98 123 157 215 272 313 365
#
# _framework density 20.487483000000001
#
# number of rings (size 3 to 8) (size 9 to 14) (size 15 to 20)
#    0.000    1.500    2.500    3.000    7.000    0.500 
#    0.000    0.625    0.000    0.000    0.000    0.000 
#    0.000    0.000    0.000    0.000    0.000    0.000 
#
# Total GULP energy -89171.788606 kJ/mol
# GULP energy per Si atom -5573.236788 kJ/mol
# Density = 2.044085 g / cm^3
# Si number density = 20.487483 Si / 1000 Ang^3
#
#
#
# Elastic Constant Matrix: (Units=GPa)
#
#
# Indices 1 2 3 4 5 6 
#
# 1 98.9485 27.8343 27.4802 -0.0343 12.6181 -4.6314
# 2 27.8343 96.3173 25.9430 4.3236 15.2501 2.9974
# 3 27.4802 25.9430 101.0090 -0.9039 15.4542 -0.9206
# 4 -0.0343 4.3236 -0.9039 26.2010 -0.2279 9.2106
# 5 12.6181 15.2501 15.4542 -0.2279 45.8438 4.5738
# 6 -4.6314 2.9974 -0.9206 9.2106 4.5738 20.2399
#
#
#
# Elastic Compliance Matrix: (Units=1/GPa)
#
#
# Indices 1 2 3 4 5 6 
#
# 1 0.011901 -0.002588 -0.002231 -0.001038 -0.002061 0.003943
# 2 -0.002588 0.012202 -0.002066 -0.001709 -0.002545 -0.001140
# 3 -0.002231 -0.002066 0.011450 0.000465 -0.002626 0.000698
# 4 -0.001038 -0.001709 0.000465 0.046097 0.003086 -0.021638
# 5 -0.002061 -0.002545 -0.002626 0.003086 0.024849 -0.007234
# 6 0.003943 -0.001140 0.000698 -0.021638 -0.007234 0.061992
#
#
# Mechanical properties :
#
#
# Convention : Reuss Voigt Hill
#
# Bulk Modulus (GPa) = 45.90843 50.97663 48.44253
# Shear Modulus (GPa) = 26.38217 32.79142 29.58679
#
# Velocity S-wave (km/s) = 3.59238 4.00504 3.80431
# Velocity P-wave (km/s) = 6.29790 6.80610 6.55693
#
# Compressibility (1/GPa) = 0.02178249
#
# Stress axis : x y z
#
# Youngs Moduli (GPa) = 84.02685 81.95422 87.33624
#
# Poissons Ratio (x) = 0.21210 0.19485
# Poissons Ratio (y) = 0.21746 0.18045
# Poissons Ratio (z) = 0.18747 0.16933
#
# Static dielectric constant tensor:
#      x y z
#    x 1.785290 -0.022480 -0.003300 
#    y -0.022480 1.790580 0.016180 
#    z -0.003300 0.016180 1.829150 
# 
# From -- ./inp_files/258925.got.cif
#   From: 2010.05.17/outbox.cif.g08.bks.cpg/sg2_130_cif.got.tgz:258925.got - 2010.06.03 11:33:40.
