data_PCOD9088308
_publ_section_title
;
Structure prediction by ZEFSAII (Michael W. Deem and Ramdas Pophale) SiO2 
 PCOD9088308
Probable space group: P -1
;
_chemical_formula_sum "Si O2"
_cell_formula_units_Z 16
_cell_length_a 19.047211
_cell_length_b 9.189863
_cell_length_c 11.987774
_cell_angle_alpha 121.521659
_cell_angle_beta 32.119407
_cell_angle_gamma 132.555572
_cell_volume 815.106418
_symmetry_space_group_name_H-M "P -1"
_symmetry_group_IT_number 2
_symmetry_cell_setting 'triclinic'
loop_
_space_group_symop_operation_xyz
x,y,z
-x,-y,-z
loop_
_atom_site_type_symbol
_atom_site_label
_atom_site_fract_x
_atom_site_fract_y
_atom_site_fract_z
Si Si1 0.540351 0.834292 0.852227
Si Si2 0.943746 0.843049 0.910727
Si Si3 0.674269 0.557317 0.301369
Si Si4 0.837134 0.841446 0.407929
Si Si5 0.561633 0.765067 0.042169
Si Si6 0.004430 0.502291 0.628532
Si Si7 0.320528 0.773742 0.935652
Si Si8 0.749729 0.592634 0.644563
O O1 0.718950 0.918768 0.621496
O O2 0.435470 0.741221 0.848321
O O3 0.506908 0.716392 0.965529
O O4 0.500000 0.000000 0.000000
O O5 0.018341 0.703910 0.740517
O O6 0.769215 0.687563 0.117521
O O7 0.998043 0.980512 0.783002
O O8 0.000000 0.000000 0.000000
O O9 0.500000 0.500000 0.500000
O O10 0.755199 0.689484 0.354678
O O11 0.693301 0.364956 0.204003
O O12 0.833042 0.724287 0.476425
O O13 0.412582 0.607335 0.247722
O O14 0.614347 0.994405 0.082407
O O15 0.699788 0.720245 0.840432
O O16 0.142044 0.472514 0.469380
O O17 0.000000 0.500000 0.500000
O O18 0.842909 0.322321 0.821146
#
# Coordination Sequence:
#
# PCOD9088308 Si02
#       8
#     2   2   2   2   2   2   2   2
#     4   9  17  29  59  85 111 151 194 232 286 350
#     4   9  22  40  60  89 118 159 203 232 294 366
#     4  10  19  37  60  88 118 151 200 249 286 344
#     4  10  20  38  61  84 117 160 200 235 290 355
#     4   9  20  36  56  82 121 154 194 230 299 358
#     4  11  24  37  62  91 119 151 199 251 301 345
#     4  10  20  35  55  90 118 146 196 248 293 343
#     4  10  22  39  58  84 120 160 193 240 293 358
#
# _framework density 19.629338000000001
#
# number of rings (size 3 to 8) (size 9 to 14) (size 15 to 20)
#    0.000    2.250    1.250    0.750    8.750    0.500 
#    0.000    6.250    0.000    0.000    0.000    0.000 
#    0.000    0.000    0.000    0.000    0.000    0.000 
#
# Total GULP energy -89132.524325 kJ/mol
# GULP energy per Si atom -5570.782770 kJ/mol
# Density = 1.958466 g / cm^3
# Si number density = 19.629338 Si / 1000 Ang^3
#
#
#
# Elastic Constant Matrix: (Units=GPa)
#
#
# Indices 1 2 3 4 5 6 
#
# 1 53.6437 28.7957 41.3897 7.6351 -8.8424 -15.2392
# 2 28.7957 147.4456 66.7249 0.7559 -0.8047 -11.0736
# 3 41.3897 66.7249 122.0239 -0.6777 -6.7352 -18.0837
# 4 7.6351 0.7559 -0.6777 41.6126 -2.3153 4.5681
# 5 -8.8424 -0.8047 -6.7352 -2.3153 21.4695 0.3871
# 6 -15.2392 -11.0736 -18.0837 4.5681 0.3871 19.3395
#
#
#
# Elastic Compliance Matrix: (Units=1/GPa)
#
#
# Indices 1 2 3 4 5 6 
#
# 1 0.033606 -0.001834 -0.006791 -0.007942 0.010411 0.020749
# 2 -0.001834 0.009157 -0.004549 0.000042 -0.001827 -0.000429
# 3 -0.006791 -0.004549 0.013752 0.001124 0.001385 0.004610
# 4 -0.007942 0.000042 0.001124 0.026780 0.000179 -0.011513
# 5 0.010411 -0.001827 0.001385 0.000179 0.051118 0.007387
# 6 0.020749 -0.000429 0.004610 -0.011513 0.007387 0.074694
#
#
# Mechanical properties :
#
#
# Convention : Reuss Voigt Hill
#
# Bulk Modulus (GPa) = 33.14885 66.32599 49.73742
# Shear Modulus (GPa) = 20.36577 28.89784 24.63181
#
# Velocity S-wave (km/s) = 3.22455 3.84106 3.54622
# Velocity P-wave (km/s) = 5.54866 7.31671 6.49314
#
# Compressibility (1/GPa) = 0.03016696
#
# Stress axis : x y z
#
# Youngs Moduli (GPa) = 29.75617 109.21094 72.71776
#
# Poissons Ratio (x) = 0.20034 0.49379
# Poissons Ratio (y) = 0.05459 0.33079
# Poissons Ratio (z) = 0.20206 0.49680
#
# Static dielectric constant tensor:
#      x y z
#    x 1.751290 0.052630 0.039430 
#    y 0.052630 1.759360 0.027830 
#    z 0.039430 0.027830 1.728790 
# 
# From -- ./inp_files/188435.got.cif
#   From: 2010.05.17/outbox.cif.g08.bks.cpg/sg2_95_cif.got.tgz:188435.got - 2010.06.03 11:33:40.
