data_PCOD9088131
_publ_section_title
;
Structure prediction by ZEFSAII (Michael W. Deem and Ramdas Pophale) SiO2 
 PCOD9088131
Probable space group: P -1
;
_chemical_formula_sum "Si O2"
_cell_formula_units_Z 14
_cell_length_a 13.629127
_cell_length_b 23.171656
_cell_length_c 7.905862
_cell_angle_alpha 116.308221
_cell_angle_beta 66.678192
_cell_angle_gamma 165.933107
_cell_volume 537.320173
_symmetry_space_group_name_H-M "P -1"
_symmetry_group_IT_number 2
_symmetry_cell_setting 'triclinic'
loop_
_space_group_symop_operation_xyz
x,y,z
-x,-y,-z
loop_
_atom_site_type_symbol
_atom_site_label
_atom_site_fract_x
_atom_site_fract_y
_atom_site_fract_z
Si Si1 0.472198 0.680704 0.237154
Si Si2 0.463921 0.885197 0.917929
Si Si3 0.916769 0.725498 0.618777
Si Si4 0.545507 0.375025 0.468434
Si Si5 0.293825 0.265057 0.151231
Si Si6 0.219695 0.853145 0.258474
Si Si7 0.933280 0.471039 0.207881
O O1 0.636579 0.754676 0.400491
O O2 0.326041 0.669122 0.292078
O O3 0.012169 0.380865 0.159927
O O4 0.730113 0.801985 0.064246
O O5 0.440879 0.795213 0.839124
O O6 0.747111 0.076577 0.824986
O O7 0.496893 0.953360 0.143718
O O8 0.500000 0.500000 0.500000
O O9 0.786691 0.581915 0.601157
O O10 0.949715 0.810779 0.811505
O O11 0.264340 0.915984 0.487253
O O12 0.235336 0.207376 0.308060
O O13 0.832959 0.484397 0.347526
O O14 0.774090 0.562796 0.202991
O O15 0.000000 0.500000 0.000000
#
# Coordination Sequence:
#
# PCOD9088131 Si02
#       7
#     2   2   2   2   2   2   2
#     4   9  18  27  43  70  86 111 143 177 218 257
#     4   8  16  23  42  66  89 114 139 175 214 262
#     4   8  16  27  46  62  84 116 145 177 212 247
#     4  10  16  28  44  65  90 111 141 182 215 250
#     4   9  17  31  46  65  87 114 147 180 208 250
#     4   8  12  28  42  61  90 115 137 177 214 251
#     4  10  16  28  43  65  92 113 140 178 217 258
#
# _framework density 26.055226999999999
#
# number of rings (size 3 to 8) (size 9 to 14) (size 15 to 20)
#    0.857    2.571    1.429    1.286    0.000    0.571 
#    0.000    2.857    0.000    7.714    0.000    1.000 
#    0.000    0.000    0.000    0.286    0.000    0.000 
#
# Total GULP energy -78155.620226 kJ/mol
# GULP energy per Si atom -5582.544302 kJ/mol
# Density = 2.599592 g / cm^3
# Si number density = 26.055227 Si / 1000 Ang^3
#
#
#
# Elastic Constant Matrix: (Units=GPa)
#
#
# Indices 1 2 3 4 5 6 
#
# 1 171.0036 17.2886 48.0061 0.5720 -29.7712 -14.7896
# 2 17.2886 51.0381 15.2297 41.9935 14.5760 6.0978
# 3 48.0061 15.2297 109.4830 -2.0791 -7.1275 -3.5951
# 4 0.5720 41.9935 -2.0791 21.9325 -20.2893 -11.0589
# 5 -29.7712 14.5760 -7.1275 -20.2893 43.3802 -13.3971
# 6 -14.7896 6.0978 -3.5951 -11.0589 -13.3971 17.5718
#
#
#
# Elastic Compliance Matrix: (Units=1/GPa)
#
#
# Indices 1 2 3 4 5 6 
#
# 1 0.006665 0.003132 -0.003405 -0.005614 0.000559 0.000719
# 2 0.003132 0.003950 -0.000405 0.011444 0.011377 0.017059
# 3 -0.003405 -0.000405 0.010473 -0.000958 -0.001693 -0.002476
# 4 -0.005614 0.011444 -0.000958 -0.002427 -0.015969 -0.022595
# 5 0.000559 0.011377 -0.001693 -0.015969 0.009916 -0.006314
# 6 0.000719 0.017059 -0.002476 -0.022595 -0.006314 0.032054
#
#
# Mechanical properties :
#
#
# Convention : Reuss Voigt Hill
#
# Bulk Modulus (GPa) = 50.67550 54.73038 52.70294
# Shear Modulus (GPa) = 72.92397 33.31024 53.11710
#
# Velocity S-wave (km/s) = 5.29613 3.57942 4.52002
# Velocity P-wave (km/s) = 7.54256 6.17528 6.89290
#
# Compressibility (1/GPa) = 0.01973340
#
# Stress axis : x y z
#
# Youngs Moduli (GPa) = 150.03155 253.19359 95.47967
#
# Poissons Ratio (x) = -0.79303 0.32510
# Poissons Ratio (y) = -0.46991 0.03863
# Poissons Ratio (z) = 0.51085 0.10244
#
# Static dielectric constant tensor:
#      x y z
#    x 2.157090 0.072910 0.101090 
#    y 0.072910 2.021430 0.074720 
#    z 0.101090 0.074720 2.151160 
# 
# From -- ./inp_files/319676.got.cif
#   From: 2010.05.17/outbox.cif.g08.bks.cpg/sg2_160_cif.got.tgz:319676.got - 2010.06.03 11:33:40.
