data_PCOD9088868
_publ_section_title
;
Structure prediction by ZEFSAII (Michael W. Deem and Ramdas Pophale) SiO2 
 PCOD9088868
Probable space group: P -1
;
_chemical_formula_sum "Si O2"
_cell_formula_units_Z 14
_cell_length_a 10.232176
_cell_length_b 10.172857
_cell_length_c 15.616708
_cell_angle_alpha 20.429943
_cell_angle_beta 106.368190
_cell_angle_gamma 99.730531
_cell_volume 522.026380
_symmetry_space_group_name_H-M "P -1"
_symmetry_group_IT_number 2
_symmetry_cell_setting 'triclinic'
loop_
_space_group_symop_operation_xyz
x,y,z
-x,-y,-z
loop_
_atom_site_type_symbol
_atom_site_label
_atom_site_fract_x
_atom_site_fract_y
_atom_site_fract_z
Si Si1 0.281701 0.106247 0.949170
Si Si2 0.937347 0.259115 0.061560
Si Si3 0.226661 0.737256 0.443002
Si Si4 0.295625 0.192292 0.527466
Si Si5 0.331588 0.121641 0.387882
Si Si6 0.440193 0.961390 0.224184
Si Si7 0.996729 0.617609 0.677382
O O1 0.288158 0.271827 0.753842
O O2 0.132229 0.351700 0.814415
O O3 0.302259 0.639783 0.240950
O O4 0.399986 0.163959 0.002416
O O5 0.766281 0.437509 0.924485
O O6 0.962884 0.359337 0.905912
O O7 0.057776 0.846897 0.340647
O O8 0.000000 0.500000 0.000000
O O9 0.297010 0.962750 0.249294
O O10 0.278665 0.880540 0.453524
O O11 0.293794 0.017142 0.540057
O O12 0.433745 0.952935 0.750332
O O13 0.136156 0.240029 0.500358
O O14 0.500000 0.000000 0.500000
O O15 0.500000 0.500000 0.500000
O O16 0.000000 0.000000 0.500000
#
# Coordination Sequence:
#
# PCOD9088868 Si02
#       7
#     2   2   2   2   2   2   2
#     4  11  23  41  69  94 128 177 214 262 328 387
#     4   9  19  35  61  90 125 163 208 264 314 373
#     4  11  21  42  67  92 130 170 218 264 322 386
#     4  10  22  40  63  95 134 165 215 276 319 382
#     4  10  19  37  63  92 127 170 210 269 321 370
#     4  10  22  41  65  93 135 171 211 268 324 381
#     4  11  21  40  67  94 127 167 219 264 327 389
#
# _framework density 26.818567999999999
#
# number of rings (size 3 to 8) (size 9 to 14) (size 15 to 20)
#    0.000    1.714    2.857    3.000    0.000    2.286 
#    0.000   10.000   12.571    0.000    0.000    0.000 
#    0.000    0.000    0.000    0.000    0.000    0.000 
#
# Total GULP energy -78109.153074 kJ/mol
# GULP energy per Si atom -5579.225220 kJ/mol
# Density = 2.675753 g / cm^3
# Si number density = 26.818568 Si / 1000 Ang^3
#
#
#
# Elastic Constant Matrix: (Units=GPa)
#
#
# Indices 1 2 3 4 5 6 
#
# 1 134.0873 2.0151 34.2007 16.4462 44.2112 8.3539
# 2 2.0151 56.4647 4.6797 -0.1253 8.8370 17.2196
# 3 34.2007 4.6797 115.6135 26.2236 31.9523 24.5275
# 4 16.4462 -0.1253 26.2236 46.7847 12.6709 9.1067
# 5 44.2112 8.8370 31.9523 12.6709 47.8556 11.5269
# 6 8.3539 17.2196 24.5275 9.1067 11.5269 41.0624
#
#
#
# Elastic Compliance Matrix: (Units=1/GPa)
#
#
# Indices 1 2 3 4 5 6 
#
# 1 0.010880 0.000993 -0.000443 -0.001036 -0.009814 0.000619
# 2 0.000993 0.020981 0.001531 0.001733 -0.004067 -0.009157
# 3 -0.000443 0.001531 0.012404 -0.004183 -0.005743 -0.005422
# 4 -0.001036 0.001733 -0.004183 0.025354 -0.002581 -0.002916
# 5 -0.009814 -0.004067 -0.005743 -0.002581 0.035796 -0.002344
# 6 0.000619 -0.009157 -0.005422 -0.002916 -0.002344 0.032611
#
#
# Mechanical properties :
#
#
# Convention : Reuss Voigt Hill
#
# Bulk Modulus (GPa) = 20.64925 43.10629 31.87777
# Shear Modulus (GPa) = 33.33169 44.82520 39.07845
#
# Velocity S-wave (km/s) = 3.52924 4.09274 3.82139
# Velocity P-wave (km/s) = 4.93191 6.20018 5.60205
#
# Compressibility (1/GPa) = 0.04842791
#
# Stress axis : x y z
#
# Youngs Moduli (GPa) = 91.90889 47.66243 80.61593
#
# Poissons Ratio (x) = -0.04734 0.03569
# Poissons Ratio (y) = -0.09129 -0.12339
# Poissons Ratio (z) = 0.04069 -0.07295
#
# Static dielectric constant tensor:
#      x y z
#    x -0.286760 -1.491330 2.150360 
#    y -1.491330 1.267870 1.203070 
#    z 2.150360 1.203070 0.412820 
# 
# From -- ./inp_files/205277.got.cif
#   From: 2010.05.17/outbox.cif.g08.bks.cpg/sg2_103_cif.got.tgz:205277.got - 2010.06.03 11:33:40.
