data_PCOD9088203
_publ_section_title
;
Structure prediction by ZEFSAII (Michael W. Deem and Ramdas Pophale) SiO2 
 PCOD9088203
Probable space group: P -1
;
_chemical_formula_sum "Si O2"
_cell_formula_units_Z 16
_cell_length_a 10.707491
_cell_length_b 11.929423
_cell_length_c 8.002528
_cell_angle_alpha 94.503767
_cell_angle_beta 120.211447
_cell_angle_gamma 54.485835
_cell_volume 685.014956
_symmetry_space_group_name_H-M "P -1"
_symmetry_group_IT_number 2
_symmetry_cell_setting 'triclinic'
loop_
_space_group_symop_operation_xyz
x,y,z
-x,-y,-z
loop_
_atom_site_type_symbol
_atom_site_label
_atom_site_fract_x
_atom_site_fract_y
_atom_site_fract_z
Si Si1 0.240640 0.451048 0.136887
Si Si2 0.327292 0.770461 0.696904
Si Si3 0.512312 0.285465 0.852985
Si Si4 0.112548 0.295937 0.183442
Si Si5 0.669957 0.452232 0.489718
Si Si6 0.640674 0.996762 0.847484
Si Si7 0.838455 0.669164 0.414929
Si Si8 0.273757 0.047237 0.705378
O O1 0.456604 0.337891 0.228099
O O2 0.168388 0.359373 0.088264
O O3 0.211543 0.526866 0.305640
O O4 0.110145 0.585797 0.939917
O O5 0.241187 0.704883 0.540656
O O6 0.240794 0.934561 0.617117
O O7 0.352177 0.744612 0.910690
O O8 0.421707 0.430621 0.706835
O O9 0.334942 0.298133 0.798881
O O10 0.608763 0.141622 0.789643
O O11 0.198015 0.137533 0.167030
O O12 0.205617 0.293334 0.414829
O O13 0.500000 0.500000 0.500000
O O14 0.456486 0.007196 0.726229
O O15 0.688197 0.978202 0.074141
O O16 0.872663 0.780104 0.395459
O O17 0.000000 0.500000 0.500000
#
# Coordination Sequence:
#
# PCOD9088203 Si02
#       8
#     2   2   2   2   2   2   2   2
#     4  10  21  34  52  84 107 149 186 223 277 325
#     4  10  19  37  60  76 115 146 187 226 271 327
#     4  10  20  36  56  87 110 144 189 226 278 329
#     4  11  21  33  55  79 117 146 176 231 282 327
#     4  10  21  36  56  81 110 148 192 231 261 324
#     4   9  19  33  56  81 114 142 179 234 278 333
#     4  11  23  34  55  86 119 143 178 234 282 338
#     4   9  19  34  53  83 111 144 184 225 282 328
#
# _framework density 23.357153
#
# number of rings (size 3 to 8) (size 9 to 14) (size 15 to 20)
#    0.000    2.000    2.500    1.875    3.500    4.000 
#    0.000    0.000    0.000   15.000    0.000    0.000 
#    0.000    0.000    0.000    0.000    0.000    0.000 
#
# Total GULP energy -89303.281946 kJ/mol
# GULP energy per Si atom -5581.455122 kJ/mol
# Density = 2.330399 g / cm^3
# Si number density = 23.357153 Si / 1000 Ang^3
#
#
#
# Elastic Constant Matrix: (Units=GPa)
#
#
# Indices 1 2 3 4 5 6 
#
# 1 43.8057 14.6177 -3.9378 0.0041 1.8878 11.4370
# 2 14.6177 192.8115 24.4307 4.8219 -1.4835 28.7252
# 3 -3.9378 24.4307 50.0994 4.3369 -2.9525 12.7681
# 4 0.0041 4.8219 4.3369 31.0851 2.5132 2.0308
# 5 1.8878 -1.4835 -2.9525 2.5132 20.1094 -4.1260
# 6 11.4370 28.7252 12.7681 2.0308 -4.1260 36.6615
#
#
#
# Elastic Compliance Matrix: (Units=1/GPa)
#
#
# Indices 1 2 3 4 5 6 
#
# 1 0.026280 -0.001248 0.004792 0.000442 -0.003828 -0.009345
# 2 -0.001248 0.006106 -0.002131 -0.000372 -0.000454 -0.003683
# 3 0.004792 -0.002131 0.023669 -0.002596 0.001604 -0.007744
# 4 0.000442 -0.000372 -0.002596 0.033068 -0.004854 -0.001320
# 5 -0.003828 -0.000454 0.001604 -0.004854 0.052364 0.007154
# 6 -0.009345 -0.003683 -0.007744 -0.001320 0.007154 0.036653
#
#
# Mechanical properties :
#
#
# Convention : Reuss Voigt Hill
#
# Bulk Modulus (GPa) = 16.98379 39.65976 28.32178
# Shear Modulus (GPa) = 25.64887 34.34494 29.99690
#
# Velocity S-wave (km/s) = 3.31738 3.83877 3.58756
# Velocity P-wave (km/s) = 4.68620 6.05515 5.41411
#
# Compressibility (1/GPa) = 0.05887969
#
# Stress axis : x y z
#
# Youngs Moduli (GPa) = 38.05187 163.78509 42.24917
#
# Poissons Ratio (x) = 0.20438 -0.20245
# Poissons Ratio (y) = 0.04748 0.09005
# Poissons Ratio (z) = -0.18234 0.34909
#
# Static dielectric constant tensor:
#      x y z
#    x 1.897820 -0.020090 0.021140 
#    y -0.020090 1.939320 -0.020600 
#    z 0.021140 -0.020600 1.905550 
# 
# From -- ./inp_files/189402.got.cif
#   From: 2010.05.17/outbox.cif.g08.bks.cpg/sg2_95_cif.got.tgz:189402.got - 2010.06.03 11:33:40.
