data_PCOD9088999
_publ_section_title
;
Structure prediction by ZEFSAII (Michael W. Deem and Ramdas Pophale) SiO2 
 PCOD9088999
Probable space group: P -1
;
_chemical_formula_sum "Si O2"
_cell_formula_units_Z 12
_cell_length_a 23.893047
_cell_length_b 26.567201
_cell_length_c 6.918738
_cell_angle_alpha 51.499204
_cell_angle_beta 49.922962
_cell_angle_gamma 9.845245
_cell_volume 572.262874
_symmetry_space_group_name_H-M "P -1"
_symmetry_group_IT_number 2
_symmetry_cell_setting 'triclinic'
loop_
_space_group_symop_operation_xyz
x,y,z
-x,-y,-z
loop_
_atom_site_type_symbol
_atom_site_label
_atom_site_fract_x
_atom_site_fract_y
_atom_site_fract_z
Si Si1 0.726275 0.599949 0.707458
Si Si2 0.606830 0.335993 0.611884
Si Si3 0.684534 0.988220 0.013038
Si Si4 0.902893 0.267179 0.536086
Si Si5 0.796781 0.703829 0.643137
Si Si6 0.538512 0.291122 0.208626
O O1 0.567304 0.684556 0.717025
O O2 0.940608 0.471722 0.428775
O O3 0.458379 0.860931 0.827160
O O4 0.994303 0.331312 0.885899
O O5 0.500000 0.500000 0.500000
O O6 0.385687 0.501296 0.529282
O O7 0.544770 0.341363 0.915032
O O8 0.000000 0.000000 0.500000
O O9 0.394098 0.191700 0.082470
O O10 0.812202 0.935183 0.720246
O O11 0.727459 0.458581 0.637484
O O12 0.093243 0.040205 0.731383
O O13 0.000000 0.500000 0.500000
O O14 0.500000 0.000000 0.500000
#
# Coordination Sequence:
#
# PCOD9088999 Si02
#       6
#     2   2   2   2   2   2
#     4  10  19  37  64  91 132 174 216 262 315 375
#     4  12  28  48  72  95 130 169 212 270 334 392
#     4  10  19  37  64  91 132 174 216 262 315 375
#     4  12  26  43  69 101 132 168 218 267 324 390
#     4   8  16  30  56  92 122 171 219 256 306 367
#     4  12  26  43  69 101 132 168 218 267 324 390
#
# _framework density 20.969384000000002
#
# number of rings (size 3 to 8) (size 9 to 14) (size 15 to 20)
#    0.000    1.333    1.667    4.000    2.333    4.000 
#    0.000    1.667    0.000    0.000    0.000    0.000 
#    0.000    0.000    0.000    0.000    0.000    0.000 
#
# Total GULP energy -67050.348399 kJ/mol
# GULP energy per Si atom -5587.529033 kJ/mol
# Density = 2.092166 g / cm^3
# Si number density = 20.969384 Si / 1000 Ang^3
#
#
#
# Elastic Constant Matrix: (Units=GPa)
#
#
# Indices 1 2 3 4 5 6 
#
# 1 99.2116 38.7131 83.4859 23.0887 -25.5451 -1.0732
# 2 38.7131 113.2417 44.2512 6.2992 -5.3155 8.6105
# 3 83.4859 44.2512 51.1714 -0.0217 5.1114 -41.9278
# 4 23.0887 6.2992 -0.0217 36.6481 2.1253 -6.3801
# 5 -25.5451 -5.3155 5.1114 2.1253 19.0424 8.2251
# 6 -1.0732 8.6105 -41.9278 -6.3801 8.2251 34.7376
#
#
#
# Elastic Compliance Matrix: (Units=1/GPa)
#
#
# Indices 1 2 3 4 5 6 
#
# 1 0.004551 -0.005953 0.008340 0.000537 -0.003279 0.012557
# 2 -0.005953 0.010562 0.000133 0.002017 -0.004810 -0.001132
# 3 0.008340 0.000133 -0.002874 -0.007735 0.016569 -0.008588
# 4 0.000537 0.002017 -0.007735 0.025395 0.003066 -0.005881
# 5 -0.003279 -0.004810 0.016569 0.003066 0.036348 0.013046
# 6 0.012557 -0.001132 -0.008588 -0.005881 0.013046 0.014921
#
#
# Mechanical properties :
#
#
# Convention : Reuss Voigt Hill
#
# Bulk Modulus (GPa) = 57.87718 66.28060 62.07889
# Shear Modulus (GPa) = 55.78781 24.56391 40.17586
#
# Velocity S-wave (km/s) = 5.16354 3.42631 4.38188
# Velocity P-wave (km/s) = 7.95049 6.87966 7.43438
#
# Compressibility (1/GPa) = 0.01727797
#
# Stress axis : x y z
#
# Youngs Moduli (GPa) = 219.72215 94.67835 -347.95966
#
# Poissons Ratio (x) = 0.56366 2.90191
# Poissons Ratio (y) = 1.30810 0.04625
# Poissons Ratio (z) = -1.83244 -0.01258
#
# Static dielectric constant tensor:
#      x y z
#    x 1.762370 -0.043260 -0.023690 
#    y -0.043260 1.744000 -0.010250 
#    z -0.023690 -0.010250 1.771200 
# 
# From -- ./inp_files/6899.got.cif
#   From: 2010.05.17/outbox.cif.g08.bks.cpg/sg2_4_cif.got.tgz:6899.got - 2010.06.03 11:33:40.
