data_PCOD9088819
_publ_section_title
;
Structure prediction by ZEFSAII (Michael W. Deem and Ramdas Pophale) SiO2 
 PCOD9088819
Probable space group: P -1
;
_chemical_formula_sum "Si O2"
_cell_formula_units_Z 13
_cell_length_a 5.709882
_cell_length_b 11.903457
_cell_length_c 7.167168
_cell_angle_alpha 89.706224
_cell_angle_beta 78.345144
_cell_angle_gamma 74.306963
_cell_volume 458.672267
_symmetry_space_group_name_H-M "P -1"
_symmetry_group_IT_number 2
_symmetry_cell_setting 'triclinic'
loop_
_space_group_symop_operation_xyz
x,y,z
-x,-y,-z
loop_
_atom_site_type_symbol
_atom_site_label
_atom_site_fract_x
_atom_site_fract_y
_atom_site_fract_z
Si Si1 0.921514 0.444111 0.241219
Si Si2 0.139175 0.638822 0.345918
Si Si3 0.772756 0.088599 0.437382
Si Si4 0.500000 0.500000 0.000000
Si Si5 0.713066 0.850948 0.441546
Si Si6 0.345200 0.226579 0.113447
Si Si7 0.080398 0.860310 0.962063
O O1 0.828443 0.393329 0.441577
O O2 0.945611 0.569653 0.298939
O O3 0.213012 0.366690 0.155124
O O4 0.752697 0.438118 0.092407
O O5 0.986101 0.773268 0.350609
O O6 0.385246 0.586955 0.192234
O O7 0.682033 0.980829 0.366091
O O8 0.544959 0.169788 0.586353
O O9 0.859111 0.160399 0.267488
O O10 0.000000 0.000000 0.500000
O O11 0.679454 0.825365 0.672024
O O12 0.635389 0.190974 0.010565
O O13 0.168017 0.184500 0.995670
O O14 0.000000 0.000000 0.000000
#
# Coordination Sequence:
#
# PCOD9088819 Si02
#       7
#     2   2   2   1   2   2   2
#     4  10  24  45  70  95 140 185 231 292 358 430
#     4  10  23  45  67 100 135 186 233 288 362 425
#     4  10  19  37  63  89 127 168 221 279 334 407
#     4  12  24  42  68 102 136 172 242 298 346 424
#     4   9  20  39  63  93 127 176 227 276 344 419
#     4  10  22  42  67  93 136 182 226 279 354 419
#     4  11  23  40  64  98 134 177 225 281 347 420
#
# _framework density 28.342676999999998
#
# number of rings (size 3 to 8) (size 9 to 14) (size 15 to 20)
#    0.000    1.846    1.538    1.385    2.154    2.462 
#    8.308    0.000    0.000    0.000    0.000    0.000 
#    0.000    0.000    0.000    0.000    0.000    0.000 
#
# Total GULP energy -72378.742520 kJ/mol
# GULP energy per Si atom -5567.595578 kJ/mol
# Density = 2.827817 g / cm^3
# Si number density = 28.342677 Si / 1000 Ang^3
#
#
#
# Elastic Constant Matrix: (Units=GPa)
#
#
# Indices 1 2 3 4 5 6 
#
# 1 162.9710 43.1812 36.4344 13.1404 -0.8445 -52.0531
# 2 43.1812 127.9237 31.3324 13.9705 -4.1805 -25.5538
# 3 36.4344 31.3324 135.8561 -6.3580 -7.3544 -25.0849
# 4 13.1404 13.9705 -6.3580 52.1051 -18.0604 1.5317
# 5 -0.8445 -4.1805 -7.3544 -18.0604 57.9223 16.8601
# 6 -52.0531 -25.5538 -25.0849 1.5317 16.8601 62.2765
#
#
#
# Elastic Compliance Matrix: (Units=1/GPa)
#
#
# Indices 1 2 3 4 5 6 
#
# 1 0.009573 -0.001007 -0.001199 -0.003797 -0.003653 0.008188
# 2 -0.001007 0.009388 -0.001589 -0.002983 -0.001281 0.002791
# 3 -0.001199 -0.001589 0.008469 0.002140 0.001210 0.001377
# 4 -0.003797 -0.002983 0.002140 0.024770 0.009695 -0.006770
# 5 -0.003653 -0.001281 0.001210 0.009695 0.023084 -0.009580
# 6 0.008188 0.002791 0.001377 -0.006770 -0.009580 0.027361
#
#
# Mechanical properties :
#
#
# Convention : Reuss Voigt Hill
#
# Bulk Modulus (GPa) = 50.40152 72.07188 61.23670
# Shear Modulus (GPa) = 42.79104 55.51431 49.15267
#
# Velocity S-wave (km/s) = 3.88980 4.43050 4.16892
# Velocity P-wave (km/s) = 6.16405 7.18724 6.69522
#
# Compressibility (1/GPa) = 0.01984067
#
# Stress axis : x y z
#
# Youngs Moduli (GPa) = 104.45595 106.52420 118.08395
#
# Poissons Ratio (x) = 0.10726 0.14156
# Poissons Ratio (y) = 0.10518 0.18760
# Poissons Ratio (z) = 0.12522 0.16923
#
# Static dielectric constant tensor:
#      x y z
#    x 3.127830 -0.059070 -0.620210 
#    y -0.059070 2.637840 0.402250 
#    z -0.620210 0.402250 3.186110 
# 
# From -- ./inp_files/116282.got.cif
#   From: 2010.05.17/outbox.cif.g08.bks.cpg/sg2_59_cif.got.tgz:116282.got - 2010.06.03 11:33:40.
