data_PCOD9088217
_publ_section_title
;
Structure prediction by ZEFSAII (Michael W. Deem and Ramdas Pophale) SiO2 
 PCOD9088217
Probable space group: P -1
;
_chemical_formula_sum "Si O2"
_cell_formula_units_Z 14
_cell_length_a 14.493466
_cell_length_b 21.008216
_cell_length_c 6.704253
_cell_angle_alpha 129.965888
_cell_angle_beta 63.877456
_cell_angle_gamma 154.604998
_cell_volume 607.076613
_symmetry_space_group_name_H-M "P -1"
_symmetry_group_IT_number 2
_symmetry_cell_setting 'triclinic'
loop_
_space_group_symop_operation_xyz
x,y,z
-x,-y,-z
loop_
_atom_site_type_symbol
_atom_site_label
_atom_site_fract_x
_atom_site_fract_y
_atom_site_fract_z
Si Si1 0.913529 0.385879 0.140461
Si Si2 0.317432 0.307423 0.900865
Si Si3 0.210292 0.067834 0.247304
Si Si4 0.442572 0.772825 0.491357
Si Si5 0.054736 0.407833 0.648650
Si Si6 0.455970 0.965717 0.709017
Si Si7 0.469761 0.300836 0.083172
O O1 0.159145 0.563167 0.387037
O O2 0.886027 0.455027 0.200327
O O3 0.976546 0.364674 0.864830
O O4 0.660364 0.170043 0.024896
O O5 0.264325 0.191348 0.569348
O O6 0.422867 0.347404 0.087575
O O7 0.500000 0.500000 0.000000
O O8 0.058438 0.154831 0.895895
O O9 0.395792 0.136453 0.295773
O O10 0.262666 0.126142 0.083919
O O11 0.491353 0.896872 0.598134
O O12 0.496797 0.747277 0.209562
O O13 0.819556 0.208818 0.353152
O O14 0.287878 0.521455 0.658961
O O15 0.500000 0.000000 0.500000
#
# Coordination Sequence:
#
# PCOD9088217 Si02
#       7
#     2   2   2   2   2   2   2
#     4   8  14  28  48  74 111 147 181 218 256 306
#     4  10  23  42  61  82 108 139 180 229 281 339
#     4  10  22  40  60  82 110 144 179 225 284 333
#     4   9  19  33  54  81 109 146 187 220 261 322
#     4   8  15  27  47  76 106 143 184 216 257 316
#     4   9  15  27  51  77 109 153 185 215 265 312
#     4  10  19  37  60  82 112 144 180 229 277 325
#
# _framework density 23.061337999999999
#
# number of rings (size 3 to 8) (size 9 to 14) (size 15 to 20)
#    0.000    2.857    0.000    3.000    0.000    5.143 
#    0.000   10.000    0.000    4.286    0.000    0.000 
#    0.000    0.000    0.000    0.000    0.000    0.000 
#
# Total GULP energy -78243.265988 kJ/mol
# GULP energy per Si atom -5588.804713 kJ/mol
# Density = 2.300885 g / cm^3
# Si number density = 23.061338 Si / 1000 Ang^3
#
#
#
# Elastic Constant Matrix: (Units=GPa)
#
#
# Indices 1 2 3 4 5 6 
#
# 1 132.9684 76.5368 47.5137 26.2559 33.6478 -0.9345
# 2 76.5368 147.7111 41.3486 29.7004 15.9347 -7.1471
# 3 47.5137 41.3486 95.9377 40.0410 15.6515 -5.9274
# 4 26.2559 29.7004 40.0410 57.7147 0.7350 9.5879
# 5 33.6478 15.9347 15.6515 0.7350 26.9921 3.2103
# 6 -0.9345 -7.1471 -5.9274 9.5879 3.2103 33.7591
#
#
#
# Elastic Compliance Matrix: (Units=1/GPa)
#
#
# Indices 1 2 3 4 5 6 
#
# 1 0.015780 -0.005289 -0.001355 -0.003582 -0.015856 0.001604
# 2 -0.005289 0.010335 -0.000475 -0.003050 0.000520 0.002775
# 3 -0.001355 -0.000475 0.019006 -0.013524 -0.009629 0.007956
# 4 -0.003582 -0.003050 -0.013524 0.031981 0.014856 -0.013615
# 5 -0.015856 0.000520 -0.009629 0.014856 0.063142 -0.012243
# 6 0.001604 0.002775 0.007956 -0.013615 -0.012243 0.036681
#
#
# Mechanical properties :
#
#
# Convention : Reuss Voigt Hill
#
# Bulk Modulus (GPa) = 32.38012 78.60170 55.49091
# Shear Modulus (GPa) = 24.81906 37.77439 31.29673
#
# Velocity S-wave (km/s) = 3.28414 4.05161 3.68789
# Velocity P-wave (km/s) = 5.33405 7.48633 6.49989
#
# Compressibility (1/GPa) = 0.03088315
#
# Stress axis : x y z
#
# Youngs Moduli (GPa) = 63.37159 96.75965 52.61415
#
# Poissons Ratio (x) = 0.51174 0.07128
# Poissons Ratio (y) = 0.33516 0.02501
# Poissons Ratio (z) = 0.08586 0.04600
#
# Static dielectric constant tensor:
#      x y z
#    x 1.834600 0.026340 0.021850 
#    y 0.026340 1.883420 -0.003600 
#    z 0.021850 -0.003600 1.952030 
# 
# From -- ./inp_files/318749.got.cif
#   From: 2010.05.17/outbox.cif.g08.bks.cpg/sg2_160_cif.got.tgz:318749.got - 2010.06.03 11:33:40.
