data_PCOD9088434
_publ_section_title
;
Structure prediction by ZEFSAII (Michael W. Deem and Ramdas Pophale) SiO2 
 PCOD9088434
Probable space group: P -1
;
_chemical_formula_sum "Si O2"
_cell_formula_units_Z 16
_cell_length_a 15.434976
_cell_length_b 18.653048
_cell_length_c 7.831810
_cell_angle_alpha 128.456898
_cell_angle_beta 120.829288
_cell_angle_gamma 20.667879
_cell_volume 603.234635
_symmetry_space_group_name_H-M "P -1"
_symmetry_group_IT_number 2
_symmetry_cell_setting 'triclinic'
loop_
_space_group_symop_operation_xyz
x,y,z
-x,-y,-z
loop_
_atom_site_type_symbol
_atom_site_label
_atom_site_fract_x
_atom_site_fract_y
_atom_site_fract_z
Si Si1 0.525884 0.342810 0.076538
Si Si2 0.018005 0.145895 0.290317
Si Si3 0.204507 0.092023 0.931679
Si Si4 0.273037 0.302339 0.542922
Si Si5 0.219847 0.161396 0.688909
Si Si6 0.710431 0.633308 0.962855
Si Si7 0.904824 0.173100 0.581612
Si Si8 0.279016 0.486878 0.703888
O O1 0.346496 0.425890 0.133210
O O2 0.469777 0.370372 0.861108
O O3 0.807714 0.064340 0.966400
O O4 0.389622 0.553711 0.278549
O O5 0.176585 0.102500 0.453394
O O6 0.943279 0.148740 0.382087
O O7 0.777894 0.394927 0.328034
O O8 0.211988 0.154189 0.873515
O O9 0.089685 0.094265 0.739415
O O10 0.469501 0.862605 0.951609
O O11 0.995123 0.293745 0.157462
O O12 0.270668 0.336776 0.787745
O O13 0.355917 0.316820 0.519541
O O14 0.000000 0.500000 0.500000
O O15 0.499050 0.040787 0.369858
O O16 0.962526 0.431740 0.804213
O O17 0.000000 0.000000 0.500000
#
# Coordination Sequence:
#
# PCOD9088434 Si02
#       8
#     2   2   2   2   2   2   2   2
#     4  10  19  37  61  86 124 161 210 257 296 377
#     4  11  20  36  67  89 114 171 215 244 306 381
#     4  10  20  39  67  88 119 172 212 251 305 379
#     4  11  24  42  63  96 134 159 203 277 324 358
#     4  11  21  37  64  90 119 167 214 251 304 383
#     4  11  20  40  64  88 123 164 219 252 298 390
#     4  10  23  41  61  98 134 158 204 271 320 358
#     4  10  19  38  65  87 118 164 215 248 304 382
#
# _framework density 26.523675000000001
#
# number of rings (size 3 to 8) (size 9 to 14) (size 15 to 20)
#    0.000    1.500    8.750    0.000    1.750    1.000 
#    0.000    6.250    0.000    0.000    0.000    0.000 
#    0.000    0.000    0.000    0.000    0.000    0.000 
#
# Total GULP energy -89549.241623 kJ/mol
# GULP energy per Si atom -5596.827601 kJ/mol
# Density = 2.646331 g / cm^3
# Si number density = 26.523675 Si / 1000 Ang^3
#
#
#
# Elastic Constant Matrix: (Units=GPa)
#
#
# Indices 1 2 3 4 5 6 
#
# 1 80.2812 15.9495 26.5848 6.0874 9.1346 23.4149
# 2 15.9495 145.9001 25.3743 1.9690 6.8300 7.8407
# 3 26.5848 25.3743 91.6544 19.7496 -4.1174 -5.1439
# 4 6.0874 1.9690 19.7496 35.0285 5.3352 -1.2218
# 5 9.1346 6.8300 -4.1174 5.3352 31.0534 5.4344
# 6 23.4149 7.8407 -5.1439 -1.2218 5.4344 43.1820
#
#
#
# Elastic Compliance Matrix: (Units=1/GPa)
#
#
# Indices 1 2 3 4 5 6 
#
# 1 0.017766 -0.000182 -0.005980 0.000622 -0.004381 -0.009744
# 2 -0.000182 0.007436 -0.002426 0.001226 -0.001892 -0.001268
# 3 -0.005980 -0.002426 0.015567 -0.008191 0.004944 0.004684
# 4 0.000622 0.001226 -0.008191 0.034140 -0.007469 0.000370
# 5 -0.004381 -0.001892 0.004944 -0.007469 0.036099 -0.001446
# 6 -0.009744 -0.001268 0.004684 0.000370 -0.001446 0.029422
#
#
# Mechanical properties :
#
#
# Convention : Reuss Voigt Hill
#
# Bulk Modulus (GPa) = 42.38716 50.40586 46.39651
# Shear Modulus (GPa) = 30.21690 38.51461 34.36575
#
# Velocity S-wave (km/s) = 3.37893 3.81476 3.60344
# Velocity P-wave (km/s) = 5.58914 6.20069 5.90284
#
# Compressibility (1/GPa) = 0.02359205
#
# Stress axis : x y z
#
# Youngs Moduli (GPa) = 56.28767 134.48089 64.23925
#
# Poissons Ratio (x) = 0.02444 0.38418
# Poissons Ratio (y) = 0.01023 0.15586
# Poissons Ratio (z) = 0.33662 0.32627
#
# Static dielectric constant tensor:
#      x y z
#    x 2.130690 -0.018950 0.051710 
#    y -0.018950 2.092260 0.018960 
#    z 0.051710 0.018960 2.120950 
# 
# From -- ./inp_files/337593.got.cif
#   From: 2010.05.17/outbox.cif.g08.bks.cpg/sg2_169_cif.got.tgz:337593.got - 2010.06.03 11:33:40.
