data_PCOD9088955
_publ_section_title
;
Structure prediction by ZEFSAII (Michael W. Deem and Ramdas Pophale) SiO2 
 PCOD9088955
Probable space group: P -1
;
_chemical_formula_sum "Si O2"
_cell_formula_units_Z 16
_cell_length_a 15.831513
_cell_length_b 6.579099
_cell_length_c 21.793280
_cell_angle_alpha 62.268659
_cell_angle_beta 23.128196
_cell_angle_gamma 72.291094
_cell_volume 737.511870
_symmetry_space_group_name_H-M "P -1"
_symmetry_group_IT_number 2
_symmetry_cell_setting 'triclinic'
loop_
_space_group_symop_operation_xyz
x,y,z
-x,-y,-z
loop_
_atom_site_type_symbol
_atom_site_label
_atom_site_fract_x
_atom_site_fract_y
_atom_site_fract_z
Si Si1 0.102395 0.352943 0.518007
Si Si2 0.310471 0.862593 0.250137
Si Si3 0.425993 0.211434 0.225254
Si Si4 0.748571 0.712299 0.975853
Si Si5 0.941979 0.464204 0.973050
Si Si6 0.250019 0.093646 0.559548
Si Si7 0.435633 0.553457 0.603360
Si Si8 0.422028 0.048201 0.735136
O O1 0.158913 0.637728 0.426783
O O2 0.242743 0.270358 0.382623
O O3 0.199525 0.303019 0.524046
O O4 0.835060 0.193430 0.707339
O O5 0.333781 0.109959 0.234845
O O6 0.559856 0.840386 0.081741
O O7 0.492673 0.008084 0.247637
O O8 0.644998 0.463371 0.040151
O O9 0.776101 0.602053 0.039788
O O10 0.999425 0.890965 0.764959
O O11 0.187291 0.576065 0.760942
O O12 0.000000 0.500000 0.000000
O O13 0.818171 0.176703 0.082235
O O14 0.383028 0.214711 0.515601
O O15 0.409399 0.994019 0.424011
O O16 0.500000 0.500000 0.500000
O O17 0.407716 0.312472 0.696791
#
# Coordination Sequence:
#
# PCOD9088955 Si02
#       8
#     2   2   2   2   2   2   2   2
#     4   9  20  37  62  91 112 158 195 247 305 349
#     4  10  19  37  64  87 118 150 204 246 292 362
#     4   9  19  37  60  87 117 150 200 247 291 353
#     4  10  24  37  57  87 120 160 192 245 309 349
#     4  11  23  41  64  85 119 159 204 251 294 352
#     4  11  23  42  57  85 132 153 196 254 304 356
#     4  12  26  39  62  92 119 161 204 248 307 357
#     4  10  22  39  61  86 115 160 203 245 294 360
#
# _framework density 21.694565999999998
#
# number of rings (size 3 to 8) (size 9 to 14) (size 15 to 20)
#    0.000    1.750    1.250    3.000    3.500    4.500 
#    0.000    0.625    0.000    0.000    0.000    0.000 
#    0.000    0.000    0.000    0.000    0.000    0.000 
#
# Total GULP energy -89409.937005 kJ/mol
# GULP energy per Si atom -5588.121063 kJ/mol
# Density = 2.164519 g / cm^3
# Si number density = 21.694566 Si / 1000 Ang^3
#
#
#
# Elastic Constant Matrix: (Units=GPa)
#
#
# Indices 1 2 3 4 5 6 
#
# 1 56.3305 12.2740 29.1213 1.0387 -22.5325 11.4259
# 2 12.2740 39.1090 23.0131 -10.0193 -11.2271 3.0945
# 3 29.1213 23.0131 126.5639 -5.3999 -28.3134 15.1080
# 4 1.0387 -10.0193 -5.3999 27.6600 0.6970 -2.9145
# 5 -22.5325 -11.2271 -28.3134 0.6970 32.6826 -3.9949
# 6 11.4259 3.0945 15.1080 -2.9145 -3.9949 38.5063
#
#
#
# Elastic Compliance Matrix: (Units=1/GPa)
#
#
# Indices 1 2 3 4 5 6 
#
# 1 0.026618 -0.003548 -0.001560 -0.003572 0.015161 -0.005699
# 2 -0.003548 0.033306 -0.003607 0.011481 0.005779 0.001260
# 3 -0.001560 -0.003607 0.010749 0.000393 0.006653 -0.002744
# 4 -0.003572 0.011481 0.000393 0.040828 0.001344 0.003213
# 5 0.015161 0.005779 0.006653 0.001344 0.048471 -0.002443
# 6 -0.005699 0.001260 -0.002744 0.003213 -0.002443 0.028626
#
#
# Mechanical properties :
#
#
# Convention : Reuss Voigt Hill
#
# Bulk Modulus (GPa) = 18.78195 38.98003 28.88099
# Shear Modulus (GPa) = 22.34374 30.27613 26.30994
#
# Velocity S-wave (km/s) = 3.21272 3.73978 3.48622
# Velocity P-wave (km/s) = 4.73692 6.05430 5.43567
#
# Compressibility (1/GPa) = 0.05324261
#
# Stress axis : x y z
#
# Youngs Moduli (GPa) = 37.56851 30.02427 93.03352
#
# Poissons Ratio (x) = 0.10652 0.14514
# Poissons Ratio (y) = 0.13329 0.33562
# Poissons Ratio (z) = 0.05861 0.10831
#
# Static dielectric constant tensor:
#      x y z
#    x 1.804960 -0.033340 -0.012600 
#    y -0.033340 1.767950 -0.018530 
#    z -0.012600 -0.018530 1.695600 
# 
# From -- ./inp_files/46811.got.cif
#   From: 2010.05.17/outbox.cif.g08.bks.cpg/sg2_24_cif.got.tgz:46811.got - 2010.06.03 11:33:40.
