data_PCOD9088023
_publ_section_title
;
Structure prediction by ZEFSAII (Michael W. Deem and Ramdas Pophale) SiO2 
 PCOD9088023
Probable space group: P -1
;
_chemical_formula_sum "Si O2"
_cell_formula_units_Z 14
_cell_length_a 24.784307
_cell_length_b 24.870082
_cell_length_c 8.380671
_cell_angle_alpha 135.897510
_cell_angle_beta 136.026732
_cell_angle_gamma 11.839943
_cell_volume 732.479344
_symmetry_space_group_name_H-M "P -1"
_symmetry_group_IT_number 2
_symmetry_cell_setting 'triclinic'
loop_
_space_group_symop_operation_xyz
x,y,z
-x,-y,-z
loop_
_atom_site_type_symbol
_atom_site_label
_atom_site_fract_x
_atom_site_fract_y
_atom_site_fract_z
Si Si1 0.939903 0.871071 0.555689
Si Si2 0.801370 0.827856 0.162529
Si Si3 0.301890 0.325997 0.383529
Si Si4 0.596572 0.437730 0.741772
Si Si5 0.249926 0.249340 0.383877
Si Si6 0.561022 0.629169 0.228594
Si Si7 0.940067 0.089140 0.237658
O O1 0.225695 0.594743 0.658364
O O2 0.958775 0.918778 0.564138
O O3 0.857011 0.864160 0.311924
O O4 0.726594 0.097777 0.719759
O O5 0.031939 0.583695 0.255924
O O6 0.530169 0.082308 0.227690
O O7 0.790994 0.784441 0.893084
O O8 0.286637 0.285925 0.418455
O O9 0.371295 0.347866 0.628378
O O10 0.500000 0.500000 0.500000
O O11 0.371191 0.621034 0.774015
O O12 0.590269 0.536091 0.959001
O O13 0.883034 0.130809 0.737446
O O14 0.000000 0.500000 0.500000
O O15 0.500000 0.000000 0.500000
O O16 0.000000 0.000000 0.000000
#
# Coordination Sequence:
#
# PCOD9088023 Si02
#       7
#     2   2   2   2   2   2   2
#     4  10  20  35  62  88 107 147 203 247 270 324
#     4  10  21  40  63  87 114 151 201 232 275 352
#     4  10  21  39  65  83 111 159 198 232 278 343
#     4  12  24  38  55  87 121 155 191 238 293 345
#     4  12  24  40  60  91 125 147 183 238 299 343
#     4  10  19  37  58  85 114 148 198 239 280 338
#     4  12  21  38  63  82 114 155 200 237 285 335
#
# _framework density 19.113166
#
# number of rings (size 3 to 8) (size 9 to 14) (size 15 to 20)
#    0.000    1.143    2.857    4.286    0.000    0.000 
#    5.143    0.000    0.000    0.000    0.000    0.000 
#    0.000    0.000    0.000    0.000    0.000    0.000 
#
# Total GULP energy -78241.778044 kJ/mol
# GULP energy per Si atom -5588.698432 kJ/mol
# Density = 1.906966 g / cm^3
# Si number density = 19.113166 Si / 1000 Ang^3
#
#
#
# Elastic Constant Matrix: (Units=GPa)
#
#
# Indices 1 2 3 4 5 6 
#
# 1 67.3718 22.2117 64.3192 12.0629 12.5268 2.4158
# 2 22.2117 96.4931 16.2980 10.5267 5.9986 6.7935
# 3 64.3192 16.2980 141.0466 11.5707 12.6040 12.3869
# 4 12.0629 10.5267 11.5707 23.6383 2.1024 -4.5910
# 5 12.5268 5.9986 12.6040 2.1024 22.6986 2.1905
# 6 2.4158 6.7935 12.3869 -4.5910 2.1905 24.1211
#
#
#
# Elastic Compliance Matrix: (Units=1/GPa)
#
#
# Indices 1 2 3 4 5 6 
#
# 1 0.030871 -0.004042 -0.012691 -0.006149 -0.008756 0.004189
# 2 -0.004042 0.011947 0.001310 -0.004694 -0.000789 -0.004454
# 3 -0.012691 0.001310 0.013444 -0.001922 -0.000015 -0.006366
# 4 -0.006149 -0.004694 -0.001922 0.050950 -0.000238 0.012644
# 5 -0.008756 -0.000789 -0.000015 -0.000238 0.049458 -0.003430
# 6 0.004189 -0.004454 -0.006366 0.012644 -0.003430 0.048280
#
#
# Mechanical properties :
#
#
# Convention : Reuss Voigt Hill
#
# Bulk Modulus (GPa) = 39.34837 56.72994 48.03915
# Shear Modulus (GPa) = 20.46913 27.56375 24.01644
#
# Velocity S-wave (km/s) = 3.27608 3.80166 3.54862
# Velocity P-wave (km/s) = 5.91118 7.00112 6.47911
#
# Compressibility (1/GPa) = 0.02541401
#
# Stress axis : x y z
#
# Youngs Moduli (GPa) = 32.39289 83.70003 74.38181
#
# Poissons Ratio (x) = 0.33834 0.94402
# Poissons Ratio (y) = 0.13094 -0.09741
# Poissons Ratio (z) = 0.41111 -0.10961
#
# Static dielectric constant tensor:
#      x y z
#    x 1.660900 0.000380 0.043210 
#    y 0.000380 1.675260 0.012000 
#    z 0.043210 0.012000 1.659700 
# 
# From -- ./inp_files/48444.got.cif
#   From: 2010.05.17/outbox.cif.g08.bks.cpg/sg2_25_cif.got.tgz:48444.got - 2010.06.03 11:33:40.
