data_PCOD9088436
_publ_section_title
;
Structure prediction by ZEFSAII (Michael W. Deem and Ramdas Pophale) SiO2 
 PCOD9088436
Probable space group: P -1
;
_chemical_formula_sum "Si O2"
_cell_formula_units_Z 16
_cell_length_a 6.967351
_cell_length_b 12.770186
_cell_length_c 15.379836
_cell_angle_alpha 37.708572
_cell_angle_beta 104.161117
_cell_angle_gamma 85.344724
_cell_volume 719.233187
_symmetry_space_group_name_H-M "P -1"
_symmetry_group_IT_number 2
_symmetry_cell_setting 'triclinic'
loop_
_space_group_symop_operation_xyz
x,y,z
-x,-y,-z
loop_
_atom_site_type_symbol
_atom_site_label
_atom_site_fract_x
_atom_site_fract_y
_atom_site_fract_z
Si Si1 0.240800 0.915776 0.344040
Si Si2 0.477388 0.301155 0.327621
Si Si3 0.413152 0.359589 0.933182
Si Si4 0.078001 0.535697 0.246080
Si Si5 0.235912 0.311220 0.126746
Si Si6 0.633674 0.617300 0.466291
Si Si7 0.956660 0.949004 0.931569
Si Si8 0.533617 0.970934 0.125233
O O1 0.298960 0.827294 0.506426
O O2 0.471191 0.771261 0.417631
O O3 0.190771 0.136139 0.205453
O O4 0.061623 0.932049 0.237472
O O5 0.497044 0.490317 0.176571
O O6 0.256168 0.362132 0.322160
O O7 0.411642 0.229554 0.279283
O O8 0.171082 0.433056 0.812352
O O9 0.357313 0.356897 0.030200
O O10 0.571068 0.142909 0.057702
O O11 0.148303 0.515196 0.367814
O O12 0.098331 0.720600 0.090744
O O13 0.000000 0.500000 0.000000
O O14 0.500000 0.500000 0.500000
O O15 0.675841 0.746226 0.314151
O O16 0.705779 0.981730 0.893279
O O17 0.000000 0.000000 0.000000
O O18 0.500000 0.000000 0.000000
#
# Coordination Sequence:
#
# PCOD9088436 Si02
#       8
#     2   2   2   2   2   2   2   2
#     4  10  21  40  62  96 128 167 216 267 318 393
#     4  11  24  38  71  91 125 173 215 266 330 380
#     4  11  23  43  62  97 133 162 223 266 316 398
#     4  10  20  40  61  90 129 165 209 268 315 379
#     4  12  21  45  69  90 129 176 215 270 333 374
#     4  10  20  37  66  92 125 172 213 256 329 387
#     4  10  19  37  61  86 125 167 210 254 319 385
#     4  10  22  39  59  93 132 163 208 268 322 381
#
# _framework density 22.245913999999999
#
# number of rings (size 3 to 8) (size 9 to 14) (size 15 to 20)
#    0.000    1.500    5.000    2.250    5.250    0.000 
#    2.250    1.875    0.000    0.000    0.000    0.000 
#    0.000    0.000    0.000    0.000    0.000    0.000 
#
# Total GULP energy -89081.168951 kJ/mol
# GULP energy per Si atom -5567.573059 kJ/mol
# Density = 2.219528 g / cm^3
# Si number density = 22.245914 Si / 1000 Ang^3
#
#
#
# Elastic Constant Matrix: (Units=GPa)
#
#
# Indices 1 2 3 4 5 6 
#
# 1 43.7717 9.1438 5.3639 1.0628 -0.0165 -4.6306
# 2 9.1438 116.8724 47.3901 22.0512 1.6172 2.5870
# 3 5.3639 47.3901 136.8089 38.5183 -3.2330 -3.0341
# 4 1.0628 22.0512 38.5183 52.0035 7.5171 3.8329
# 5 -0.0165 1.6172 -3.2330 7.5171 29.1273 -0.8614
# 6 -4.6306 2.5870 -3.0341 3.8329 -0.8614 26.5905
#
#
#
# Elastic Compliance Matrix: (Units=1/GPa)
#
#
# Indices 1 2 3 4 5 6 
#
# 1 0.023716 -0.001892 -0.000213 0.000133 0.000187 0.004277
# 2 -0.001892 0.010324 -0.002994 -0.001954 -0.000444 -0.001408
# 3 -0.000213 -0.002994 0.010509 -0.007172 0.003260 0.002593
# 4 0.000133 -0.001954 -0.007172 0.026837 -0.007753 -0.004725
# 5 0.000187 -0.000444 0.003260 -0.007753 0.036801 0.002758
# 6 0.004277 -0.001408 0.002593 -0.004725 0.002758 0.039555
#
#
# Mechanical properties :
#
#
# Convention : Reuss Voigt Hill
#
# Bulk Modulus (GPa) = 29.10940 46.80541 37.95740
# Shear Modulus (GPa) = 29.51779 37.24793 33.38286
#
# Velocity S-wave (km/s) = 3.64660 4.09635 3.87800
# Velocity P-wave (km/s) = 5.55373 6.59235 6.09520
#
# Compressibility (1/GPa) = 0.03435316
#
# Stress axis : x y z
#
# Youngs Moduli (GPa) = 42.16511 96.85985 95.15932
#
# Poissons Ratio (x) = 0.18321 0.02024
# Poissons Ratio (y) = 0.07976 0.28488
# Poissons Ratio (z) = 0.00897 0.28998
#
# Static dielectric constant tensor:
#      x y z
#    x 1.793890 0.024970 0.006380 
#    y 0.024970 1.940220 0.090250 
#    z 0.006380 0.090250 2.017740 
# 
# From -- ./inp_files/245515.got.cif
#   From: 2010.05.17/outbox.cif.g08.bks.cpg/sg2_123_cif.got.tgz:245515.got - 2010.06.03 11:33:40.
