data_PCOD9088905
_publ_section_title
;
Structure prediction by ZEFSAII (Michael W. Deem and Ramdas Pophale) SiO2 
 PCOD9088905
Probable space group: P -1
;
_chemical_formula_sum "Si O2"
_cell_formula_units_Z 14
_cell_length_a 18.170956
_cell_length_b 6.926391
_cell_length_c 8.051233
_cell_angle_alpha 74.009572
_cell_angle_beta 37.626683
_cell_angle_gamma 77.741652
_cell_volume 594.680430
_symmetry_space_group_name_H-M "P -1"
_symmetry_group_IT_number 2
_symmetry_cell_setting 'triclinic'
loop_
_space_group_symop_operation_xyz
x,y,z
-x,-y,-z
loop_
_atom_site_type_symbol
_atom_site_label
_atom_site_fract_x
_atom_site_fract_y
_atom_site_fract_z
Si Si1 0.998880 0.493910 0.703331
Si Si2 0.440296 0.217009 0.104897
Si Si3 0.837671 0.130554 0.702055
Si Si4 0.469479 0.670788 0.384844
Si Si5 0.805281 0.195582 0.129889
Si Si6 0.565852 0.066519 0.201397
Si Si7 0.833086 0.869190 0.446522
O O1 0.067659 0.701243 0.570951
O O2 0.075069 0.312311 0.686638
O O3 0.000000 0.500000 0.500000
O O4 0.863909 0.417312 0.002906
O O5 0.471986 0.204274 0.242982
O O6 0.299261 0.220950 0.328895
O O7 0.516895 0.374180 0.823313
O O8 0.500000 0.000000 0.000000
O O9 0.849065 0.954508 0.586338
O O10 0.849563 0.111444 0.888403
O O11 0.694459 0.175787 0.938871
O O12 0.500000 0.500000 0.500000
O O13 0.338775 0.768906 0.624006
O O14 0.576165 0.838858 0.167987
O O15 0.841520 0.045090 0.249896
O O16 0.500000 0.000000 0.500000
#
# Coordination Sequence:
#
# PCOD9088905 Si02
#       7
#     2   2   2   2   2   2   2
#     4  10  27  44  66 101 131 177 230 273 323 397
#     4  10  19  37  63  96 128 171 213 264 344 387
#     4  11  23  42  71  95 134 178 222 268 335 398
#     4  11  22  37  66  95 127 171 213 272 335 386
#     4  11  23  45  66  96 139 172 224 276 327 398
#     4  11  19  38  64  92 131 171 208 270 333 391
#     4  12  22  45  72  92 138 178 216 282 334 386
#
# _framework density 23.542058000000001
#
# number of rings (size 3 to 8) (size 9 to 14) (size 15 to 20)
#    0.000    1.143    7.143    0.429    4.000    2.857 
#    0.000   10.000    0.000    0.000    0.000    0.000 
#    0.000    0.000    0.000    0.000    0.000    0.000 
#
# Total GULP energy -77938.993320 kJ/mol
# GULP energy per Si atom -5567.070951 kJ/mol
# Density = 2.348848 g / cm^3
# Si number density = 23.542058 Si / 1000 Ang^3
#
#
#
# Elastic Constant Matrix: (Units=GPa)
#
#
# Indices 1 2 3 4 5 6 
#
# 1 85.3610 28.2605 42.1556 -7.2529 1.3401 -19.7373
# 2 28.2605 53.2693 10.2613 -20.9873 6.7023 -11.9356
# 3 42.1556 10.2613 95.2335 -25.0626 6.2050 -14.0769
# 4 -7.2529 -20.9873 -25.0626 27.7361 -6.2326 4.5283
# 5 1.3401 6.7023 6.2050 -6.2326 61.3488 -10.7948
# 6 -19.7373 -11.9356 -14.0769 4.5283 -10.7948 32.4028
#
#
#
# Elastic Compliance Matrix: (Units=1/GPa)
#
#
# Indices 1 2 3 4 5 6 
#
# 1 0.022689 -0.015419 -0.012188 -0.017320 0.001688 0.005828
# 2 -0.015419 0.040586 0.013240 0.037552 -0.000589 0.005865
# 3 -0.012188 0.013240 0.021788 0.025952 -0.000179 0.003232
# 4 -0.017320 0.037552 0.025952 0.083393 0.002798 0.003834
# 5 0.001688 -0.000589 -0.000179 0.002798 0.017730 0.006249
# 6 0.005828 0.005865 0.003232 0.003834 0.006249 0.039522
#
#
# Mechanical properties :
#
#
# Convention : Reuss Voigt Hill
#
# Bulk Modulus (GPa) = 17.75327 43.91318 30.83322
# Shear Modulus (GPa) = 18.30043 34.50994 26.40519
#
# Velocity S-wave (km/s) = 2.79113 3.83284 3.35269
# Velocity P-wave (km/s) = 4.23611 6.18717 5.30216
#
# Compressibility (1/GPa) = 0.05632766
#
# Stress axis : x y z
#
# Youngs Moduli (GPa) = 44.07513 24.63922 45.89626
#
# Poissons Ratio (x) = 0.37992 0.55941
# Poissons Ratio (y) = 0.67961 -0.60768
# Poissons Ratio (z) = 0.53721 -0.32623
#
# Static dielectric constant tensor:
#      x y z
#    x 2.922130 0.540820 0.476170 
#    y 0.540820 2.165690 0.181740 
#    z 0.476170 0.181740 2.130530 
# 
# From -- ./inp_files/325716.got.cif
#   From: 2010.05.17/outbox.cif.g08.bks.cpg/sg2_163_cif.got.tgz:325716.got - 2010.06.03 11:33:40.
