data_PCOD9088569
_publ_section_title
;
Structure prediction by ZEFSAII (Michael W. Deem and Ramdas Pophale) SiO2 
 PCOD9088569
Probable space group: P -1
;
_chemical_formula_sum "Si O2"
_cell_formula_units_Z 16
_cell_length_a 17.887957
_cell_length_b 9.437610
_cell_length_c 11.667309
_cell_angle_alpha 123.882426
_cell_angle_beta 31.012782
_cell_angle_gamma 111.303734
_cell_volume 811.756996
_symmetry_space_group_name_H-M "P -1"
_symmetry_group_IT_number 2
_symmetry_cell_setting 'triclinic'
loop_
_space_group_symop_operation_xyz
x,y,z
-x,-y,-z
loop_
_atom_site_type_symbol
_atom_site_label
_atom_site_fract_x
_atom_site_fract_y
_atom_site_fract_z
Si Si1 0.093212 0.854126 0.082444
Si Si2 0.155115 0.695718 0.685534
Si Si3 0.359797 0.655762 0.797746
Si Si4 0.538326 0.804232 0.807098
Si Si5 0.216643 0.479003 0.106227
Si Si6 0.998702 0.756283 0.686072
Si Si7 0.508168 0.471194 0.841778
Si Si8 0.114580 0.366327 0.702489
O O1 0.965633 0.786977 0.286849
O O2 0.080633 0.803359 0.942826
O O3 0.252018 0.747770 0.878515
O O4 0.068338 0.062004 0.209951
O O5 0.094792 0.778406 0.681398
O O6 0.332570 0.665197 0.453708
O O7 0.131810 0.496913 0.635911
O O8 0.500000 0.500000 0.500000
O O9 0.433231 0.791149 0.831134
O O10 0.261504 0.568641 0.973780
O O11 0.502792 0.659711 0.875483
O O12 0.717757 0.724550 0.510973
O O13 0.500000 0.000000 0.000000
O O14 0.107512 0.624354 0.396018
O O15 0.131085 0.328309 0.134841
O O16 0.370982 0.408919 0.942194
O O17 0.500000 0.500000 0.000000
O O18 0.000000 0.500000 0.000000
#
# Coordination Sequence:
#
# PCOD9088569 Si02
#       8
#     2   2   2   2   2   2   2   2
#     4  11  23  38  64  94 122 162 213 254 309 372
#     4  10  20  40  61  90 121 165 204 253 312 380
#     4  11  23  45  67  88 129 171 209 258 322 387
#     4  10  23  38  61  96 125 154 210 269 312 363
#     4  10  23  41  61  88 126 169 204 250 326 368
#     4  11  23  39  60  93 128 159 206 264 307 373
#     4  10  19  37  62  82 117 162 204 241 311 374
#     4   9  19  37  62  90 124 164 207 249 316 384
#
# _framework density 19.710332999999999
#
# number of rings (size 3 to 8) (size 9 to 14) (size 15 to 20)
#    0.000    1.750    1.250    4.125    3.500    2.500 
#    2.250    3.750    0.000    0.000    0.000    0.000 
#    0.000    0.000    0.000    0.000    0.000    0.000 
#
# Total GULP energy -89303.034568 kJ/mol
# GULP energy per Si atom -5581.439661 kJ/mol
# Density = 1.966547 g / cm^3
# Si number density = 19.710333 Si / 1000 Ang^3
#
#
#
# Elastic Constant Matrix: (Units=GPa)
#
#
# Indices 1 2 3 4 5 6 
#
# 1 69.7465 37.2550 15.6363 5.8097 -10.3468 -6.2486
# 2 37.2550 62.9074 41.7783 3.2172 -24.3814 10.3995
# 3 15.6363 41.7783 81.4786 -10.5007 -17.3262 1.8219
# 4 5.8097 3.2172 -10.5007 18.9746 -2.7780 -1.2569
# 5 -10.3468 -24.3814 -17.3262 -2.7780 31.7600 0.3154
# 6 -6.2486 10.3995 1.8219 -1.2569 0.3154 29.7175
#
#
#
# Elastic Compliance Matrix: (Units=1/GPa)
#
#
# Indices 1 2 3 4 5 6 
#
# 1 0.026262 -0.024104 0.005312 -0.001177 -0.007289 0.013659
# 2 -0.024104 0.058612 -0.021192 -0.012321 0.024753 -0.025064
# 3 0.005312 -0.021192 0.023930 0.015694 -0.000187 0.007732
# 4 -0.001177 -0.012321 0.015694 0.064855 0.004335 0.005799
# 5 -0.007289 0.024753 -0.000187 0.004335 0.048495 -0.010515
# 6 0.013659 -0.025064 0.007732 0.005799 -0.010515 0.045176
#
#
# Mechanical properties :
#
#
# Convention : Reuss Voigt Hill
#
# Bulk Modulus (GPa) = 34.67667 44.83020 39.75343
# Shear Modulus (GPa) = 14.00915 24.05461 19.03188
#
# Velocity S-wave (km/s) = 2.66888 3.49722 3.11075
# Velocity P-wave (km/s) = 5.20851 6.25310 5.75456
#
# Compressibility (1/GPa) = 0.02883784
#
# Stress axis : x y z
#
# Youngs Moduli (GPa) = 38.07768 17.06127 41.78914
#
# Poissons Ratio (x) = 0.41124 -0.22200
# Poissons Ratio (y) = 0.91782 0.88558
# Poissons Ratio (z) = -0.20228 0.36156
#
# Static dielectric constant tensor:
#      x y z
#    x 1.711390 0.008970 0.006760 
#    y 0.008970 1.705920 -0.027280 
#    z 0.006760 -0.027280 1.739010 
# 
# From -- ./inp_files/223813.got.cif
#   From: 2010.05.17/outbox.cif.g08.bks.cpg/sg2_112_cif.got.tgz:223813.got - 2010.06.03 11:33:40.
