data_PCOD9088554
_publ_section_title
;
Structure prediction by ZEFSAII (Michael W. Deem and Ramdas Pophale) SiO2 
 PCOD9088554
Probable space group: P -1
;
_chemical_formula_sum "Si O2"
_cell_formula_units_Z 14
_cell_length_a 10.366445
_cell_length_b 16.567692
_cell_length_c 11.578716
_cell_angle_alpha 141.726739
_cell_angle_beta 35.465277
_cell_angle_gamma 147.433103
_cell_volume 589.276625
_symmetry_space_group_name_H-M "P -1"
_symmetry_group_IT_number 2
_symmetry_cell_setting 'triclinic'
loop_
_space_group_symop_operation_xyz
x,y,z
-x,-y,-z
loop_
_atom_site_type_symbol
_atom_site_label
_atom_site_fract_x
_atom_site_fract_y
_atom_site_fract_z
Si Si1 0.274053 0.336261 0.032805
Si Si2 0.407489 0.960477 0.654380
Si Si3 0.089715 0.318493 0.367212
Si Si4 0.274674 0.237934 0.456632
Si Si5 0.343312 0.557295 0.779812
Si Si6 0.687850 0.297808 0.823988
Si Si7 0.201373 0.124523 0.647230
O O1 0.437666 0.282043 0.924712
O O2 0.134470 0.213572 0.891019
O O3 0.500000 0.500000 0.000000
O O4 0.144910 0.392990 0.284185
O O5 0.528782 0.867159 0.508853
O O6 0.089057 0.860815 0.756235
O O7 0.500000 0.000000 0.500000
O O8 0.557880 0.129677 0.793972
O O9 0.361384 0.375818 0.300542
O O10 0.901702 0.333006 0.609031
O O11 0.218523 0.374137 0.639551
O O12 0.555455 0.325879 0.275217
O O13 0.263177 0.202480 0.562314
O O14 0.044024 0.062972 0.381476
O O15 0.199162 0.573945 0.014051
#
# Coordination Sequence:
#
# PCOD9088554 Si02
#       7
#     2   2   2   2   2   2   2
#     4  11  23  38  63  98 128 162 203 262 332 376
#     4  10  19  37  61  99 122 157 205 260 325 375
#     4  10  21  38  67  96 121 157 205 267 322 371
#     4  10  23  41  63  90 125 185 210 258 294 391
#     4  10  22  42  67  91 126 167 225 248 323 364
#     4  10  21  39  64  96 125 157 206 271 317 376
#     4  11  21  41  67  87 137 166 214 255 320 374
#
# _framework density 23.757943000000001
#
# number of rings (size 3 to 8) (size 9 to 14) (size 15 to 20)
#    0.000    1.714    2.857    3.429    2.000    1.714 
#    2.571    7.143    3.143    0.000    0.000    0.000 
#    0.000    0.000    0.000    0.000    0.000    0.000 
#
# Total GULP energy -77958.424802 kJ/mol
# GULP energy per Si atom -5568.458914 kJ/mol
# Density = 2.370387 g / cm^3
# Si number density = 23.757943 Si / 1000 Ang^3
#
#
#
# Elastic Constant Matrix: (Units=GPa)
#
#
# Indices 1 2 3 4 5 6 
#
# 1 75.7786 32.4994 39.6975 -1.7543 22.3275 -0.9828
# 2 32.4994 111.6878 29.8029 2.0515 23.5357 -16.7030
# 3 39.6975 29.8029 130.8502 0.8568 38.3852 -17.0856
# 4 -1.7543 2.0515 0.8568 36.4799 4.6241 15.2068
# 5 22.3275 23.5357 38.3852 4.6241 45.2864 0.8356
# 6 -0.9828 -16.7030 -17.0856 15.2068 0.8356 29.1484
#
#
#
# Elastic Compliance Matrix: (Units=1/GPa)
#
#
# Indices 1 2 3 4 5 6 
#
# 1 0.018537 -0.004634 -0.004579 0.004589 -0.003189 -0.007017
# 2 -0.004634 0.012691 0.001478 -0.004719 -0.005277 0.010596
# 3 -0.004579 0.001478 0.012756 -0.003783 -0.009128 0.010405
# 4 0.004589 -0.004719 -0.003783 0.038313 -0.000059 -0.024754
# 5 -0.003189 -0.005277 -0.009128 -0.000059 0.034314 -0.009435
# 6 -0.007017 0.010596 0.010405 -0.024754 -0.009435 0.059426
#
#
# Mechanical properties :
#
#
# Convention : Reuss Voigt Hill
#
# Bulk Modulus (GPa) = 35.07101 58.03514 46.55308
# Shear Modulus (GPa) = 24.87404 36.60404 30.73904
#
# Velocity S-wave (km/s) = 3.23921 3.92944 3.60090
# Velocity P-wave (km/s) = 5.36506 6.71328 6.07667
#
# Compressibility (1/GPa) = 0.02851357
#
# Stress axis : x y z
#
# Youngs Moduli (GPa) = 53.94502 78.79676 78.39318
#
# Poissons Ratio (x) = 0.36514 0.35899
# Poissons Ratio (y) = 0.24997 -0.11585
# Poissons Ratio (z) = 0.24703 -0.11644
#
# Static dielectric constant tensor:
#      x y z
#    x 1.762070 -0.211600 0.342090 
#    y -0.211600 1.202180 0.854330 
#    z 0.342090 0.854330 1.026340 
# 
# From -- ./inp_files/436024.got.cif
#   From: 2010.05.17/outbox.cif.g08.bks.cpg/sg2_219_cif.got.tgz:436024.got - 2010.06.03 11:33:40.
