data_PCOD9088144
_publ_section_title
;
Structure prediction by ZEFSAII (Michael W. Deem and Ramdas Pophale) SiO2 
 PCOD9088144
Probable space group: P -1
;
_chemical_formula_sum "Si O2"
_cell_formula_units_Z 14
_cell_length_a 14.342557
_cell_length_b 9.218294
_cell_length_c 12.375081
_cell_angle_alpha 47.946886
_cell_angle_beta 139.254014
_cell_angle_gamma 107.166998
_cell_volume 712.833490
_symmetry_space_group_name_H-M "P -1"
_symmetry_group_IT_number 2
_symmetry_cell_setting 'triclinic'
loop_
_space_group_symop_operation_xyz
x,y,z
-x,-y,-z
loop_
_atom_site_type_symbol
_atom_site_label
_atom_site_fract_x
_atom_site_fract_y
_atom_site_fract_z
Si Si1 0.694318 0.729109 0.267995
Si Si2 0.820234 0.673892 0.630196
Si Si3 0.809898 0.474743 0.948734
Si Si4 0.126766 0.588230 0.588323
Si Si5 0.377250 0.413312 0.066746
Si Si6 0.589356 0.158257 0.187620
Si Si7 0.085468 0.012023 0.681506
O O1 0.721264 0.648192 0.455142
O O2 0.756712 0.506966 0.362295
O O3 0.802204 0.863066 0.292151
O O4 0.531193 0.870674 0.989841
O O5 0.011511 0.567643 0.833568
O O6 0.745708 0.934877 0.446294
O O7 0.789928 0.577949 0.762135
O O8 0.666904 0.611614 0.837303
O O9 0.819924 0.233782 0.074557
O O10 0.218119 0.461547 0.837241
O O11 0.000000 0.500000 0.500000
O O12 0.045196 0.839955 0.419682
O O13 0.388591 0.640242 0.944445
O O14 0.513917 0.233443 0.203413
O O15 0.000000 0.000000 0.500000
#
# Coordination Sequence:
#
# PCOD9088144 Si02
#       7
#     2   2   2   2   2   2   2
#     4  10  20  36  57  84 115 150 193 240 287 341
#     4  11  22  37  54  86 120 152 190 240 294 344
#     4  11  22  35  59  85 115 152 195 240 290 345
#     4   9  17  30  57  85 109 139 194 247 276 322
#     4  10  19  37  59  87 111 153 200 236 287 346
#     4  10  22  37  60  85 118 153 195 240 287 346
#     4  11  17  33  61  86 109 148 202 240 279 338
#
# _framework density 19.63993
#
# number of rings (size 3 to 8) (size 9 to 14) (size 15 to 20)
#    0.000    1.714    2.857    3.000    0.000    0.571 
#    0.000    3.571    0.000   10.286    0.000    0.000 
#    0.000    0.000    0.000    0.000    0.000    0.000 
#
# Total GULP energy -77977.835503 kJ/mol
# GULP energy per Si atom -5569.845393 kJ/mol
# Density = 1.959523 g / cm^3
# Si number density = 19.639930 Si / 1000 Ang^3
#
#
#
# Elastic Constant Matrix: (Units=GPa)
#
#
# Indices 1 2 3 4 5 6 
#
# 1 122.1676 26.5670 32.3038 -4.3455 -18.2755 -20.6479
# 2 26.5670 90.7782 25.4249 9.5269 -8.2063 -9.0523
# 3 32.3038 25.4249 70.7239 5.9178 -11.2457 -5.0241
# 4 -4.3455 9.5269 5.9178 17.9615 -3.4126 9.0864
# 5 -18.2755 -8.2063 -11.2457 -3.4126 26.8747 3.6130
# 6 -20.6479 -9.0523 -5.0241 9.0864 3.6130 30.8199
#
#
#
# Elastic Compliance Matrix: (Units=1/GPa)
#
#
# Indices 1 2 3 4 5 6 
#
# 1 0.011250 -0.001663 -0.003621 0.003382 0.005408 0.004827
# 2 -0.001663 0.013868 -0.003079 -0.009411 -0.000085 0.005241
# 3 -0.003621 -0.003079 0.017883 -0.004794 0.003391 0.000601
# 4 0.003382 -0.009411 -0.004794 0.078033 0.010763 -0.025547
# 5 0.005408 -0.000085 0.003391 0.010763 0.044212 -0.004205
# 6 0.004827 0.005241 0.000601 -0.025547 -0.004205 0.045343
#
#
# Mechanical properties :
#
#
# Convention : Reuss Voigt Hill
#
# Bulk Modulus (GPa) = 38.05988 50.25124 44.15556
# Shear Modulus (GPa) = 21.17985 28.42282 24.80134
#
# Velocity S-wave (km/s) = 3.28747 3.80833 3.55745
# Velocity P-wave (km/s) = 5.81643 6.70669 6.27736
#
# Compressibility (1/GPa) = 0.02627439
#
# Stress axis : x y z
#
# Youngs Moduli (GPa) = 88.89210 72.11005 55.91757
#
# Poissons Ratio (x) = 0.11991 0.20247
# Poissons Ratio (y) = 0.14782 0.17220
# Poissons Ratio (z) = 0.32186 0.22206
#
# Static dielectric constant tensor:
#      x y z
#    x 1.827350 -0.052580 0.086430 
#    y -0.052580 1.735370 0.011060 
#    z 0.086430 0.011060 1.711280 
# 
# From -- ./inp_files/234386.got.cif
#   From: 2010.05.17/outbox.cif.g08.bks.cpg/sg2_118_cif.got.tgz:234386.got - 2010.06.03 11:33:40.
