data_PCOD9088898
_publ_section_title
;
Structure prediction by ZEFSAII (Michael W. Deem and Ramdas Pophale) SiO2 
 PCOD9088898
Probable space group: P -1
;
_chemical_formula_sum "Si O2"
_cell_formula_units_Z 12
_cell_length_a 7.540990
_cell_length_b 9.416252
_cell_length_c 11.085620
_cell_angle_alpha 68.356523
_cell_angle_beta 49.389450
_cell_angle_gamma 50.270292
_cell_volume 458.073425
_symmetry_space_group_name_H-M "P -1"
_symmetry_group_IT_number 2
_symmetry_cell_setting 'triclinic'
loop_
_space_group_symop_operation_xyz
x,y,z
-x,-y,-z
loop_
_atom_site_type_symbol
_atom_site_label
_atom_site_fract_x
_atom_site_fract_y
_atom_site_fract_z
Si Si1 0.856920 0.109935 0.670172
Si Si2 0.784467 0.949242 0.151669
Si Si3 0.450698 0.178705 0.027448
Si Si4 0.184720 0.543761 0.115963
Si Si5 0.374208 0.714111 0.522065
Si Si6 0.177811 0.251750 0.573849
O O1 0.633595 0.193694 0.632933
O O2 0.038371 0.200422 0.547905
O O3 0.692291 0.183289 0.846265
O O4 0.056738 0.885219 0.650665
O O5 0.728876 0.921116 0.321560
O O6 0.956082 0.738669 0.093908
O O7 0.507900 0.114292 0.160346
O O8 0.000000 0.000000 0.000000
O O9 0.810838 0.613261 0.911851
O O10 0.500000 0.000000 0.000000
O O11 0.070963 0.571871 0.294300
O O12 0.500000 0.500000 0.000000
O O13 0.500000 0.500000 0.500000
O O14 0.575475 0.715306 0.534143
#
# Coordination Sequence:
#
# PCOD9088898 Si02
#       6
#     2   2   2   2   2   2
#     4  11  24  45  67  91 131 171 218 268 315 385
#     4  10  19  37  63  95 126 162 200 252 326 387
#     4  12  23  38  65 101 131 166 203 267 337 381
#     4  10  20  38  60  96 134 157 211 253 313 412
#     4  11  27  47  63  93 127 172 232 269 305 374
#     4  10  22  45  68  95 132 168 212 268 321 390
#
# _framework density 26.196674000000002
#
# number of rings (size 3 to 8) (size 9 to 14) (size 15 to 20)
#    1.000    0.333    5.000    1.500    2.333    2.667 
#    3.000    0.000    0.000    0.000    0.000    0.000 
#    0.000    0.000    0.000    0.000    0.000    0.000 
#
# Total GULP energy -66818.633451 kJ/mol
# GULP energy per Si atom -5568.219454 kJ/mol
# Density = 2.613705 g / cm^3
# Si number density = 26.196674 Si / 1000 Ang^3
#
#
#
# Elastic Constant Matrix: (Units=GPa)
#
#
# Indices 1 2 3 4 5 6 
#
# 1 65.0517 24.4495 -0.9364 2.6899 -7.9740 15.0443
# 2 24.4495 235.1133 23.1560 28.5933 -3.6354 23.9390
# 3 -0.9364 23.1560 45.2591 12.8962 -0.4084 -7.5151
# 4 2.6899 28.5933 12.8962 35.6805 -0.9974 6.5304
# 5 -7.9740 -3.6354 -0.4084 -0.9974 32.9290 -2.3282
# 6 15.0443 23.9390 -7.5151 6.5304 -2.3282 47.4507
#
#
#
# Elastic Compliance Matrix: (Units=1/GPa)
#
#
# Indices 1 2 3 4 5 6 
#
# 1 0.017412 -0.001369 0.000105 0.000716 0.003754 -0.004728
# 2 -0.001369 0.005179 -0.002220 -0.002854 -0.000025 -0.002139
# 3 0.000105 -0.002220 0.026952 -0.009175 0.000306 0.006633
# 4 0.000716 -0.002854 -0.009175 0.034497 0.000438 -0.004967
# 5 0.003754 -0.000025 0.000306 0.000438 0.031316 0.000347
# 6 -0.004728 -0.002139 0.006633 -0.004967 0.000347 0.025404
#
#
# Mechanical properties :
#
#
# Convention : Reuss Voigt Hill
#
# Bulk Modulus (GPa) = 23.48772 48.75138 36.11955
# Shear Modulus (GPa) = 30.87971 43.12904 37.00438
#
# Velocity S-wave (km/s) = 3.43704 4.06193 3.76248
# Velocity P-wave (km/s) = 4.97357 6.37567 5.71776
#
# Compressibility (1/GPa) = 0.04257544
#
# Stress axis : x y z
#
# Youngs Moduli (GPa) = 57.43073 193.09859 37.10342
#
# Poissons Ratio (x) = 0.26431 -0.00391
# Poissons Ratio (y) = 0.07861 0.08238
# Poissons Ratio (z) = -0.00605 0.42871
#
# Static dielectric constant tensor:
#      x y z
#    x 2.144900 0.033070 -0.107910 
#    y 0.033070 2.007060 -0.052960 
#    z -0.107910 -0.052960 2.037320 
# 
# From -- ./inp_files/489235.got.cif
#   From: 2010.05.17/outbox.cif.g08.bks.cpg/sg2_245_cif.got.tgz:489235.got - 2010.06.03 11:33:40.
