data_PCOD9088599
_publ_section_title
;
Structure prediction by ZEFSAII (Michael W. Deem and Ramdas Pophale) SiO2 
 PCOD9088599
Probable space group: P -1
;
_chemical_formula_sum "Si O2"
_cell_formula_units_Z 12
_cell_length_a 8.367203
_cell_length_b 14.051623
_cell_length_c 8.088123
_cell_angle_alpha 30.261570
_cell_angle_beta 99.519710
_cell_angle_gamma 99.594553
_cell_volume 472.083398
_symmetry_space_group_name_H-M "P -1"
_symmetry_group_IT_number 2
_symmetry_cell_setting 'triclinic'
loop_
_space_group_symop_operation_xyz
x,y,z
-x,-y,-z
loop_
_atom_site_type_symbol
_atom_site_label
_atom_site_fract_x
_atom_site_fract_y
_atom_site_fract_z
Si Si1 0.839558 0.471590 0.215376
Si Si2 0.303818 0.977399 0.500464
Si Si3 0.207866 0.535678 0.157016
Si Si4 0.827397 0.023588 0.861372
Si Si5 0.533894 0.340157 0.526542
Si Si6 0.362721 0.048835 0.739843
O O1 0.825634 0.247572 0.521116
O O2 0.686123 0.487605 0.289705
O O3 0.026978 0.513766 0.238833
O O4 0.814744 0.546930 0.910942
O O5 0.223319 0.057291 0.203313
O O6 0.256917 0.068373 0.529916
O O7 0.500000 0.000000 0.500000
O O8 0.250133 0.758165 0.825957
O O9 0.371208 0.444531 0.390188
O O10 0.719142 0.937348 0.118287
O O11 0.000000 0.000000 0.000000
O O12 0.495672 0.220732 0.526004
O O13 0.582082 0.170194 0.913903
#
# Coordination Sequence:
#
# PCOD9088599 Si02
#       6
#     2   2   2   2   2   2
#     4   9  19  34  56  87 118 159 210 251 300 374
#     4  11  23  40  62  93 125 160 212 264 310 372
#     4  10  20  36  60  87 122 165 205 252 313 372
#     4  10  21  40  63  88 127 169 205 256 318 372
#     4  10  19  37  62  86 123 168 203 251 315 371
#     4  10  21  38  62  93 124 158 209 259 305 371
#
# _framework density 25.419236999999999
#
# number of rings (size 3 to 8) (size 9 to 14) (size 15 to 20)
#    0.000    2.000    0.000    5.500    0.000    1.333 
#    0.000    5.000    0.000    0.000    0.000    0.000 
#    0.000    0.000    0.000    0.000    0.000    0.000 
#
# Total GULP energy -66951.295833 kJ/mol
# GULP energy per Si atom -5579.274653 kJ/mol
# Density = 2.536138 g / cm^3
# Si number density = 25.419237 Si / 1000 Ang^3
#
#
#
# Elastic Constant Matrix: (Units=GPa)
#
#
# Indices 1 2 3 4 5 6 
#
# 1 187.7967 38.6223 53.1063 9.9523 -14.3664 36.0241
# 2 38.6223 142.2516 41.1728 32.6444 -1.4306 17.6247
# 3 53.1063 41.1728 59.8110 9.3965 -13.7655 0.5438
# 4 9.9523 32.6444 9.3965 47.0944 15.0671 3.3994
# 5 -14.3664 -1.4306 -13.7655 15.0671 39.1315 -3.8634
# 6 36.0241 17.6247 0.5438 3.3994 -3.8634 24.8506
#
#
#
# Elastic Compliance Matrix: (Units=1/GPa)
#
#
# Indices 1 2 3 4 5 6 
#
# 1 0.011922 0.002826 -0.012829 0.000112 -0.001984 -0.019329
# 2 0.002826 0.011873 -0.009904 -0.005698 -0.000971 -0.011672
# 3 -0.012829 -0.009904 0.038226 -0.004064 0.012636 0.027305
# 4 0.000112 -0.005698 -0.004064 0.030476 -0.013559 -0.002309
# 5 -0.001984 -0.000971 0.012636 -0.013559 0.035510 0.010664
# 6 -0.019329 -0.011672 0.027305 -0.002309 0.010664 0.077914
#
#
# Mechanical properties :
#
#
# Convention : Reuss Voigt Hill
#
# Bulk Modulus (GPa) = 45.03253 72.85133 58.94193
# Shear Modulus (GPa) = 19.75210 39.34582 29.54896
#
# Velocity S-wave (km/s) = 2.79059 3.93857 3.41319
# Velocity P-wave (km/s) = 5.30449 7.02889 6.22667
#
# Compressibility (1/GPa) = 0.02220617
#
# Stress axis : x y z
#
# Youngs Moduli (GPa) = 83.88086 84.22315 26.15996
#
# Poissons Ratio (x) = -0.23797 0.33560
# Poissons Ratio (y) = -0.23701 0.25910
# Poissons Ratio (z) = 1.07609 0.83417
#
# Static dielectric constant tensor:
#      x y z
#    x 1.820010 -0.140190 -0.203210 
#    y -0.140190 2.001550 -0.030970 
#    z -0.203210 -0.030970 2.050430 
# 
# From -- ./inp_files/198834.got.cif
#   From: 2010.05.17/outbox.cif.g08.bks.cpg/sg2_100_cif.got.tgz:198834.got - 2010.06.03 11:33:40.
