data_PCOD9088694
_publ_section_title
;
Structure prediction by ZEFSAII (Michael W. Deem and Ramdas Pophale) SiO2 
 PCOD9088694
Probable space group: P -1
;
_chemical_formula_sum "Si O2"
_cell_formula_units_Z 16
_cell_length_a 12.178222
_cell_length_b 8.753371
_cell_length_c 8.312015
_cell_angle_alpha 92.679703
_cell_angle_beta 52.316974
_cell_angle_gamma 82.253306
_cell_volume 685.347873
_symmetry_space_group_name_H-M "P -1"
_symmetry_group_IT_number 2
_symmetry_cell_setting 'triclinic'
loop_
_space_group_symop_operation_xyz
x,y,z
-x,-y,-z
loop_
_atom_site_type_symbol
_atom_site_label
_atom_site_fract_x
_atom_site_fract_y
_atom_site_fract_z
Si Si1 0.838821 0.969309 0.336114
Si Si2 0.716624 0.022475 0.774034
Si Si3 0.696083 0.727261 0.317018
Si Si4 0.278498 0.548627 0.514979
Si Si5 0.857025 0.057821 0.970904
Si Si6 0.241469 0.350397 0.228156
Si Si7 0.958826 0.684152 0.857965
Si Si8 0.501516 0.746735 0.209863
O O1 0.728741 0.854615 0.417949
O O2 0.001118 0.874229 0.169963
O O3 0.822465 0.042830 0.531919
O O4 0.806573 0.067917 0.202398
O O5 0.752234 0.095882 0.916111
O O6 0.569382 0.115787 0.839081
O O7 0.732741 0.836788 0.772966
O O8 0.645667 0.583875 0.436359
O O9 0.586041 0.804846 0.283909
O O10 0.848885 0.660058 0.093865
O O11 0.242404 0.453310 0.387977
O O12 0.380269 0.662907 0.379754
O O13 0.125317 0.629488 0.725713
O O14 0.921873 0.872125 0.881731
O O15 0.099131 0.388498 0.251979
O O16 0.375102 0.370804 0.000344
#
# Coordination Sequence:
#
# PCOD9088694 Si02
#       8
#     2   2   2   2   2   2   2   2
#     4  10  19  37  62  93 127 162 208 256 316 369
#     4  11  21  41  65  91 125 169 207 254 323 368
#     4  10  22  41  60  90 127 165 203 262 307 372
#     4  12  21  40  63  92 119 166 212 251 313 375
#     4   9  20  37  62  96 134 154 202 272 314 364
#     4  10  22  41  62  90 125 160 206 260 311 371
#     4   9  20  38  64  90 123 159 206 258 314 371
#     4  11  25  41  62  88 130 166 207 255 312 373
#
# _framework density 23.345811000000001
#
# number of rings (size 3 to 8) (size 9 to 14) (size 15 to 20)
#    0.000    1.750    1.250    3.750    0.000    1.500 
#    4.500    0.000    8.250    0.000    0.000    0.000 
#    0.000    0.000    0.000    0.000    0.000    0.000 
#
# Total GULP energy -89334.523078 kJ/mol
# GULP energy per Si atom -5583.407692 kJ/mol
# Density = 2.329267 g / cm^3
# Si number density = 23.345811 Si / 1000 Ang^3
#
#
#
# Elastic Constant Matrix: (Units=GPa)
#
#
# Indices 1 2 3 4 5 6 
#
# 1 113.9860 26.7095 32.8401 -9.9445 8.0108 1.2907
# 2 26.7095 39.4506 4.0427 -16.8607 -10.4095 3.6638
# 3 32.8401 4.0427 67.3314 -14.8928 1.5823 -3.4717
# 4 -9.9445 -16.8607 -14.8928 28.9277 2.3116 3.3097
# 5 8.0108 -10.4095 1.5823 2.3116 32.7152 0.4919
# 6 1.2907 3.6638 -3.4717 3.3097 0.4919 28.5368
#
#
#
# Elastic Compliance Matrix: (Units=1/GPa)
#
#
# Indices 1 2 3 4 5 6 
#
# 1 0.013833 -0.013156 -0.007103 -0.006143 -0.006811 0.001029
# 2 -0.013156 0.051338 0.009050 0.029677 0.017152 -0.008633
# 3 -0.007103 0.009050 0.020642 0.013235 0.002684 0.000089
# 4 -0.006143 0.029677 0.013235 0.057046 0.006406 -0.008649
# 5 -0.006811 0.017152 0.002684 0.006406 0.037154 -0.002951
# 6 0.001029 -0.008633 0.000089 -0.008649 -0.002951 0.037169
#
#
# Mechanical properties :
#
#
# Convention : Reuss Voigt Hill
#
# Bulk Modulus (GPa) = 15.77367 38.66140 27.21754
# Shear Modulus (GPa) = 19.17685 28.51434 23.84560
#
# Velocity S-wave (km/s) = 2.86916 3.49863 3.19941
# Velocity P-wave (km/s) = 4.21276 5.73732 5.03310
#
# Compressibility (1/GPa) = 0.06339678
#
# Stress axis : x y z
#
# Youngs Moduli (GPa) = 72.29048 19.47861 48.44545
#
# Poissons Ratio (x) = 0.25625 0.34409
# Poissons Ratio (y) = 0.95103 -0.43843
# Poissons Ratio (z) = 0.51345 -0.17628
#
# Static dielectric constant tensor:
#      x y z
#    x 1.880970 0.016330 -0.002740 
#    y 0.016330 1.913850 -0.023860 
#    z -0.002740 -0.023860 1.922030 
# 
# From -- ./inp_files/243317.got.cif
#   From: 2010.05.17/outbox.cif.g08.bks.cpg/sg2_122_cif.got.tgz:243317.got - 2010.06.03 11:33:40.
