data_PCOD9088522
_publ_section_title
;
Structure prediction by ZEFSAII (Michael W. Deem and Ramdas Pophale) SiO2 
 PCOD9088522
Probable space group: P -1
;
_chemical_formula_sum "Si O2"
_cell_formula_units_Z 16
_cell_length_a 11.194723
_cell_length_b 13.757332
_cell_length_c 19.740082
_cell_angle_alpha 32.352549
_cell_angle_beta 151.026839
_cell_angle_gamma 147.539475
_cell_volume 720.891940
_symmetry_space_group_name_H-M "P -1"
_symmetry_group_IT_number 2
_symmetry_cell_setting 'triclinic'
loop_
_space_group_symop_operation_xyz
x,y,z
-x,-y,-z
loop_
_atom_site_type_symbol
_atom_site_label
_atom_site_fract_x
_atom_site_fract_y
_atom_site_fract_z
Si Si1 0.804406 0.137687 0.242388
Si Si2 0.878800 0.136642 0.608317
Si Si3 0.563717 0.764224 0.239512
Si Si4 0.048439 0.060983 0.877178
Si Si5 0.479689 0.277970 0.377885
Si Si6 0.286640 0.876053 0.202031
Si Si7 0.380911 0.651957 0.072401
Si Si8 0.589207 0.657963 0.543426
O O1 0.096415 0.189721 0.388761
O O2 0.679909 0.954428 0.234454
O O3 0.565544 0.076358 0.215629
O O4 0.830900 0.322895 0.098821
O O5 0.740304 0.289270 0.459723
O O6 0.173200 0.240651 0.663590
O O7 0.876798 0.031534 0.741455
O O8 0.715947 0.952462 0.588583
O O9 0.387252 0.751741 0.091212
O O10 0.429838 0.564097 0.333665
O O11 0.334523 0.227243 0.896119
O O12 0.898256 0.120168 0.828666
O O13 0.118547 0.883191 0.047339
O O14 0.357601 0.430146 0.201771
O O15 0.531812 0.318976 0.458079
O O16 0.402681 0.709917 0.368026
#
# Coordination Sequence:
#
# PCOD9088522 Si02
#       8
#     2   2   2   2   2   2   2   2
#     4  11  22  42  57  85 127 160 197 239 289 355
#     4  10  19  37  61  92 122 146 195 254 303 348
#     4  10  22  36  62  92 117 157 193 248 300 352
#     4   9  19  37  63  84 114 156 201 246 292 342
#     4  10  20  34  62  94 119 152 191 250 309 346
#     4  10  21  38  61  82 117 164 202 238 286 349
#     4   9  21  37  61  92 117 154 194 247 301 352
#     4  11  22  38  61  89 120 161 197 240 292 359
#
# _framework density 22.194727
#
# number of rings (size 3 to 8) (size 9 to 14) (size 15 to 20)
#    0.000    2.000    2.500    0.750    1.750    4.000 
#    6.750    0.000    5.500    2.250    0.000    0.000 
#    0.000    0.000    0.000    0.000    0.000    0.000 
#
# Total GULP energy -89224.437644 kJ/mol
# GULP energy per Si atom -5576.527353 kJ/mol
# Density = 2.214421 g / cm^3
# Si number density = 22.194727 Si / 1000 Ang^3
#
#
#
# Elastic Constant Matrix: (Units=GPa)
#
#
# Indices 1 2 3 4 5 6 
#
# 1 100.1570 32.9858 21.3395 -2.8097 -8.2379 0.7515
# 2 32.9858 51.9879 18.4709 -2.6322 -0.5058 -1.0375
# 3 21.3395 18.4709 111.7166 -8.6681 -10.5294 2.6562
# 4 -2.8097 -2.6322 -8.6681 22.0827 8.7454 1.9904
# 5 -8.2379 -0.5058 -10.5294 8.7454 16.1467 -1.0875
# 6 0.7515 -1.0375 2.6562 1.9904 -1.0875 26.4460
#
#
#
# Elastic Compliance Matrix: (Units=1/GPa)
#
#
# Indices 1 2 3 4 5 6 
#
# 1 0.013419 -0.008333 -0.000670 -0.002504 0.007495 -0.000144
# 2 -0.008333 0.025756 -0.003103 0.003618 -0.007362 0.000984
# 3 -0.000670 -0.003103 0.010239 0.001545 0.005332 -0.001028
# 4 -0.002504 0.003618 0.001545 0.059502 -0.032773 -0.005768
# 5 0.007495 -0.007362 0.005332 -0.032773 0.087090 0.005011
# 6 -0.000144 0.000984 -0.001028 -0.005768 0.005011 0.038599
#
#
# Mechanical properties :
#
#
# Convention : Reuss Voigt Hill
#
# Bulk Modulus (GPa) = 39.67927 45.49487 42.58707
# Shear Modulus (GPa) = 18.71135 25.67277 22.19206
#
# Velocity S-wave (km/s) = 2.90669 3.40473 3.16552
# Velocity P-wave (km/s) = 5.40201 5.99990 5.70879
#
# Compressibility (1/GPa) = 0.02520207
#
# Stress axis : x y z
#
# Youngs Moduli (GPa) = 74.52324 38.82583 97.66449
#
# Poissons Ratio (x) = 0.32352 0.06543
# Poissons Ratio (y) = 0.62098 0.30308
# Poissons Ratio (z) = 0.04992 0.12049
#
# Static dielectric constant tensor:
#      x y z
#    x 1.834090 0.009420 -0.000820 
#    y 0.009420 1.825800 0.010430 
#    z -0.000820 0.010430 1.884710 
# 
# From -- ./inp_files/282035.got.cif
#   From: 2010.05.17/outbox.cif.g08.bks.cpg/sg2_142_cif.got.tgz:282035.got - 2010.06.03 11:33:40.
