data_PCOD9088497
_publ_section_title
;
Structure prediction by ZEFSAII (Michael W. Deem and Ramdas Pophale) SiO2 
 PCOD9088497
Probable space group: P -1
;
_chemical_formula_sum "Si O2"
_cell_formula_units_Z 14
_cell_length_a 12.325478
_cell_length_b 10.614441
_cell_length_c 20.565909
_cell_angle_alpha 139.739234
_cell_angle_beta 25.420839
_cell_angle_gamma 126.251862
_cell_volume 698.410341
_symmetry_space_group_name_H-M "P -1"
_symmetry_group_IT_number 2
_symmetry_cell_setting 'triclinic'
loop_
_space_group_symop_operation_xyz
x,y,z
-x,-y,-z
loop_
_atom_site_type_symbol
_atom_site_label
_atom_site_fract_x
_atom_site_fract_y
_atom_site_fract_z
Si Si1 0.278722 0.896483 0.062285
Si Si2 0.342248 0.871433 0.495850
Si Si3 0.670647 0.740093 0.034474
Si Si4 0.236733 0.520672 0.691374
Si Si5 0.661863 0.291553 0.906361
Si Si6 0.752254 0.444707 0.146496
Si Si7 0.750467 0.944261 0.522155
O O1 0.291375 0.759711 0.937961
O O2 0.305324 0.742215 0.048262
O O3 0.500000 0.000000 0.000000
O O4 0.973786 0.057042 0.289717
O O5 0.490768 0.636582 0.343157
O O6 0.500000 0.000000 0.500000
O O7 0.350272 0.915882 0.432433
O O8 0.593160 0.745311 0.002797
O O9 0.458988 0.938982 0.262908
O O10 0.635601 0.527329 0.996827
O O11 0.980611 0.694796 0.864985
O O12 0.500000 0.500000 0.500000
O O13 0.223007 0.567565 0.793975
O O14 0.234922 0.287286 0.594233
O O15 0.929055 0.113197 0.661105
O O16 0.000000 0.500000 0.000000
#
# Coordination Sequence:
#
# PCOD9088497 Si02
#       7
#     2   2   2   2   2   2   2
#     4  11  25  40  61  95 130 159 206 269 323 368
#     4  11  20  38  67  93 117 163 219 265 301 374
#     4  10  20  37  64  81 117 165 204 249 308 369
#     4  11  25  38  55  94 129 156 203 261 314 372
#     4   9  20  39  57  89 118 156 208 255 303 376
#     4  12  22  42  70  92 122 171 220 260 305 382
#     4  10  19  37  61  90 114 155 216 257 303 371
#
# _framework density 20.045521000000001
#
# number of rings (size 3 to 8) (size 9 to 14) (size 15 to 20)
#    0.000    1.429    2.857    3.857    0.000    3.429 
#    0.000    2.857    0.000    0.000    0.000    0.000 
#    0.000    0.000    0.000    0.000    0.000    0.000 
#
# Total GULP energy -78083.799269 kJ/mol
# GULP energy per Si atom -5577.414233 kJ/mol
# Density = 1.999990 g / cm^3
# Si number density = 20.045521 Si / 1000 Ang^3
#
#
#
# Elastic Constant Matrix: (Units=GPa)
#
#
# Indices 1 2 3 4 5 6 
#
# 1 109.1686 16.1508 65.9387 -2.5563 -10.8086 17.6021
# 2 16.1508 29.4341 21.7543 -9.8052 -7.6509 18.2643
# 3 65.9387 21.7543 96.0299 -3.7717 -8.6064 19.9443
# 4 -2.5563 -9.8052 -3.7717 31.8184 1.0094 -3.3728
# 5 -10.8086 -7.6509 -8.6064 1.0094 33.1858 2.9094
# 6 17.6021 18.2643 19.9443 -3.3728 2.9094 26.6986
#
#
#
# Elastic Compliance Matrix: (Units=1/GPa)
#
#
# Indices 1 2 3 4 5 6 
#
# 1 0.016228 0.003410 -0.010381 0.000403 0.003862 -0.005647
# 2 0.003410 0.082598 -0.007213 0.018494 0.022408 -0.053470
# 3 -0.010381 -0.007213 0.019840 -0.001060 0.000416 -0.003222
# 4 0.000403 0.018494 -0.001060 0.036071 0.003722 -0.007974
# 5 0.003862 0.022408 0.000416 0.003722 0.038473 -0.021909
# 6 -0.005647 -0.053470 -0.003222 -0.007974 -0.021909 0.081543
#
#
# Mechanical properties :
#
#
# Convention : Reuss Voigt Hill
#
# Bulk Modulus (GPa) = 11.07435 49.14668 30.11052
# Shear Modulus (GPa) = 15.00507 27.05982 21.03244
#
# Velocity S-wave (km/s) = 2.73893 3.67811 3.24270
# Velocity P-wave (km/s) = 3.94194 6.52754 5.39202
#
# Compressibility (1/GPa) = 0.09029874
#
# Stress axis : x y z
#
# Youngs Moduli (GPa) = 61.62207 12.10677 50.40310
#
# Poissons Ratio (x) = -0.04128 0.52321
# Poissons Ratio (y) = -0.21013 0.36357
# Poissons Ratio (z) = 0.63967 0.08733
#
# Static dielectric constant tensor:
#      x y z
#    x 1.760620 0.025750 0.063390 
#    y 0.025750 1.719910 -0.081690 
#    z 0.063390 -0.081690 1.845560 
# 
# From -- ./inp_files/182012.got.cif
#   From: 2010.05.17/outbox.cif.g08.bks.cpg/sg2_92_cif.got.tgz:182012.got - 2010.06.03 11:33:40.
