data_PCOD9088987
_publ_section_title
;
Structure prediction by ZEFSAII (Michael W. Deem and Ramdas Pophale) SiO2 
 PCOD9088987
Probable space group: P -1
;
_chemical_formula_sum "Si O2"
_cell_formula_units_Z 16
_cell_length_a 11.755005
_cell_length_b 19.250825
_cell_length_c 15.981834
_cell_angle_alpha 25.110887
_cell_angle_beta 147.137107
_cell_angle_gamma 133.276257
_cell_volume 787.322810
_symmetry_space_group_name_H-M "P -1"
_symmetry_group_IT_number 2
_symmetry_cell_setting 'triclinic'
loop_
_space_group_symop_operation_xyz
x,y,z
-x,-y,-z
loop_
_atom_site_type_symbol
_atom_site_label
_atom_site_fract_x
_atom_site_fract_y
_atom_site_fract_z
Si Si1 0.171662 0.848792 0.519140
Si Si2 0.478933 0.692648 0.752893
Si Si3 0.162195 0.460802 0.977744
Si Si4 0.698216 0.753497 0.540360
Si Si5 0.558518 0.844209 0.017897
Si Si6 0.001488 0.870864 0.215507
Si Si7 0.883766 0.142385 0.341731
Si Si8 0.650592 0.613857 0.489731
O O1 0.409705 0.815873 0.657087
O O2 0.171749 0.652444 0.753062
O O3 0.119462 0.934909 0.483033
O O4 0.003514 0.929671 0.250780
O O5 0.253185 0.743202 0.504230
O O6 0.500000 0.500000 0.000000
O O7 0.698143 0.676469 0.855140
O O8 0.903758 0.487531 0.787390
O O9 0.273928 0.382065 0.219888
O O10 0.596429 0.704944 0.446673
O O11 0.948569 0.747256 0.676437
O O12 0.557916 0.947892 0.270841
O O13 0.787988 0.808173 0.148383
O O14 0.617654 0.755002 0.242065
O O15 0.371941 0.777676 0.931301
O O16 0.000000 0.000000 0.000000
O O17 0.000000 0.000000 0.500000
O O18 0.500000 0.500000 0.500000
#
# Coordination Sequence:
#
# PCOD9088987 Si02
#       8
#     2   2   2   2   2   2   2   2
#     4   9  19  36  62  86 122 163 207 257 310 372
#     4   8  17  34  60  83 110 162 206 241 304 371
#     4  11  19  38  65  86 122 168 210 246 315 386
#     4  11  23  38  62  91 127 172 209 252 322 391
#     4  11  22  39  62  92 130 159 209 272 313 362
#     4  10  19  37  64  91 118 160 212 263 319 362
#     4  10  21  38  61  92 125 169 210 251 315 381
#     4  12  24  38  62  97 130 163 210 265 324 372
#
# _framework density 20.322033000000001
#
# number of rings (size 3 to 8) (size 9 to 14) (size 15 to 20)
#    0.750    1.000    2.500    2.250    1.750    1.000 
#    0.000    0.625    5.500    2.250    0.000    0.000 
#    0.000    0.000    0.000    0.000    0.000    0.000 
#
# Total GULP energy -89070.523868 kJ/mol
# GULP energy per Si atom -5566.907742 kJ/mol
# Density = 2.027578 g / cm^3
# Si number density = 20.322033 Si / 1000 Ang^3
#
#
#
# Elastic Constant Matrix: (Units=GPa)
#
#
# Indices 1 2 3 4 5 6 
#
# 1 85.0955 13.9893 21.3788 -5.4786 -17.8467 -7.4163
# 2 13.9893 55.1532 13.6790 6.0783 -7.3373 -3.5341
# 3 21.3788 13.6790 118.7038 -3.7549 -23.3124 10.1835
# 4 -5.4786 6.0783 -3.7549 22.0565 -0.8605 -4.1711
# 5 -17.8467 -7.3373 -23.3124 -0.8605 50.9012 -0.0488
# 6 -7.4163 -3.5341 10.1835 -4.1711 -0.0488 15.8269
#
#
#
# Elastic Compliance Matrix: (Units=1/GPa)
#
#
# Indices 1 2 3 4 5 6 
#
# 1 0.014762 -0.002746 -0.002187 0.005960 0.003888 0.009294
# 2 -0.002746 0.020334 -0.002124 -0.006039 0.000897 0.003031
# 3 -0.002187 -0.002124 0.010509 0.000439 0.003740 -0.008134
# 4 0.005960 -0.006039 0.000439 0.051432 0.002304 0.014724
# 5 0.003888 0.000897 0.003740 0.002304 0.022890 0.000293
# 6 0.009294 0.003031 -0.008134 0.014724 0.000293 0.077330
#
#
# Mechanical properties :
#
#
# Convention : Reuss Voigt Hill
#
# Bulk Modulus (GPa) = 31.75571 39.67183 35.71377
# Shear Modulus (GPa) = 22.53603 31.75062 27.14333
#
# Velocity S-wave (km/s) = 3.33370 3.95698 3.65863
# Velocity P-wave (km/s) = 5.52071 6.35931 5.95479
#
# Compressibility (1/GPa) = 0.03149040
#
# Stress axis : x y z
#
# Youngs Moduli (GPa) = 67.74363 49.17991 95.15533
#
# Poissons Ratio (x) = 0.13504 0.20815
# Poissons Ratio (y) = 0.18601 0.20208
# Poissons Ratio (z) = 0.14819 0.10444
#
# Static dielectric constant tensor:
#      x y z
#    x 1.788230 -0.012370 0.013160 
#    y -0.012370 1.758670 0.004640 
#    z 0.013160 0.004640 1.710130 
# 
# From -- ./inp_files/523906.got.cif
#   From: 2010.05.17/outbox.cif.g08.bks.cpg/sg2_262_cif.got.tgz:523906.got - 2010.06.03 11:33:40.
