data_PCOD9088333
_publ_section_title
;
Structure prediction by ZEFSAII (Michael W. Deem and Ramdas Pophale) SiO2 
 PCOD9088333
Probable space group: P -1
;
_chemical_formula_sum "Si O2"
_cell_formula_units_Z 16
_cell_length_a 9.610149
_cell_length_b 7.566986
_cell_length_c 18.501554
_cell_angle_alpha 87.433066
_cell_angle_beta 50.075337
_cell_angle_gamma 118.862774
_cell_volume 767.427747
_symmetry_space_group_name_H-M "P -1"
_symmetry_group_IT_number 2
_symmetry_cell_setting 'triclinic'
loop_
_space_group_symop_operation_xyz
x,y,z
-x,-y,-z
loop_
_atom_site_type_symbol
_atom_site_label
_atom_site_fract_x
_atom_site_fract_y
_atom_site_fract_z
Si Si1 0.800830 0.497258 0.925240
Si Si2 0.219989 0.638270 0.368933
Si Si3 0.646978 0.620368 0.606109
Si Si4 0.279787 0.594544 0.196895
Si Si5 0.144987 0.976519 0.352606
Si Si6 0.778911 0.729360 0.063964
Si Si7 0.142297 0.383747 0.807556
Si Si8 0.732930 0.999696 0.850476
O O1 0.812457 0.575362 0.837892
O O2 0.004754 0.479148 0.860613
O O3 0.833288 0.651842 0.976463
O O4 0.526122 0.242789 0.032818
O O5 0.397451 0.609374 0.346326
O O6 0.134660 0.508607 0.321764
O O7 0.287934 0.886966 0.327971
O O8 0.000000 0.500000 0.500000
O O9 0.387587 0.537398 0.675037
O O10 0.859166 0.761598 0.472108
O O11 0.760430 0.805777 0.631734
O O12 0.539127 0.686991 0.130884
O O13 0.295901 0.808556 0.160728
O O14 0.190344 0.034264 0.251494
O O15 0.766340 0.607110 0.143261
O O16 0.000000 0.000000 0.000000
O O17 0.939995 0.127248 0.841052
#
# Coordination Sequence:
#
# PCOD9088333 Si02
#       8
#     2   2   2   2   2   2   2   2
#     4  11  23  39  58  83 122 161 196 242 299 363
#     4   9  18  35  59  87 116 149 201 247 288 352
#     4  10  19  37  60  91 116 154 207 249 297 354
#     4  10  20  37  58  83 113 157 194 238 299 358
#     4   9  20  36  63  85 118 162 198 243 304 364
#     4  12  23  36  55  86 117 152 199 245 295 352
#     4  11  22  37  58  86 119 150 197 253 295 349
#     4  10  21  39  59  84 117 160 196 240 304 361
#
# _framework density 20.848870000000002
#
# number of rings (size 3 to 8) (size 9 to 14) (size 15 to 20)
#    0.000    1.750    1.250    4.500    0.000    2.500 
#    0.000    0.000    0.000    0.000    0.000   13.125 
#    0.000    0.000    0.000    0.000    0.000    0.000 
#
# Total GULP energy -89291.690907 kJ/mol
# GULP energy per Si atom -5580.730682 kJ/mol
# Density = 2.080142 g / cm^3
# Si number density = 20.848870 Si / 1000 Ang^3
#
#
#
# Elastic Constant Matrix: (Units=GPa)
#
#
# Indices 1 2 3 4 5 6 
#
# 1 75.8050 20.2256 42.0391 7.8848 -0.1760 17.1853
# 2 20.2256 60.2217 36.2453 12.5101 -4.5208 11.5579
# 3 42.0391 36.2453 134.9977 27.7241 -3.1009 11.2454
# 4 7.8848 12.5101 27.7241 30.8741 8.3898 7.0227
# 5 -0.1760 -4.5208 -3.1009 8.3898 37.4170 0.5828
# 6 17.1853 11.5579 11.2454 7.0227 0.5828 24.8606
#
#
#
# Elastic Compliance Matrix: (Units=1/GPa)
#
#
# Indices 1 2 3 4 5 6 
#
# 1 0.018576 -0.001922 -0.005099 0.003326 -0.001149 -0.010554
# 2 -0.001922 0.021858 -0.003757 -0.004580 0.003440 -0.005921
# 3 -0.005099 -0.003757 0.011682 -0.008884 0.002444 0.002440
# 4 0.003326 -0.004580 -0.008884 0.046575 -0.011577 -0.009037
# 5 -0.001149 0.003440 0.002444 -0.011577 0.029924 0.000658
# 6 -0.010554 -0.005921 0.002440 -0.009037 0.000658 0.051706
#
#
# Mechanical properties :
#
#
# Convention : Reuss Voigt Hill
#
# Bulk Modulus (GPa) = 32.72283 52.00494 42.36388
# Shear Modulus (GPa) = 23.57777 30.13132 26.85455
#
# Velocity S-wave (km/s) = 3.36652 3.80574 3.59285
# Velocity P-wave (km/s) = 5.55343 6.65653 6.12985
#
# Compressibility (1/GPa) = 0.03055971
#
# Stress axis : x y z
#
# Youngs Moduli (GPa) = 53.83223 45.74959 85.60387
#
# Poissons Ratio (x) = 0.08791 0.43651
# Poissons Ratio (y) = 0.10344 0.32165
# Poissons Ratio (z) = 0.27450 0.17190
#
# Static dielectric constant tensor:
#      x y z
#    x 1.739320 -0.017430 -0.005220 
#    y -0.017430 1.757780 0.034670 
#    z -0.005220 0.034670 1.748110 
# 
# From -- ./inp_files/227242.got.cif
#   From: 2010.05.17/outbox.cif.g08.bks.cpg/sg2_114_cif.got.tgz:227242.got - 2010.06.03 11:33:40.
