data_PCOD9088590
_publ_section_title
;
Structure prediction by ZEFSAII (Michael W. Deem and Ramdas Pophale) SiO2 
 PCOD9088590
Probable space group: P -1
;
_chemical_formula_sum "Si O2"
_cell_formula_units_Z 16
_cell_length_a 13.179511
_cell_length_b 6.808616
_cell_length_c 13.844199
_cell_angle_alpha 82.893773
_cell_angle_beta 38.543064
_cell_angle_gamma 77.040331
_cell_volume 751.623461
_symmetry_space_group_name_H-M "P -1"
_symmetry_group_IT_number 2
_symmetry_cell_setting 'triclinic'
loop_
_space_group_symop_operation_xyz
x,y,z
-x,-y,-z
loop_
_atom_site_type_symbol
_atom_site_label
_atom_site_fract_x
_atom_site_fract_y
_atom_site_fract_z
Si Si1 0.311178 0.681972 0.128205
Si Si2 0.000236 0.090183 0.768018
Si Si3 0.198708 0.421440 0.550170
Si Si4 0.385145 0.988102 0.181591
Si Si5 0.508407 0.282227 0.192978
Si Si6 0.905206 0.633895 0.649407
Si Si7 0.157420 0.635813 0.967739
Si Si8 0.911842 0.362706 0.206579
O O1 0.220837 0.496066 0.207073
O O2 0.171997 0.858755 0.167913
O O3 0.344017 0.769940 0.203253
O O4 0.462368 0.640836 0.941786
O O5 0.121184 0.219760 0.620075
O O6 0.068652 0.857597 0.749492
O O7 0.963708 0.184675 0.896334
O O8 0.349225 0.384839 0.366481
O O9 0.221127 0.478659 0.641078
O O10 0.056427 0.612539 0.611735
O O11 0.482386 0.054682 0.197531
O O12 0.209166 0.150478 0.302137
O O13 0.500000 0.000000 0.000000
O O14 0.663948 0.330206 0.132799
O O15 0.000000 0.500000 0.500000
O O16 0.141396 0.640164 0.864920
O O17 0.087831 0.440681 0.069132
#
# Coordination Sequence:
#
# PCOD9088590 Si02
#       8
#     2   2   2   2   2   2   2   2
#     4   9  21  37  60  82 114 156 199 240 288 353
#     4   9  18  37  59  82 113 147 193 245 285 348
#     4  10  21  37  55  85 120 149 192 244 295 351
#     4  10  21  38  58  83 116 156 199 239 288 351
#     4  10  20  39  54  81 123 152 186 250 298 337
#     4  11  21  39  60  86 117 158 199 244 294 344
#     4   9  20  36  61  85 113 149 194 246 289 354
#     4  10  19  37  62  86 108 152 200 235 296 357
#
# _framework density 21.287255999999999
#
# number of rings (size 3 to 8) (size 9 to 14) (size 15 to 20)
#    0.000    2.250    1.250    1.875    0.000    3.000 
#    2.250    6.875    0.000    0.000    0.000    0.000 
#    0.000    0.000    0.000    0.000    0.000    0.000 
#
# Total GULP energy -89154.614182 kJ/mol
# GULP energy per Si atom -5572.163386 kJ/mol
# Density = 2.123881 g / cm^3
# Si number density = 21.287256 Si / 1000 Ang^3
#
#
#
# Elastic Constant Matrix: (Units=GPa)
#
#
# Indices 1 2 3 4 5 6 
#
# 1 90.6991 36.9299 47.4060 6.4823 9.7147 33.8336
# 2 36.9299 90.1031 42.5278 11.8896 -1.5282 11.3853
# 3 47.4060 42.5278 159.8479 3.9927 -0.7913 12.1541
# 4 6.4823 11.8896 3.9927 21.8243 2.8826 7.0347
# 5 9.7147 -1.5282 -0.7913 2.8826 30.7345 5.3683
# 6 33.8336 11.3853 12.1541 7.0347 5.3683 34.0224
#
#
#
# Elastic Compliance Matrix: (Units=1/GPa)
#
#
# Indices 1 2 3 4 5 6 
#
# 1 0.022872 -0.005650 -0.003914 0.003903 -0.004564 -0.019543
# 2 -0.005650 0.015237 -0.002368 -0.007342 0.002743 0.002451
# 3 -0.003914 -0.002368 0.007919 0.000347 0.001007 0.001625
# 4 0.003903 -0.007342 0.000347 0.052994 -0.004500 -0.011796
# 5 -0.004564 0.002743 0.001007 -0.004500 0.034790 -0.001299
# 6 -0.019543 0.002451 0.001625 -0.011796 -0.001299 0.050070
#
#
# Mechanical properties :
#
#
# Convention : Reuss Voigt Hill
#
# Bulk Modulus (GPa) = 45.11580 66.04194 55.57887
# Shear Modulus (GPa) = 23.24131 31.56865 27.40498
#
# Velocity S-wave (km/s) = 3.30782 3.85513 3.59191
# Velocity P-wave (km/s) = 5.98571 7.13495 6.58545
#
# Compressibility (1/GPa) = 0.02216519
#
# Stress axis : x y z
#
# Youngs Moduli (GPa) = 43.72244 65.62864 126.27184
#
# Poissons Ratio (x) = 0.37079 0.49423
# Poissons Ratio (y) = 0.24702 0.29897
# Poissons Ratio (z) = 0.17113 0.15539
#
# Static dielectric constant tensor:
#      x y z
#    x 1.856040 0.019770 0.006330 
#    y 0.019770 1.837100 -0.013550 
#    z 0.006330 -0.013550 1.783610 
# 
# From -- ./inp_files/525850.got.cif
#   From: 2010.05.17/outbox.cif.g08.bks.cpg/sg2_263_cif.got.tgz:525850.got - 2010.06.03 11:33:40.
