data_PCOD9088313
_publ_section_title
;
Structure prediction by ZEFSAII (Michael W. Deem and Ramdas Pophale) SiO2 
 PCOD9088313
Probable space group: P -1
;
_chemical_formula_sum "Si O2"
_cell_formula_units_Z 16
_cell_length_a 13.557409
_cell_length_b 9.140162
_cell_length_c 30.152268
_cell_angle_alpha 40.120953
_cell_angle_beta 164.823497
_cell_angle_gamma 138.179577
_cell_volume 629.750820
_symmetry_space_group_name_H-M "P -1"
_symmetry_group_IT_number 2
_symmetry_cell_setting 'triclinic'
loop_
_space_group_symop_operation_xyz
x,y,z
-x,-y,-z
loop_
_atom_site_type_symbol
_atom_site_label
_atom_site_fract_x
_atom_site_fract_y
_atom_site_fract_z
Si Si1 0.905964 0.564600 0.684189
Si Si2 0.180686 0.818227 0.572997
Si Si3 0.661697 0.275482 0.778025
Si Si4 0.817524 0.475019 0.277020
Si Si5 0.960160 0.094227 0.862768
Si Si6 0.702976 0.141206 0.015994
Si Si7 0.738590 0.539461 0.834268
Si Si8 0.549009 0.745235 0.563952
O O1 0.500000 0.500000 0.500000
O O2 0.015675 0.344071 0.809226
O O3 0.856501 0.753530 0.655914
O O4 0.194163 0.599955 0.761214
O O5 0.136891 0.739058 0.623024
O O6 0.330188 0.599544 0.661539
O O7 0.751785 0.846957 0.366718
O O8 0.536457 0.998341 0.686360
O O9 0.915960 0.134350 0.887223
O O10 0.782594 0.336891 0.866109
O O11 0.622735 0.528094 0.678747
O O12 0.478446 0.616765 0.113886
O O13 0.163703 0.654719 0.394272
O O14 0.267934 0.963033 0.996820
O O15 0.134508 0.225424 0.191047
O O16 0.500000 0.000000 0.000000
O O17 0.000000 0.500000 0.000000
O O18 0.500000 0.000000 0.500000
#
# Coordination Sequence:
#
# PCOD9088313 Si02
#       8
#     2   2   2   2   2   2   2   2
#     4   9  18  34  57  86 122 160 207 256 306 369
#     4  10  21  40  66  91 127 165 208 260 319 380
#     4  10  22  40  62  97 127 160 219 268 312 377
#     4  10  19  37  60  88 124 164 208 255 305 380
#     4  10  21  38  63  94 127 169 207 260 321 372
#     4  11  22  38  65  87 123 172 216 247 318 383
#     4  11  23  41  64  86 126 169 211 264 321 371
#     4   9  20  35  58  89 127 157 207 265 317 363
#
# _framework density 25.406874999999999
#
# number of rings (size 3 to 8) (size 9 to 14) (size 15 to 20)
#    0.000    2.000    2.500    1.500    1.750    1.000 
#    0.000    6.875    0.000    0.000    0.000    0.000 
#    0.000    0.000    0.000    0.000    0.000    0.000 
#
# Total GULP energy -89204.112034 kJ/mol
# GULP energy per Si atom -5575.257002 kJ/mol
# Density = 2.534905 g / cm^3
# Si number density = 25.406875 Si / 1000 Ang^3
#
#
#
# Elastic Constant Matrix: (Units=GPa)
#
#
# Indices 1 2 3 4 5 6 
#
# 1 227.2548 71.9318 49.8753 4.9621 30.9269 -40.3910
# 2 71.9318 122.9675 18.1186 -4.2613 9.6168 -24.7594
# 3 49.8753 18.1186 39.9857 3.5726 10.5668 -15.7020
# 4 4.9621 -4.2613 3.5726 29.6422 -7.3036 12.2175
# 5 30.9269 9.6168 10.5668 -7.3036 32.7753 -3.3481
# 6 -40.3910 -24.7594 -15.7020 12.2175 -3.3481 56.2914
#
#
#
# Elastic Compliance Matrix: (Units=1/GPa)
#
#
# Indices 1 2 3 4 5 6 
#
# 1 0.007931 -0.002854 -0.005502 -0.003802 -0.005371 0.003406
# 2 -0.002854 0.010315 -0.000477 0.001225 0.000309 0.002108
# 3 -0.005502 -0.000477 0.038191 -0.009053 -0.008184 0.007973
# 4 -0.003802 0.001225 -0.009053 0.044871 0.014759 -0.013576
# 5 -0.005371 0.000309 -0.008184 0.014759 0.040723 -0.006782
# 6 0.003406 0.002108 0.007973 -0.013576 -0.006782 0.025903
#
#
# Mechanical properties :
#
#
# Convention : Reuss Voigt Hill
#
# Bulk Modulus (GPa) = 25.79342 74.45103 50.12223
# Shear Modulus (GPa) = 25.18584 40.42726 32.80655
#
# Velocity S-wave (km/s) = 3.15191 3.99330 3.59729
# Velocity P-wave (km/s) = 4.83944 7.11541 6.08479
#
# Compressibility (1/GPa) = 0.03876958
#
# Stress axis : x y z
#
# Youngs Moduli (GPa) = 126.09120 96.94600 26.18445
#
# Poissons Ratio (x) = 0.27672 0.14407
# Poissons Ratio (y) = 0.35991 0.01249
# Poissons Ratio (z) = 0.69377 0.04623
#
# Static dielectric constant tensor:
#      x y z
#    x 2.104480 0.018590 0.067780 
#    y 0.018590 2.078150 0.024570 
#    z 0.067780 0.024570 2.116470 
# 
# From -- ./inp_files/618216.got.cif
#   From: 2010.05.17/outbox.cif.g08.bks.cpg/sg2_310_cif.got.tgz:618216.got - 2010.06.03 11:33:40.
