data_PCOD9088941
_publ_section_title
;
Structure prediction by ZEFSAII (Michael W. Deem and Ramdas Pophale) SiO2 
 PCOD9088941
Probable space group: P -1
;
_chemical_formula_sum "Si O2"
_cell_formula_units_Z 16
_cell_length_a 7.054039
_cell_length_b 7.264992
_cell_length_c 14.809153
_cell_angle_alpha 79.219894
_cell_angle_beta 110.868020
_cell_angle_gamma 76.508522
_cell_volume 658.396829
_symmetry_space_group_name_H-M "P -1"
_symmetry_group_IT_number 2
_symmetry_cell_setting 'triclinic'
loop_
_space_group_symop_operation_xyz
x,y,z
-x,-y,-z
loop_
_atom_site_type_symbol
_atom_site_label
_atom_site_fract_x
_atom_site_fract_y
_atom_site_fract_z
Si Si1 0.642910 0.183532 0.748509
Si Si2 0.783865 0.779380 0.559507
Si Si3 0.114247 0.658350 0.080517
Si Si4 0.810434 0.753695 0.767656
Si Si5 0.295369 0.672767 0.823265
Si Si6 0.674636 0.211241 0.554050
Si Si7 0.264498 0.564859 0.630132
Si Si8 0.320253 0.364711 0.992474
O O1 0.775639 0.216471 0.853849
O O2 0.746943 0.230552 0.666907
O O3 0.404578 0.339668 0.695180
O O4 0.660353 0.955541 0.766051
O O5 0.735533 0.727457 0.657399
O O6 0.566252 0.795875 0.470576
O O7 0.006960 0.623888 0.581314
O O8 0.804095 0.998005 0.552115
O O9 0.164727 0.446865 0.158678
O O10 0.211741 0.576628 0.007637
O O11 0.856645 0.744172 0.024588
O O12 0.045200 0.777347 0.791894
O O13 0.319493 0.674623 0.718775
O O14 0.463682 0.738970 0.905760
O O15 0.342624 0.444698 0.888935
O O16 0.676256 0.368832 0.463705
#
# Coordination Sequence:
#
# PCOD9088941 Si02
#       8
#     2   2   2   2   2   2   2   2
#     4  11  22  37  60  91 124 153 197 247 295 357
#     4   9  20  37  59  88 120 161 203 242 293 358
#     4  10  19  37  64  86 113 160 200 240 308 359
#     4   9  20  37  60  86 122 157 193 248 299 353
#     4   9  18  36  61  87 115 154 200 248 300 352
#     4  10  21  38  59  89 126 156 198 248 296 358
#     4  11  20  35  63  87 118 164 199 241 302 361
#     4   9  18  35  63  85 110 156 202 246 300 356
#
# _framework density 24.301449999999999
#
# number of rings (size 3 to 8) (size 9 to 14) (size 15 to 20)
#    0.000    2.250    1.250    1.500    0.000    0.500 
#    0.000    8.750   11.000    0.000    0.000    0.000 
#    0.000    0.000    0.000    0.000    0.000    0.000 
#
# Total GULP energy -89364.253135 kJ/mol
# GULP energy per Si atom -5585.265821 kJ/mol
# Density = 2.424614 g / cm^3
# Si number density = 24.301450 Si / 1000 Ang^3
#
#
#
# Elastic Constant Matrix: (Units=GPa)
#
#
# Indices 1 2 3 4 5 6 
#
# 1 58.2394 8.6937 -2.7250 0.7947 15.3147 -15.4124
# 2 8.6937 81.0676 -0.2857 -0.1755 5.4820 -6.1868
# 3 -2.7250 -0.2857 98.9010 14.6851 -2.5987 5.1563
# 4 0.7947 -0.1755 14.6851 35.6318 -3.5232 0.9731
# 5 15.3147 5.4820 -2.5987 -3.5232 40.1718 -11.1767
# 6 -15.4124 -6.1868 5.1563 0.9731 -11.1767 16.3288
#
#
#
# Elastic Compliance Matrix: (Units=1/GPa)
#
#
# Indices 1 2 3 4 5 6 
#
# 1 0.023385 -0.000783 -0.000277 -0.001291 -0.003502 0.019543
# 2 -0.000783 0.012741 -0.000201 0.000020 -0.000366 0.003899
# 3 -0.000277 -0.000201 0.010956 -0.004467 -0.000658 -0.003981
# 4 -0.001291 0.000020 -0.004467 0.030217 0.002971 0.000432
# 5 -0.003502 -0.000366 -0.000658 0.002971 0.031556 0.018186
# 6 0.019543 0.003899 -0.003981 0.000432 0.018186 0.094844
#
#
# Mechanical properties :
#
#
# Convention : Reuss Voigt Hill
#
# Bulk Modulus (GPa) = 22.44166 27.73046 25.08606
# Shear Modulus (GPa) = 22.61679 33.92813 28.27246
#
# Velocity S-wave (km/s) = 3.05401 3.74054 3.41457
# Velocity P-wave (km/s) = 4.65733 5.48556 5.08832
#
# Compressibility (1/GPa) = 0.04455998
#
# Stress axis : x y z
#
# Youngs Moduli (GPa) = 42.76286 78.48622 91.27070
#
# Poissons Ratio (x) = 0.06148 0.02530
# Poissons Ratio (y) = 0.03350 0.01832
# Poissons Ratio (z) = 0.01185 0.01575
#
# Static dielectric constant tensor:
#      x y z
#    x 2.005310 -0.019240 -0.000500 
#    y -0.019240 1.921330 0.017490 
#    z -0.000500 0.017490 2.019310 
# 
# From -- ./inp_files/492994.got.cif
#   From: 2010.05.17/outbox.cif.g08.bks.cpg/sg2_247_cif.got.tgz:492994.got - 2010.06.03 11:33:40.
