data_PCOD9088141
_publ_section_title
;
Structure prediction by ZEFSAII (Michael W. Deem and Ramdas Pophale) SiO2 
 PCOD9088141
Probable space group: P -1
;
_chemical_formula_sum "Si O2"
_cell_formula_units_Z 14
_cell_length_a 22.004539
_cell_length_b 9.890324
_cell_length_c 17.917392
_cell_angle_alpha 40.504472
_cell_angle_beta 17.695135
_cell_angle_gamma 33.209748
_cell_volume 633.159665
_symmetry_space_group_name_H-M "P -1"
_symmetry_group_IT_number 2
_symmetry_cell_setting 'triclinic'
loop_
_space_group_symop_operation_xyz
x,y,z
-x,-y,-z
loop_
_atom_site_type_symbol
_atom_site_label
_atom_site_fract_x
_atom_site_fract_y
_atom_site_fract_z
Si Si1 0.975693 0.856206 0.856005
Si Si2 0.681478 0.177597 0.638472
Si Si3 0.742963 0.035049 0.793309
Si Si4 0.258043 0.285509 0.325663
Si Si5 0.209918 0.465834 0.998202
Si Si6 0.864543 0.902898 0.317339
Si Si7 0.664698 0.670264 0.263666
O O1 0.066896 0.864910 0.662515
O O2 0.186899 0.578451 0.755705
O O3 0.975189 0.049623 0.833170
O O4 0.737274 0.858622 0.127219
O O5 0.641972 0.134733 0.786668
O O6 0.688399 0.966129 0.670005
O O7 0.446093 0.430385 0.775485
O O8 0.808169 0.756264 0.852366
O O9 0.517468 0.244396 0.022579
O O10 0.000000 0.000000 0.500000
O O11 0.213335 0.254017 0.476959
O O12 0.000000 0.500000 0.500000
O O13 0.992316 0.741342 0.162437
O O14 0.245021 0.414778 0.891020
O O15 0.624256 0.174600 0.464668
#
# Coordination Sequence:
#
# PCOD9088141 Si02
#       7
#     2   2   2   2   2   2   2
#     4  10  23  42  66  89 129 169 206 269 320 369
#     4  10  20  37  61  85 125 167 206 252 322 374
#     4  11  21  37  60  94 130 167 210 262 325 379
#     4  10  19  37  59  86 125 164 209 256 310 383
#     4  11  22  41  66  93 125 168 210 264 314 387
#     4  11  22  41  66  93 125 167 214 257 321 381
#     4  11  22  45  63  93 129 162 216 265 315 380
#
# _framework density 22.111325999999998
#
# number of rings (size 3 to 8) (size 9 to 14) (size 15 to 20)
#    0.000    1.429    4.286    4.714    0.000    0.571 
#   10.286    2.857    0.000    0.000    0.000    0.000 
#    0.000    0.000    0.000    0.000    0.000    0.000 
#
# Total GULP energy -78070.927916 kJ/mol
# GULP energy per Si atom -5576.494851 kJ/mol
# Density = 2.206100 g / cm^3
# Si number density = 22.111326 Si / 1000 Ang^3
#
#
#
# Elastic Constant Matrix: (Units=GPa)
#
#
# Indices 1 2 3 4 5 6 
#
# 1 65.3215 13.2000 7.4712 8.4683 8.0418 1.8485
# 2 13.2000 43.0230 29.9482 8.0110 13.5809 5.3645
# 3 7.4712 29.9482 91.8154 4.4443 -9.4612 19.5086
# 4 8.4683 8.0110 4.4443 41.3407 5.5586 3.6011
# 5 8.0418 13.5809 -9.4612 5.5586 26.1824 0.2277
# 6 1.8485 5.3645 19.5086 3.6011 0.2277 31.4943
#
#
#
# Elastic Compliance Matrix: (Units=1/GPa)
#
#
# Indices 1 2 3 4 5 6 
#
# 1 0.016727 -0.003423 -0.000487 -0.002317 -0.003047 0.000190
# 2 -0.003423 0.046545 -0.018725 -0.002747 -0.029313 0.004398
# 3 -0.000487 -0.018725 0.020944 -0.000018 0.017521 -0.009880
# 4 -0.002317 -0.002747 -0.000018 0.025849 -0.003338 -0.002316
# 5 -0.003047 -0.029313 0.017521 -0.003338 0.061424 -0.005744
# 6 0.000190 0.004398 -0.009880 -0.002316 -0.005744 0.037418
#
#
# Mechanical properties :
#
#
# Convention : Reuss Voigt Hill
#
# Bulk Modulus (GPa) = 25.67738 33.48875 29.58307
# Shear Modulus (GPa) = 18.71547 29.77286 24.24417
#
# Velocity S-wave (km/s) = 2.91249 3.67345 3.31487
# Velocity P-wave (km/s) = 4.79042 5.75940 5.29711
#
# Compressibility (1/GPa) = 0.03894478
#
# Stress axis : x y z
#
# Youngs Moduli (GPa) = 59.78520 21.48478 47.74539
#
# Poissons Ratio (x) = 0.07355 0.02323
# Poissons Ratio (y) = 0.20467 0.89405
# Poissons Ratio (z) = 0.02909 0.40231
#
# Static dielectric constant tensor:
#      x y z
#    x 2.083730 -0.309700 -0.011060 
#    y -0.309700 2.125010 -0.050030 
#    z -0.011060 -0.050030 2.004970 
# 
# From -- ./inp_files/304306.got.cif
#   From: 2010.05.17/outbox.cif.g08.bks.cpg/sg2_153_cif.got.tgz:304306.got - 2010.06.03 11:33:40.
