data_PCOD9088624
_publ_section_title
;
Structure prediction by ZEFSAII (Michael W. Deem and Ramdas Pophale) SiO2 
 PCOD9088624
Probable space group: P -1
;
_chemical_formula_sum "Si O2"
_cell_formula_units_Z 16
_cell_length_a 12.565473
_cell_length_b 7.494862
_cell_length_c 8.756208
_cell_angle_alpha 121.121304
_cell_angle_beta 112.852074
_cell_angle_gamma 95.579137
_cell_volume 602.355064
_symmetry_space_group_name_H-M "P -1"
_symmetry_group_IT_number 2
_symmetry_cell_setting 'triclinic'
loop_
_space_group_symop_operation_xyz
x,y,z
-x,-y,-z
loop_
_atom_site_type_symbol
_atom_site_label
_atom_site_fract_x
_atom_site_fract_y
_atom_site_fract_z
Si Si1 0.493755 0.734908 0.037378
Si Si2 0.221602 0.471097 0.385138
Si Si3 0.388762 0.861560 0.490293
Si Si4 0.246166 0.662002 0.033650
Si Si5 0.149508 0.155587 0.484007
Si Si6 0.923430 0.266715 0.435157
Si Si7 0.979075 0.276913 0.987689
Si Si8 0.736039 0.809895 0.116462
O O1 0.350860 0.710651 0.979614
O O2 0.593812 0.769450 0.970624
O O3 0.568288 0.966594 0.269956
O O4 0.500000 0.500000 0.000000
O O5 0.350324 0.611861 0.433551
O O6 0.228054 0.347893 0.491676
O O7 0.166923 0.664896 0.474531
O O8 0.106773 0.294781 0.148530
O O9 0.283662 0.809023 0.276167
O O10 0.500000 0.000000 0.500000
O O11 0.122420 0.702231 0.939048
O O12 0.236027 0.416619 0.979410
O O13 0.236602 0.142034 0.663348
O O14 0.040676 0.212104 0.532795
O O15 0.076576 0.937949 0.246263
O O16 0.000000 0.500000 0.500000
O O17 0.833579 0.038183 0.203025
O O18 0.000000 0.500000 0.000000
#
# Coordination Sequence:
#
# PCOD9088624 Si02
#       8
#     2   2   2   2   2   2   2   2
#     4   9  19  35  64  93 113 154 209 255 299 367
#     4  11  22  39  59  94 126 163 202 258 314 362
#     4  10  19  37  62  88 120 157 204 250 311 361
#     4  10  21  35  63  94 119 157 210 255 306 370
#     4  11  24  37  59  91 131 165 203 255 304 374
#     4  10  21  36  57  90 120 160 202 255 304 355
#     4  12  21  36  60  92 124 161 204 251 312 372
#     4  11  19  38  62  90 121 164 212 248 310 372
#
# _framework density 26.562407
#
# number of rings (size 3 to 8) (size 9 to 14) (size 15 to 20)
#    0.000    1.500    2.500    3.750    0.000    0.000 
#    0.000    0.000    0.000   18.750    0.000    0.000 
#    0.000    0.000    0.000    0.000    0.000    0.000 
#
# Total GULP energy -89101.394009 kJ/mol
# GULP energy per Si atom -5568.837126 kJ/mol
# Density = 2.650195 g / cm^3
# Si number density = 26.562407 Si / 1000 Ang^3
#
#
#
# Elastic Constant Matrix: (Units=GPa)
#
#
# Indices 1 2 3 4 5 6 
#
# 1 111.7708 29.3188 9.9546 10.7991 12.2445 11.4415
# 2 29.3188 137.9977 28.7930 9.5584 16.4367 29.8822
# 3 9.9546 28.7930 143.1486 24.0752 -10.7569 1.8775
# 4 10.7991 9.5584 24.0752 28.5531 7.0559 7.9213
# 5 12.2445 16.4367 -10.7569 7.0559 33.2027 15.4037
# 6 11.4415 29.8822 1.8775 7.9213 15.4037 24.3313
#
#
#
# Elastic Compliance Matrix: (Units=1/GPa)
#
#
# Indices 1 2 3 4 5 6 
#
# 1 0.009888 -0.001513 -0.000127 -0.002421 -0.002123 -0.000649
# 2 -0.001513 0.010708 -0.002302 0.002557 0.000061 -0.013132
# 3 -0.000127 -0.002302 0.009315 -0.008812 0.005296 0.001684
# 4 -0.002421 0.002557 -0.008812 0.047753 -0.007858 -0.011893
# 5 -0.002123 0.000061 0.005296 -0.007858 0.046483 -0.026354
# 6 -0.000649 -0.013132 0.001684 -0.011893 -0.026354 0.077959
#
#
# Mechanical properties :
#
#
# Convention : Reuss Voigt Hill
#
# Bulk Modulus (GPa) = 45.39819 58.78331 52.09075
# Shear Modulus (GPa) = 23.00622 38.87412 30.94017
#
# Velocity S-wave (km/s) = 2.94618 3.82972 3.41663
# Velocity P-wave (km/s) = 5.35739 6.46019 5.93446
#
# Compressibility (1/GPa) = 0.02202731
#
# Stress axis : x y z
#
# Youngs Moduli (GPa) = 101.13181 93.39231 107.34942
#
# Poissons Ratio (x) = 0.14131 0.01364
# Poissons Ratio (y) = 0.15302 0.24708
# Poissons Ratio (z) = 0.01285 0.21496
#
# Static dielectric constant tensor:
#      x y z
#    x 2.365400 0.061390 0.016630 
#    y 0.061390 2.091500 -0.058320 
#    z 0.016630 -0.058320 2.189140 
# 
# From -- ./inp_files/445224.got.cif
#   From: 2010.05.17/outbox.cif.g08.bks.cpg/sg2_223_cif.got.tgz:445224.got - 2010.06.03 11:33:40.
