data_PCOD9088350
_publ_section_title
;
Structure prediction by ZEFSAII (Michael W. Deem and Ramdas Pophale) SiO2 
 PCOD9088350
Probable space group: P -1
;
_chemical_formula_sum "Si O2"
_cell_formula_units_Z 16
_cell_length_a 12.587839
_cell_length_b 8.600087
_cell_length_c 11.488380
_cell_angle_alpha 70.512715
_cell_angle_beta 85.080370
_cell_angle_gamma 129.873112
_cell_volume 819.026391
_symmetry_space_group_name_H-M "P -1"
_symmetry_group_IT_number 2
_symmetry_cell_setting 'triclinic'
loop_
_space_group_symop_operation_xyz
x,y,z
-x,-y,-z
loop_
_atom_site_type_symbol
_atom_site_label
_atom_site_fract_x
_atom_site_fract_y
_atom_site_fract_z
Si Si1 0.318271 0.173750 0.359673
Si Si2 0.706001 0.683799 0.421854
Si Si3 0.679392 0.153704 0.434476
Si Si4 0.112972 0.311613 0.759193
Si Si5 0.232348 0.055793 0.147146
Si Si6 0.470895 0.030148 0.125336
Si Si7 0.451982 0.179862 0.662893
Si Si8 0.639865 0.506684 0.120900
O O1 0.286918 0.239388 0.465378
O O2 0.493716 0.374062 0.250940
O O3 0.287848 0.950073 0.449276
O O4 0.226043 0.112101 0.267409
O O5 0.857546 0.786918 0.322371
O O6 0.587095 0.400614 0.513447
O O7 0.635657 0.744936 0.327145
O O8 0.803244 0.430473 0.355198
O O9 0.500000 0.000000 0.500000
O O10 0.675687 0.064526 0.331273
O O11 0.211660 0.365287 0.847851
O O12 0.935982 0.140338 0.839185
O O13 0.318811 0.974963 0.157762
O O14 0.329781 0.297524 0.006729
O O15 0.594576 0.296927 0.099323
O O16 0.475846 0.866994 0.241265
O O17 0.500000 0.000000 0.000000
#
# Coordination Sequence:
#
# PCOD9088350 Si02
#       8
#     2   2   2   2   2   2   2   2
#     4  10  21  40  64  93 123 161 218 259 309 366
#     4  10  22  34  68  97 120 165 202 268 303 374
#     4  11  17  36  63  89 119 163 210 259 308 365
#     4  12  23  41  65  94 131 165 210 257 321 383
#     4  11  27  42  60  95 132 173 201 260 327 368
#     4  11  24  41  67  93 120 167 219 265 300 370
#     4  10  19  37  60  96 115 151 219 257 302 354
#     4  11  22  44  66  88 128 173 214 255 303 387
#
# _framework density 19.535392000000002
#
# number of rings (size 3 to 8) (size 9 to 14) (size 15 to 20)
#    0.000    1.250    3.750    4.125    5.250    1.000 
#    0.000    3.125    0.000    0.000    0.000    0.000 
#    0.000    0.000    0.000    0.000    0.000    0.000 
#
# Total GULP energy -89169.166028 kJ/mol
# GULP energy per Si atom -5573.072877 kJ/mol
# Density = 1.949093 g / cm^3
# Si number density = 19.535392 Si / 1000 Ang^3
#
#
#
# Elastic Constant Matrix: (Units=GPa)
#
#
# Indices 1 2 3 4 5 6 
#
# 1 104.7465 46.9112 57.6656 -3.8435 12.7136 4.9475
# 2 46.9112 91.4365 26.3202 12.4806 -6.0642 -3.2903
# 3 57.6656 26.3202 81.2525 -3.6126 25.2537 -10.4330
# 4 -3.8435 12.4806 -3.6126 34.4013 -7.3157 -0.7555
# 5 12.7136 -6.0642 25.2537 -7.3157 32.6179 -0.8601
# 6 4.9475 -3.2903 -10.4330 -0.7555 -0.8601 37.1743
#
#
#
# Elastic Compliance Matrix: (Units=1/GPa)
#
#
# Indices 1 2 3 4 5 6 
#
# 1 0.020463 -0.007278 -0.013438 0.003728 0.001726 -0.007023
# 2 -0.007278 0.016569 -0.002207 -0.005653 0.006407 0.001849
# 3 -0.013438 -0.002207 0.029255 -0.001218 -0.017849 0.009366
# 4 0.003728 -0.005653 -0.001218 0.032617 0.005740 -0.000543
# 5 0.001726 0.006407 -0.017849 0.005740 0.046192 -0.003487
# 6 -0.007023 0.001849 0.009366 -0.000543 -0.003487 0.030535
#
#
# Mechanical properties :
#
#
# Convention : Reuss Voigt Hill
#
# Bulk Modulus (GPa) = 48.91994 59.91437 54.41716
# Shear Modulus (GPa) = 21.90190 30.60794 26.25492
#
# Velocity S-wave (km/s) = 3.35197 3.96257 3.66999
# Velocity P-wave (km/s) = 6.33064 7.18834 6.77308
#
# Compressibility (1/GPa) = 0.02044156
#
# Stress axis : x y z
#
# Youngs Moduli (GPa) = 48.86849 60.35469 34.18164
#
# Poissons Ratio (x) = 0.43923 0.45933
# Poissons Ratio (y) = 0.35564 0.07545
# Poissons Ratio (z) = 0.65669 0.13323
#
# Static dielectric constant tensor:
#      x y z
#    x 1.748980 -0.066600 0.003700 
#    y -0.066600 1.765070 0.045910 
#    z 0.003700 0.045910 1.700780 
# 
# From -- ./inp_files/417900.got.cif
#   From: 2010.05.17/outbox.cif.g08.bks.cpg/sg2_209_cif.got.tgz:417900.got - 2010.06.03 11:33:40.
