data_PCOD9088320
_publ_section_title
;
Structure prediction by ZEFSAII (Michael W. Deem and Ramdas Pophale) SiO2 
 PCOD9088320
Probable space group: P -1
;
_chemical_formula_sum "Si O2"
_cell_formula_units_Z 16
_cell_length_a 13.704046
_cell_length_b 6.882199
_cell_length_c 11.377768
_cell_angle_alpha 42.650840
_cell_angle_beta 89.364370
_cell_angle_gamma 111.142488
_cell_volume 609.809397
_symmetry_space_group_name_H-M "P -1"
_symmetry_group_IT_number 2
_symmetry_cell_setting 'triclinic'
loop_
_space_group_symop_operation_xyz
x,y,z
-x,-y,-z
loop_
_atom_site_type_symbol
_atom_site_label
_atom_site_fract_x
_atom_site_fract_y
_atom_site_fract_z
Si Si1 0.589190 0.230433 0.115320
Si Si2 0.109442 0.087507 0.751146
Si Si3 0.153885 0.406933 0.989994
Si Si4 0.055610 0.616434 0.576374
Si Si5 0.413493 0.217858 0.957014
Si Si6 0.781237 0.939489 0.455658
Si Si7 0.164777 0.838795 0.088031
Si Si8 0.522269 0.747543 0.536346
O O1 0.585444 0.504941 0.078532
O O2 0.527317 0.875325 0.347454
O O3 0.726415 0.396920 0.025672
O O4 0.515494 0.186691 0.021323
O O5 0.112201 0.391887 0.684092
O O6 0.186514 0.236247 0.567056
O O7 0.972808 0.807155 0.853090
O O8 0.154167 0.923069 0.916211
O O9 0.159085 0.125324 0.037095
O O10 0.162252 0.691622 0.776191
O O11 0.156385 0.990979 0.450389
O O12 0.000000 0.500000 0.500000
O O13 0.949918 0.504702 0.715595
O O14 0.432051 0.379739 0.755331
O O15 0.284745 0.883613 0.103991
O O16 0.647621 0.806344 0.532141
O O17 0.500000 0.000000 0.500000
#
# Coordination Sequence:
#
# PCOD9088320 Si02
#       8
#     2   2   2   2   2   2   2   2
#     4   8  16  29  52  86 110 154 206 246 305 359
#     4  11  21  37  64  90 119 163 204 254 306 372
#     4   9  16  33  59  86 117 153 203 254 301 367
#     4  11  24  39  59  93 128 160 198 255 314 369
#     4   9  17  32  54  82 121 154 202 257 293 365
#     4  11  21  37  63  92 119 159 208 254 310 364
#     4  10  19  37  60  89 120 161 204 246 315 365
#     4   9  19  33  58  87 113 162 210 247 305 369
#
# _framework density 26.237708999999999
#
# number of rings (size 3 to 8) (size 9 to 14) (size 15 to 20)
#    0.000    2.250    2.500    1.875    0.000    5.500 
#    0.000    0.625    0.000    3.000    0.000    0.000 
#    0.000    0.000    0.000    0.000    0.000    0.000 
#
# Total GULP energy -89532.109019 kJ/mol
# GULP energy per Si atom -5595.756814 kJ/mol
# Density = 2.617799 g / cm^3
# Si number density = 26.237709 Si / 1000 Ang^3
#
#
#
# Elastic Constant Matrix: (Units=GPa)
#
#
# Indices 1 2 3 4 5 6 
#
# 1 153.7956 55.1850 32.1247 14.4838 -16.9141 25.4671
# 2 55.1850 112.3905 23.5253 35.6185 -8.6530 5.3717
# 3 32.1247 23.5253 86.9362 10.5875 -6.4979 11.7798
# 4 14.4838 35.6185 10.5875 37.4103 3.2430 3.9836
# 5 -16.9141 -8.6530 -6.4979 3.2430 39.5436 3.4642
# 6 25.4671 5.3717 11.7798 3.9836 3.4642 43.2839
#
#
#
# Elastic Compliance Matrix: (Units=1/GPa)
#
#
# Indices 1 2 3 4 5 6 
#
# 1 0.009379 -0.004099 -0.001566 0.000962 0.003210 -0.004929
# 2 -0.004099 0.015413 -0.001124 -0.013168 0.002354 0.001829
# 3 -0.001566 -0.001124 0.013068 -0.001900 0.001602 -0.002449
# 4 0.000962 -0.013168 -0.001900 0.040121 -0.005930 -0.001632
# 5 0.003210 0.002354 0.001602 -0.005930 0.028306 -0.004337
# 6 -0.004929 0.001829 -0.002449 -0.001632 -0.004337 0.026940
#
#
# Mechanical properties :
#
#
# Convention : Reuss Voigt Hill
#
# Bulk Modulus (GPa) = 41.18323 63.86581 52.52452
# Shear Modulus (GPa) = 32.27887 40.20003 36.23945
#
# Velocity S-wave (km/s) = 3.51129 3.91851 3.72048
# Velocity P-wave (km/s) = 5.67179 6.69829 6.20630
#
# Compressibility (1/GPa) = 0.02428173
#
# Stress axis : x y z
#
# Youngs Moduli (GPa) = 106.62374 64.88133 76.52016
#
# Poissons Ratio (x) = 0.26597 0.11980
# Poissons Ratio (y) = 0.43709 0.08602
# Poissons Ratio (z) = 0.16694 0.07293
#
# Static dielectric constant tensor:
#      x y z
#    x 2.047350 -0.063250 0.038480 
#    y -0.063250 2.068850 -0.003570 
#    z 0.038480 -0.003570 2.047880 
# 
# From -- ./inp_files/326160.got.cif
#   From: 2010.05.17/outbox.cif.g08.bks.cpg/sg2_164_cif.got.tgz:326160.got - 2010.06.03 11:33:40.
