data_PCOD9088643
_publ_section_title
;
Structure prediction by ZEFSAII (Michael W. Deem and Ramdas Pophale) SiO2 
 PCOD9088643
Probable space group: P -1
;
_chemical_formula_sum "Si O2"
_cell_formula_units_Z 14
_cell_length_a 8.699736
_cell_length_b 8.885174
_cell_length_c 18.657789
_cell_angle_alpha 55.385473
_cell_angle_beta 148.894991
_cell_angle_gamma 130.431797
_cell_volume 566.828085
_symmetry_space_group_name_H-M "P -1"
_symmetry_group_IT_number 2
_symmetry_cell_setting 'triclinic'
loop_
_space_group_symop_operation_xyz
x,y,z
-x,-y,-z
loop_
_atom_site_type_symbol
_atom_site_label
_atom_site_fract_x
_atom_site_fract_y
_atom_site_fract_z
Si Si1 0.479384 0.139069 0.855395
Si Si2 0.147872 0.375559 0.425203
Si Si3 0.053160 0.719266 0.375393
Si Si4 0.967753 0.259932 0.133936
Si Si5 0.488797 0.886275 0.629788
Si Si6 0.501428 0.120286 0.699698
Si Si7 0.138645 0.493024 0.854261
O O1 0.475596 0.107682 0.778028
O O2 0.301136 0.282022 0.771055
O O3 0.268544 0.929884 0.864337
O O4 0.825913 0.226697 0.006743
O O5 0.500000 0.500000 0.500000
O O6 0.074465 0.515247 0.416372
O O7 0.237011 0.200388 0.541563
O O8 0.915701 0.366047 0.267435
O O9 0.168881 0.795191 0.480710
O O10 0.301131 0.895651 0.377809
O O11 0.956805 0.441844 0.125218
O O12 0.314078 0.249232 0.272561
O O13 0.454640 0.923112 0.689514
O O14 0.866771 0.277029 0.788300
O O15 0.500000 0.500000 0.000000
#
# Coordination Sequence:
#
# PCOD9088643 Si02
#       7
#     2   2   2   2   2   2   2
#     4  10  24  41  64  90 129 159 214 256 307 368
#     4  10  19  37  63  91 124 161 202 253 313 359
#     4  10  19  37  62  89 123 167 202 246 309 379
#     4  10  23  43  65  86 124 176 200 248 322 372
#     4  10  20  36  64  90 120 165 210 247 302 374
#     4  11  24  40  63  97 125 158 210 268 298 362
#     4  11  23  41  67  94 123 164 209 253 312 374
#
# _framework density 24.698848000000002
#
# number of rings (size 3 to 8) (size 9 to 14) (size 15 to 20)
#    0.000    1.714    2.857    2.571    8.000    2.286 
#    0.000    0.000    0.000    0.000    0.000    0.000 
#    0.000    0.000    0.000    0.000    0.000    0.000 
#
# Total GULP energy -78387.688559 kJ/mol
# GULP energy per Si atom -5599.120611 kJ/mol
# Density = 2.464263 g / cm^3
# Si number density = 24.698848 Si / 1000 Ang^3
#
#
#
# Elastic Constant Matrix: (Units=GPa)
#
#
# Indices 1 2 3 4 5 6 
#
# 1 93.9846 22.1241 24.9792 -5.3103 -31.9588 -13.3627
# 2 22.1241 79.1310 12.6390 0.7477 -3.6739 -18.2048
# 3 24.9792 12.6390 132.0002 4.8583 -7.5305 3.6658
# 4 -5.3103 0.7477 4.8583 20.7238 -2.3222 -3.2814
# 5 -31.9588 -3.6739 -7.5305 -2.3222 53.5075 0.3795
# 6 -13.3627 -18.2048 3.6658 -3.2814 0.3795 48.2635
#
#
#
# Elastic Compliance Matrix: (Units=1/GPa)
#
#
# Indices 1 2 3 4 5 6 
#
# 1 0.016082 -0.002800 -0.002594 0.006500 0.009302 0.003962
# 2 -0.002800 0.014658 -0.001044 -0.000335 -0.000862 0.004817
# 3 -0.002594 -0.001044 0.008296 -0.002942 -0.000567 -0.001938
# 4 0.006500 -0.000335 -0.002942 0.052111 0.005668 0.005395
# 5 0.009302 -0.000862 -0.000567 0.005668 0.024334 0.002488
# 6 0.003962 0.004817 -0.001938 0.005395 0.002488 0.024128
#
#
# Mechanical properties :
#
#
# Convention : Reuss Voigt Hill
#
# Bulk Modulus (GPa) = 38.22539 47.17783 42.70161
# Shear Modulus (GPa) = 31.01609 40.85719 35.93664
#
# Velocity S-wave (km/s) = 3.54753 4.07162 3.81857
# Velocity P-wave (km/s) = 5.68244 6.42236 6.06370
#
# Compressibility (1/GPa) = 0.02616062
#
# Stress axis : x y z
#
# Youngs Moduli (GPa) = 62.17983 68.22062 120.53537
#
# Poissons Ratio (x) = 0.19103 0.31265
# Poissons Ratio (y) = 0.17411 0.12587
# Poissons Ratio (z) = 0.16128 0.07124
#
# Static dielectric constant tensor:
#      x y z
#    x 2.246290 0.148470 0.029810 
#    y 0.148470 2.055160 -0.010010 
#    z 0.029810 -0.010010 1.899720 
# 
# From -- ./inp_files/176766.got.cif
#   From: 2010.05.17/outbox.cif.g08.bks.cpg/sg2_89_cif.got.tgz:176766.got - 2010.06.03 11:33:40.
