data_PCOD9088370
_publ_section_title
;
Structure prediction by ZEFSAII (Michael W. Deem and Ramdas Pophale) SiO2 
 PCOD9088370
Probable space group: P -1
;
_chemical_formula_sum "Si O2"
_cell_formula_units_Z 16
_cell_length_a 13.712561
_cell_length_b 7.547434
_cell_length_c 16.195068
_cell_angle_alpha 40.848086
_cell_angle_beta 142.438678
_cell_angle_gamma 114.464599
_cell_volume 591.559105
_symmetry_space_group_name_H-M "P -1"
_symmetry_group_IT_number 2
_symmetry_cell_setting 'triclinic'
loop_
_space_group_symop_operation_xyz
x,y,z
-x,-y,-z
loop_
_atom_site_type_symbol
_atom_site_label
_atom_site_fract_x
_atom_site_fract_y
_atom_site_fract_z
Si Si1 0.666772 0.327401 0.233934
Si Si2 0.018734 0.879685 0.681115
Si Si3 0.133249 0.494703 0.198335
Si Si4 0.254457 0.139011 0.949277
Si Si5 0.496750 0.047875 0.658579
Si Si6 0.874966 0.367116 0.565569
Si Si7 0.222472 0.039341 0.264932
Si Si8 0.686410 0.017124 0.123849
O O1 0.861529 0.035620 0.452895
O O2 0.719313 0.601477 0.175649
O O3 0.588432 0.189138 0.301941
O O4 0.500000 0.500000 0.000000
O O5 0.950442 0.138573 0.617536
O O6 0.228014 0.787368 0.840721
O O7 0.992132 0.609153 0.797017
O O8 0.199029 0.285950 0.233265
O O9 0.321037 0.383347 0.412881
O O10 0.983218 0.831364 0.954435
O O11 0.296895 0.896113 0.990548
O O12 0.041047 0.303459 0.759882
O O13 0.383143 0.004618 0.160220
O O14 0.628272 0.989505 0.690225
O O15 0.801590 0.700489 0.362032
O O16 0.738206 0.277573 0.552426
O O17 0.500000 0.000000 0.000000
#
# Coordination Sequence:
#
# PCOD9088370 Si02
#       8
#     2   2   2   2   2   2   2   2
#     4   9  16  30  58  82 107 150 188 228 291 344
#     4   9  16  35  58  80 114 144 188 244 284 333
#     4   9  20  39  59  88 119 150 196 244 278 346
#     4  10  19  38  58  81 116 153 190 241 296 340
#     4  10  21  36  60  87 117 155 193 236 295 350
#     4  10  19  37  61  79 114 157 192 235 290 348
#     4  10  21  39  60  87 114 159 195 231 290 348
#     4  11  21  35  59  91 112 148 201 244 291 346
#
# _framework density 27.047170999999999
#
# number of rings (size 3 to 8) (size 9 to 14) (size 15 to 20)
#    0.000    2.250    2.500    1.125    0.000    1.500 
#   11.250    0.625    0.000    6.000    0.000    0.000 
#    0.000    0.000    0.000    0.000    0.000    0.000 
#
# Total GULP energy -89230.536855 kJ/mol
# GULP energy per Si atom -5576.908553 kJ/mol
# Density = 2.698561 g / cm^3
# Si number density = 27.047171 Si / 1000 Ang^3
#
#
#
# Elastic Constant Matrix: (Units=GPa)
#
#
# Indices 1 2 3 4 5 6 
#
# 1 137.3388 53.5918 42.5208 14.6892 0.6912 34.2229
# 2 53.5918 65.0638 42.3684 14.1988 -4.6532 31.5897
# 3 42.5208 42.3684 174.7218 41.1979 -4.7927 12.3999
# 4 14.6892 14.1988 41.1979 51.1436 1.4111 -0.2079
# 5 0.6912 -4.6532 -4.7927 1.4111 42.4553 8.6246
# 6 34.2229 31.5897 12.3999 -0.2079 8.6246 35.0266
#
#
#
# Elastic Compliance Matrix: (Units=1/GPa)
#
#
# Indices 1 2 3 4 5 6 
#
# 1 0.011291 -0.005947 -0.000649 -0.001098 0.000246 -0.005506
# 2 -0.005947 0.041058 -0.004349 -0.006620 0.010909 -0.032404
# 3 -0.000649 -0.004349 0.008025 -0.005071 0.000280 0.001617
# 4 -0.001098 -0.006620 -0.005071 0.025947 -0.004179 0.010022
# 5 0.000246 0.010909 0.000280 -0.004179 0.028410 -0.017198
# 6 -0.005506 -0.032404 0.001617 0.010022 -0.017198 0.066875
#
#
# Mechanical properties :
#
#
# Convention : Reuss Voigt Hill
#
# Bulk Modulus (GPa) = 25.98568 72.67629 49.33098
# Shear Modulus (GPa) = 23.11343 41.63465 32.37404
#
# Velocity S-wave (km/s) = 2.92646 3.92769 3.46345
# Velocity P-wave (km/s) = 4.58773 6.89185 5.85426
#
# Compressibility (1/GPa) = 0.03848274
#
# Stress axis : x y z
#
# Youngs Moduli (GPa) = 88.56539 24.35600 124.61485
#
# Poissons Ratio (x) = 0.14485 0.08092
# Poissons Ratio (y) = 0.52671 0.54194
# Poissons Ratio (z) = 0.05751 0.10592
#
# Static dielectric constant tensor:
#      x y z
#    x 2.214620 -0.144980 0.048290 
#    y -0.144980 2.152000 -0.005270 
#    z 0.048290 -0.005270 2.111250 
# 
# From -- ./inp_files/597796.got.cif
#   From: 2010.05.17/outbox.cif.g08.bks.cpg/sg2_299_cif.got.tgz:597796.got - 2010.06.03 11:33:40.
