data_PCOD9088106
_publ_section_title
;
Structure prediction by ZEFSAII (Michael W. Deem and Ramdas Pophale) SiO2 
 PCOD9088106
Probable space group: P -1
;
_chemical_formula_sum "Si O2"
_cell_formula_units_Z 16
_cell_length_a 8.440589
_cell_length_b 26.330261
_cell_length_c 6.948446
_cell_angle_alpha 55.948515
_cell_angle_beta 96.502414
_cell_angle_gamma 137.809816
_cell_volume 722.083645
_symmetry_space_group_name_H-M "P -1"
_symmetry_group_IT_number 2
_symmetry_cell_setting 'triclinic'
loop_
_space_group_symop_operation_xyz
x,y,z
-x,-y,-z
loop_
_atom_site_type_symbol
_atom_site_label
_atom_site_fract_x
_atom_site_fract_y
_atom_site_fract_z
Si Si1 0.599851 0.083909 0.981693
Si Si2 0.938100 0.374542 0.690372
Si Si3 0.082885 0.999605 0.216610
Si Si4 0.643150 0.352543 0.355731
Si Si5 0.193953 0.235134 0.807259
Si Si6 0.080500 0.327061 0.483219
Si Si7 0.095184 0.440869 0.981730
Si Si8 0.356023 0.178959 0.173341
O O1 0.775568 0.197964 0.678501
O O2 0.860569 0.132083 0.020635
O O3 0.500000 0.000000 0.000000
O O4 0.334552 0.029428 0.168974
O O5 0.817319 0.386416 0.499002
O O6 0.070086 0.367467 0.580550
O O7 0.114814 0.452428 0.730632
O O8 0.673222 0.259952 0.006526
O O9 0.804054 0.885105 0.518737
O O10 0.186202 0.087889 0.179024
O O11 0.000000 0.000000 0.000000
O O12 0.321381 0.243865 0.611793
O O13 0.777405 0.355812 0.195473
O O14 0.723541 0.448486 0.127001
O O15 0.263535 0.327433 0.574345
O O16 0.333076 0.243656 0.983070
O O17 0.162414 0.394950 0.170731
#
# Coordination Sequence:
#
# PCOD9088106 Si02
#       8
#     2   2   2   2   2   2   2   2
#     4  10  21  39  57  81 116 158 186 235 288 334
#     4  10  19  37  59  83 120 146 190 237 287 337
#     4  11  23  37  59  83 110 147 201 240 279 335
#     4   9  20  38  61  88 117 144 193 241 279 347
#     4   9  20  39  57  79 123 150 182 243 283 338
#     4   9  21  39  55  82 121 150 189 238 281 340
#     4  10  20  36  64  89 110 154 191 233 295 335
#     4  10  21  37  57  83 109 153 189 238 286 330
#
# _framework density 22.158099
#
# number of rings (size 3 to 8) (size 9 to 14) (size 15 to 20)
#    0.750    1.500    1.250    1.125    1.750    2.000 
#    2.250    1.875    0.000    0.000    0.000    0.000 
#    0.000    0.000    0.000    0.000    0.000    0.000 
#
# Total GULP energy -89088.150801 kJ/mol
# GULP energy per Si atom -5568.009425 kJ/mol
# Density = 2.210767 g / cm^3
# Si number density = 22.158099 Si / 1000 Ang^3
#
#
#
# Elastic Constant Matrix: (Units=GPa)
#
#
# Indices 1 2 3 4 5 6 
#
# 1 81.6548 4.9942 25.2811 8.5520 -7.0352 -6.7159
# 2 4.9942 47.6496 8.7012 10.0817 -0.2908 -9.5123
# 3 25.2811 8.7012 77.3782 13.3332 -7.9483 -7.5615
# 4 8.5520 10.0817 13.3332 32.1958 3.0072 -4.8286
# 5 -7.0352 -0.2908 -7.9483 3.0072 28.7692 -16.7047
# 6 -6.7159 -9.5123 -7.5615 -4.8286 -16.7047 29.9195
#
#
#
# Elastic Compliance Matrix: (Units=1/GPa)
#
#
# Indices 1 2 3 4 5 6 
#
# 1 0.014462 0.000790 -0.003168 -0.002494 0.006307 0.005815
# 2 0.000790 0.024655 0.000059 -0.006994 0.007690 0.011196
# 3 -0.003168 0.000059 0.016562 -0.005735 0.008719 0.007436
# 4 -0.002494 -0.006994 -0.005735 0.036612 -0.007574 -0.002553
# 5 0.006307 0.007690 0.008719 -0.007574 0.062726 0.039863
# 6 0.005815 0.011196 0.007436 -0.002553 0.039863 0.062011
#
#
# Mechanical properties :
#
#
# Convention : Reuss Voigt Hill
#
# Bulk Modulus (GPa) = 19.59257 31.62616 25.60937
# Shear Modulus (GPa) = 20.94844 29.35730 25.15287
#
# Velocity S-wave (km/s) = 3.07808 3.64387 3.37286
# Velocity P-wave (km/s) = 4.63618 5.65753 5.17213
#
# Compressibility (1/GPa) = 0.05103975
#
# Stress axis : x y z
#
# Youngs Moduli (GPa) = 69.14641 40.56022 60.37763
#
# Poissons Ratio (x) = -0.03203 0.19128
# Poissons Ratio (y) = -0.05461 -0.00354
# Poissons Ratio (z) = 0.21906 -0.00238
#
# Static dielectric constant tensor:
#      x y z
#    x 1.884560 0.039360 -0.032820 
#    y 0.039360 1.865910 -0.033990 
#    z -0.032820 -0.033990 1.826390 
# 
# From -- ./inp_files/56138.got.cif
#   From: 2010.05.17/outbox.cif.g08.bks.cpg/sg2_29_cif.got.tgz:56138.got - 2010.06.03 11:33:40.
