data_PCOD9088171
_publ_section_title
;
Structure prediction by ZEFSAII (Michael W. Deem and Ramdas Pophale) SiO2 
 PCOD9088171
Probable space group: P -1
;
_chemical_formula_sum "Si O2"
_cell_formula_units_Z 16
_cell_length_a 10.764146
_cell_length_b 15.527413
_cell_length_c 9.665141
_cell_angle_alpha 142.118910
_cell_angle_beta 77.765422
_cell_angle_gamma 119.220420
_cell_volume 819.121233
_symmetry_space_group_name_H-M "P -1"
_symmetry_group_IT_number 2
_symmetry_cell_setting 'triclinic'
loop_
_space_group_symop_operation_xyz
x,y,z
-x,-y,-z
loop_
_atom_site_type_symbol
_atom_site_label
_atom_site_fract_x
_atom_site_fract_y
_atom_site_fract_z
Si Si1 0.496414 0.349241 0.233364
Si Si2 0.705000 0.248774 0.607668
Si Si3 0.264845 0.059337 0.727432
Si Si4 0.016164 0.561622 0.417048
Si Si5 0.363103 0.059209 0.412288
Si Si6 0.745804 0.320306 0.997172
Si Si7 0.932310 0.102441 0.200982
Si Si8 0.620753 0.943167 0.905633
O O1 0.500000 0.500000 0.500000
O O2 0.472559 0.230138 0.215160
O O3 0.361425 0.231865 0.007622
O O4 0.644314 0.386439 0.163811
O O5 0.537609 0.204498 0.568286
O O6 0.768629 0.344795 0.858673
O O7 0.819853 0.347854 0.581282
O O8 0.678642 0.065993 0.409028
O O9 0.276704 0.080143 0.586745
O O10 0.102256 0.951007 0.698086
O O11 0.000000 0.500000 0.500000
O O12 0.973306 0.701391 0.594432
O O13 0.900222 0.408589 0.155997
O O14 0.324110 0.063933 0.269180
O O15 0.338962 0.877380 0.207230
O O16 0.774099 0.045589 0.088443
O O17 0.000000 0.000000 0.000000
O O18 0.500000 0.000000 0.000000
#
# Coordination Sequence:
#
# PCOD9088171 Si02
#       8
#     2   2   2   2   2   2   2   2
#     4  11  22  35  58  89 125 157 200 248 311 369
#     4  10  19  37  59  89 120 157 206 255 301 370
#     4   9  18  37  60  87 112 164 207 243 295 376
#     4  11  24  36  57  91 125 155 205 264 309 351
#     4  11  18  36  67  90 116 150 217 266 291 351
#     4  11  20  35  61  89 117 159 204 255 313 359
#     4  10  23  42  60  85 130 172 202 238 316 394
#     4  11  21  38  65  94 117 159 218 261 294 354
#
# _framework density 19.533128999999999
#
# number of rings (size 3 to 8) (size 9 to 14) (size 15 to 20)
#    0.000    1.500    3.750    3.375    5.250    0.000 
#    0.000    1.250    2.750    0.000    0.000    0.000 
#    0.000    0.000    0.000    0.000    0.000    0.000 
#
# Total GULP energy -89133.592143 kJ/mol
# GULP energy per Si atom -5570.849509 kJ/mol
# Density = 1.948867 g / cm^3
# Si number density = 19.533129 Si / 1000 Ang^3
#
#
#
# Elastic Constant Matrix: (Units=GPa)
#
#
# Indices 1 2 3 4 5 6 
#
# 1 35.9697 22.9415 33.6650 1.7831 0.7389 3.8922
# 2 22.9415 138.5231 63.7758 -30.8969 1.0057 7.6730
# 3 33.6650 63.7758 128.3220 -19.9689 -6.8158 3.0106
# 4 1.7831 -30.8969 -19.9689 41.7751 0.6378 2.8074
# 5 0.7389 1.0057 -6.8158 0.6378 34.7885 -0.1169
# 6 3.8922 7.6730 3.0106 2.8074 -0.1169 13.9478
#
#
#
# Elastic Compliance Matrix: (Units=1/GPa)
#
#
# Indices 1 2 3 4 5 6 
#
# 1 0.040894 -0.003732 -0.010293 -0.009027 -0.002630 -0.005342
# 2 -0.003732 0.011414 -0.003465 0.007363 -0.001085 -0.005981
# 3 -0.010293 -0.003465 0.012948 0.003942 0.002787 0.001213
# 4 -0.009027 0.007363 0.003942 0.032247 0.000130 -0.008872
# 5 -0.002630 -0.001085 0.002787 0.000130 0.029379 0.000949
# 6 -0.005342 -0.005981 0.001213 -0.008872 0.000949 0.078009
#
#
# Mechanical properties :
#
#
# Convention : Reuss Voigt Hill
#
# Bulk Modulus (GPa) = 33.02890 60.39772 46.71331
# Shear Modulus (GPa) = 20.00287 30.26444 25.13365
#
# Velocity S-wave (km/s) = 3.20355 3.94050 3.59098
# Velocity P-wave (km/s) = 5.53439 7.18966 6.41563
#
# Compressibility (1/GPa) = 0.03027652
#
# Stress axis : x y z
#
# Youngs Moduli (GPa) = 24.45325 87.61227 77.23070
#
# Poissons Ratio (x) = 0.32701 0.79490
# Poissons Ratio (y) = 0.09127 0.26760
# Poissons Ratio (z) = 0.25169 0.30357
#
# Static dielectric constant tensor:
#      x y z
#    x 1.727650 0.031700 -0.007060 
#    y 0.031700 1.706100 -0.008450 
#    z -0.007060 -0.008450 1.731020 
# 
# From -- ./inp_files/271222.got.cif
#   From: 2010.05.17/outbox.cif.g08.bks.cpg/sg2_136_cif.got.tgz:271222.got - 2010.06.03 11:33:40.
