data_PCOD9088592
_publ_section_title
;
Structure prediction by ZEFSAII (Michael W. Deem and Ramdas Pophale) SiO2 
 PCOD9088592
Probable space group: P -1
;
_chemical_formula_sum "Si O2"
_cell_formula_units_Z 16
_cell_length_a 11.271440
_cell_length_b 15.183870
_cell_length_c 13.646544
_cell_angle_alpha 139.854288
_cell_angle_beta 147.730763
_cell_angle_gamma 64.532738
_cell_volume 625.303716
_symmetry_space_group_name_H-M "P -1"
_symmetry_group_IT_number 2
_symmetry_cell_setting 'triclinic'
loop_
_space_group_symop_operation_xyz
x,y,z
-x,-y,-z
loop_
_atom_site_type_symbol
_atom_site_label
_atom_site_fract_x
_atom_site_fract_y
_atom_site_fract_z
Si Si1 0.548084 0.599188 0.256196
Si Si2 0.782425 0.094509 0.000948
Si Si3 0.640636 0.158689 0.347819
Si Si4 0.448363 0.846717 0.396952
Si Si5 0.112512 0.246588 0.995127
Si Si6 0.348530 0.658482 0.875738
Si Si7 0.425575 0.599275 0.396727
Si Si8 0.672791 0.881057 0.097317
O O1 0.424360 0.688956 0.196337
O O2 0.509028 0.425169 0.052420
O O3 0.439604 0.576659 0.272958
O O4 0.887337 0.752085 0.623520
O O5 0.639763 0.998480 0.922153
O O6 0.699240 0.948817 0.739838
O O7 0.636487 0.180830 0.937431
O O8 0.742723 0.329888 0.624971
O O9 0.566321 0.179164 0.204453
O O10 0.804839 0.078952 0.388164
O O11 0.500000 0.000000 0.500000
O O12 0.163497 0.773473 0.193205
O O13 0.310928 0.421876 0.219397
O O14 0.261625 0.264087 0.216929
O O15 0.092085 0.107921 0.793202
O O16 0.503271 0.739282 0.945622
O O17 0.000000 0.500000 0.500000
#
# Coordination Sequence:
#
# PCOD9088592 Si02
#       8
#     2   2   2   2   2   2   2   2
#     4  11  21  38  63  87 115 158 198 245 294 349
#     4  10  21  39  63  86 118 156 201 241 292 352
#     4   9  18  32  58  90 114 147 198 236 288 348
#     4  12  26  40  57  88 123 157 197 245 297 347
#     4  10  22  37  59  86 122 152 192 243 294 350
#     4   9  19  37  61  90 117 151 200 243 287 350
#     4  10  19  37  62  86 114 150 199 239 298 346
#     4   9  17  34  57  87 118 150 191 244 288 338
#
# _framework density 25.587565000000001
#
# number of rings (size 3 to 8) (size 9 to 14) (size 15 to 20)
#    0.000    2.000    2.500    1.125    3.500    0.500 
#    0.000    4.375    0.000    0.000    0.000    0.000 
#    0.000    0.000    0.000    0.000    0.000    0.000 
#
# Total GULP energy -89366.316815 kJ/mol
# GULP energy per Si atom -5585.394801 kJ/mol
# Density = 2.552933 g / cm^3
# Si number density = 25.587565 Si / 1000 Ang^3
#
#
#
# Elastic Constant Matrix: (Units=GPa)
#
#
# Indices 1 2 3 4 5 6 
#
# 1 99.4013 37.7864 14.9010 6.7955 -6.1444 -22.5105
# 2 37.7864 161.5546 2.3124 16.7232 -2.7261 -29.3485
# 3 14.9010 2.3124 34.0611 -3.5926 3.6275 -3.3829
# 4 6.7955 16.7232 -3.5926 31.5664 -6.3134 -8.4342
# 5 -6.1444 -2.7261 3.6275 -6.3134 28.7555 7.7673
# 6 -22.5105 -29.3485 -3.3829 -8.4342 7.7673 66.0691
#
#
#
# Elastic Compliance Matrix: (Units=1/GPa)
#
#
# Indices 1 2 3 4 5 6 
#
# 1 0.012516 -0.002237 -0.005405 -0.000983 0.002224 0.002607
# 2 -0.002237 0.007416 0.000508 -0.002997 -0.001120 0.002307
# 3 -0.005405 0.000508 0.032717 0.003984 -0.004661 0.001115
# 4 -0.000983 -0.002997 0.003984 0.035812 0.006224 0.002378
# 5 0.002224 -0.001120 -0.004661 0.006224 0.038088 -0.003662
# 6 0.002607 0.002307 0.001115 0.002378 -0.003662 0.017840
#
#
# Mechanical properties :
#
#
# Convention : Reuss Voigt Hill
#
# Bulk Modulus (GPa) = 26.05579 45.00185 35.52882
# Shear Modulus (GPa) = 29.16260 41.27934 35.22097
#
# Velocity S-wave (km/s) = 3.37963 4.02090 3.71413
# Velocity P-wave (km/s) = 5.04324 6.25958 5.68404
#
# Compressibility (1/GPa) = 0.03837918
#
# Stress axis : x y z
#
# Youngs Moduli (GPa) = 79.89767 134.83725 30.56546
#
# Poissons Ratio (x) = 0.30165 0.16521
# Poissons Ratio (y) = 0.17875 -0.01551
# Poissons Ratio (z) = 0.43187 -0.06843
#
# Static dielectric constant tensor:
#      x y z
#    x 2.023420 -0.075890 -0.010500 
#    y -0.075890 2.197800 -0.025660 
#    z -0.010500 -0.025660 2.030040 
# 
# From -- ./inp_files/386817.got.cif
#   From: 2010.05.17/outbox.cif.g08.bks.cpg/sg2_194_cif.got.tgz:386817.got - 2010.06.03 11:33:40.
