data_PCOD9088547
_publ_section_title
;
Structure prediction by ZEFSAII (Michael W. Deem and Ramdas Pophale) SiO2 
 PCOD9088547
Probable space group: P -1
;
_chemical_formula_sum "Si O2"
_cell_formula_units_Z 14
_cell_length_a 7.988790
_cell_length_b 8.919291
_cell_length_c 11.624216
_cell_angle_alpha 98.596743
_cell_angle_beta 69.525650
_cell_angle_gamma 131.869709
_cell_volume 573.622156
_symmetry_space_group_name_H-M "P -1"
_symmetry_group_IT_number 2
_symmetry_cell_setting 'triclinic'
loop_
_space_group_symop_operation_xyz
x,y,z
-x,-y,-z
loop_
_atom_site_type_symbol
_atom_site_label
_atom_site_fract_x
_atom_site_fract_y
_atom_site_fract_z
Si Si1 0.849289 0.385994 0.345566
Si Si2 0.499754 0.364443 0.572141
Si Si3 0.760563 0.071243 0.467663
Si Si4 0.492176 0.346333 0.826641
Si Si5 0.725650 0.165437 0.738591
Si Si6 0.171591 0.387412 0.013547
Si Si7 0.346445 0.766146 0.863524
O O1 0.737719 0.405759 0.485345
O O2 0.920602 0.261899 0.364633
O O3 0.655236 0.261319 0.277261
O O4 0.044116 0.603020 0.263812
O O5 0.500000 0.500000 0.500000
O O6 0.505377 0.424885 0.706560
O O7 0.277085 0.124713 0.577824
O O8 0.802928 0.125110 0.598009
O O9 0.500000 0.000000 0.500000
O O10 0.526244 0.186457 0.774077
O O11 0.248580 0.268034 0.932829
O O12 0.698771 0.517325 0.883789
O O13 0.604434 0.990495 0.843007
O O14 0.298277 0.589184 0.927894
O O15 0.890324 0.263801 0.065919
#
# Coordination Sequence:
#
# PCOD9088547 Si02
#       7
#     2   2   2   2   2   2   2
#     4  11  21  40  68 100 130 170 217 272 336 397
#     4  11  22  40  70 100 134 168 218 279 340 394
#     4  10  19  37  61  96 129 164 207 262 337 398
#     4  11  22  42  65  97 131 178 219 270 332 388
#     4  12  22  38  70  99 131 174 221 270 330 405
#     4  10  25  43  64  92 138 180 223 276 318 390
#     4  11  22  44  68  94 133 176 228 272 325 390
#
# _framework density 24.406309
#
# number of rings (size 3 to 8) (size 9 to 14) (size 15 to 20)
#    0.000    1.143    7.143    1.286    0.000    1.143 
#    0.000    2.143    3.143    0.000    0.000    0.000 
#    0.000    0.000    0.000    0.000    0.000    0.000 
#
# Total GULP energy -78187.122723 kJ/mol
# GULP energy per Si atom -5584.794480 kJ/mol
# Density = 2.435076 g / cm^3
# Si number density = 24.406309 Si / 1000 Ang^3
#
#
#
# Elastic Constant Matrix: (Units=GPa)
#
#
# Indices 1 2 3 4 5 6 
#
# 1 35.1212 21.3941 20.6065 10.5992 2.7964 -7.1101
# 2 21.3941 122.5975 34.4592 -30.8950 8.9992 0.3111
# 3 20.6065 34.4592 136.2852 6.1852 12.4889 -4.4226
# 4 10.5992 -30.8950 6.1852 41.1235 -1.5180 -2.6740
# 5 2.7964 8.9992 12.4889 -1.5180 36.8461 -10.8066
# 6 -7.1101 0.3111 -4.4226 -2.6740 -10.8066 19.6581
#
#
#
# Elastic Compliance Matrix: (Units=1/GPa)
#
#
# Indices 1 2 3 4 5 6 
#
# 1 0.046949 -0.012832 -0.002824 -0.020093 0.004474 0.016274
# 2 -0.012832 0.014927 -0.002402 0.014462 -0.002711 -0.004941
# 3 -0.002824 -0.002402 0.008688 -0.002522 -0.002460 -0.000724
# 4 -0.020093 0.014462 -0.002522 0.040554 -0.000273 -0.002697
# 5 0.004474 -0.002711 -0.002460 -0.000273 0.034096 0.019814
# 6 0.016274 -0.004941 -0.000724 -0.002697 0.019814 0.067197
#
#
# Mechanical properties :
#
#
# Convention : Reuss Voigt Hill
#
# Bulk Modulus (GPa) = 29.02991 49.65815 39.34403
# Shear Modulus (GPa) = 19.22989 34.02848 26.62919
#
# Velocity S-wave (km/s) = 2.81001 3.73802 3.30673
# Velocity P-wave (km/s) = 4.73798 6.24668 5.54389
#
# Compressibility (1/GPa) = 0.03444723
#
# Stress axis : x y z
#
# Youngs Moduli (GPa) = 21.29974 66.99125 115.09676
#
# Poissons Ratio (x) = 0.85966 0.32504
# Poissons Ratio (y) = 0.27333 0.27650
# Poissons Ratio (z) = 0.06015 0.16093
#
# Static dielectric constant tensor:
#      x y z
#    x 1.993920 0.006710 -0.046270 
#    y 0.006710 2.032460 -0.028830 
#    z -0.046270 -0.028830 1.936270 
# 
# From -- ./inp_files/379494.got.cif
#   From: 2010.05.17/outbox.cif.g08.bks.cpg/sg2_190_cif.got.tgz:379494.got - 2010.06.03 11:33:40.
