data_PCOD9088045
_publ_section_title
;
Structure prediction by ZEFSAII (Michael W. Deem and Ramdas Pophale) SiO2 
 PCOD9088045
Probable space group: P -1
;
_chemical_formula_sum "Si O2"
_cell_formula_units_Z 15
_cell_length_a 15.822909
_cell_length_b 11.326247
_cell_length_c 9.352880
_cell_angle_alpha 86.824978
_cell_angle_beta 77.860210
_cell_angle_gamma 154.940346
_cell_volume 558.467187
_symmetry_space_group_name_H-M "P -1"
_symmetry_group_IT_number 2
_symmetry_cell_setting 'triclinic'
loop_
_space_group_symop_operation_xyz
x,y,z
-x,-y,-z
loop_
_atom_site_type_symbol
_atom_site_label
_atom_site_fract_x
_atom_site_fract_y
_atom_site_fract_z
Si Si1 0.258656 0.254322 0.029511
Si Si2 0.716734 0.479083 0.563625
Si Si3 0.009822 0.705459 0.228704
Si Si4 0.133414 0.839302 0.674241
Si Si5 0.000000 0.500000 0.000000
Si Si6 0.583863 0.109816 0.801689
Si Si7 0.893479 0.936324 0.382556
Si Si8 0.441238 0.177286 0.275118
O O1 0.344868 0.448516 0.855798
O O2 0.500000 0.500000 0.000000
O O3 0.112459 0.151874 0.199700
O O4 0.085088 0.917301 0.094687
O O5 0.515815 0.151806 0.757788
O O6 0.973975 0.840949 0.536466
O O7 0.785269 0.469013 0.422851
O O8 0.678580 0.563811 0.519476
O O9 0.227336 0.941026 0.248868
O O10 0.965487 0.541456 0.151417
O O11 0.064383 0.696377 0.859582
O O12 0.340568 0.050867 0.479971
O O13 0.885118 0.499470 0.683955
O O14 0.185567 0.045092 0.664308
O O15 0.490317 0.870421 0.778699
O O16 0.500000 0.000000 0.000000
#
# Coordination Sequence:
#
# PCOD9088045 Si02
#       8
#     2   2   2   2   1   2   2   2
#     4   9  20  33  60  95 121 146 194 260 304 343
#     4   9  17  31  56  84 116 141 196 248 296 343
#     4  10  19  37  58  87 118 158 197 242 298 354
#     4  11  22  37  59  89 118 160 203 243 302 354
#     4  12  24  38  58  84 130 166 196 236 296 374
#     4  11  20  32  56  90 118 148 197 259 301 342
#     4   9  17  34  57  88 118 146 192 252 299 346
#     4  11  18  36  61  89 114 149 205 259 296 344
#
# _framework density 26.859233
#
# number of rings (size 3 to 8) (size 9 to 14) (size 15 to 20)
#    0.000    1.867    4.000    2.800    1.867    0.000 
#    0.000    3.333    0.000    7.200    0.000    0.000 
#    0.000    0.000    0.000    0.000    0.000    0.000 
#
# Total GULP energy -83724.172775 kJ/mol
# GULP energy per Si atom -5581.611518 kJ/mol
# Density = 2.679810 g / cm^3
# Si number density = 26.859233 Si / 1000 Ang^3
#
#
#
# Elastic Constant Matrix: (Units=GPa)
#
#
# Indices 1 2 3 4 5 6 
#
# 1 163.9028 49.1304 35.2615 -2.4899 9.0041 -34.4018
# 2 49.1304 99.6829 33.3502 21.9703 1.2600 -17.3830
# 3 35.2615 33.3502 116.3233 16.7175 19.0279 -33.4387
# 4 -2.4899 21.9703 16.7175 33.1352 -24.4008 1.0442
# 5 9.0041 1.2600 19.0279 -24.4008 58.7584 -3.3227
# 6 -34.4018 -17.3830 -33.4387 1.0442 -3.3227 64.7955
#
#
#
# Elastic Compliance Matrix: (Units=1/GPa)
#
#
# Indices 1 2 3 4 5 6 
#
# 1 0.008248 -0.004363 -0.001698 0.005670 0.001866 0.002337
# 2 -0.004363 0.015971 0.000807 -0.016210 -0.006536 0.002310
# 3 -0.001698 0.000807 0.015065 -0.016722 -0.011196 0.006785
# 4 0.005670 -0.016210 -0.016722 0.076779 0.036250 -0.009347
# 5 0.001866 -0.006536 -0.011196 0.036250 0.035252 -0.005317
# 6 0.002337 0.002310 0.006785 -0.009347 -0.005317 0.020673
#
#
# Mechanical properties :
#
#
# Convention : Reuss Voigt Hill
#
# Bulk Modulus (GPa) = 34.75102 68.37703 51.56402
# Shear Modulus (GPa) = 26.02972 48.81561 37.42267
#
# Velocity S-wave (km/s) = 3.11644 4.26779 3.73673
# Velocity P-wave (km/s) = 5.09077 7.05679 6.15281
#
# Compressibility (1/GPa) = 0.02877614
#
# Stress axis : x y z
#
# Youngs Moduli (GPa) = 121.23559 62.61507 66.37826
#
# Poissons Ratio (x) = 0.27319 0.11269
# Poissons Ratio (y) = 0.52896 -0.05355
# Poissons Ratio (z) = 0.20583 -0.05052
#
# Static dielectric constant tensor:
#      x y z
#    x 2.209430 0.176200 -0.026280 
#    y 0.176200 2.152670 -0.159850 
#    z -0.026280 -0.159850 2.257260 
# 
# From -- ./inp_files/195122.got.cif
#   From: 2010.05.17/outbox.cif.g08.bks.cpg/sg2_98_cif.got.tgz:195122.got - 2010.06.03 11:33:40.
