data_PCOD9088669
_publ_section_title
;
Structure prediction by ZEFSAII (Michael W. Deem and Ramdas Pophale) SiO2 
 PCOD9088669
Probable space group: P -1
;
_chemical_formula_sum "Si O2"
_cell_formula_units_Z 16
_cell_length_a 11.023425
_cell_length_b 21.853794
_cell_length_c 9.944993
_cell_angle_alpha 142.392809
_cell_angle_beta 50.938520
_cell_angle_gamma 152.090580
_cell_volume 663.516449
_symmetry_space_group_name_H-M "P -1"
_symmetry_group_IT_number 2
_symmetry_cell_setting 'triclinic'
loop_
_space_group_symop_operation_xyz
x,y,z
-x,-y,-z
loop_
_atom_site_type_symbol
_atom_site_label
_atom_site_fract_x
_atom_site_fract_y
_atom_site_fract_z
Si Si1 0.911322 0.123459 0.644514
Si Si2 0.881611 0.742476 0.564672
Si Si3 0.321231 0.665408 0.631091
Si Si4 0.580505 0.784289 0.181966
Si Si5 0.106311 0.938682 0.006282
Si Si6 0.805209 0.189600 0.088371
Si Si7 0.450336 0.356259 0.785716
Si Si8 0.662945 0.422409 0.264341
O O1 0.033768 0.213695 0.572188
O O2 0.136688 0.176415 0.657962
O O3 0.642966 0.921360 0.450011
O O4 0.861232 0.188375 0.893334
O O5 0.830213 0.603020 0.407210
O O6 0.612054 0.667596 0.646303
O O7 0.095979 0.903429 0.795907
O O8 0.169172 0.678196 0.689089
O O9 0.385670 0.610173 0.388053
O O10 0.216619 0.573291 0.686925
O O11 0.613047 0.867042 0.812608
O O12 0.479584 0.655310 0.141146
O O13 0.402250 0.684781 0.000903
O O14 0.870998 0.894372 0.123719
O O15 0.041860 0.805035 0.907019
O O16 0.500000 0.000000 0.000000
O O17 0.500000 0.500000 0.000000
#
# Coordination Sequence:
#
# PCOD9088669 Si02
#       8
#     2   2   2   2   2   2   2   2
#     4  12  21  40  64  94 119 160 212 252 300 357
#     4  10  21  36  62  92 123 158 202 256 303 359
#     4  11  22  41  60  89 124 162 200 249 308 364
#     4  11  20  35  64  93 119 155 206 258 298 356
#     4  10  19  37  62  91 118 159 206 249 305 355
#     4  10  23  40  62  90 126 160 202 255 306 360
#     4  12  24  37  61  94 124 154 205 255 303 359
#     4  10  21  37  59  92 129 157 196 252 315 355
#
# _framework density 24.113947
#
# number of rings (size 3 to 8) (size 9 to 14) (size 15 to 20)
#    0.000    1.250    3.750    3.375    3.500    2.000 
#    0.000   10.000    0.000    0.000    0.000    0.000 
#    0.000    0.000    0.000    0.000    0.000    0.000 
#
# Total GULP energy -89639.432912 kJ/mol
# GULP energy per Si atom -5602.464557 kJ/mol
# Density = 2.405906 g / cm^3
# Si number density = 24.113947 Si / 1000 Ang^3
#
#
#
# Elastic Constant Matrix: (Units=GPa)
#
#
# Indices 1 2 3 4 5 6 
#
# 1 85.4532 22.2087 51.6710 0.9110 13.3351 -32.2751
# 2 22.2087 64.4047 23.6337 -4.5599 11.5252 -27.3105
# 3 51.6710 23.6337 148.2066 -7.5609 11.8020 -18.7511
# 4 0.9110 -4.5599 -7.5609 36.9750 -14.1508 5.7082
# 5 13.3351 11.5252 11.8020 -14.1508 43.1886 4.0384
# 6 -32.2751 -27.3105 -18.7511 5.7082 4.0384 48.0864
#
#
#
# Elastic Compliance Matrix: (Units=1/GPa)
#
#
# Indices 1 2 3 4 5 6 
#
# 1 0.022057 0.002335 -0.005688 -0.007595 -0.009830 0.015639
# 2 0.002335 0.023232 -0.002074 -0.003337 -0.008858 0.015093
# 3 -0.005688 -0.002074 0.008876 0.002300 0.000813 -0.001876
# 4 -0.007595 -0.003337 0.002300 0.034845 0.015099 -0.011500
# 5 -0.009830 -0.008858 0.000813 0.015099 0.034777 -0.016025
# 6 0.015639 0.015093 -0.001876 -0.011500 -0.016025 0.041844
#
#
# Mechanical properties :
#
#
# Convention : Reuss Voigt Hill
#
# Bulk Modulus (GPa) = 23.08945 54.78795 38.93870
# Shear Modulus (GPa) = 26.18857 39.02007 32.60432
#
# Velocity S-wave (km/s) = 3.29908 4.02699 3.68107
# Velocity P-wave (km/s) = 4.90997 6.66273 5.85234
#
# Compressibility (1/GPa) = 0.04330983
#
# Stress axis : x y z
#
# Youngs Moduli (GPa) = 45.33745 43.04465 112.65732
#
# Poissons Ratio (x) = -0.10049 0.64082
# Poissons Ratio (y) = -0.10584 0.23363
# Poissons Ratio (z) = 0.25789 0.08927
#
# Static dielectric constant tensor:
#      x y z
#    x 1.936890 0.034610 0.005100 
#    y 0.034610 1.949530 0.059560 
#    z 0.005100 0.059560 1.910020 
# 
# From -- ./inp_files/158729.got.cif
#   From: 2010.05.17/outbox.cif.g08.bks.cpg/sg2_80_cif.got.tgz:158729.got - 2010.06.03 11:33:40.
