data_PCOD9088557
_publ_section_title
;
Structure prediction by ZEFSAII (Michael W. Deem and Ramdas Pophale) SiO2 
 PCOD9088557
Probable space group: P -1
;
_chemical_formula_sum "Si O2"
_cell_formula_units_Z 16
_cell_length_a 11.379843
_cell_length_b 21.376275
_cell_length_c 7.081651
_cell_angle_alpha 69.443259
_cell_angle_beta 98.704751
_cell_angle_gamma 154.420958
_cell_volume 635.475952
_symmetry_space_group_name_H-M "P -1"
_symmetry_group_IT_number 2
_symmetry_cell_setting 'triclinic'
loop_
_space_group_symop_operation_xyz
x,y,z
-x,-y,-z
loop_
_atom_site_type_symbol
_atom_site_label
_atom_site_fract_x
_atom_site_fract_y
_atom_site_fract_z
Si Si1 0.741573 0.169328 0.657957
Si Si2 0.848202 0.184647 0.108691
Si Si3 0.142924 0.666602 0.991572
Si Si4 0.414457 0.427151 0.844157
Si Si5 0.110947 0.482226 0.520219
Si Si6 0.610110 0.383138 0.926945
Si Si7 0.883882 0.761436 0.418205
Si Si8 0.787905 0.931762 0.872630
O O1 0.895215 0.319644 0.531946
O O2 0.890580 0.185369 0.562434
O O3 0.395331 0.995850 0.712719
O O4 0.787738 0.172368 0.886653
O O5 0.181617 0.330065 0.048179
O O6 0.778812 0.217077 0.164282
O O7 0.908758 0.550873 0.232778
O O8 0.458826 0.795459 0.990640
O O9 0.936603 0.530599 0.921957
O O10 0.583526 0.446250 0.910478
O O11 0.586119 0.580169 0.640777
O O12 0.208851 0.291452 0.767574
O O13 0.390519 0.623622 0.296337
O O14 0.000000 0.500000 0.500000
O O15 0.351274 0.202171 0.138712
O O16 0.028263 0.908950 0.330208
O O17 0.000000 0.000000 0.000000
#
# Coordination Sequence:
#
# PCOD9088557 Si02
#       8
#     2   2   2   2   2   2   2   2
#     4   9  17  34  61  94 127 178 233 288 329 415
#     4   9  19  35  66  93 133 175 230 281 352 398
#     4  11  25  44  69 102 140 182 232 300 342 424
#     4  10  21  37  68 101 135 182 229 294 348 424
#     4  11  23  39  68  99 135 189 234 277 352 427
#     4  12  25  44  70 104 142 183 235 286 359 425
#     4  10  19  37  62 101 136 176 241 288 345 411
#     4  12  24  40  69 102 136 189 237 285 359 422
#
# _framework density 25.177978
#
# number of rings (size 3 to 8) (size 9 to 14) (size 15 to 20)
#    0.000    1.500    5.000    0.375    3.500    0.500 
#    0.000    2.500    0.000    8.250    0.000    0.000 
#    0.000    0.000    0.000    0.000    0.000    0.000 
#
# Total GULP energy -89166.458402 kJ/mol
# GULP energy per Si atom -5572.903650 kJ/mol
# Density = 2.512067 g / cm^3
# Si number density = 25.177978 Si / 1000 Ang^3
#
#
#
# Elastic Constant Matrix: (Units=GPa)
#
#
# Indices 1 2 3 4 5 6 
#
# 1 138.4365 29.0028 31.5802 -14.5288 28.8158 18.4985
# 2 29.0028 88.6942 37.5800 -19.5730 13.0388 8.6412
# 3 31.5802 37.5800 68.6871 -20.2975 22.6652 -11.5093
# 4 -14.5288 -19.5730 -20.2975 53.0828 -11.6051 2.0263
# 5 28.8158 13.0388 22.6652 -11.6051 40.4678 -9.2438
# 6 18.4985 8.6412 -11.5093 2.0263 -9.2438 34.7865
#
#
#
# Elastic Compliance Matrix: (Units=1/GPa)
#
#
# Indices 1 2 3 4 5 6 
#
# 1 0.010977 0.000249 -0.004169 0.000188 -0.007636 -0.009319
# 2 0.000249 0.016708 -0.009340 0.002659 -0.001369 -0.007892
# 3 -0.004169 -0.009340 0.026359 0.003959 -0.004976 0.011705
# 4 0.000188 0.002659 0.003959 0.022068 0.003143 0.000099
# 5 -0.007636 -0.001369 -0.004976 0.003143 0.037118 0.012435
# 6 -0.009319 -0.007892 0.011705 0.000099 0.012435 0.042834
#
#
# Mechanical properties :
#
#
# Convention : Reuss Voigt Hill
#
# Bulk Modulus (GPa) = 36.33330 54.68266 45.50798
# Shear Modulus (GPa) = 26.07441 38.84440 32.45940
#
# Velocity S-wave (km/s) = 3.22157 3.93210 3.59444
# Velocity P-wave (km/s) = 5.31977 6.51006 5.94478
#
# Compressibility (1/GPa) = 0.02752296
#
# Stress axis : x y z
#
# Youngs Moduli (GPa) = 91.10111 59.85224 37.93740
#
# Poissons Ratio (x) = -0.01491 0.15817
# Poissons Ratio (y) = -0.02269 0.35435
# Poissons Ratio (z) = 0.37981 0.55904
#
# Static dielectric constant tensor:
#      x y z
#    x 2.004300 0.042510 0.011080 
#    y 0.042510 2.103280 -0.010640 
#    z 0.011080 -0.010640 2.112500 
# 
# From -- ./inp_files/320603.got.cif
#   From: 2010.05.17/outbox.cif.g08.bks.cpg/sg2_161_cif.got.tgz:320603.got - 2010.06.03 11:33:40.
