data_PCOD9088471
_publ_section_title
;
Structure prediction by ZEFSAII (Michael W. Deem and Ramdas Pophale) SiO2 
 PCOD9088471
Probable space group: P -1
;
_chemical_formula_sum "Si O2"
_cell_formula_units_Z 14
_cell_length_a 10.011196
_cell_length_b 8.980622
_cell_length_c 14.810428
_cell_angle_alpha 37.908328
_cell_angle_beta 110.113585
_cell_angle_gamma 129.013292
_cell_volume 602.233748
_symmetry_space_group_name_H-M "P -1"
_symmetry_group_IT_number 2
_symmetry_cell_setting 'triclinic'
loop_
_space_group_symop_operation_xyz
x,y,z
-x,-y,-z
loop_
_atom_site_type_symbol
_atom_site_label
_atom_site_fract_x
_atom_site_fract_y
_atom_site_fract_z
Si Si1 0.998030 0.235930 0.176186
Si Si2 0.401447 0.104632 0.722933
Si Si3 0.493281 0.306751 0.449210
Si Si4 0.387574 0.696361 0.062049
Si Si5 0.243117 0.646869 0.660266
Si Si6 0.072483 0.794001 0.313496
Si Si7 0.487260 0.337750 0.165615
O O1 0.019985 0.013201 0.228206
O O2 0.185459 0.449091 0.171480
O O3 0.804630 0.022178 0.281586
O O4 0.000000 0.500000 0.000000
O O5 0.506576 0.231584 0.592771
O O6 0.487129 0.386462 0.678765
O O7 0.385798 0.828775 0.899714
O O8 0.649289 0.356158 0.398894
O O9 0.307430 0.994099 0.516231
O O10 0.471863 0.523948 0.151073
O O11 0.500000 0.000000 0.000000
O O12 0.337370 0.628014 0.779262
O O13 0.033035 0.368997 0.727228
O O14 0.000000 0.500000 0.500000
O O15 0.289245 0.008815 0.267433
O O16 0.500000 0.500000 0.000000
#
# Coordination Sequence:
#
# PCOD9088471 Si02
#       7
#     2   2   2   2   2   2   2
#     4   9  20  38  61  89 128 172 211 266 329 386
#     4  10  19  37  61  88 126 161 210 262 323 381
#     4  10  20  34  64  93 117 168 207 260 323 394
#     4  10  21  37  60  86 122 165 210 259 319 385
#     4  11  22  41  67  91 131 171 214 258 339 385
#     4  11  23  41  68  98 132 173 220 268 330 394
#     4  11  25  43  64  96 130 168 217 272 322 389
#
# _framework density 23.246787000000001
#
# number of rings (size 3 to 8) (size 9 to 14) (size 15 to 20)
#    0.000    1.714    1.429    3.429    2.000    1.714 
#    2.571    0.000    3.143    4.286    0.000    0.000 
#    0.000    0.000    0.000    0.000    0.000    0.000 
#
# Total GULP energy -78123.387862 kJ/mol
# GULP energy per Si atom -5580.241990 kJ/mol
# Density = 2.319388 g / cm^3
# Si number density = 23.246787 Si / 1000 Ang^3
#
#
#
# Elastic Constant Matrix: (Units=GPa)
#
#
# Indices 1 2 3 4 5 6 
#
# 1 50.4976 28.3553 28.3653 -9.2852 22.9878 -2.9575
# 2 28.3553 160.6238 35.0952 -31.8365 2.8270 13.5212
# 3 28.3653 35.0952 112.8577 -8.0802 8.4678 8.6204
# 4 -9.2852 -31.8365 -8.0802 54.2967 -8.6089 0.4474
# 5 22.9878 2.8270 8.4678 -8.6089 35.9337 0.5519
# 6 -2.9575 13.5212 8.6204 0.4474 0.5519 36.4223
#
#
#
# Elastic Compliance Matrix: (Units=1/GPa)
#
#
# Indices 1 2 3 4 5 6 
#
# 1 0.036699 -0.005553 -0.006484 -0.001486 -0.021975 0.006927
# 2 -0.005553 0.008560 -0.000987 0.004629 0.004275 -0.003517
# 3 -0.006484 -0.000987 0.010894 0.000235 0.001757 -0.002768
# 4 -0.001486 0.004629 0.000235 0.021851 0.005801 -0.002251
# 5 -0.021975 0.004275 0.001757 0.005801 0.042596 -0.004504
# 6 0.006927 -0.003517 -0.002768 -0.002251 -0.004504 0.030075
#
#
# Mechanical properties :
#
#
# Convention : Reuss Voigt Hill
#
# Bulk Modulus (GPa) = 33.21640 56.40117 44.80879
# Shear Modulus (GPa) = 26.77289 40.80812 33.79050
#
# Velocity S-wave (km/s) = 3.39732 4.19433 3.81669
# Velocity P-wave (km/s) = 5.45057 6.91167 6.22414
#
# Compressibility (1/GPa) = 0.03010561
#
# Stress axis : x y z
#
# Youngs Moduli (GPa) = 27.24868 116.82281 91.79676
#
# Poissons Ratio (x) = 0.64870 0.59519
# Poissons Ratio (y) = 0.15131 0.09060
# Poissons Ratio (z) = 0.17667 0.11529
#
# Static dielectric constant tensor:
#      x y z
#    x 1.915770 -0.006800 0.006710 
#    y -0.006800 1.928910 0.015960 
#    z 0.006710 0.015960 1.982830 
# 
# From -- ./inp_files/514929.got.cif
#   From: 2010.05.17/outbox.cif.g08.bks.cpg/sg2_258_cif.got.tgz:514929.got - 2010.06.03 11:33:40.
