data_PCOD9088628
_publ_section_title
;
Structure prediction by ZEFSAII (Michael W. Deem and Ramdas Pophale) SiO2 
 PCOD9088628
Probable space group: P -1
;
_chemical_formula_sum "Si O2"
_cell_formula_units_Z 14
_cell_length_a 22.515855
_cell_length_b 13.593569
_cell_length_c 8.165367
_cell_angle_alpha 134.112042
_cell_angle_beta 132.794616
_cell_angle_gamma 24.561711
_cell_volume 736.840492
_symmetry_space_group_name_H-M "P -1"
_symmetry_group_IT_number 2
_symmetry_cell_setting 'triclinic'
loop_
_space_group_symop_operation_xyz
x,y,z
-x,-y,-z
loop_
_atom_site_type_symbol
_atom_site_label
_atom_site_fract_x
_atom_site_fract_y
_atom_site_fract_z
Si Si1 0.351261 0.198175 0.549825
Si Si2 0.068349 0.528558 0.256042
Si Si3 0.310110 0.408105 0.202706
Si Si4 0.998920 0.099673 0.955203
Si Si5 0.818159 0.356222 0.435592
Si Si6 0.630164 0.959053 0.237413
Si Si7 0.096896 0.240782 0.452606
O O1 0.232122 0.267142 0.320009
O O2 0.270035 0.457571 0.669394
O O3 0.368364 0.122947 0.679271
O O4 0.500000 0.000000 0.500000
O O5 0.083559 0.651396 0.333477
O O6 0.971833 0.694937 0.426003
O O7 0.000000 0.500000 0.000000
O O8 0.289767 0.506566 0.455876
O O9 0.464859 0.234011 0.217292
O O10 0.167363 0.642898 0.106386
O O11 0.321380 0.225412 0.015373
O O12 0.074683 0.137346 0.182943
O O13 0.000000 0.000000 0.000000
O O14 0.085100 0.902921 0.743442
O O15 0.742768 0.924243 0.418579
O O16 0.000000 0.500000 0.500000
#
# Coordination Sequence:
#
# PCOD9088628 Si02
#       7
#     2   2   2   2   2   2   2
#     4  10  19  37  62  88 124 156 202 248 302 362
#     4  10  20  34  59  90 119 148 200 254 297 344
#     4  11  22  37  64  88 124 158 207 251 307 362
#     4  12  23  43  62  86 127 168 202 248 314 372
#     4  10  21  37  62  89 119 163 205 242 303 371
#     4  11  21  38  61  96 120 157 207 260 300 353
#     4  12  21  38  64  91 118 159 211 251 299 362
#
# _framework density 19.000041
#
# number of rings (size 3 to 8) (size 9 to 14) (size 15 to 20)
#    0.857    0.286    5.714    2.143    0.000    0.000 
#    0.000    1.429    3.143    0.000    0.000    0.000 
#    0.000    0.000    0.000    0.000    0.000    0.000 
#
# Total GULP energy -78071.829570 kJ/mol
# GULP energy per Si atom -5576.559255 kJ/mol
# Density = 1.895680 g / cm^3
# Si number density = 19.000041 Si / 1000 Ang^3
#
#
#
# Elastic Constant Matrix: (Units=GPa)
#
#
# Indices 1 2 3 4 5 6 
#
# 1 50.7983 32.0736 15.2259 2.6356 4.2895 -17.0174
# 2 32.0736 141.7872 54.6986 1.0971 13.0198 -26.0210
# 3 15.2259 54.6986 116.5169 11.3785 17.7669 -19.5034
# 4 2.6356 1.0971 11.3785 36.9760 -5.9848 1.6725
# 5 4.2895 13.0198 17.7669 -5.9848 34.5976 -2.4381
# 6 -17.0174 -26.0210 -19.5034 1.6725 -2.4381 30.8916
#
#
#
# Elastic Compliance Matrix: (Units=1/GPa)
#
#
# Indices 1 2 3 4 5 6 
#
# 1 0.026106 -0.003935 0.000966 -0.002882 -0.001927 0.011680
# 2 -0.003935 0.010116 -0.003448 0.000673 -0.001147 0.004050
# 3 0.000966 -0.003448 0.012278 -0.004887 -0.005606 0.005202
# 4 -0.002882 0.000673 -0.004887 0.030176 0.007471 -0.005151
# 5 -0.001927 -0.001147 -0.005606 0.007471 0.033511 -0.003327
# 6 0.011680 0.004050 0.005202 -0.005151 -0.003327 0.045517
#
#
# Mechanical properties :
#
#
# Convention : Reuss Voigt Hill
#
# Bulk Modulus (GPa) = 28.03752 57.01096 42.52424
# Shear Modulus (GPa) = 27.40826 34.30000 30.85413
#
# Velocity S-wave (km/s) = 3.80220 4.25344 4.03413
# Velocity P-wave (km/s) = 5.83645 7.36160 6.64294
#
# Compressibility (1/GPa) = 0.03566649
#
# Stress axis : x y z
#
# Youngs Moduli (GPa) = 38.30546 98.84867 81.44950
#
# Poissons Ratio (x) = 0.38901 -0.07872
# Poissons Ratio (y) = 0.15075 0.28082
# Poissons Ratio (z) = -0.03702 0.34081
#
# Static dielectric constant tensor:
#      x y z
#    x 1.816330 0.016640 -0.035340 
#    y 0.016640 1.680880 -0.018410 
#    z -0.035340 -0.018410 1.685240 
# 
# From -- ./inp_files/354189.got.cif
#   From: 2010.05.17/outbox.cif.g08.bks.cpg/sg2_178_cif.got.tgz:354189.got - 2010.06.03 11:33:40.
