data_PCOD9088035
_publ_section_title
;
Structure prediction by ZEFSAII (Michael W. Deem and Ramdas Pophale) SiO2 
 PCOD9088035
Probable space group: P -1
;
_chemical_formula_sum "Si O2"
_cell_formula_units_Z 14
_cell_length_a 9.173533
_cell_length_b 13.757960
_cell_length_c 10.630833
_cell_angle_alpha 31.285195
_cell_angle_beta 86.981537
_cell_angle_gamma 97.581001
_cell_volume 654.031639
_symmetry_space_group_name_H-M "P -1"
_symmetry_group_IT_number 2
_symmetry_cell_setting 'triclinic'
loop_
_space_group_symop_operation_xyz
x,y,z
-x,-y,-z
loop_
_atom_site_type_symbol
_atom_site_label
_atom_site_fract_x
_atom_site_fract_y
_atom_site_fract_z
Si Si1 0.300452 0.075114 0.616711
Si Si2 0.929255 0.649733 0.406966
Si Si3 0.171303 0.025203 0.409050
Si Si4 0.552979 0.481013 0.161281
Si Si5 0.817069 0.405102 0.115633
Si Si6 0.046194 0.009896 0.167316
Si Si7 0.666233 0.352402 0.910267
O O1 0.278209 0.117881 0.422237
O O2 0.441295 0.262612 0.451711
O O3 0.134574 0.038993 0.729609
O O4 0.335671 0.871166 0.856815
O O5 0.770308 0.505490 0.635021
O O6 0.000000 0.500000 0.500000
O O7 0.908386 0.812349 0.131679
O O8 0.040994 0.797864 0.342907
O O9 0.152690 0.084865 0.201465
O O10 0.213450 0.826095 0.608790
O O11 0.000000 0.000000 0.500000
O O12 0.729640 0.491292 0.127774
O O13 0.503949 0.634414 0.078596
O O14 0.500000 0.500000 0.000000
O O15 0.754034 0.428740 0.954463
O O16 0.000000 0.500000 0.000000
#
# Coordination Sequence:
#
# PCOD9088035 Si02
#       7
#     2   2   2   2   2   2   2
#     4  10  19  37  58  86 123 155 195 244 302 359
#     4  11  20  33  58  88 121 166 207 243 283 345
#     4   9  20  34  56  85 121 152 187 246 303 350
#     4  10  22  36  57  87 122 159 191 245 307 357
#     4  10  21  36  57  87 117 152 192 246 305 358
#     4  10  20  35  56  89 125 155 203 252 285 345
#     4  10  20  36  58  86 121 154 204 240 292 350
#
# _framework density 21.405691000000001
#
# number of rings (size 3 to 8) (size 9 to 14) (size 15 to 20)
#    0.000    2.000    2.857    0.857    6.000    5.143 
#    0.000    0.000    0.000    0.857    0.000   11.000 
#    0.000    0.000    0.000    0.000    0.000    0.286 
#
# Total GULP energy -78102.268103 kJ/mol
# GULP energy per Si atom -5578.733436 kJ/mol
# Density = 2.135697 g / cm^3
# Si number density = 21.405691 Si / 1000 Ang^3
#
#
#
# Elastic Constant Matrix: (Units=GPa)
#
#
# Indices 1 2 3 4 5 6 
#
# 1 99.4410 42.0657 33.5097 -4.2981 -12.0384 -30.0051
# 2 42.0657 100.5134 40.7104 -13.3870 6.4906 -28.1697
# 3 33.5097 40.7104 116.7898 1.3880 -3.8668 -8.5812
# 4 -4.2981 -13.3870 1.3880 39.5013 -1.0054 5.6516
# 5 -12.0384 6.4906 -3.8668 -1.0054 21.0515 0.1293
# 6 -30.0051 -28.1697 -8.5812 5.6516 0.1293 42.2562
#
#
#
# Elastic Compliance Matrix: (Units=1/GPa)
#
#
# Indices 1 2 3 4 5 6 
#
# 1 0.016368 -0.004352 -0.002224 -0.000545 0.010216 0.008311
# 2 -0.004352 0.016398 -0.004313 0.004105 -0.008180 0.006441
# 3 -0.002224 -0.004313 0.010637 -0.001732 0.001942 -0.002069
# 4 -0.000545 0.004105 -0.001732 0.026922 -0.000600 -0.001601
# 5 0.010216 -0.008180 0.001942 -0.000600 0.056182 0.002104
# 6 0.008311 0.006441 -0.002069 -0.001601 0.002104 0.033648
#
#
# Mechanical properties :
#
#
# Convention : Reuss Voigt Hill
#
# Bulk Modulus (GPa) = 46.24722 61.03509 53.64115
# Shear Modulus (GPa) = 26.43528 33.92570 30.18049
#
# Velocity S-wave (km/s) = 3.51802 3.98539 3.75897
# Velocity P-wave (km/s) = 6.17689 7.05359 6.62975
#
# Compressibility (1/GPa) = 0.02162292
#
# Stress axis : x y z
#
# Youngs Moduli (GPa) = 61.09599 60.98448 94.01254
#
# Poissons Ratio (x) = 0.26543 0.20906
# Poissons Ratio (y) = 0.26592 0.40552
# Poissons Ratio (z) = 0.13586 0.26305
#
# Static dielectric constant tensor:
#      x y z
#    x 1.805420 0.005990 -0.038350 
#    y 0.005990 1.828090 -0.039710 
#    z -0.038350 -0.039710 1.820710 
# 
# From -- ./inp_files/398084.got.cif
#   From: 2010.05.17/outbox.cif.g08.bks.cpg/sg2_200_cif.got.tgz:398084.got - 2010.06.03 11:33:40.
