data_PCOD9088004
_publ_section_title
;
Structure prediction by ZEFSAII (Michael W. Deem and Ramdas Pophale) SiO2 
 PCOD9088004
Probable space group: P -1
;
_chemical_formula_sum "Si O2"
_cell_formula_units_Z 14
_cell_length_a 13.164013
_cell_length_b 12.305338
_cell_length_c 8.394812
_cell_angle_alpha 88.741688
_cell_angle_beta 57.477907
_cell_angle_gamma 133.640519
_cell_volume 634.777694
_symmetry_space_group_name_H-M "P -1"
_symmetry_group_IT_number 2
_symmetry_cell_setting 'triclinic'
loop_
_space_group_symop_operation_xyz
x,y,z
-x,-y,-z
loop_
_atom_site_type_symbol
_atom_site_label
_atom_site_fract_x
_atom_site_fract_y
_atom_site_fract_z
Si Si1 0.377920 0.842513 0.411232
Si Si2 0.272155 0.036217 0.792973
Si Si3 0.536228 0.444928 0.673471
Si Si4 0.192331 0.508683 0.360926
Si Si5 0.797379 0.209898 0.920704
Si Si6 0.197240 0.343447 0.871402
Si Si7 0.911484 0.521002 0.907384
O O1 0.297328 0.683865 0.371257
O O2 0.165725 0.738204 0.661911
O O3 0.526983 0.895094 0.419530
O O4 0.539401 0.034263 0.159320
O O5 0.182455 0.896203 0.021639
O O6 0.382017 0.231916 0.741172
O O7 0.050280 0.883597 0.886394
O O8 0.676314 0.499355 0.696274
O O9 0.368903 0.417145 0.843706
O O10 0.705018 0.606412 0.387339
O O11 0.197979 0.539625 0.170709
O O12 0.941019 0.318359 0.637994
O O13 0.892939 0.377481 0.946990
O O14 0.192262 0.469744 0.889469
#
# Coordination Sequence:
#
# PCOD9088004 Si02
#       7
#     2   2   2   2   2   2   2
#     4   8  18  35  56  80 111 147 175 218 267 333
#     4   9  19  37  61  82 103 146 191 222 265 332
#     4  10  21  42  60  75 103 156 196 219 268 322
#     4  10  19  37  58  83 111 145 189 218 268 335
#     4   9  18  36  59  83 111 145 177 220 276 334
#     4  11  23  38  58  80 113 144 186 236 268 320
#     4  11  23  33  54  92 116 138 176 230 283 325
#
# _framework density 22.054963999999998
#
# number of rings (size 3 to 8) (size 9 to 14) (size 15 to 20)
#    0.857    1.429    1.429    2.143    0.000    5.143 
#    0.000    0.000    0.000    0.857    0.000    0.000 
#    0.000    0.000    0.000    0.000    0.000    0.000 
#
# Total GULP energy -78015.624950 kJ/mol
# GULP energy per Si atom -5572.544639 kJ/mol
# Density = 2.200477 g / cm^3
# Si number density = 22.054964 Si / 1000 Ang^3
#
#
#
# Elastic Constant Matrix: (Units=GPa)
#
#
# Indices 1 2 3 4 5 6 
#
# 1 103.9788 12.6785 25.5869 -4.1830 -30.1304 5.2018
# 2 12.6785 45.6278 24.4819 -19.1817 -3.4691 -1.3582
# 3 25.5869 24.4819 75.7292 -21.3618 -23.2972 5.9366
# 4 -4.1830 -19.1817 -21.3618 31.3674 -0.8073 1.2674
# 5 -30.1304 -3.4691 -23.2972 -0.8073 39.9990 -4.9573
# 6 5.2018 -1.3582 5.9366 1.2674 -4.9573 32.2867
#
#
#
# Elastic Compliance Matrix: (Units=1/GPa)
#
#
# Indices 1 2 3 4 5 6 
#
# 1 0.012694 -0.002522 -0.000730 -0.000093 0.008834 -0.000657
# 2 -0.002522 0.032093 -0.006098 0.015003 -0.002122 0.001963
# 3 -0.000730 -0.006098 0.022788 0.012123 0.012073 -0.002951
# 4 -0.000093 0.015003 0.012123 0.049617 0.009028 -0.002145
# 5 0.008834 -0.002122 0.012073 0.009028 0.038919 0.001889
# 6 -0.000657 0.001963 -0.002951 -0.002145 0.001889 0.032078
#
#
# Mechanical properties :
#
#
# Convention : Reuss Voigt Hill
#
# Bulk Modulus (GPa) = 20.46072 38.98114 29.72093
# Shear Modulus (GPa) = 22.40333 31.56986 26.98659
#
# Velocity S-wave (km/s) = 3.19061 3.78751 3.50180
# Velocity P-wave (km/s) = 4.78232 6.06959 5.46400
#
# Compressibility (1/GPa) = 0.04887414
#
# Stress axis : x y z
#
# Youngs Moduli (GPa) = 78.77891 31.15924 43.88280
#
# Poissons Ratio (x) = 0.07859 0.03205
# Poissons Ratio (y) = 0.19870 0.26758
# Poissons Ratio (z) = 0.05755 0.19000
#
# Static dielectric constant tensor:
#      x y z
#    x 1.882250 0.031530 -0.031140 
#    y 0.031530 1.847280 -0.035810 
#    z -0.031140 -0.035810 1.828340 
# 
# From -- ./inp_files/315375.got.cif
#   From: 2010.05.17/outbox.cif.g08.bks.cpg/sg2_158_cif.got.tgz:315375.got - 2010.06.03 11:33:40.
