data_PCOD9088906
_publ_section_title
;
Structure prediction by ZEFSAII (Michael W. Deem and Ramdas Pophale) SiO2 
 PCOD9088906
Probable space group: P -1
;
_chemical_formula_sum "Si O2"
_cell_formula_units_Z 16
_cell_length_a 12.576954
_cell_length_b 8.998052
_cell_length_c 11.692164
_cell_angle_alpha 127.717433
_cell_angle_beta 41.716750
_cell_angle_gamma 108.470052
_cell_volume 671.487182
_symmetry_space_group_name_H-M "P -1"
_symmetry_group_IT_number 2
_symmetry_cell_setting 'triclinic'
loop_
_space_group_symop_operation_xyz
x,y,z
-x,-y,-z
loop_
_atom_site_type_symbol
_atom_site_label
_atom_site_fract_x
_atom_site_fract_y
_atom_site_fract_z
Si Si1 0.360432 0.286456 0.455543
Si Si2 0.534338 0.515169 0.845407
Si Si3 0.841229 0.280777 0.224253
Si Si4 0.859887 0.341127 0.603938
Si Si5 0.270596 0.880876 0.965536
Si Si6 0.707261 0.092245 0.780342
Si Si7 0.500126 0.211473 0.553796
Si Si8 0.875943 0.745554 0.839277
O O1 0.232275 0.486287 0.616503
O O2 0.550067 0.274937 0.260837
O O3 0.378799 0.262583 0.566318
O O4 0.315494 0.106247 0.345241
O O5 0.729935 0.421688 0.643194
O O6 0.455474 0.380181 0.765579
O O7 0.500000 0.500000 0.000000
O O8 0.467874 0.743653 0.984849
O O9 0.860113 0.196618 0.040340
O O10 0.686982 0.209313 0.364934
O O11 0.006619 0.218151 0.136741
O O12 0.809532 0.184322 0.650399
O O13 0.851932 0.532591 0.775115
O O14 0.027594 0.268931 0.365988
O O15 0.223359 0.921688 0.153962
O O16 0.281412 0.075626 0.978582
O O17 0.500000 0.000000 0.500000
#
# Coordination Sequence:
#
# PCOD9088906 Si02
#       8
#     2   2   2   2   2   2   2   2
#     4  11  24  41  67  97 128 170 210 267 326 370
#     4  10  19  37  63  96 129 156 212 268 312 363
#     4  11  24  44  65  92 133 170 211 260 326 379
#     4  10  23  40  64  95 125 174 209 266 315 379
#     4  11  24  42  65  96 128 168 213 265 318 382
#     4  11  23  40  67  98 127 162 224 268 312 375
#     4  11  21  38  64  96 129 167 209 265 319 379
#     4  11  24  42  66  90 133 170 214 254 327 383
#
# _framework density 23.827707
#
# number of rings (size 3 to 8) (size 9 to 14) (size 15 to 20)
#    0.000    1.250    1.250    6.000    3.500    3.500 
#    0.000    0.625    0.000    0.000    0.000    0.000 
#    0.000    0.000    0.000    0.000    0.000    0.000 
#
# Total GULP energy -89483.616251 kJ/mol
# GULP energy per Si atom -5592.726016 kJ/mol
# Density = 2.377347 g / cm^3
# Si number density = 23.827707 Si / 1000 Ang^3
#
#
#
# Elastic Constant Matrix: (Units=GPa)
#
#
# Indices 1 2 3 4 5 6 
#
# 1 126.5777 54.0243 48.7102 17.5132 40.0815 -11.1060
# 2 54.0243 120.6484 22.7258 27.2549 19.8430 -3.4840
# 3 48.7102 22.7258 65.9647 17.9456 27.5047 -1.1039
# 4 17.5132 27.2549 17.9456 41.0685 2.7725 3.0031
# 5 40.0815 19.8430 27.5047 2.7725 52.6748 13.7961
# 6 -11.1060 -3.4840 -1.1039 3.0031 13.7961 33.5104
#
#
#
# Elastic Compliance Matrix: (Units=1/GPa)
#
#
# Indices 1 2 3 4 5 6 
#
# 1 0.015845 -0.003732 -0.005619 -0.001806 -0.009964 0.008942
# 2 -0.003732 0.011644 0.001667 -0.006818 -0.002495 0.001667
# 3 -0.005619 0.001667 0.025761 -0.009578 -0.010429 0.004311
# 4 -0.001806 -0.006818 -0.009578 0.033819 0.009396 -0.008522
# 5 -0.009964 -0.002495 -0.010429 0.009396 0.037773 -0.020298
# 6 0.008942 0.001667 0.004311 -0.008522 -0.020298 0.042241
#
#
# Mechanical properties :
#
#
# Convention : Reuss Voigt Hill
#
# Bulk Modulus (GPa) = 26.39716 62.67904 44.53810
# Shear Modulus (GPa) = 25.63073 37.96612 31.79843
#
# Velocity S-wave (km/s) = 3.28330 3.99602 3.65706
# Velocity P-wave (km/s) = 5.04735 6.90313 6.04686
#
# Compressibility (1/GPa) = 0.03788286
#
# Stress axis : x y z
#
# Youngs Moduli (GPa) = 63.11125 85.87883 38.81869
#
# Poissons Ratio (x) = 0.32047 0.21813
# Poissons Ratio (y) = 0.23551 -0.06472
# Poissons Ratio (z) = 0.35463 -0.14318
#
# Static dielectric constant tensor:
#      x y z
#    x 1.936140 0.007350 -0.010760 
#    y 0.007350 1.902750 -0.000980 
#    z -0.010760 -0.000980 1.987530 
# 
# From -- ./inp_files/419901.got.cif
#   From: 2010.05.17/outbox.cif.g08.bks.cpg/sg2_210_cif.got.tgz:419901.got - 2010.06.03 11:33:40.
