data_PCOD9088510
_publ_section_title
;
Structure prediction by ZEFSAII (Michael W. Deem and Ramdas Pophale) SiO2 
 PCOD9088510
Probable space group: P -1
;
_chemical_formula_sum "Si O2"
_cell_formula_units_Z 14
_cell_length_a 13.249637
_cell_length_b 7.261946
_cell_length_c 14.654249
_cell_angle_alpha 53.247698
_cell_angle_beta 140.954054
_cell_angle_gamma 137.064214
_cell_volume 603.581032
_symmetry_space_group_name_H-M "P -1"
_symmetry_group_IT_number 2
_symmetry_cell_setting 'triclinic'
loop_
_space_group_symop_operation_xyz
x,y,z
-x,-y,-z
loop_
_atom_site_type_symbol
_atom_site_label
_atom_site_fract_x
_atom_site_fract_y
_atom_site_fract_z
Si Si1 0.891832 0.843751 0.332912
Si Si2 0.508872 0.458584 0.410627
Si Si3 0.846002 0.623541 0.092112
Si Si4 0.547777 0.822521 0.017688
Si Si5 0.901774 0.877692 0.787622
Si Si6 0.286468 0.655771 0.115211
Si Si7 0.089558 0.407930 0.408634
O O1 0.911079 0.634492 0.470706
O O2 0.679824 0.739701 0.184592
O O3 0.021775 0.963284 0.299880
O O4 0.958437 0.109539 0.361954
O O5 0.500000 0.500000 0.500000
O O6 0.310216 0.188384 0.324272
O O7 0.484555 0.683353 0.273971
O O8 0.697739 0.475046 0.510692
O O9 0.651968 0.443067 0.065948
O O10 0.998924 0.568194 0.259060
O O11 0.790756 0.510074 0.984688
O O12 0.945729 0.941726 0.082981
O O13 0.668232 0.044540 0.958329
O O14 0.500000 0.000000 0.000000
O O15 0.856387 0.567914 0.844945
#
# Coordination Sequence:
#
# PCOD9088510 Si02
#       7
#     2   2   2   2   2   2   2
#     4  11  22  38  62  91 120 165 207 248 298 371
#     4  10  21  39  61  89 123 159 202 253 296 361
#     4  11  22  39  64  93 124 161 199 258 308 361
#     4  10  19  37  61  91 115 157 210 243 293 363
#     4  10  24  39  63  91 130 152 205 256 313 346
#     4   9  20  39  63  85 123 164 199 246 303 369
#     4  11  21  36  65  87 121 166 209 241 305 366
#
# _framework density 23.194896
#
# number of rings (size 3 to 8) (size 9 to 14) (size 15 to 20)
#    0.857    0.857    4.286    2.143    2.000    2.286 
#    2.571    0.000    0.000    0.000    0.000    0.000 
#    0.000    0.000    0.000    0.000    0.000    0.000 
#
# Total GULP energy -78116.705743 kJ/mol
# GULP energy per Si atom -5579.764696 kJ/mol
# Density = 2.314210 g / cm^3
# Si number density = 23.194896 Si / 1000 Ang^3
#
#
#
# Elastic Constant Matrix: (Units=GPa)
#
#
# Indices 1 2 3 4 5 6 
#
# 1 66.3606 16.8350 38.6143 -4.7542 -1.0656 21.4892
# 2 16.8350 84.0279 27.7648 23.1574 0.4661 20.9497
# 3 38.6143 27.7648 143.2251 -3.2634 10.9986 9.9344
# 4 -4.7542 23.1574 -3.2634 42.1242 12.0819 -0.6580
# 5 -1.0656 0.4661 10.9986 12.0819 37.4393 -2.5338
# 6 21.4892 20.9497 9.9344 -0.6580 -2.5338 27.7652
#
#
#
# Elastic Compliance Matrix: (Units=1/GPa)
#
#
# Indices 1 2 3 4 5 6 
#
# 1 0.023537 0.000916 -0.005375 0.001277 0.000682 -0.016892
# 2 0.000916 0.019948 -0.003703 -0.012500 0.003927 -0.014373
# 3 -0.005375 -0.003703 0.009269 0.003247 -0.003649 0.003382
# 4 0.001277 -0.012500 0.003247 0.034381 -0.011379 0.007058
# 5 0.000682 0.003927 -0.003649 -0.011379 0.031452 0.000415
# 6 -0.016892 -0.014373 0.003382 0.007058 0.000415 0.058930
#
#
# Mechanical properties :
#
#
# Convention : Reuss Voigt Hill
#
# Bulk Modulus (GPa) = 27.45058 51.11575 39.28317
# Shear Modulus (GPa) = 24.27377 35.49237 29.88307
#
# Velocity S-wave (km/s) = 3.23850 3.91600 3.59325
# Velocity P-wave (km/s) = 5.08372 6.52166 5.84706
#
# Compressibility (1/GPa) = 0.03642910
#
# Stress axis : x y z
#
# Youngs Moduli (GPa) = 42.48643 50.13145 107.89092
#
# Poissons Ratio (x) = -0.04594 0.57991
# Poissons Ratio (y) = -0.03893 0.39956
# Poissons Ratio (z) = 0.22836 0.18566
#
# Static dielectric constant tensor:
#      x y z
#    x 1.969600 0.016510 -0.004940 
#    y 0.016510 1.931470 -0.029140 
#    z -0.004940 -0.029140 1.881880 
# 
# From -- ./inp_files/527377.got.cif
#   From: 2010.05.17/outbox.cif.g08.bks.cpg/sg2_264_cif.got.tgz:527377.got - 2010.06.03 11:33:40.
