data_PCOD9088713
_publ_section_title
;
Structure prediction by ZEFSAII (Michael W. Deem and Ramdas Pophale) SiO2 
 PCOD9088713
Probable space group: P -1
;
_chemical_formula_sum "Si O2"
_cell_formula_units_Z 16
_cell_length_a 9.680367
_cell_length_b 12.408838
_cell_length_c 10.073231
_cell_angle_alpha 46.215932
_cell_angle_beta 77.136891
_cell_angle_gamma 109.726782
_cell_volume 609.512290
_symmetry_space_group_name_H-M "P -1"
_symmetry_group_IT_number 2
_symmetry_cell_setting 'triclinic'
loop_
_space_group_symop_operation_xyz
x,y,z
-x,-y,-z
loop_
_atom_site_type_symbol
_atom_site_label
_atom_site_fract_x
_atom_site_fract_y
_atom_site_fract_z
Si Si1 0.990337 0.782226 0.853773
Si Si2 0.318503 0.813665 0.111420
Si Si3 0.140240 0.142623 0.665004
Si Si4 0.892119 0.613932 0.365870
Si Si5 0.178491 0.958555 0.386917
Si Si6 0.963924 0.458163 0.231187
Si Si7 0.604070 0.263827 0.087375
Si Si8 0.541614 0.423875 0.181541
O O1 0.097033 0.932190 0.574898
O O2 0.754453 0.621298 0.027237
O O3 0.073565 0.921819 0.849121
O O4 0.027730 0.633048 0.965077
O O5 0.263124 0.599323 0.333453
O O6 0.118036 0.750582 0.247266
O O7 0.361531 0.857991 0.906862
O O8 0.500000 0.000000 0.000000
O O9 0.147152 0.242262 0.714111
O O10 0.360133 0.308738 0.416745
O O11 0.973687 0.094361 0.645014
O O12 0.890163 0.518390 0.310674
O O13 0.192093 0.788308 0.530432
O O14 0.403853 0.178345 0.134186
O O15 0.168048 0.513328 0.158416
O O16 0.555528 0.265830 0.249796
O O17 0.500000 0.500000 0.000000
#
# Coordination Sequence:
#
# PCOD9088713 Si02
#       8
#     2   2   2   2   2   2   2   2
#     4  12  26  41  64  94 132 170 204 260 322 375
#     4  10  19  37  62  96 122 161 214 264 309 359
#     4  12  24  42  64  96 129 165 215 261 310 376
#     4  10  22  39  62  88 129 168 206 257 309 373
#     4  12  22  41  67  96 128 159 214 265 316 370
#     4  11  25  44  62  94 130 168 210 258 316 377
#     4  11  22  36  66  95 124 161 210 265 317 369
#     4  12  22  39  63  94 125 162 209 259 318 369
#
# _framework density 26.250498
#
# number of rings (size 3 to 8) (size 9 to 14) (size 15 to 20)
#    0.000    0.750    3.750    6.000    0.000    3.000 
#    0.000    0.625    0.000    0.000    0.000    0.000 
#    0.000    0.000    0.000    0.000    0.000    0.000 
#
# Total GULP energy -89254.749778 kJ/mol
# GULP energy per Si atom -5578.421861 kJ/mol
# Density = 2.619075 g / cm^3
# Si number density = 26.250498 Si / 1000 Ang^3
#
#
#
# Elastic Constant Matrix: (Units=GPa)
#
#
# Indices 1 2 3 4 5 6 
#
# 1 73.4681 13.7759 46.2985 -16.4030 -15.6702 -15.0679
# 2 13.7759 146.4740 34.3694 0.4822 -13.9448 -49.3891
# 3 46.2985 34.3694 102.5357 -5.4867 -41.8515 -10.4776
# 4 -16.4030 0.4822 -5.4867 47.4254 -1.4596 -1.6329
# 5 -15.6702 -13.9448 -41.8515 -1.4596 56.1908 -10.5760
# 6 -15.0679 -49.3891 -10.4776 -1.6329 -10.5760 43.0073
#
#
#
# Elastic Compliance Matrix: (Units=1/GPa)
#
#
# Indices 1 2 3 4 5 6 
#
# 1 0.023291 0.004223 -0.008964 0.007488 0.003305 0.011923
# 2 0.004223 0.013763 -0.001698 0.001978 0.006888 0.018640
# 3 -0.008964 -0.001698 0.019584 -0.000352 0.012156 0.002656
# 4 0.007488 0.001978 -0.000352 0.023977 0.004211 0.006755
# 5 0.003305 0.006888 0.012156 0.004211 0.033433 0.020411
# 6 0.011923 0.018640 0.002656 0.006755 0.020411 0.054758
#
#
# Mechanical properties :
#
#
# Convention : Reuss Voigt Hill
#
# Bulk Modulus (GPa) = 22.85216 56.81837 39.83526
# Shear Modulus (GPa) = 25.47530 44.52696 35.00113
#
# Velocity S-wave (km/s) = 3.11862 4.12300 3.65547
# Velocity P-wave (km/s) = 4.65747 6.66012 5.74670
#
# Compressibility (1/GPa) = 0.04375955
#
# Stress axis : x y z
#
# Youngs Moduli (GPa) = 42.93590 72.65930 51.06337
#
# Poissons Ratio (x) = -0.30686 0.45773
# Poissons Ratio (y) = -0.18133 0.08671
# Poissons Ratio (z) = 0.38487 0.12338
#
# Static dielectric constant tensor:
#      x y z
#    x 2.155990 0.011850 0.121680 
#    y 0.011850 2.142260 0.041240 
#    z 0.121680 0.041240 2.088730 
# 
# From -- ./inp_files/427539.got.cif
#   From: 2010.05.17/outbox.cif.g08.bks.cpg/sg2_214_cif.got.tgz:427539.got - 2010.06.03 11:33:40.
