data_PCOD9088598
_publ_section_title
;
Structure prediction by ZEFSAII (Michael W. Deem and Ramdas Pophale) SiO2 
 PCOD9088598
Probable space group: P -1
;
_chemical_formula_sum "Si O2"
_cell_formula_units_Z 16
_cell_length_a 19.789383
_cell_length_b 8.640382
_cell_length_c 10.286632
_cell_angle_alpha 105.463099
_cell_angle_beta 46.786238
_cell_angle_gamma 67.937397
_cell_volume 750.027670
_symmetry_space_group_name_H-M "P -1"
_symmetry_group_IT_number 2
_symmetry_cell_setting 'triclinic'
loop_
_space_group_symop_operation_xyz
x,y,z
-x,-y,-z
loop_
_atom_site_type_symbol
_atom_site_label
_atom_site_fract_x
_atom_site_fract_y
_atom_site_fract_z
Si Si1 0.701391 0.693009 0.280170
Si Si2 0.266553 0.862343 0.335238
Si Si3 0.009321 0.791579 0.816363
Si Si4 0.414753 0.879283 0.647421
Si Si5 0.440507 0.633124 0.786073
Si Si6 0.962678 0.096041 0.718211
Si Si7 0.147233 0.352033 0.690850
Si Si8 0.741476 0.295920 0.437355
O O1 0.532238 0.851777 0.539357
O O2 0.764119 0.650179 0.329912
O O3 0.696950 0.863856 0.239468
O O4 0.808951 0.408823 0.011288
O O5 0.329736 0.667556 0.325560
O O6 0.255740 0.056654 0.445380
O O7 0.348260 0.740107 0.063218
O O8 0.095445 0.030520 0.580173
O O9 0.083068 0.517298 0.678927
O O10 0.142719 0.720701 0.686049
O O11 0.968218 0.929981 0.764879
O O12 0.857449 0.010055 0.153763
O O13 0.351694 0.859941 0.845920
O O14 0.507794 0.613580 0.386873
O O15 0.598892 0.510313 0.578262
O O16 0.000000 0.000000 0.500000
O O17 0.000000 0.500000 0.000000
#
# Coordination Sequence:
#
# PCOD9088598 Si02
#       8
#     2   2   2   2   2   2   2   2
#     4  11  22  43  63  88 123 164 209 255 308 367
#     4  11  23  37  59  96 124 156 208 257 315 360
#     4  10  21  37  64  91 115 163 213 245 317 361
#     4  10  24  40  64  88 124 173 205 245 312 379
#     4  11  22  40  60  93 125 164 210 249 309 374
#     4  11  23  41  62  88 125 163 203 260 304 373
#     4  12  21  40  64  94 123 155 208 266 307 357
#     4  10  19  37  62  86 121 161 204 261 296 369
#
# _framework density 21.332546000000001
#
# number of rings (size 3 to 8) (size 9 to 14) (size 15 to 20)
#    0.000    1.250    2.500    4.875    0.000    2.000 
#    0.000    6.250    0.000    0.000    0.000    0.000 
#    0.000    0.000    0.000    0.000    0.000    0.000 
#
# Total GULP energy -89347.773611 kJ/mol
# GULP energy per Si atom -5584.235851 kJ/mol
# Density = 2.128399 g / cm^3
# Si number density = 21.332546 Si / 1000 Ang^3
#
#
#
# Elastic Constant Matrix: (Units=GPa)
#
#
# Indices 1 2 3 4 5 6 
#
# 1 50.9758 17.9688 13.0165 -9.6470 8.9794 -2.5331
# 2 17.9688 166.3359 21.3563 -10.0947 13.6658 -19.9579
# 3 13.0165 21.3563 52.0826 -22.1521 8.6170 -4.6699
# 4 -9.6470 -10.0947 -22.1521 23.8174 -6.1221 3.9145
# 5 8.9794 13.6658 8.6170 -6.1221 35.9356 -1.8506
# 6 -2.5331 -19.9579 -4.6699 3.9145 -1.8506 21.9889
#
#
#
# Elastic Compliance Matrix: (Units=1/GPa)
#
#
# Indices 1 2 3 4 5 6 
#
# 1 0.022364 -0.001597 -0.001955 0.005748 -0.003565 -0.000611
# 2 -0.001597 0.007262 -0.002202 -0.001038 -0.001703 0.005981
# 3 -0.001955 -0.002202 0.033002 0.028597 -0.001739 -0.000452
# 4 0.005748 -0.001038 0.028597 0.072649 0.004128 -0.006792
# 5 -0.003565 -0.001703 -0.001739 0.004128 0.030461 -0.000497
# 6 -0.000611 0.005981 -0.000452 -0.006792 -0.000497 0.051907
#
#
# Mechanical properties :
#
#
# Convention : Reuss Voigt Hill
#
# Bulk Modulus (GPa) = 19.56147 41.56417 30.56282
# Shear Modulus (GPa) = 20.30937 30.81855 25.56396
#
# Velocity S-wave (km/s) = 3.08886 3.80501 3.46548
# Velocity P-wave (km/s) = 4.68093 6.23140 5.51096
#
# Compressibility (1/GPa) = 0.05112089
#
# Stress axis : x y z
#
# Youngs Moduli (GPa) = 44.71390 137.70893 30.30133
#
# Poissons Ratio (x) = 0.21987 0.05924
# Poissons Ratio (y) = 0.07139 0.06672
# Poissons Ratio (z) = 0.08742 0.30322
#
# Static dielectric constant tensor:
#      x y z
#    x 1.804770 -0.013730 -0.035940 
#    y -0.013730 1.818730 -0.005410 
#    z -0.035940 -0.005410 1.727500 
# 
# From -- ./inp_files/343626.got.cif
#   From: 2010.05.17/outbox.cif.g08.bks.cpg/sg2_172_cif.got.tgz:343626.got - 2010.06.03 11:33:40.
