data_PCOD9088998
_publ_section_title
;
Structure prediction by ZEFSAII (Michael W. Deem and Ramdas Pophale) SiO2 
 PCOD9088998
Probable space group: P -1
;
_chemical_formula_sum "Si O2"
_cell_formula_units_Z 16
_cell_length_a 10.443693
_cell_length_b 13.793716
_cell_length_c 20.305981
_cell_angle_alpha 31.261187
_cell_angle_beta 126.324880
_cell_angle_gamma 147.463136
_cell_volume 725.108789
_symmetry_space_group_name_H-M "P -1"
_symmetry_group_IT_number 2
_symmetry_cell_setting 'triclinic'
loop_
_space_group_symop_operation_xyz
x,y,z
-x,-y,-z
loop_
_atom_site_type_symbol
_atom_site_label
_atom_site_fract_x
_atom_site_fract_y
_atom_site_fract_z
Si Si1 0.316770 0.599784 0.540650
Si Si2 0.212649 0.257193 0.247950
Si Si3 0.834118 0.656689 0.670637
Si Si4 0.140802 0.704620 0.318889
Si Si5 0.205300 0.786607 0.058998
Si Si6 0.746616 0.891259 0.228429
Si Si7 0.729725 0.091108 0.484795
Si Si8 0.249917 0.092909 0.022623
O O1 0.313071 0.721804 0.403191
O O2 0.251926 0.323729 0.667828
O O3 0.088316 0.450435 0.609009
O O4 0.598466 0.895112 0.491774
O O5 0.269144 0.386397 0.262984
O O6 0.467061 0.540864 0.116058
O O7 0.198463 0.021074 0.385333
O O8 0.936720 0.082035 0.238921
O O9 0.948523 0.554800 0.776292
O O10 0.573730 0.378722 0.705767
O O11 0.000000 0.000000 0.500000
O O12 0.993897 0.463257 0.353376
O O13 0.267889 0.002692 0.149927
O O14 0.500000 0.000000 0.000000
O O15 0.128221 0.852778 0.937247
O O16 0.216182 0.920090 0.050805
O O17 0.500000 0.000000 0.500000
O O18 0.000000 0.000000 0.000000
#
# Coordination Sequence:
#
# PCOD9088998 Si02
#       8
#     2   2   2   2   2   2   2   2
#     4  10  19  39  64  95 139 178 225 287 344 413
#     4  12  24  44  69 100 142 182 232 296 352 410
#     4  11  26  48  73  99 134 182 238 296 350 422
#     4  10  22  36  63  97 136 179 236 278 339 415
#     4  10  22  47  72  96 143 193 229 288 359 422
#     4  11  22  43  72  98 135 183 230 291 357 412
#     4  10  19  37  64  91 131 186 221 278 350 405
#     4  12  24  45  71 105 146 189 236 290 350 421
#
# _framework density 22.065653999999999
#
# number of rings (size 3 to 8) (size 9 to 14) (size 15 to 20)
#    0.000    1.250    5.000    2.250    1.750    1.000 
#    4.500    1.250    0.000    0.000    0.000    0.000 
#    0.000    0.000    0.000    0.000    0.000    0.000 
#
# Total GULP energy -89273.652858 kJ/mol
# GULP energy per Si atom -5579.603304 kJ/mol
# Density = 2.201543 g / cm^3
# Si number density = 22.065654 Si / 1000 Ang^3
#
#
#
# Elastic Constant Matrix: (Units=GPa)
#
#
# Indices 1 2 3 4 5 6 
#
# 1 82.7962 8.8595 27.6839 8.7154 9.3827 -0.4395
# 2 8.8595 84.0412 11.7785 14.3948 -10.5963 14.9901
# 3 27.6839 11.7785 127.2463 12.0819 -5.4249 18.2739
# 4 8.7154 14.3948 12.0819 38.8463 3.8873 4.9589
# 5 9.3827 -10.5963 -5.4249 3.8873 36.1961 3.2657
# 6 -0.4395 14.9901 18.2739 4.9589 3.2657 16.1920
#
#
#
# Elastic Compliance Matrix: (Units=1/GPa)
#
#
# Indices 1 2 3 4 5 6 
#
# 1 0.014864 -0.003324 -0.004542 -0.001376 -0.006288 0.010297
# 2 -0.003324 0.017242 0.002741 -0.004881 0.008593 -0.019384
# 3 -0.004542 0.002741 0.011289 -0.002016 0.005319 -0.015856
# 4 -0.001376 -0.004881 -0.002016 0.029087 -0.004384 -0.001268
# 5 -0.006288 0.008593 0.005319 -0.004384 0.034828 -0.019810
# 6 0.010297 -0.019384 -0.015856 -0.001268 -0.019810 0.102262
#
#
# Mechanical properties :
#
#
# Convention : Reuss Voigt Hill
#
# Bulk Modulus (GPa) = 30.17200 43.41418 36.79309
# Shear Modulus (GPa) = 21.65694 34.63099 28.14397
#
# Velocity S-wave (km/s) = 3.13625 3.96593 3.57524
# Velocity P-wave (km/s) = 5.17863 6.37881 5.80979
#
# Compressibility (1/GPa) = 0.03314332
#
# Stress axis : x y z
#
# Youngs Moduli (GPa) = 67.27453 57.99715 88.58506
#
# Poissons Ratio (x) = 0.19280 0.40240
# Poissons Ratio (y) = 0.22364 -0.24279
# Poissons Ratio (z) = 0.30559 -0.15896
#
# Static dielectric constant tensor:
#      x y z
#    x 2.225060 0.258210 0.223230 
#    y 0.258210 1.955780 0.110930 
#    z 0.223230 0.110930 1.951540 
# 
# From -- ./inp_files/595468.got.cif
#   From: 2010.05.17/outbox.cif.g08.bks.cpg/sg2_298_cif.got.tgz:595468.got - 2010.06.03 11:33:40.
