data_PCOD9088418
_publ_section_title
;
Structure prediction by ZEFSAII (Michael W. Deem and Ramdas Pophale) SiO2 
 PCOD9088418
Probable space group: P -1
;
_chemical_formula_sum "Si O2"
_cell_formula_units_Z 12
_cell_length_a 25.531056
_cell_length_b 5.291661
_cell_length_c 7.922255
_cell_angle_alpha 92.936476
_cell_angle_beta 23.879457
_cell_angle_gamma 91.323315
_cell_volume 431.960064
_symmetry_space_group_name_H-M "P -1"
_symmetry_group_IT_number 2
_symmetry_cell_setting 'triclinic'
loop_
_space_group_symop_operation_xyz
x,y,z
-x,-y,-z
loop_
_atom_site_type_symbol
_atom_site_label
_atom_site_fract_x
_atom_site_fract_y
_atom_site_fract_z
Si Si1 0.668551 0.505037 0.699467
Si Si2 0.413037 0.253341 0.730973
Si Si3 0.131303 0.883994 0.767955
Si Si4 0.415547 0.231848 0.348365
Si Si5 0.921183 0.638175 0.584435
Si Si6 0.111974 0.860247 0.435227
O O1 0.748061 0.241589 0.491363
O O2 0.690234 0.660100 0.470980
O O3 0.682223 0.681993 0.828952
O O4 0.521393 0.433456 0.095098
O O5 0.500000 0.500000 0.500000
O O6 0.362876 0.188760 0.690437
O O7 0.500000 0.000000 0.500000
O O8 0.157509 0.906060 0.493307
O O9 0.019965 0.686908 0.137015
O O10 0.046178 0.132562 0.084630
O O11 0.500000 0.000000 0.000000
O O12 0.000000 0.500000 0.500000
O O13 0.831762 0.417147 0.783250
O O14 0.870324 0.932342 0.755491
#
# Coordination Sequence:
#
# PCOD9088418 Si02
#       6
#     2   2   2   2   2   2
#     4  10  21  39  60  90 120 163 208 252 300 369
#     4  10  20  38  60  83 115 158 196 245 310 355
#     4   9  21  36  62  85 118 160 208 240 299 364
#     4  10  20  37  62  84 123 160 199 256 309 355
#     4  10  19  37  61  85 121 160 194 246 308 351
#     4   9  20  38  60  83 120 160 197 244 301 358
#
# _framework density 27.780346999999999
#
# number of rings (size 3 to 8) (size 9 to 14) (size 15 to 20)
#    1.000    1.333    1.667    1.000    0.000    1.333 
#    3.000    0.000    0.000    0.000    0.000    0.000 
#    0.000    0.000    0.000    0.000    0.000    0.000 
#
# Total GULP energy -66941.741500 kJ/mol
# GULP energy per Si atom -5578.478458 kJ/mol
# Density = 2.771712 g / cm^3
# Si number density = 27.780347 Si / 1000 Ang^3
#
#
#
# Elastic Constant Matrix: (Units=GPa)
#
#
# Indices 1 2 3 4 5 6 
#
# 1 210.1841 35.0766 53.1872 21.0292 28.0019 -31.7453
# 2 35.0766 144.8485 15.9352 22.7341 17.7374 -19.1155
# 3 53.1872 15.9352 79.1037 20.8880 14.8650 -10.2812
# 4 21.0292 22.7341 20.8880 45.0158 -1.4951 -1.3690
# 5 28.0019 17.7374 14.8650 -1.4951 60.8533 11.2374
# 6 -31.7453 -19.1155 -10.2812 -1.3690 11.2374 61.3022
#
#
#
# Elastic Compliance Matrix: (Units=1/GPa)
#
#
# Indices 1 2 3 4 5 6 
#
# 1 0.006602 -0.000227 -0.003000 -0.001572 -0.002895 0.003341
# 2 -0.000227 0.008380 0.000631 -0.004430 -0.003171 0.003084
# 3 -0.003000 0.000631 0.017324 -0.007012 -0.003586 0.002049
# 4 -0.001572 -0.004430 -0.007012 0.028498 0.005106 -0.003671
# 5 -0.002895 -0.003171 -0.003586 0.005106 0.020949 -0.006815
# 6 0.003341 0.003084 0.002049 -0.003671 -0.006815 0.020515
#
#
# Mechanical properties :
#
#
# Convention : Reuss Voigt Hill
#
# Bulk Modulus (GPa) = 36.88193 71.39270 54.13731
# Shear Modulus (GPa) = 42.91920 55.43007 49.17463
#
# Velocity S-wave (km/s) = 3.93485 4.47172 4.21185
# Velocity P-wave (km/s) = 5.82659 7.23992 6.57136
#
# Compressibility (1/GPa) = 0.02711355
#
# Stress axis : x y z
#
# Youngs Moduli (GPa) = 151.46319 119.33419 57.72463
#
# Poissons Ratio (x) = 0.02705 0.17319
# Poissons Ratio (y) = 0.03433 -0.03641
# Poissons Ratio (z) = 0.45442 -0.07528
#
# Static dielectric constant tensor:
#      x y z
#    x 2.269290 0.109750 0.084030 
#    y 0.109750 2.321690 -0.146010 
#    z 0.084030 -0.146010 2.359320 
# 
# From -- ./inp_files/355823.got.cif
#   From: 2010.05.17/outbox.cif.g08.bks.cpg/sg2_178_cif.got.tgz:355823.got - 2010.06.03 11:33:40.
