data_PCOD9088059
_publ_section_title
;
Structure prediction by ZEFSAII (Michael W. Deem and Ramdas Pophale) SiO2 
 PCOD9088059
Probable space group: P -1
;
_chemical_formula_sum "Si O2"
_cell_formula_units_Z 14
_cell_length_a 22.460626
_cell_length_b 8.750623
_cell_length_c 10.741398
_cell_angle_alpha 68.723045
_cell_angle_beta 157.694543
_cell_angle_gamma 124.201756
_cell_volume 573.656742
_symmetry_space_group_name_H-M "P -1"
_symmetry_group_IT_number 2
_symmetry_cell_setting 'triclinic'
loop_
_space_group_symop_operation_xyz
x,y,z
-x,-y,-z
loop_
_atom_site_type_symbol
_atom_site_label
_atom_site_fract_x
_atom_site_fract_y
_atom_site_fract_z
Si Si1 0.991761 0.684374 0.396624
Si Si2 0.616671 0.557199 0.839938
Si Si3 0.326512 0.681640 0.792877
Si Si4 0.340422 0.041846 0.839247
Si Si5 0.085352 0.167472 0.224688
Si Si6 0.297124 0.551424 0.336455
Si Si7 0.917902 0.321037 0.000390
O O1 0.000000 0.500000 0.500000
O O2 0.228159 0.896612 0.786633
O O3 0.851980 0.697403 0.214369
O O4 0.863402 0.599401 0.041312
O O5 0.500000 0.500000 0.500000
O O6 0.522870 0.644750 0.710251
O O7 0.565044 0.356470 0.879650
O O8 0.293602 0.848794 0.718609
O O9 0.110695 0.449470 0.426750
O O10 0.444737 0.767204 0.864625
O O11 0.219534 0.131519 0.571237
O O12 0.225336 0.393625 0.360234
O O13 0.909492 0.140604 0.970971
O O14 0.000000 0.000000 0.000000
O O15 0.267874 0.719163 0.275043
O O16 0.000000 0.500000 0.000000
#
# Coordination Sequence:
#
# PCOD9088059 Si02
#       7
#     2   2   2   2   2   2   2
#     4  11  19  35  60  92 125 174 209 255 310 376
#     4  10  21  35  62  99 123 171 218 248 308 378
#     4  11  21  39  62  96 130 164 214 264 309 380
#     4  11  21  34  61  95 127 159 216 263 309 374
#     4  11  20  36  63  95 123 154 214 267 322 376
#     4  10  19  37  58  89 126 166 211 253 306 382
#     4  10  21  38  61  93 128 171 200 269 328 366
#
# _framework density 24.404837000000001
#
# number of rings (size 3 to 8) (size 9 to 14) (size 15 to 20)
#    0.000    1.429    5.714    0.857    0.000    0.571 
#    0.000    0.000    0.000    4.286    0.000    0.000 
#    0.000    0.000    0.000    0.286    0.000    0.000 
#
# Total GULP energy -78011.240520 kJ/mol
# GULP energy per Si atom -5572.231466 kJ/mol
# Density = 2.434929 g / cm^3
# Si number density = 24.404837 Si / 1000 Ang^3
#
#
#
# Elastic Constant Matrix: (Units=GPa)
#
#
# Indices 1 2 3 4 5 6 
#
# 1 115.8120 52.6318 61.0601 -8.9855 47.5332 -22.2058
# 2 52.6318 89.0559 42.8266 -23.4406 8.1019 -15.5230
# 3 61.0601 42.8266 77.2951 -14.6849 33.9999 -4.5106
# 4 -8.9855 -23.4406 -14.6849 33.2582 -6.4462 8.7917
# 5 47.5332 8.1019 33.9999 -6.4462 76.0420 -20.7128
# 6 -22.2058 -15.5230 -4.5106 8.7917 -20.7128 57.9162
#
#
#
# Elastic Compliance Matrix: (Units=1/GPa)
#
#
# Indices 1 2 3 4 5 6 
#
# 1 0.020419 -0.007955 -0.009582 -0.006618 -0.007280 0.003352
# 2 -0.007955 0.022072 -0.007026 0.010884 0.007608 0.003387
# 3 -0.009582 -0.007026 0.028208 0.005293 -0.007267 -0.006763
# 4 -0.006618 0.010884 0.005293 0.039964 0.002838 -0.004259
# 5 -0.007280 0.007608 -0.007267 0.002838 0.022052 0.006138
# 6 0.003352 0.003387 -0.006763 -0.004259 0.006138 0.021774
#
#
# Mechanical properties :
#
#
# Convention : Reuss Voigt Hill
#
# Bulk Modulus (GPa) = 46.35641 66.13333 56.24487
# Shear Modulus (GPa) = 23.71828 41.81957 32.76893
#
# Velocity S-wave (km/s) = 3.12086 4.14403 3.66829
# Velocity P-wave (km/s) = 5.65883 7.07493 6.40613
#
# Compressibility (1/GPa) = 0.02157199
#
# Stress axis : x y z
#
# Youngs Moduli (GPa) = 48.97377 45.30540 35.45138
#
# Poissons Ratio (x) = 0.36041 0.33970
# Poissons Ratio (y) = 0.38959 0.24909
# Poissons Ratio (z) = 0.46928 0.31833
#
# Static dielectric constant tensor:
#      x y z
#    x 2.038000 -0.010770 -0.035920 
#    y -0.010770 1.923830 0.035180 
#    z -0.035920 0.035180 2.126970 
# 
# From -- ./inp_files/242568.got.cif
#   From: 2010.05.17/outbox.cif.g08.bks.cpg/sg2_122_cif.got.tgz:242568.got - 2010.06.03 11:33:40.
