data_PCOD9088127
_publ_section_title
;
Structure prediction by ZEFSAII (Michael W. Deem and Ramdas Pophale) SiO2 
 PCOD9088127
Probable space group: P -1
;
_chemical_formula_sum "Si O2"
_cell_formula_units_Z 12
_cell_length_a 9.146772
_cell_length_b 8.791290
_cell_length_c 11.759854
_cell_angle_alpha 36.395911
_cell_angle_beta 99.164838
_cell_angle_gamma 100.138993
_cell_volume 552.089327
_symmetry_space_group_name_H-M "P -1"
_symmetry_group_IT_number 2
_symmetry_cell_setting 'triclinic'
loop_
_space_group_symop_operation_xyz
x,y,z
-x,-y,-z
loop_
_atom_site_type_symbol
_atom_site_label
_atom_site_fract_x
_atom_site_fract_y
_atom_site_fract_z
Si Si1 0.947652 0.259857 0.263562
Si Si2 0.790691 0.750913 0.544358
Si Si3 0.553608 0.725079 0.704405
Si Si4 0.172493 0.218362 0.131570
Si Si5 0.374130 0.204502 0.981655
Si Si6 0.593046 0.755628 0.307598
O O1 0.061480 0.357523 0.319304
O O2 0.040510 0.121248 0.259433
O O3 0.822597 0.044510 0.414890
O O4 0.870051 0.492989 0.063342
O O5 0.650053 0.624963 0.671495
O O6 0.739544 0.769258 0.397436
O O7 0.673537 0.780212 0.783958
O O8 0.432278 0.492772 0.855627
O O9 0.500000 0.000000 0.500000
O O10 0.216518 0.116598 0.075010
O O11 0.364412 0.236453 0.825038
O O12 0.491789 0.999690 0.155753
O O13 0.500000 0.500000 0.500000
#
# Coordination Sequence:
#
# PCOD9088127 Si02
#       6
#     2   2   2   2   2   2
#     4   9  20  37  61  85 122 163 197 253 305 352
#     4  10  19  37  59  85 118 162 203 243 303 361
#     4  11  20  33  63  95 122 154 196 266 318 353
#     4  10  20  36  57  90 122 153 202 252 303 364
#     4  11  23  38  62  93 123 160 203 249 313 360
#     4  11  23  42  62  88 125 166 201 252 304 362
#
# _framework density 21.735612
#
# number of rings (size 3 to 8) (size 9 to 14) (size 15 to 20)
#    0.000    1.667    1.667    3.500    0.000    0.000 
#    0.000    1.667    0.000    0.000    0.000    0.000 
#    0.000    0.000    0.000    0.000    0.000    0.000 
#
# Total GULP energy -66811.620807 kJ/mol
# GULP energy per Si atom -5567.635067 kJ/mol
# Density = 2.168614 g / cm^3
# Si number density = 21.735612 Si / 1000 Ang^3
#
#
#
# Elastic Constant Matrix: (Units=GPa)
#
#
# Indices 1 2 3 4 5 6 
#
# 1 90.5232 37.1164 37.6663 18.2593 2.9810 -0.0664
# 2 37.1164 54.1273 26.2849 22.8973 -0.2818 1.0123
# 3 37.6663 26.2849 135.2678 11.5494 13.4115 7.8385
# 4 18.2593 22.8973 11.5494 38.5451 -4.9142 -2.0193
# 5 2.9810 -0.2818 13.4115 -4.9142 28.3975 8.6383
# 6 -0.0664 1.0123 7.8385 -2.0193 8.6383 33.6635
#
#
#
# Elastic Compliance Matrix: (Units=1/GPa)
#
#
# Indices 1 2 3 4 5 6 
#
# 1 0.016265 -0.009310 -0.002537 -0.001509 -0.001204 0.001121
# 2 -0.009310 0.031902 -0.002390 -0.013840 0.000443 -0.001365
# 3 -0.002537 -0.002390 0.009060 -0.000637 -0.003811 -0.001103
# 4 -0.001509 -0.013840 -0.000637 0.035919 0.006195 0.001126
# 5 -0.001204 0.000443 -0.003811 0.006195 0.041043 -0.009289
# 6 0.001121 -0.001365 -0.001103 0.001126 -0.009289 0.032457
#
#
# Mechanical properties :
#
#
# Convention : Reuss Voigt Hill
#
# Bulk Modulus (GPa) = 34.77891 53.56150 44.17021
# Shear Modulus (GPa) = 24.42570 32.04460 28.23515
#
# Velocity S-wave (km/s) = 3.35590 3.84381 3.60811
# Velocity P-wave (km/s) = 5.57240 6.66301 6.14196
#
# Compressibility (1/GPa) = 0.02875305
#
# Stress axis : x y z
#
# Youngs Moduli (GPa) = 61.48350 31.34594 110.38027
#
# Poissons Ratio (x) = 0.29183 0.27999
# Poissons Ratio (y) = 0.57242 0.26379
# Poissons Ratio (z) = 0.15596 0.07491
#
# Static dielectric constant tensor:
#      x y z
#    x 1.827420 -0.057250 -0.023420 
#    y -0.057250 1.866310 0.091060 
#    z -0.023420 0.091060 1.826300 
# 
# From -- ./inp_files/160466.got.cif
#   From: 2010.05.17/outbox.cif.g08.bks.cpg/sg2_81_cif.got.tgz:160466.got - 2010.06.03 11:33:40.
