data_PCOD9088765
_publ_section_title
;
Structure prediction by ZEFSAII (Michael W. Deem and Ramdas Pophale) SiO2 
 PCOD9088765
Probable space group: P -1
;
_chemical_formula_sum "Si O2"
_cell_formula_units_Z 16
_cell_length_a 16.547141
_cell_length_b 8.106627
_cell_length_c 9.793178
_cell_angle_alpha 68.266202
_cell_angle_beta 42.140325
_cell_angle_gamma 93.758592
_cell_volume 686.081781
_symmetry_space_group_name_H-M "P -1"
_symmetry_group_IT_number 2
_symmetry_cell_setting 'triclinic'
loop_
_space_group_symop_operation_xyz
x,y,z
-x,-y,-z
loop_
_atom_site_type_symbol
_atom_site_label
_atom_site_fract_x
_atom_site_fract_y
_atom_site_fract_z
Si Si1 0.786765 0.530874 0.823536
Si Si2 0.016388 0.390507 0.224183
Si Si3 0.175479 0.035951 0.241289
Si Si4 0.186757 0.987385 0.723623
Si Si5 0.797519 0.383708 0.318237
Si Si6 0.024851 0.158609 0.713949
Si Si7 0.510809 0.743278 0.291466
Si Si8 0.489569 0.309128 0.382204
O O1 0.864244 0.606826 0.558376
O O2 0.878333 0.477063 0.823859
O O3 0.805514 0.747452 0.794993
O O4 0.619629 0.356427 0.105624
O O5 0.916951 0.155009 0.480084
O O6 0.907584 0.447851 0.283691
O O7 0.124300 0.429842 0.950869
O O8 0.088212 0.967810 0.229158
O O9 0.332460 0.075394 0.013094
O O10 0.205996 0.812404 0.685419
O O11 0.125949 0.078209 0.662356
O O12 0.338222 0.165900 0.542841
O O13 0.073779 0.884843 0.019218
O O14 0.635794 0.306136 0.576914
O O15 0.507800 0.529953 0.332442
O O16 0.501317 0.777893 0.454704
#
# Coordination Sequence:
#
# PCOD9088765 Si02
#       8
#     2   2   2   2   2   2   2   2
#     4  10  19  37  63  86 111 152 202 243 278 336
#     4  10  21  37  59  86 115 153 196 240 283 341
#     4  10  19  37  63  86 111 152 202 243 278 336
#     4  11  23  38  59  89 123 154 187 238 299 348
#     4  11  23  38  59  89 123 154 187 238 299 348
#     4  10  21  37  59  86 115 153 196 240 283 341
#     4  10  21  38  61  87 114 153 199 239 283 345
#     4  10  21  38  61  87 114 153 199 239 283 345
#
# _framework density 23.320834000000001
#
# number of rings (size 3 to 8) (size 9 to 14) (size 15 to 20)
#    0.000    1.750    2.500    3.000    0.000    6.500 
#    0.000    3.750    0.000    0.000    0.000    0.000 
#    0.000    0.000    0.000    0.000    0.000    0.000 
#
# Total GULP energy -89493.606103 kJ/mol
# GULP energy per Si atom -5593.350381 kJ/mol
# Density = 2.326775 g / cm^3
# Si number density = 23.320834 Si / 1000 Ang^3
#
#
#
# Elastic Constant Matrix: (Units=GPa)
#
#
# Indices 1 2 3 4 5 6 
#
# 1 137.0010 14.2729 79.3883 -1.0490 -11.6954 2.2200
# 2 14.2729 28.0506 24.7772 -3.4426 1.0669 15.1770
# 3 79.3883 24.7772 164.8620 5.0032 -31.7689 -1.4555
# 4 -1.0490 -3.4426 5.0032 31.0704 0.2822 -4.2445
# 5 -11.6954 1.0669 -31.7689 0.2822 53.6953 1.4737
# 6 2.2200 15.1770 -1.4555 -4.2445 1.4737 29.0451
#
#
#
# Elastic Compliance Matrix: (Units=1/GPa)
#
#
# Indices 1 2 3 4 5 6 
#
# 1 0.010215 -0.000126 -0.005086 0.001051 -0.000766 -0.000777
# 2 -0.000126 0.064757 -0.011496 0.004528 -0.007223 -0.033376
# 3 -0.005086 -0.011496 0.011483 -0.002484 0.005754 0.006316
# 4 0.001051 0.004528 -0.002484 0.033464 -0.001572 0.002399
# 5 -0.000766 -0.007223 0.005754 -0.001572 0.021937 0.002779
# 6 -0.000777 -0.033376 0.006316 0.002399 0.002779 0.052455
#
#
# Mechanical properties :
#
#
# Convention : Reuss Voigt Hill
#
# Bulk Modulus (GPa) = 18.85428 62.97670 40.91549
# Shear Modulus (GPa) = 20.37436 36.86051 28.61743
#
# Velocity S-wave (km/s) = 2.95897 3.97997 3.50683
# Velocity P-wave (km/s) = 4.44706 6.94142 5.82922
#
# Compressibility (1/GPa) = 0.05303836
#
# Stress axis : x y z
#
# Youngs Moduli (GPa) = 97.89500 15.44229 87.08799
#
# Poissons Ratio (x) = 0.00195 0.44296
# Poissons Ratio (y) = 0.01235 1.00114
# Poissons Ratio (z) = 0.49793 0.17752
#
# Static dielectric constant tensor:
#      x y z
#    x 1.864140 -0.014360 0.012340 
#    y -0.014360 1.934370 -0.005040 
#    z 0.012340 -0.005040 1.876560 
# 
# From -- ./inp_files/297800.got.cif
#   From: 2010.05.17/outbox.cif.g08.bks.cpg/sg2_149_cif.got.tgz:297800.got - 2010.06.03 11:33:40.
