data_PCOD9088708
_publ_section_title
;
Structure prediction by ZEFSAII (Michael W. Deem and Ramdas Pophale) SiO2 
 PCOD9088708
Probable space group: P -1
;
_chemical_formula_sum "Si O2"
_cell_formula_units_Z 16
_cell_length_a 11.894623
_cell_length_b 14.811563
_cell_length_c 14.929253
_cell_angle_alpha 28.472516
_cell_angle_beta 60.636658
_cell_angle_gamma 41.297023
_cell_volume 696.205794
_symmetry_space_group_name_H-M "P -1"
_symmetry_group_IT_number 2
_symmetry_cell_setting 'triclinic'
loop_
_space_group_symop_operation_xyz
x,y,z
-x,-y,-z
loop_
_atom_site_type_symbol
_atom_site_label
_atom_site_fract_x
_atom_site_fract_y
_atom_site_fract_z
Si Si1 0.058066 0.654067 0.024628
Si Si2 0.610389 0.211326 0.650048
Si Si3 0.728717 0.723912 0.483402
Si Si4 0.643283 0.409060 0.103363
Si Si5 0.327076 0.195679 0.773326
Si Si6 0.090457 0.229952 0.485804
Si Si7 0.895852 0.912926 0.043162
Si Si8 0.558501 0.538830 0.699778
O O1 0.258364 0.499070 0.032860
O O2 0.076339 0.416804 0.256820
O O3 0.850861 0.927162 0.815348
O O4 0.027063 0.807414 0.995978
O O5 0.500000 0.500000 0.500000
O O6 0.515636 0.112275 0.798170
O O7 0.555606 0.312220 0.479590
O O8 0.668674 0.830113 0.313123
O O9 0.751585 0.873349 0.410384
O O10 0.583609 0.717805 0.577889
O O11 0.956281 0.377753 0.699145
O O12 0.535290 0.500864 0.159705
O O13 0.832637 0.049496 0.341695
O O14 0.500000 0.500000 0.000000
O O15 0.128335 0.536308 0.585885
O O16 0.281219 0.034530 0.965065
O O17 0.782563 0.211855 0.872218
#
# Coordination Sequence:
#
# PCOD9088708 Si02
#       8
#     2   2   2   2   2   2   2   2
#     4  10  23  44  65  91 125 173 210 262 314 366
#     4  11  21  42  67  92 126 163 217 270 309 368
#     4   9  19  35  62  89 128 157 207 269 316 367
#     4  12  27  42  66  94 133 171 205 258 326 386
#     4   9  20  35  63  96 121 160 212 263 320 363
#     4  10  22  41  62  95 128 167 211 255 321 387
#     4  10  19  37  62  95 122 157 213 264 316 373
#     4  11  24  38  61  98 123 167 215 255 316 379
#
# _framework density 22.981708999999999
#
# number of rings (size 3 to 8) (size 9 to 14) (size 15 to 20)
#    0.000    2.000    1.250    4.125    5.250    4.500 
#    4.500    0.625    0.000    0.000    0.000    0.000 
#    0.000    0.000    0.000    0.000    0.000    0.000 
#
# Total GULP energy -89455.271309 kJ/mol
# GULP energy per Si atom -5590.954457 kJ/mol
# Density = 2.292940 g / cm^3
# Si number density = 22.981709 Si / 1000 Ang^3
#
#
#
# Elastic Constant Matrix: (Units=GPa)
#
#
# Indices 1 2 3 4 5 6 
#
# 1 88.1103 11.9204 5.1741 8.5390 9.7504 -15.7868
# 2 11.9204 72.0313 11.2619 23.4493 3.3926 -18.0438
# 3 5.1741 11.2619 52.3147 -2.4283 5.2206 2.8165
# 4 8.5390 23.4493 -2.4283 32.8139 1.3364 -7.2335
# 5 9.7504 3.3926 5.2206 1.3364 34.5628 -0.3043
# 6 -15.7868 -18.0438 2.8165 -7.2335 -0.3043 35.9727
#
#
#
# Elastic Compliance Matrix: (Units=1/GPa)
#
#
# Indices 1 2 3 4 5 6 
#
# 1 0.012968 0.000400 -0.001444 -0.002421 -0.003338 0.005490
# 2 0.000400 0.021411 -0.005681 -0.013909 -0.000743 0.008557
# 3 -0.001444 -0.005681 0.021191 0.005196 -0.002473 -0.004118
# 4 -0.002421 -0.013909 0.005196 0.041416 -0.000339 -0.000121
# 5 -0.003338 -0.000743 -0.002473 -0.000339 0.030321 -0.001456
# 6 0.005490 0.008557 -0.004118 -0.000121 -0.001456 0.034786
#
#
# Mechanical properties :
#
#
# Convention : Reuss Voigt Hill
#
# Bulk Modulus (GPa) = 23.74121 29.90769 26.82445
# Shear Modulus (GPa) = 26.37388 32.94321 29.65855
#
# Velocity S-wave (km/s) = 3.39130 3.79021 3.59629
# Velocity P-wave (km/s) = 5.06828 5.67417 5.37976
#
# Compressibility (1/GPa) = 0.04212084
#
# Stress axis : x y z
#
# Youngs Moduli (GPa) = 77.11532 46.70435 47.19090
#
# Poissons Ratio (x) = -0.01869 0.06812
# Poissons Ratio (y) = -0.03087 0.26809
# Poissons Ratio (z) = 0.11132 0.26533
#
# Static dielectric constant tensor:
#      x y z
#    x 1.892090 -0.009550 -0.014920 
#    y -0.009550 1.848460 0.012630 
#    z -0.014920 0.012630 1.879030 
# 
# From -- ./inp_files/522150.got.cif
#   From: 2010.05.17/outbox.cif.g08.bks.cpg/sg2_262_cif.got.tgz:522150.got - 2010.06.03 11:33:40.
