data_PCOD9088013
_publ_section_title
;
Structure prediction by ZEFSAII (Michael W. Deem and Ramdas Pophale) SiO2 
 PCOD9088013
Probable space group: P -1
;
_chemical_formula_sum "Si O2"
_cell_formula_units_Z 14
_cell_length_a 15.942601
_cell_length_b 10.011830
_cell_length_c 18.254028
_cell_angle_alpha 40.641212
_cell_angle_beta 156.744224
_cell_angle_gamma 122.795224
_cell_volume 596.752933
_symmetry_space_group_name_H-M "P -1"
_symmetry_group_IT_number 2
_symmetry_cell_setting 'triclinic'
loop_
_space_group_symop_operation_xyz
x,y,z
-x,-y,-z
loop_
_atom_site_type_symbol
_atom_site_label
_atom_site_fract_x
_atom_site_fract_y
_atom_site_fract_z
Si Si1 0.182087 0.026848 0.474947
Si Si2 0.395120 0.286718 0.475555
Si Si3 0.460153 0.456341 0.609412
Si Si4 0.954520 0.775200 0.163280
Si Si5 0.562244 0.179382 0.088503
Si Si6 0.895739 0.348199 0.246367
Si Si7 0.136903 0.132149 0.779057
O O1 0.260428 0.142322 0.427477
O O2 0.423810 0.868277 0.792957
O O3 0.952466 0.265925 0.241049
O O4 0.087940 0.856322 0.450035
O O5 0.332884 0.430412 0.444089
O O6 0.351133 0.471293 0.298216
O O7 0.713916 0.063266 0.826809
O O8 0.627413 0.175702 0.896384
O O9 0.233871 0.665033 0.395577
O O10 0.882277 0.591324 0.152991
O O11 0.965207 0.771508 0.260952
O O12 0.284764 0.241627 0.816838
O O13 0.830901 0.901874 0.392657
O O14 0.640898 0.364986 0.057853
#
# Coordination Sequence:
#
# PCOD9088013 Si02
#       7
#     2   2   2   2   2   2   2
#     4  10  19  40  56  84 115 150 184 230 279 337
#     4  10  20  35  61  82 113 146 193 226 280 329
#     4  10  19  37  58  84 111 153 182 232 279 333
#     4  11  18  38  59  86 109 152 186 235 273 334
#     4   9  18  40  56  82 113 150 185 230 276 337
#     4   9  18  36  65  76 112 152 188 223 286 327
#     4  11  22  36  60  83 120 143 187 233 280 327
#
# _framework density 23.460296
#
# number of rings (size 3 to 8) (size 9 to 14) (size 15 to 20)
#    0.857    1.143    5.714    0.429    0.000    1.714 
#    2.571    1.429    0.000    0.000    0.000    0.000 
#    0.000    0.000    0.000    0.000    0.000    0.000 
#
# Total GULP energy -78213.087390 kJ/mol
# GULP energy per Si atom -5586.649099 kJ/mol
# Density = 2.340690 g / cm^3
# Si number density = 23.460296 Si / 1000 Ang^3
#
#
#
# Elastic Constant Matrix: (Units=GPa)
#
#
# Indices 1 2 3 4 5 6 
#
# 1 57.2680 16.3955 26.4140 7.5792 27.6867 12.4514
# 2 16.3955 76.9992 21.4089 24.1939 10.3311 -1.5971
# 3 26.4140 21.4089 73.5861 1.1812 18.5632 -5.5397
# 4 7.5792 24.1939 1.1812 34.1523 3.8355 18.0352
# 5 27.6867 10.3311 18.5632 3.8355 31.8382 -2.1426
# 6 12.4514 -1.5971 -5.5397 18.0352 -2.1426 44.8763
#
#
#
# Elastic Compliance Matrix: (Units=1/GPa)
#
#
# Indices 1 2 3 4 5 6 
#
# 1 0.039221 -0.005063 -0.006162 0.007078 -0.030810 -0.016139
# 2 -0.005063 0.020885 -0.003968 -0.018787 0.002831 0.009344
# 3 -0.006162 -0.003968 0.018133 0.002668 -0.004077 0.002540
# 4 0.007078 -0.018787 0.002668 0.055233 -0.009949 -0.024976
# 5 -0.030810 0.002831 -0.004077 -0.009949 0.061874 0.015099
# 6 -0.016139 0.009344 0.002540 -0.024976 0.015099 0.038166
#
#
# Mechanical properties :
#
#
# Convention : Reuss Voigt Hill
#
# Bulk Modulus (GPa) = 20.89751 37.36556 29.13154
# Shear Modulus (GPa) = 17.86685 31.74903 24.80794
#
# Velocity S-wave (km/s) = 2.76266 3.68273 3.25536
# Velocity P-wave (km/s) = 4.37074 5.83481 5.15502
#
# Compressibility (1/GPa) = 0.04785259
#
# Stress axis : x y z
#
# Youngs Moduli (GPa) = 25.49679 47.88012 55.14932
#
# Poissons Ratio (x) = 0.24242 0.33981
# Poissons Ratio (y) = 0.12909 0.21884
# Poissons Ratio (z) = 0.15710 0.19000
#
# Static dielectric constant tensor:
#      x y z
#    x 1.885030 0.010030 0.002400 
#    y 0.010030 1.889740 0.005330 
#    z 0.002400 0.005330 1.913170 
# 
# From -- ./inp_files/599197.got.cif
#   From: 2010.05.17/outbox.cif.g08.bks.cpg/sg2_300_cif.got.tgz:599197.got - 2010.06.03 11:33:40.
