data_PCOD9088022
_publ_section_title
;
Structure prediction by ZEFSAII (Michael W. Deem and Ramdas Pophale) SiO2 
 PCOD9088022
Probable space group: P -1
;
_chemical_formula_sum "Si O2"
_cell_formula_units_Z 14
_cell_length_a 10.468027
_cell_length_b 11.733676
_cell_length_c 7.452750
_cell_angle_alpha 100.079382
_cell_angle_beta 63.222096
_cell_angle_gamma 64.249348
_cell_volume 653.172914
_symmetry_space_group_name_H-M "P -1"
_symmetry_group_IT_number 2
_symmetry_cell_setting 'triclinic'
loop_
_space_group_symop_operation_xyz
x,y,z
-x,-y,-z
loop_
_atom_site_type_symbol
_atom_site_label
_atom_site_fract_x
_atom_site_fract_y
_atom_site_fract_z
Si Si1 0.288563 0.857239 0.227974
Si Si2 0.508794 0.920921 0.288485
Si Si3 0.986630 0.832826 0.425332
Si Si4 0.088820 0.317052 0.062885
Si Si5 0.107596 0.061268 0.899687
Si Si6 0.112893 0.370650 0.644766
Si Si7 0.493927 0.842339 0.762223
O O1 0.391251 0.862428 0.333477
O O2 0.186918 0.785046 0.297361
O O3 0.429521 0.801754 0.964167
O O4 0.133200 0.025522 0.338837
O O5 0.701773 0.788591 0.077130
O O6 0.500000 0.000000 0.500000
O O7 0.450914 0.048237 0.221877
O O8 0.923110 0.892082 0.277191
O O9 0.950489 0.714332 0.444555
O O10 0.033783 0.209760 0.090474
O O11 0.070444 0.357036 0.874450
O O12 0.993133 0.461179 0.275067
O O13 0.310035 0.940355 0.794416
O O14 0.000000 0.000000 0.000000
O O15 0.323394 0.292619 0.471086
#
# Coordination Sequence:
#
# PCOD9088022 Si02
#       7
#     2   2   2   2   2   2   2
#     4  11  21  34  56  88 114 149 190 242 290 328
#     4  11  19  36  59  87 109 145 200 240 276 342
#     4  10  21  35  57  85 121 149 184 238 295 337
#     4   9  20  34  60  83 114 152 190 235 285 339
#     4  10  19  37  60  89 115 145 193 243 278 333
#     4  10  19  37  58  85 113 152 192 233 284 346
#     4  11  20  33  61  86 112 148 199 241 272 340
#
# _framework density 21.433835999999999
#
# number of rings (size 3 to 8) (size 9 to 14) (size 15 to 20)
#    0.000    1.714    4.286    2.143    0.000    0.000 
#    0.000    2.143    0.000    0.000    0.000    0.000 
#    0.000    0.000    0.000    0.000    0.000    0.000 
#
# Total GULP energy -77997.112750 kJ/mol
# GULP energy per Si atom -5571.222339 kJ/mol
# Density = 2.138505 g / cm^3
# Si number density = 21.433836 Si / 1000 Ang^3
#
#
#
# Elastic Constant Matrix: (Units=GPa)
#
#
# Indices 1 2 3 4 5 6 
#
# 1 124.1685 43.3328 38.1626 15.9747 -13.7024 33.6261
# 2 43.3328 95.8485 57.1804 23.8721 -15.4621 23.6346
# 3 38.1626 57.1804 92.8705 23.2016 -4.0728 17.2306
# 4 15.9747 23.8721 23.2016 41.1702 -8.1783 1.6994
# 5 -13.7024 -15.4621 -4.0728 -8.1783 23.3485 -10.1561
# 6 33.6261 23.6346 17.2306 1.6994 -10.1561 32.6049
#
#
#
# Elastic Compliance Matrix: (Units=1/GPa)
#
#
# Indices 1 2 3 4 5 6 
#
# 1 0.012237 -0.001203 -0.001666 -0.002554 0.000613 -0.010544
# 2 -0.001203 0.020364 -0.009522 -0.004343 0.006944 -0.006098
# 3 -0.001666 -0.009522 0.019132 -0.005973 -0.007578 -0.003538
# 4 -0.002554 -0.004343 -0.005973 0.032851 0.010680 0.010554
# 5 0.000613 0.006944 -0.007578 0.010680 0.056960 0.015524
# 6 -0.010544 -0.006098 -0.003538 0.010554 0.015524 0.052120
#
#
# Mechanical properties :
#
#
# Convention : Reuss Voigt Hill
#
# Bulk Modulus (GPa) = 37.10793 65.58211 51.34502
# Shear Modulus (GPa) = 21.98471 31.03883 26.51177
#
# Velocity S-wave (km/s) = 3.20613 3.80955 3.52079
# Velocity P-wave (km/s) = 5.57280 7.07207 6.36672
#
# Compressibility (1/GPa) = 0.02694842
#
# Stress axis : x y z
#
# Youngs Moduli (GPa) = 81.71764 49.10702 52.26893
#
# Poissons Ratio (x) = 0.05909 0.08710
# Poissons Ratio (y) = 0.09833 0.49773
# Poissons Ratio (z) = 0.13618 0.46762
#
# Static dielectric constant tensor:
#      x y z
#    x 1.866550 -0.031130 0.041260 
#    y -0.031130 1.804720 -0.069330 
#    z 0.041260 -0.069330 1.874100 
# 
# From -- ./inp_files/259375.got.cif
#   From: 2010.05.17/outbox.cif.g08.bks.cpg/sg2_130_cif.got.tgz:259375.got - 2010.06.03 11:33:40.
