data_PCOD9088011
_publ_section_title
;
Structure prediction by ZEFSAII (Michael W. Deem and Ramdas Pophale) SiO2 
 PCOD9088011
Probable space group: P -1
;
_chemical_formula_sum "Si O2"
_cell_formula_units_Z 15
_cell_length_a 6.672938
_cell_length_b 24.023982
_cell_length_c 20.805480
_cell_angle_alpha 20.710948
_cell_angle_beta 138.202089
_cell_angle_gamma 124.742734
_cell_volume 661.385869
_symmetry_space_group_name_H-M "P -1"
_symmetry_group_IT_number 2
_symmetry_cell_setting 'triclinic'
loop_
_space_group_symop_operation_xyz
x,y,z
-x,-y,-z
loop_
_atom_site_type_symbol
_atom_site_label
_atom_site_fract_x
_atom_site_fract_y
_atom_site_fract_z
Si Si1 0.733792 0.657683 0.902342
Si Si2 0.392747 0.702709 0.012159
Si Si3 0.799423 0.200153 0.272220
Si Si4 0.156225 0.280519 0.490355
Si Si5 0.350719 0.075555 0.097934
Si Si6 0.000000 0.500000 0.000000
Si Si7 0.922428 0.907141 0.210769
Si Si8 0.230418 0.665038 0.418588
O O1 0.010915 0.724595 0.900771
O O2 0.908824 0.460716 0.194187
O O3 0.736681 0.602135 0.889665
O O4 0.387347 0.798378 0.708244
O O5 0.431407 0.868940 0.865245
O O6 0.632771 0.531959 0.302668
O O7 0.482073 0.669681 0.993051
O O8 0.001381 0.305556 0.221509
O O9 0.000000 0.000000 0.500000
O O10 0.970932 0.230461 0.555046
O O11 0.444594 0.321454 0.545656
O O12 0.379903 0.099224 0.693852
O O13 0.085559 0.248628 0.801137
O O14 0.089586 0.032958 0.121341
O O15 0.089772 0.801588 0.298580
O O16 0.500000 0.000000 0.000000
#
# Coordination Sequence:
#
# PCOD9088011 Si02
#       8
#     2   2   2   2   2   1   2   2
#     4  10  23  46  70 100 132 176 223 283 352 415
#     4  10  24  40  60  95 135 171 221 285 338 401
#     4  11  25  48  72 101 140 175 225 288 356 426
#     4  10  20  36  62  91 130 172 226 273 323 398
#     4  11  21  35  58  94 131 178 227 271 327 393
#     4  10  24  46  76 104 130 174 228 278 360 418
#     4  11  18  34  57  87 122 177 228 267 318 387
#     4  10  19  37  58  83 132 176 222 273 318 391
#
# _framework density 22.679649999999999
#
# number of rings (size 3 to 8) (size 9 to 14) (size 15 to 20)
#    0.000    1.600    2.667    2.400    1.867    4.267 
#    2.400    0.667    0.000    0.000    0.000    0.000 
#    0.000    0.000    0.000    0.000    0.000    0.000 
#
# Total GULP energy -83525.119724 kJ/mol
# GULP energy per Si atom -5568.341315 kJ/mol
# Density = 2.262803 g / cm^3
# Si number density = 22.679650 Si / 1000 Ang^3
#
#
#
# Elastic Constant Matrix: (Units=GPa)
#
#
# Indices 1 2 3 4 5 6 
#
# 1 135.7659 58.2165 28.1653 -11.1759 -7.8770 -14.4107
# 2 58.2165 89.3276 35.9866 -15.8002 -5.6761 13.9403
# 3 28.1653 35.9866 84.0960 -13.4676 -2.7436 5.6072
# 4 -11.1759 -15.8002 -13.4676 34.7232 -4.5409 -9.7437
# 5 -7.8770 -5.6761 -2.7436 -4.5409 33.3654 -2.7778
# 6 -14.4107 13.9403 5.6072 -9.7437 -2.7778 28.3404
#
#
#
# Elastic Compliance Matrix: (Units=1/GPa)
#
#
# Indices 1 2 3 4 5 6 
#
# 1 0.013685 -0.009945 -0.000505 0.003915 0.003163 0.013607
# 2 -0.009945 0.022129 -0.005038 0.000777 -0.000115 -0.014689
# 3 -0.000505 -0.005038 0.014769 0.003540 0.000769 0.000592
# 4 0.003915 0.000777 0.003540 0.036783 0.007544 0.014294
# 5 0.003163 -0.000115 0.000769 0.007544 0.032395 0.007281
# 6 0.013607 -0.014689 0.000592 0.014294 0.007281 0.054940
#
#
# Mechanical properties :
#
#
# Convention : Reuss Voigt Hill
#
# Bulk Modulus (GPa) = 51.00538 61.54738 56.27638
# Shear Modulus (GPa) = 23.56132 31.74054 27.65093
#
# Velocity S-wave (km/s) = 3.22665 3.74507 3.49549
# Velocity P-wave (km/s) = 6.03490 6.77476 6.41550
#
# Compressibility (1/GPa) = 0.01960577
#
# Stress axis : x y z
#
# Youngs Moduli (GPa) = 73.07311 45.19039 67.71093
#
# Poissons Ratio (x) = 0.44944 0.03416
# Poissons Ratio (y) = 0.72674 0.34115
# Poissons Ratio (z) = 0.03687 0.22768
#
# Static dielectric constant tensor:
#      x y z
#    x 1.846510 0.029010 0.003990 
#    y 0.029010 1.864610 0.056150 
#    z 0.003990 0.056150 1.952670 
# 
# From -- ./inp_files/339673.got.cif
#   From: 2010.05.17/outbox.cif.g08.bks.cpg/sg2_170_cif.got.tgz:339673.got - 2010.06.03 11:33:40.
