data_PCOD9088994
_publ_section_title
;
Structure prediction by ZEFSAII (Michael W. Deem and Ramdas Pophale) SiO2 
 PCOD9088994
Probable space group: P -1
;
_chemical_formula_sum "Si O2"
_cell_formula_units_Z 14
_cell_length_a 18.665436
_cell_length_b 11.937389
_cell_length_c 7.254400
_cell_angle_alpha 67.138902
_cell_angle_beta 94.197425
_cell_angle_gamma 34.900544
_cell_volume 570.177046
_symmetry_space_group_name_H-M "P -1"
_symmetry_group_IT_number 2
_symmetry_cell_setting 'triclinic'
loop_
_space_group_symop_operation_xyz
x,y,z
-x,-y,-z
loop_
_atom_site_type_symbol
_atom_site_label
_atom_site_fract_x
_atom_site_fract_y
_atom_site_fract_z
Si Si1 0.176035 0.704006 0.352080
Si Si2 0.708038 0.215621 0.758086
Si Si3 0.074382 0.594350 0.765815
Si Si4 0.003213 0.544894 0.256180
Si Si5 0.301807 0.246477 0.640100
Si Si6 0.287144 0.476563 0.900113
Si Si7 0.317294 0.701803 0.875333
O O1 0.277435 0.674376 0.396958
O O2 0.281570 0.420498 0.474722
O O3 0.140685 0.732434 0.542495
O O4 0.000000 0.000000 0.000000
O O5 0.500000 0.500000 0.500000
O O6 0.854082 0.881227 0.957993
O O7 0.738995 0.185719 0.998788
O O8 0.189690 0.414006 0.706619
O O9 0.195707 0.502033 0.965251
O O10 0.044970 0.497197 0.847834
O O11 0.862041 0.974532 0.479693
O O12 0.483450 0.127565 0.070720
O O13 0.199023 0.311999 0.442315
O O14 0.000000 0.500000 0.500000
O O15 0.335197 0.528581 0.971029
O O16 0.500000 0.500000 0.000000
#
# Coordination Sequence:
#
# PCOD9088994 Si02
#       7
#     2   2   2   2   2   2   2
#     4  11  21  40  63  99 133 163 214 268 323 373
#     4  12  25  39  66  98 129 167 213 274 324 374
#     4  10  20  37  66  95 123 164 221 260 297 380
#     4  10  19  37  64  91 124 163 223 255 303 376
#     4  10  20  39  66  98 123 175 220 257 307 399
#     4  11  24  39  72  98 127 169 220 262 321 387
#     4  12  24  43  63  97 131 172 216 264 322 386
#
# _framework density 24.553778000000001
#
# number of rings (size 3 to 8) (size 9 to 14) (size 15 to 20)
#    0.000    1.143    4.286    4.714    8.000    0.000 
#    0.000    0.714    3.143    2.571    0.000    0.000 
#    0.000    0.000    0.000    0.000    0.000    0.000 
#
# Total GULP energy -78203.345099 kJ/mol
# GULP energy per Si atom -5585.953221 kJ/mol
# Density = 2.449789 g / cm^3
# Si number density = 24.553778 Si / 1000 Ang^3
#
#
#
# Elastic Constant Matrix: (Units=GPa)
#
#
# Indices 1 2 3 4 5 6 
#
# 1 264.7734 58.9697 53.0176 -15.0652 19.9581 35.9803
# 2 58.9697 70.4789 23.8964 -16.9996 -1.7346 22.2253
# 3 53.0176 23.8964 97.1585 -23.1869 17.5526 2.5881
# 4 -15.0652 -16.9996 -23.1869 34.8951 -4.1153 -1.4338
# 5 19.9581 -1.7346 17.5526 -4.1153 50.7063 2.1229
# 6 35.9803 22.2253 2.5881 -1.4338 2.1229 48.5321
#
#
#
# Elastic Compliance Matrix: (Units=1/GPa)
#
#
# Indices 1 2 3 4 5 6 
#
# 1 0.005267 -0.003286 -0.001950 -0.000890 -0.001488 -0.002258
# 2 -0.003286 0.022069 -0.002208 0.008004 0.003775 -0.007482
# 3 -0.001950 -0.002208 0.014234 0.007185 -0.003739 0.002073
# 4 -0.000890 0.008004 0.007185 0.036996 0.001238 -0.002349
# 5 -0.001488 0.003775 -0.003739 0.001238 0.021888 -0.001347
# 6 -0.002258 -0.007482 0.002073 -0.002349 -0.001347 0.025584
#
#
# Mechanical properties :
#
#
# Convention : Reuss Voigt Hill
#
# Bulk Modulus (GPa) = 37.47445 78.24201 57.85823
# Shear Modulus (GPa) = 33.37371 46.59519 39.98445
#
# Velocity S-wave (km/s) = 3.69074 4.36096 4.03978
# Velocity P-wave (km/s) = 5.78424 7.56915 6.73608
#
# Compressibility (1/GPa) = 0.02668485
#
# Stress axis : x y z
#
# Youngs Moduli (GPa) = 189.85144 45.31264 70.25237
#
# Poissons Ratio (x) = 0.14888 0.13696
# Poissons Ratio (y) = 0.62377 0.15510
# Poissons Ratio (z) = 0.37013 0.10004
#
# Static dielectric constant tensor:
#      x y z
#    x 2.274180 0.025710 -0.083370 
#    y 0.025710 2.012340 0.068880 
#    z -0.083370 0.068880 1.978640 
# 
# From -- ./inp_files/330885.got.cif
#   From: 2010.05.17/outbox.cif.g08.bks.cpg/sg2_166_cif.got.tgz:330885.got - 2010.06.03 11:33:40.
