data_PCOD9088216
_publ_section_title
;
Structure prediction by ZEFSAII (Michael W. Deem and Ramdas Pophale) SiO2 
 PCOD9088216
Probable space group: P -1
;
_chemical_formula_sum "Si O2"
_cell_formula_units_Z 16
_cell_length_a 8.036315
_cell_length_b 11.481979
_cell_length_c 16.977419
_cell_angle_alpha 145.923722
_cell_angle_beta 129.435001
_cell_angle_gamma 56.863570
_cell_volume 677.152967
_symmetry_space_group_name_H-M "P -1"
_symmetry_group_IT_number 2
_symmetry_cell_setting 'triclinic'
loop_
_space_group_symop_operation_xyz
x,y,z
-x,-y,-z
loop_
_atom_site_type_symbol
_atom_site_label
_atom_site_fract_x
_atom_site_fract_y
_atom_site_fract_z
Si Si1 0.665503 0.184706 0.005829
Si Si2 0.395449 0.532332 0.727916
Si Si3 0.276138 0.219286 0.103006
Si Si4 0.777842 0.697655 0.131485
Si Si5 0.548089 0.414549 0.553918
Si Si6 0.166373 0.784558 0.102254
Si Si7 0.265545 0.835906 0.323009
Si Si8 0.255547 0.024298 0.584529
O O1 0.408213 0.211409 0.930214
O O2 0.757278 0.180551 0.943178
O O3 0.727364 0.965752 0.940897
O O4 0.744740 0.379733 0.191635
O O5 0.499794 0.750855 0.857177
O O6 0.353157 0.447630 0.578984
O O7 0.573099 0.361525 0.718669
O O8 0.268383 0.440826 0.271988
O O9 0.090108 0.194728 0.970647
O O10 0.018666 0.766917 0.224266
O O11 0.707468 0.771853 0.239839
O O12 0.777597 0.452037 0.990123
O O13 0.500000 0.500000 0.500000
O O14 0.631064 0.175823 0.449873
O O15 0.264411 0.910319 0.274010
O O16 0.305071 0.009264 0.498236
O O17 0.000000 0.000000 0.500000
#
# Coordination Sequence:
#
# PCOD9088216 Si02
#       8
#     2   2   2   2   2   2   2   2
#     4  12  23  34  54  87 115 141 191 225 271 325
#     4   9  19  35  58  81 109 141 183 230 272 316
#     4  10  21  37  57  80 108 149 182 225 277 324
#     4  11  20  35  60  84 106 146 190 227 269 326
#     4   9  18  35  58  82 107 138 181 235 278 312
#     4  12  22  37  57  79 119 152 175 228 278 327
#     4  10  19  37  60  82 112 143 185 226 285 319
#     4   9  18  34  56  85 106 137 183 234 267 324
#
# _framework density 23.628337999999999
#
# number of rings (size 3 to 8) (size 9 to 14) (size 15 to 20)
#    0.750    1.000    2.500    3.750    0.000    0.000 
#    2.250    0.625    2.750    0.750    0.000    0.000 
#    0.000    0.000    0.000    0.000    0.000    0.000 
#
# Total GULP energy -89275.403079 kJ/mol
# GULP energy per Si atom -5579.712692 kJ/mol
# Density = 2.357456 g / cm^3
# Si number density = 23.628338 Si / 1000 Ang^3
#
#
#
# Elastic Constant Matrix: (Units=GPa)
#
#
# Indices 1 2 3 4 5 6 
#
# 1 58.3645 10.3978 20.1510 -0.7622 -22.3552 14.4429
# 2 10.3978 87.3024 31.0433 -16.0285 -10.6872 13.0179
# 3 20.1510 31.0433 84.6679 -25.7016 -22.4574 16.7884
# 4 -0.7622 -16.0285 -25.7016 36.9956 9.8142 -12.7016
# 5 -22.3552 -10.6872 -22.4574 9.8142 43.3912 -15.1578
# 6 14.4429 13.0179 16.7884 -12.7016 -15.1578 16.3403
#
#
#
# Elastic Compliance Matrix: (Units=1/GPa)
#
#
# Indices 1 2 3 4 5 6 
#
# 1 0.026194 0.000220 -0.003583 -0.011266 0.006392 -0.022474
# 2 0.000220 0.013941 -0.003588 0.001181 -0.001356 -0.007954
# 3 -0.003583 -0.003588 0.018224 0.009391 0.003983 -0.001704
# 4 -0.011266 0.001181 0.009391 0.045985 0.001793 0.036778
# 5 0.006392 -0.001356 0.003983 0.001793 0.037166 0.027208
# 6 -0.022474 -0.007954 -0.001704 0.036778 0.027208 0.142978
#
#
# Mechanical properties :
#
#
# Convention : Reuss Voigt Hill
#
# Bulk Modulus (GPa) = 22.49347 39.27990 30.88669
# Shear Modulus (GPa) = 15.96375 30.59492 23.27934
#
# Velocity S-wave (km/s) = 2.60209 3.60229 3.14224
# Velocity P-wave (km/s) = 4.30908 5.82771 5.12496
#
# Compressibility (1/GPa) = 0.04445734
#
# Stress axis : x y z
#
# Youngs Moduli (GPa) = 38.17612 71.73137 54.87272
#
# Poissons Ratio (x) = -0.01575 0.19660
# Poissons Ratio (y) = -0.00838 0.19686
# Poissons Ratio (z) = 0.13678 0.25734
#
# Static dielectric constant tensor:
#      x y z
#    x 2.046180 0.015430 -0.064820 
#    y 0.015430 1.810550 -0.036820 
#    z -0.064820 -0.036820 1.967390 
# 
# From -- ./inp_files/501026.got.cif
#   From: 2010.05.17/outbox.cif.g08.bks.cpg/sg2_251_cif.got.tgz:501026.got - 2010.06.03 11:33:40.
