data_PCOD9088089
_publ_section_title
;
Structure prediction by ZEFSAII (Michael W. Deem and Ramdas Pophale) SiO2 
 PCOD9088089
Probable space group: P -1
;
_chemical_formula_sum "Si O2"
_cell_formula_units_Z 16
_cell_length_a 13.940471
_cell_length_b 20.974956
_cell_length_c 18.295459
_cell_angle_alpha 157.665062
_cell_angle_beta 157.067536
_cell_angle_gamma 33.163328
_cell_volume 788.189940
_symmetry_space_group_name_H-M "P -1"
_symmetry_group_IT_number 2
_symmetry_cell_setting 'triclinic'
loop_
_space_group_symop_operation_xyz
x,y,z
-x,-y,-z
loop_
_atom_site_type_symbol
_atom_site_label
_atom_site_fract_x
_atom_site_fract_y
_atom_site_fract_z
Si Si1 0.124169 0.968878 0.262217
Si Si2 0.959238 0.262713 0.660457
Si Si3 0.219587 0.344006 0.331540
Si Si4 0.013397 0.912333 0.289420
Si Si5 0.761863 0.391308 0.813050
Si Si6 0.442984 0.313818 0.295760
Si Si7 0.571488 0.762294 0.322693
Si Si8 0.174261 0.504079 0.698825
O O1 0.382208 0.883455 0.352323
O O2 0.032563 0.980780 0.292829
O O3 0.197727 0.140041 0.453252
O O4 0.917225 0.840226 0.941723
O O5 0.881194 0.327601 0.753837
O O6 0.698290 0.236702 0.407738
O O7 0.072840 0.084938 0.558934
O O8 0.120615 0.415396 0.894257
O O9 0.469194 0.388531 0.598196
O O10 0.303587 0.341416 0.303732
O O11 0.016445 0.468883 0.340168
O O12 0.176825 0.754865 0.243611
O O13 0.742727 0.818883 0.018834
O O14 0.500000 0.500000 0.500000
O O15 0.684043 0.656914 0.354164
O O16 0.397894 0.652852 0.025660
O O17 0.000000 0.500000 0.500000
#
# Coordination Sequence:
#
# PCOD9088089 Si02
#       8
#     2   2   2   2   2   2   2   2
#     4   9  20  40  59  82 116 156 194 252 308 352
#     4  10  21  37  55  83 115 158 197 244 301 355
#     4   9  21  38  54  84 121 151 196 248 303 363
#     4  11  21  35  61  87 110 158 208 237 300 368
#     4  10  21  38  55  80 128 151 189 259 297 348
#     4  10  19  37  59  80 116 162 199 245 302 352
#     4   9  20  42  61  84 124 153 197 258 302 367
#     4  10  21  38  64  91 118 158 203 248 312 371
#
# _framework density 20.299676000000002
#
# number of rings (size 3 to 8) (size 9 to 14) (size 15 to 20)
#    0.000    2.250    1.250    0.750    1.750    2.000 
#    6.750    1.875    0.000    0.000    0.000    0.000 
#    0.000    0.000    0.000    0.000    0.000    0.000 
#
# Total GULP energy -89132.969658 kJ/mol
# GULP energy per Si atom -5570.810604 kJ/mol
# Density = 2.025347 g / cm^3
# Si number density = 20.299676 Si / 1000 Ang^3
#
#
#
# Elastic Constant Matrix: (Units=GPa)
#
#
# Indices 1 2 3 4 5 6 
#
# 1 31.3513 7.8136 21.1680 5.0675 15.2257 1.2624
# 2 7.8136 56.0812 35.1489 7.4825 0.8916 5.5185
# 3 21.1680 35.1489 101.7079 2.1387 17.6488 -2.4220
# 4 5.0675 7.4825 2.1387 35.0005 3.7187 1.8270
# 5 15.2257 0.8916 17.6488 3.7187 27.9933 -3.5078
# 6 1.2624 5.5185 -2.4220 1.8270 -3.5078 20.0155
#
#
#
# Elastic Compliance Matrix: (Units=1/GPa)
#
#
# Indices 1 2 3 4 5 6 
#
# 1 0.048065 -0.001743 -0.005497 -0.003441 -0.023034 -0.006939
# 2 -0.001743 0.025163 -0.009412 -0.004841 0.005910 -0.006489
# 3 -0.005497 -0.009412 0.015349 0.002353 -0.006263 0.003486
# 4 -0.003441 -0.004841 0.002353 0.030437 -0.003701 -0.001590
# 5 -0.023034 0.005910 -0.006263 -0.003701 0.053606 0.008798
# 6 -0.006939 -0.006489 0.003486 -0.001590 0.008798 0.054297
#
#
# Mechanical properties :
#
#
# Convention : Reuss Voigt Hill
#
# Bulk Modulus (GPa) = 18.09199 35.26683 26.67941
# Shear Modulus (GPa) = 17.94403 24.93586 21.43994
#
# Velocity S-wave (km/s) = 2.97637 3.50864 3.25341
# Velocity P-wave (km/s) = 4.55450 5.81591 5.22343
#
# Compressibility (1/GPa) = 0.05527307
#
# Stress axis : x y z
#
# Youngs Moduli (GPa) = 20.80536 39.74029 65.15083
#
# Poissons Ratio (x) = 0.06928 0.35813
# Poissons Ratio (y) = 0.03627 0.61317
# Poissons Ratio (z) = 0.11437 0.37402
#
# Static dielectric constant tensor:
#      x y z
#    x 1.752370 0.004290 -0.042990 
#    y 0.004290 1.749360 0.022640 
#    z -0.042990 0.022640 1.753900 
# 
# From -- ./inp_files/352872.got.cif
#   From: 2010.05.17/outbox.cif.g08.bks.cpg/sg2_177_cif.got.tgz:352872.got - 2010.06.03 11:33:40.
