data_PCOD9088072
_publ_section_title
;
Structure prediction by ZEFSAII (Michael W. Deem and Ramdas Pophale) SiO2 
 PCOD9088072
Probable space group: P -1
;
_chemical_formula_sum "Si O2"
_cell_formula_units_Z 14
_cell_length_a 15.667767
_cell_length_b 16.998823
_cell_length_c 9.609837
_cell_angle_alpha 96.156820
_cell_angle_beta 49.342454
_cell_angle_gamma 140.364657
_cell_volume 717.281764
_symmetry_space_group_name_H-M "P -1"
_symmetry_group_IT_number 2
_symmetry_cell_setting 'triclinic'
loop_
_space_group_symop_operation_xyz
x,y,z
-x,-y,-z
loop_
_atom_site_type_symbol
_atom_site_label
_atom_site_fract_x
_atom_site_fract_y
_atom_site_fract_z
Si Si1 0.871970 0.486554 0.224832
Si Si2 0.838538 0.641309 0.233419
Si Si3 0.271436 0.064542 0.921240
Si Si4 0.832821 0.453769 0.573684
Si Si5 0.303615 0.367647 0.904452
Si Si6 0.960264 0.015759 0.338712
Si Si7 0.501437 0.636738 0.940911
O O1 0.933853 0.613060 0.122989
O O2 0.509889 0.238606 0.579295
O O3 0.982481 0.557115 0.281703
O O4 0.000000 0.500000 0.000000
O O5 0.562995 0.474389 0.603525
O O6 0.742314 0.608552 0.177764
O O7 0.098588 0.870751 0.048450
O O8 0.488155 0.202696 0.852914
O O9 0.043610 0.988971 0.165127
O O10 0.000000 0.500000 0.500000
O O11 0.778982 0.503226 0.712797
O O12 0.411831 0.496867 0.935400
O O13 0.009966 0.124898 0.212009
O O14 0.225942 0.198957 0.207874
O O15 0.643954 0.791298 0.706599
#
# Coordination Sequence:
#
# PCOD9088072 Si02
#       7
#     2   2   2   2   2   2   2
#     4  10  23  42  63  81 123 169 198 248 299 353
#     4  11  22  38  58  91 123 162 198 245 306 355
#     4   9  20  39  61  84 125 152 199 250 294 362
#     4   9  21  43  64  87 116 160 207 249 294 356
#     4  11  22  33  60  93 126 154 200 246 298 378
#     4  10  19  37  58  92 119 159 190 247 320 345
#     4  10  20  36  62  86 124 155 198 252 302 357
#
# _framework density 19.518132999999999
#
# number of rings (size 3 to 8) (size 9 to 14) (size 15 to 20)
#    0.857    1.143    2.857    0.429    2.000    2.286 
#    0.000    0.714    0.000    0.000    0.000    0.000 
#    0.000    0.000    0.000    0.000    0.000    0.000 
#
# Total GULP energy -78080.081920 kJ/mol
# GULP energy per Si atom -5577.148709 kJ/mol
# Density = 1.947371 g / cm^3
# Si number density = 19.518133 Si / 1000 Ang^3
#
#
#
# Elastic Constant Matrix: (Units=GPa)
#
#
# Indices 1 2 3 4 5 6 
#
# 1 64.0146 40.9220 10.6922 14.2249 4.2435 -19.4480
# 2 40.9220 106.9222 42.1593 21.2785 -0.0349 -32.9394
# 3 10.6922 42.1593 58.0292 23.1950 16.2893 -11.5490
# 4 14.2249 21.2785 23.1950 38.6768 -7.9427 -1.6656
# 5 4.2435 -0.0349 16.2893 -7.9427 21.9540 -6.0061
# 6 -19.4480 -32.9394 -11.5490 -1.6656 -6.0061 26.4820
#
#
#
# Elastic Compliance Matrix: (Units=1/GPa)
#
#
# Indices 1 2 3 4 5 6 
#
# 1 0.029975 -0.014438 0.024290 -0.023690 -0.030716 0.006191
# 2 -0.014438 0.033641 -0.036236 0.018659 0.043740 0.026532
# 3 0.024290 -0.036236 0.088403 -0.062558 -0.096975 -0.014610
# 4 -0.023690 0.018659 -0.062558 0.078266 0.079763 0.001542
# 5 -0.030716 0.043740 -0.096975 0.079763 0.160862 0.031057
# 6 0.006191 0.026532 -0.014610 0.001542 0.031057 0.076079
#
#
# Mechanical properties :
#
#
# Convention : Reuss Voigt Hill
#
# Bulk Modulus (GPa) = 10.07553 46.27922 28.17738
# Shear Modulus (GPa) = 9.04030 26.43539 17.73784
#
# Velocity S-wave (km/s) = 2.15448 3.68421 3.01788
# Velocity P-wave (km/s) = 3.37082 6.46995 5.15862
#
# Compressibility (1/GPa) = 0.09925039
#
# Stress axis : x y z
#
# Youngs Moduli (GPa) = 33.36063 29.72550 11.31186
#
# Poissons Ratio (x) = 0.42918 -0.27477
# Poissons Ratio (y) = 0.48167 0.40990
# Poissons Ratio (z) = -0.81033 1.07715
#
# Static dielectric constant tensor:
#      x y z
#    x 1.694750 0.036560 0.034730 
#    y 0.036560 1.676110 0.013520 
#    z 0.034730 0.013520 1.718000 
# 
# From -- ./inp_files/315374.got.cif
#   From: 2010.05.17/outbox.cif.g08.bks.cpg/sg2_158_cif.got.tgz:315374.got - 2010.06.03 11:33:40.
