data_PCOD9088979
_publ_section_title
;
Structure prediction by ZEFSAII (Michael W. Deem and Ramdas Pophale) SiO2 
 PCOD9088979
Probable space group: P -1
;
_chemical_formula_sum "Si O2"
_cell_formula_units_Z 16
_cell_length_a 9.776980
_cell_length_b 12.968405
_cell_length_c 9.601358
_cell_angle_alpha 56.977972
_cell_angle_beta 124.720077
_cell_angle_gamma 87.360822
_cell_volume 718.049227
_symmetry_space_group_name_H-M "P -1"
_symmetry_group_IT_number 2
_symmetry_cell_setting 'triclinic'
loop_
_space_group_symop_operation_xyz
x,y,z
-x,-y,-z
loop_
_atom_site_type_symbol
_atom_site_label
_atom_site_fract_x
_atom_site_fract_y
_atom_site_fract_z
Si Si1 0.818135 0.673725 0.065908
Si Si2 0.939807 0.775324 0.828718
Si Si3 0.884662 0.195473 0.447388
Si Si4 0.757761 0.029291 0.308954
Si Si5 0.398591 0.587058 0.237923
Si Si6 0.921507 0.635179 0.663579
Si Si7 0.500897 0.385807 0.193088
Si Si8 0.628406 0.747352 0.185397
O O1 0.795144 0.687891 0.207772
O O2 0.002525 0.522168 0.235736
O O3 0.840344 0.791637 0.907663
O O4 0.628770 0.673480 0.900862
O O5 0.911537 0.662323 0.801676
O O6 0.833306 0.915001 0.564240
O O7 0.170373 0.707157 0.033915
O O8 0.784263 0.155275 0.295496
O O9 0.726313 0.258055 0.430368
O O10 0.928257 0.317912 0.337295
O O11 0.096296 0.051417 0.676308
O O12 0.539634 0.099164 0.080941
O O13 0.500000 0.500000 0.500000
O O14 0.414490 0.470969 0.221605
O O15 0.527317 0.652741 0.211038
O O16 0.720405 0.741613 0.391701
O O17 0.500000 0.500000 0.000000
#
# Coordination Sequence:
#
# PCOD9088979 Si02
#       8
#     2   2   2   2   2   2   2   2
#     4  12  23  39  66  98 133 162 213 270 325 379
#     4  11  25  42  63  92 133 176 207 266 320 384
#     4  10  19  37  64  90 119 170 213 261 304 382
#     4  10  21  41  66  90 128 178 225 249 313 387
#     4  12  25  42  67  99 133 165 212 269 331 386
#     4  11  22  38  66  95 130 161 214 270 330 374
#     4  12  19  39  68  96 124 171 216 257 327 386
#     4  12  24  40  66  99 127 172 215 268 313 381
#
# _framework density 22.282594
#
# number of rings (size 3 to 8) (size 9 to 14) (size 15 to 20)
#    0.000    0.750    5.000    4.500    1.750    3.500 
#    0.000    0.000    0.000    5.250    0.000    0.000 
#    0.000    0.000    0.000    0.000    0.000    0.000 
#
# Total GULP energy -89372.154046 kJ/mol
# GULP energy per Si atom -5585.759628 kJ/mol
# Density = 2.223188 g / cm^3
# Si number density = 22.282594 Si / 1000 Ang^3
#
#
#
# Elastic Constant Matrix: (Units=GPa)
#
#
# Indices 1 2 3 4 5 6 
#
# 1 83.9334 2.1970 27.6805 -3.3875 -8.5831 -3.4731
# 2 2.1970 30.8460 11.1162 -2.0315 -1.3115 0.7158
# 3 27.6805 11.1162 130.4564 -2.8720 -4.2945 -2.9541
# 4 -3.3875 -2.0315 -2.8720 29.6041 -3.4753 -1.1301
# 5 -8.5831 -1.3115 -4.2945 -3.4753 28.7669 -0.7376
# 6 -3.4731 0.7158 -2.9541 -1.1301 -0.7376 24.4347
#
#
#
# Elastic Compliance Matrix: (Units=1/GPa)
#
#
# Indices 1 2 3 4 5 6 
#
# 1 0.013319 0.000245 -0.002640 0.001805 0.003854 0.001767
# 2 0.000245 0.033660 -0.002851 0.002183 0.001416 -0.001152
# 3 -0.002640 -0.002851 0.008509 0.000406 0.000421 0.000768
# 4 0.001805 0.002183 0.000406 0.034833 0.004958 0.002002
# 5 0.003854 0.001416 0.000421 0.004958 0.036687 0.001894
# 6 0.001767 -0.001152 0.000768 0.002002 0.001894 0.041453
#
#
# Mechanical properties :
#
#
# Convention : Reuss Voigt Hill
#
# Bulk Modulus (GPa) = 22.22555 36.35812 29.29184
# Shear Modulus (GPa) = 25.77948 30.17728 27.97838
#
# Velocity S-wave (km/s) = 3.40506 3.68407 3.54731
# Velocity P-wave (km/s) = 5.04533 5.86931 5.47285
#
# Compressibility (1/GPa) = 0.04499326
#
# Stress axis : x y z
#
# Youngs Moduli (GPa) = 75.08312 29.70879 117.52552
#
# Poissons Ratio (x) = -0.00727 0.31029
# Poissons Ratio (y) = -0.01836 0.33512
# Poissons Ratio (z) = 0.19823 0.08471
#
# Static dielectric constant tensor:
#      x y z
#    x 1.857160 0.014830 0.006770 
#    y 0.014830 1.867880 -0.054960 
#    z 0.006770 -0.054960 1.860650 
# 
# From -- ./inp_files/206039.got.cif
#   From: 2010.05.17/outbox.cif.g08.bks.cpg/sg2_104_cif.got.tgz:206039.got - 2010.06.03 11:33:40.
