data_PCOD9088470
_publ_section_title
;
Structure prediction by ZEFSAII (Michael W. Deem and Ramdas Pophale) SiO2 
 PCOD9088470
Probable space group: P -1
;
_chemical_formula_sum "Si O2"
_cell_formula_units_Z 16
_cell_length_a 10.459139
_cell_length_b 12.703305
_cell_length_c 12.836277
_cell_angle_alpha 134.752784
_cell_angle_beta 43.434894
_cell_angle_gamma 146.139526
_cell_volume 630.189218
_symmetry_space_group_name_H-M "P -1"
_symmetry_group_IT_number 2
_symmetry_cell_setting 'triclinic'
loop_
_space_group_symop_operation_xyz
x,y,z
-x,-y,-z
loop_
_atom_site_type_symbol
_atom_site_label
_atom_site_fract_x
_atom_site_fract_y
_atom_site_fract_z
Si Si1 0.587497 0.307299 0.895055
Si Si2 0.842153 0.270109 0.434087
Si Si3 0.916137 0.888951 0.832290
Si Si4 0.903657 0.223572 0.600323
Si Si5 0.451752 0.270275 0.718975
Si Si6 0.779578 0.601881 0.163134
Si Si7 0.851097 0.947489 0.682234
Si Si8 0.630855 0.411772 0.334338
O O1 0.675943 0.183675 0.762014
O O2 0.595673 0.360232 0.805568
O O3 0.308139 0.176545 0.008856
O O4 0.769660 0.499048 0.992990
O O5 0.854879 0.203376 0.493433
O O6 0.568123 0.192091 0.533472
O O7 0.000000 0.500000 0.500000
O O8 0.976653 0.209024 0.250883
O O9 0.797871 0.843118 0.754352
O O10 0.171432 0.108789 0.812078
O O11 0.982387 0.098637 0.498825
O O12 0.130596 0.456810 0.644085
O O13 0.443442 0.400067 0.733073
O O14 0.731828 0.474358 0.201043
O O15 0.005242 0.826160 0.220223
O O16 0.587341 0.819903 0.693797
O O17 0.500000 0.500000 0.500000
#
# Coordination Sequence:
#
# PCOD9088470 Si02
#       8
#     2   2   2   2   2   2   2   2
#     4  11  21  39  62  90 129 168 200 250 323 368
#     4  10  20  35  62  90 121 161 206 254 306 365
#     4  10  19  37  61  88 125 167 203 251 313 369
#     4   9  22  39  61  92 124 163 205 258 308 366
#     4  10  22  36  60  92 127 158 208 253 308 374
#     4  11  22  38  67  92 120 168 204 257 309 366
#     4   9  20  41  65  90 121 162 216 255 305 365
#     4  10  21  40  68  87 125 160 214 259 307 361
#
# _framework density 25.389199999999999
#
# number of rings (size 3 to 8) (size 9 to 14) (size 15 to 20)
#    0.000    2.000    1.250    1.875    3.500    4.500 
#    0.000    0.625   19.250    0.000    0.000    0.000 
#    0.000    0.000    0.000    0.000    0.000    0.000 
#
# Total GULP energy -89278.836372 kJ/mol
# GULP energy per Si atom -5579.927273 kJ/mol
# Density = 2.533141 g / cm^3
# Si number density = 25.389200 Si / 1000 Ang^3
#
#
#
# Elastic Constant Matrix: (Units=GPa)
#
#
# Indices 1 2 3 4 5 6 
#
# 1 35.7013 15.3526 1.9189 3.1254 -6.8698 2.5962
# 2 15.3526 151.8697 39.1731 5.3235 1.6069 6.4105
# 3 1.9189 39.1731 98.7566 -15.0541 -18.3923 12.6118
# 4 3.1254 5.3235 -15.0541 39.0436 13.7172 -1.5295
# 5 -6.8698 1.6069 -18.3923 13.7172 34.8114 7.2363
# 6 2.5962 6.4105 12.6118 -1.5295 7.2363 27.8822
#
#
#
# Elastic Compliance Matrix: (Units=1/GPa)
#
#
# Indices 1 2 3 4 5 6 
#
# 1 0.032708 -0.003760 0.003137 -0.005325 0.011831 -0.006963
# 2 -0.003760 0.008022 -0.003972 -0.001259 -0.002920 0.000991
# 3 0.003137 -0.003972 0.014837 0.002357 0.009462 -0.008416
# 4 -0.005325 -0.001259 0.002357 0.032019 -0.013394 0.004952
# 5 0.011831 -0.002920 0.009462 -0.013394 0.045034 -0.017132
# 6 -0.006963 0.000991 -0.008416 0.004952 -0.017132 0.044811
#
#
# Mechanical properties :
#
#
# Convention : Reuss Voigt Hill
#
# Bulk Modulus (GPa) = 21.56248 44.35743 32.95995
# Shear Modulus (GPa) = 24.74285 35.67297 30.20791
#
# Velocity S-wave (km/s) = 3.12515 3.75246 3.45308
# Velocity P-wave (km/s) = 4.64040 6.02358 5.37665
#
# Compressibility (1/GPa) = 0.04637686
#
# Stress axis : x y z
#
# Youngs Moduli (GPa) = 30.57378 124.65211 67.40114
#
# Poissons Ratio (x) = 0.46871 -0.21142
# Poissons Ratio (y) = 0.11496 0.26768
# Poissons Ratio (z) = -0.09590 0.49506
#
# Static dielectric constant tensor:
#      x y z
#    x 2.034580 0.038600 -0.000010 
#    y 0.038600 2.073360 0.011010 
#    z -0.000010 0.011010 2.141250 
# 
# From -- ./inp_files/521752.got.cif
#   From: 2010.05.17/outbox.cif.g08.bks.cpg/sg2_261_cif.got.tgz:521752.got - 2010.06.03 11:33:40.
