data_PCOD9088075
_publ_section_title
;
Structure prediction by ZEFSAII (Michael W. Deem and Ramdas Pophale) SiO2 
 PCOD9088075
Probable space group: P -1
;
_chemical_formula_sum "Si O2"
_cell_formula_units_Z 16
_cell_length_a 11.256643
_cell_length_b 9.347998
_cell_length_c 10.934828
_cell_angle_alpha 57.645902
_cell_angle_beta 66.379476
_cell_angle_gamma 63.788505
_cell_volume 851.318381
_symmetry_space_group_name_H-M "P -1"
_symmetry_group_IT_number 2
_symmetry_cell_setting 'triclinic'
loop_
_space_group_symop_operation_xyz
x,y,z
-x,-y,-z
loop_
_atom_site_type_symbol
_atom_site_label
_atom_site_fract_x
_atom_site_fract_y
_atom_site_fract_z
Si Si1 0.411181 0.541480 0.395575
Si Si2 0.936016 0.444713 0.757614
Si Si3 0.464665 0.599540 0.839285
Si Si4 0.308718 0.293569 0.406832
Si Si5 0.853100 0.218926 0.094807
Si Si6 0.849996 0.140877 0.595909
Si Si7 0.901284 0.840556 0.342615
Si Si8 0.001712 0.757209 0.731345
O O1 0.500000 0.500000 0.500000
O O2 0.492530 0.528188 0.239359
O O3 0.344930 0.381411 0.475129
O O4 0.293290 0.726348 0.368936
O O5 0.807597 0.554814 0.682613
O O6 0.056859 0.341350 0.666816
O O7 0.975232 0.584804 0.764570
O O8 0.893287 0.296660 0.919043
O O9 0.556497 0.733686 0.718146
O O10 0.305883 0.694073 0.857126
O O11 0.500000 0.500000 0.000000
O O12 0.237166 0.144366 0.533956
O O13 0.941309 0.268219 0.144450
O O14 0.883454 0.008520 0.186813
O O15 0.886585 0.188593 0.422682
O O16 0.972259 0.170630 0.614748
O O17 0.870813 0.931157 0.695943
#
# Coordination Sequence:
#
# PCOD9088075 Si02
#       8
#     2   2   2   2   2   2   2   2
#     4  10  20  36  61  87 123 165 205 245 300 369
#     4  12  20  39  61  90 122 156 195 252 314 367
#     4  10  21  39  59  86 122 167 201 244 308 366
#     4  10  21  36  63  85 115 161 203 246 296 368
#     4  11  23  38  58  89 123 158 197 250 307 363
#     4  10  19  37  58  93 117 155 199 253 301 353
#     4  11  21  37  62  92 115 150 208 260 294 354
#     4  10  22  34  61  89 125 151 196 252 311 357
#
# _framework density 18.794377000000001
#
# number of rings (size 3 to 8) (size 9 to 14) (size 15 to 20)
#    0.750    0.750    3.750    2.625    0.000    0.500 
#    0.000    0.000    0.000    0.750    0.000    0.000 
#    0.000    0.000    0.000    0.000    0.000    0.000 
#
# Total GULP energy -89199.063373 kJ/mol
# GULP energy per Si atom -5574.941461 kJ/mol
# Density = 1.875160 g / cm^3
# Si number density = 18.794377 Si / 1000 Ang^3
#
#
#
# Elastic Constant Matrix: (Units=GPa)
#
#
# Indices 1 2 3 4 5 6 
#
# 1 75.6974 21.0251 25.3118 0.4224 5.0585 -0.0861
# 2 21.0251 74.5167 8.9662 4.8177 1.6096 -6.6322
# 3 25.3118 8.9662 93.0376 0.9272 -2.4328 0.6841
# 4 0.4224 4.8177 0.9272 23.3958 -1.7771 -8.3806
# 5 5.0585 1.6096 -2.4328 -1.7771 26.2415 2.3924
# 6 -0.0861 -6.6322 0.6841 -8.3806 2.3924 28.9505
#
#
#
# Elastic Compliance Matrix: (Units=1/GPa)
#
#
# Indices 1 2 3 4 5 6 
#
# 1 0.015866 -0.003983 -0.004014 0.000303 -0.003127 -0.000424
# 2 -0.003983 0.014990 -0.000377 -0.002006 -0.000587 0.002899
# 3 -0.004014 -0.000377 0.011936 -0.000412 0.001936 -0.000660
# 4 0.000303 -0.002006 -0.000412 0.048088 0.002070 0.013301
# 5 -0.003127 -0.000587 0.001936 0.002070 0.039325 -0.002840
# 6 -0.000424 0.002899 -0.000660 0.013301 -0.002840 0.039305
#
#
# Mechanical properties :
#
#
# Convention : Reuss Voigt Hill
#
# Bulk Modulus (GPa) = 38.40025 39.31756 38.85890
# Shear Modulus (GPa) = 25.64875 28.24746 26.94811
#
# Velocity S-wave (km/s) = 3.69820 3.88103 3.79071
# Velocity P-wave (km/s) = 6.22187 6.40690 6.31507
#
# Compressibility (1/GPa) = 0.02604150
#
# Stress axis : x y z
#
# Youngs Moduli (GPa) = 63.02787 66.71326 83.77720
#
# Poissons Ratio (x) = 0.26575 0.33631
# Poissons Ratio (y) = 0.25107 0.03163
# Poissons Ratio (z) = 0.25301 0.02518
#
# Static dielectric constant tensor:
#      x y z
#    x 1.650110 0.020970 -0.016280 
#    y 0.020970 1.667170 0.005620 
#    z -0.016280 0.005620 1.658400 
# 
# From -- ./inp_files/418892.got.cif
#   From: 2010.05.17/outbox.cif.g08.bks.cpg/sg2_210_cif.got.tgz:418892.got - 2010.06.03 11:33:40.
