data_PCOD9088392
_publ_section_title
;
Structure prediction by ZEFSAII (Michael W. Deem and Ramdas Pophale) SiO2 
 PCOD9088392
Probable space group: P -1
;
_chemical_formula_sum "Si O2"
_cell_formula_units_Z 12
_cell_length_a 17.179911
_cell_length_b 9.401217
_cell_length_c 5.101188
_cell_angle_alpha 110.732180
_cell_angle_beta 125.957546
_cell_angle_gamma 45.261009
_cell_volume 471.193502
_symmetry_space_group_name_H-M "P -1"
_symmetry_group_IT_number 2
_symmetry_cell_setting 'triclinic'
loop_
_space_group_symop_operation_xyz
x,y,z
-x,-y,-z
loop_
_atom_site_type_symbol
_atom_site_label
_atom_site_fract_x
_atom_site_fract_y
_atom_site_fract_z
Si Si1 0.451124 0.882081 0.876912
Si Si2 0.612863 0.206495 0.812694
Si Si3 0.648352 0.478765 0.265232
Si Si4 0.997414 0.893362 0.677587
Si Si5 0.858495 0.469100 0.605999
Si Si6 0.919597 0.696398 0.656012
O O1 0.370356 0.882105 0.493670
O O2 0.382998 0.931756 0.054502
O O3 0.577482 0.648223 0.010578
O O4 0.500000 0.000000 0.000000
O O5 0.466046 0.421273 0.687339
O O6 0.691346 0.271735 0.103687
O O7 0.757604 0.477278 0.575571
O O8 0.115055 0.661364 0.682555
O O9 0.893516 0.872011 0.543754
O O10 0.000000 0.000000 0.500000
O O11 0.000000 0.000000 0.000000
O O12 0.821853 0.677231 0.580019
O O13 0.988201 0.346845 0.951486
O O14 0.000000 0.500000 0.500000
#
# Coordination Sequence:
#
# PCOD9088392 Si02
#       6
#     2   2   2   2   2   2
#     4  10  19  37  61  83 119 158 189 239 302 335
#     4   9  20  37  59  84 120 155 193 242 287 349
#     4   9  21  35  62  87 116 157 205 234 291 350
#     4  11  21  39  62  84 117 155 191 250 309 344
#     4  10  20  40  61  89 117 164 203 247 289 369
#     4   9  20  37  62  83 118 156 201 244 303 348
#
# _framework density 25.467243
#
# number of rings (size 3 to 8) (size 9 to 14) (size 15 to 20)
#    1.000    1.333    1.667    1.000    0.000    2.667 
#    0.000    3.333    0.000    0.000    0.000    0.000 
#    0.000    0.000    0.000    0.000    0.000    0.000 
#
# Total GULP energy -66912.956978 kJ/mol
# GULP energy per Si atom -5576.079748 kJ/mol
# Density = 2.540928 g / cm^3
# Si number density = 25.467243 Si / 1000 Ang^3
#
#
#
# Elastic Constant Matrix: (Units=GPa)
#
#
# Indices 1 2 3 4 5 6 
#
# 1 83.0460 36.0399 50.5296 2.6647 15.7217 31.2769
# 2 36.0399 140.6378 38.2400 20.0486 6.3600 46.1789
# 3 50.5296 38.2400 96.9563 18.3476 -17.6976 12.8908
# 4 2.6647 20.0486 18.3476 26.9871 12.1597 5.2220
# 5 15.7217 6.3600 -17.6976 12.1597 57.1676 11.9871
# 6 31.2769 46.1789 12.8908 5.2220 11.9871 58.7680
#
#
#
# Elastic Compliance Matrix: (Units=1/GPa)
#
#
# Indices 1 2 3 4 5 6 
#
# 1 0.034275 -0.001665 -0.024400 0.025407 -0.020159 -0.009726
# 2 -0.001665 0.011118 -0.000835 -0.006992 0.002013 -0.007456
# 3 -0.024400 -0.000835 0.032480 -0.029981 0.022262 0.004641
# 4 0.025407 -0.006992 -0.029981 0.074407 -0.030950 -0.001750
# 5 -0.020159 0.002013 0.022262 -0.030950 0.036372 -0.000405
# 6 -0.009726 -0.007456 0.004641 -0.001750 -0.000405 0.027272
#
#
# Mechanical properties :
#
#
# Convention : Reuss Voigt Hill
#
# Bulk Modulus (GPa) = 41.54372 63.36212 52.45292
# Shear Modulus (GPa) = 18.00186 41.63994 29.82090
#
# Velocity S-wave (km/s) = 2.66157 4.04795 3.42563
# Velocity P-wave (km/s) = 5.07871 6.83972 6.02391
#
# Compressibility (1/GPa) = 0.02407102
#
# Stress axis : x y z
#
# Youngs Moduli (GPa) = 29.17579 89.94142 30.78853
#
# Poissons Ratio (x) = 0.14978 0.75125
# Poissons Ratio (y) = 0.04859 0.02572
# Poissons Ratio (z) = 0.71190 0.07514
#
# Static dielectric constant tensor:
#      x y z
#    x 2.164240 -0.030880 0.068040 
#    y -0.030880 2.069750 -0.077790 
#    z 0.068040 -0.077790 2.021800 
# 
# From -- ./inp_files/40680.got.cif
#   From: 2010.05.17/outbox.cif.g08.bks.cpg/sg2_21_cif.got.tgz:40680.got - 2010.06.03 11:33:40.
