data_PCOD9088390
_publ_section_title
;
Structure prediction by ZEFSAII (Michael W. Deem and Ramdas Pophale) SiO2 
 PCOD9088390
Probable space group: P -1
;
_chemical_formula_sum "Si O2"
_cell_formula_units_Z 16
_cell_length_a 11.530541
_cell_length_b 12.023753
_cell_length_c 23.370271
_cell_angle_alpha 160.540705
_cell_angle_beta 43.170353
_cell_angle_gamma 134.639551
_cell_volume 736.885691
_symmetry_space_group_name_H-M "P -1"
_symmetry_group_IT_number 2
_symmetry_cell_setting 'triclinic'
loop_
_space_group_symop_operation_xyz
x,y,z
-x,-y,-z
loop_
_atom_site_type_symbol
_atom_site_label
_atom_site_fract_x
_atom_site_fract_y
_atom_site_fract_z
Si Si1 0.378583 0.172807 0.875546
Si Si2 0.772406 0.308001 0.219785
Si Si3 0.923119 0.465468 0.856453
Si Si4 0.865448 0.446101 0.071829
Si Si5 0.665224 0.784276 0.831863
Si Si6 0.525385 0.792273 0.332225
Si Si7 0.299389 0.207059 0.416841
Si Si8 0.424816 0.525877 0.407879
O O1 0.288766 0.053137 0.909009
O O2 0.513329 0.896205 0.680214
O O3 0.500000 0.500000 0.000000
O O4 0.220235 0.286803 0.950907
O O5 0.772425 0.547760 0.391816
O O6 0.617819 0.411711 0.285575
O O7 0.951183 0.353848 0.147024
O O8 0.048934 0.374566 0.817397
O O9 0.821860 0.130307 0.707968
O O10 0.694419 0.600192 0.187302
O O11 0.000000 0.500000 0.000000
O O12 0.821853 0.055487 0.913421
O O13 0.631600 0.488994 0.747442
O O14 0.662010 0.620597 0.690197
O O15 0.500000 0.000000 0.000000
O O16 0.500000 0.000000 0.500000
O O17 0.554051 0.071137 0.408615
O O18 0.327659 0.370673 0.423081
#
# Coordination Sequence:
#
# PCOD9088390 Si02
#       8
#     2   2   2   2   2   2   2   2
#     4   9  20  38  60  84 113 150 192 232 283 342
#     4  11  21  38  61  87 113 148 193 237 282 336
#     4  11  22  40  58  83 119 151 183 243 289 321
#     4  11  23  38  58  87 117 149 190 235 284 335
#     4   9  18  36  58  84 113 149 191 228 275 343
#     4   9  19  38  60  83 113 152 192 228 276 344
#     4  10  22  39  60  85 113 152 194 230 283 346
#     4  10  19  37  61  83 115 153 187 235 281 333
#
# _framework density 21.713000999999998
#
# number of rings (size 3 to 8) (size 9 to 14) (size 15 to 20)
#    0.000    2.000    0.000    5.250    0.000    2.000 
#    0.000   25.625    0.000    0.000    0.000    0.000 
#    0.000    0.000    0.000    0.000    0.000    0.000 
#
# Total GULP energy -89285.486439 kJ/mol
# GULP energy per Si atom -5580.342902 kJ/mol
# Density = 2.166358 g / cm^3
# Si number density = 21.713001 Si / 1000 Ang^3
#
#
#
# Elastic Constant Matrix: (Units=GPa)
#
#
# Indices 1 2 3 4 5 6 
#
# 1 58.3495 21.8156 0.0330 4.2802 -1.3232 7.3475
# 2 21.8156 149.2541 38.6650 11.5515 0.6853 16.4981
# 3 0.0330 38.6650 51.9214 11.0226 -2.5739 -0.2299
# 4 4.2802 11.5515 11.0226 42.2797 -3.3600 3.9363
# 5 -1.3232 0.6853 -2.5739 -3.3600 30.0229 4.2179
# 6 7.3475 16.4981 -0.2299 3.9363 4.2179 32.4684
#
#
#
# Elastic Compliance Matrix: (Units=1/GPa)
#
#
# Indices 1 2 3 4 5 6 
#
# 1 0.018732 -0.003006 0.002576 -0.001389 0.001339 -0.002699
# 2 -0.003006 0.009423 -0.007034 -0.000085 -0.000385 -0.004097
# 3 0.002576 -0.007034 0.025699 -0.005268 0.001377 0.003633
# 4 -0.001389 -0.000085 -0.005268 0.025707 0.002810 -0.003161
# 5 0.001339 -0.000385 0.001377 0.002810 0.034499 -0.004920
# 6 -0.002699 -0.004097 0.003633 -0.003161 -0.004920 0.034540
#
#
# Mechanical properties :
#
#
# Convention : Reuss Voigt Hill
#
# Bulk Modulus (GPa) = 25.68967 42.28357 33.98662
# Shear Modulus (GPa) = 28.32788 34.22162 31.27475
#
# Velocity S-wave (km/s) = 3.61591 3.97431 3.79934
# Velocity P-wave (km/s) = 5.41205 6.36995 5.91044
#
# Compressibility (1/GPa) = 0.03892615
#
# Stress axis : x y z
#
# Youngs Moduli (GPa) = 53.38318 106.12556 38.91191
#
# Poissons Ratio (x) = 0.31896 -0.10022
# Poissons Ratio (y) = 0.16044 0.27371
# Poissons Ratio (z) = -0.13749 0.74650
#
# Static dielectric constant tensor:
#      x y z
#    x 1.788800 -0.035270 -0.014830 
#    y -0.035270 1.806950 0.028930 
#    z -0.014830 0.028930 1.840700 
# 
# From -- ./inp_files/597178.got.cif
#   From: 2010.05.17/outbox.cif.g08.bks.cpg/sg2_299_cif.got.tgz:597178.got - 2010.06.03 11:33:40.
