data_PCOD9088703
_publ_section_title
;
Structure prediction by ZEFSAII (Michael W. Deem and Ramdas Pophale) SiO2 
 PCOD9088703
Probable space group: P -1
;
_chemical_formula_sum "Si O2"
_cell_formula_units_Z 14
_cell_length_a 9.327929
_cell_length_b 8.235195
_cell_length_c 18.419345
_cell_angle_alpha 116.387202
_cell_angle_beta 149.234140
_cell_angle_gamma 77.307218
_cell_volume 606.410649
_symmetry_space_group_name_H-M "P -1"
_symmetry_group_IT_number 2
_symmetry_cell_setting 'triclinic'
loop_
_space_group_symop_operation_xyz
x,y,z
-x,-y,-z
loop_
_atom_site_type_symbol
_atom_site_label
_atom_site_fract_x
_atom_site_fract_y
_atom_site_fract_z
Si Si1 0.136058 0.888961 0.982216
Si Si2 0.880685 0.439731 0.824953
Si Si3 0.999760 0.786822 0.443781
Si Si4 0.776842 0.423182 0.614787
Si Si5 0.758662 0.185365 0.293370
Si Si6 0.433131 0.474777 0.158743
Si Si7 0.156781 0.846214 0.826609
O O1 0.495356 0.984569 0.158360
O O2 0.023360 0.668536 0.914107
O O3 0.035120 0.909167 0.859571
O O4 0.000000 0.000000 0.000000
O O5 0.777860 0.352210 0.683737
O O6 0.642949 0.430498 0.782388
O O7 0.136142 0.380851 0.963300
O O8 0.669460 0.647249 0.251695
O O9 0.219565 0.742075 0.473044
O O10 0.071766 0.724040 0.542246
O O11 0.000000 0.000000 0.500000
O O12 0.500000 0.500000 0.500000
O O13 0.070724 0.616872 0.763407
O O14 0.580286 0.319012 0.213064
O O15 0.954707 0.158741 0.305670
O O16 0.500000 0.000000 0.000000
#
# Coordination Sequence:
#
# PCOD9088703 Si02
#       7
#     2   2   2   2   2   2   2
#     4  10  19  37  62  94 130 165 216 272 338 398
#     4  10  23  41  64  99 133 172 224 287 335 403
#     4  12  27  45  66  99 141 181 225 283 347 406
#     4  11  24  44  72 102 136 182 229 282 343 408
#     4  11  21  41  67  94 129 176 224 276 333 412
#     4  11  22  42  66  94 133 179 228 275 340 402
#     4   9  21  39  63  99 126 170 228 274 328 400
#
# _framework density 23.086665
#
# number of rings (size 3 to 8) (size 9 to 14) (size 15 to 20)
#    0.000    1.429    2.857    2.143    4.000    0.571 
#    7.714    0.714    0.000    0.000    0.000    0.000 
#    0.000    0.000    0.000    0.000    0.000    0.000 
#
# Total GULP energy -78126.800660 kJ/mol
# GULP energy per Si atom -5580.485761 kJ/mol
# Density = 2.303412 g / cm^3
# Si number density = 23.086665 Si / 1000 Ang^3
#
#
#
# Elastic Constant Matrix: (Units=GPa)
#
#
# Indices 1 2 3 4 5 6 
#
# 1 169.7194 29.4787 44.1801 -16.6662 -37.6875 -25.9909
# 2 29.4787 105.5035 21.6803 -5.9080 -0.2228 -17.8565
# 3 44.1801 21.6803 59.7937 -13.4682 -17.8043 -16.5313
# 4 -16.6662 -5.9080 -13.4682 32.3764 9.3668 -5.5270
# 5 -37.6875 -0.2228 -17.8043 9.3668 51.7416 11.4235
# 6 -25.9909 -17.8565 -16.5313 -5.5270 11.4235 25.9565
#
#
#
# Elastic Compliance Matrix: (Units=1/GPa)
#
#
# Indices 1 2 3 4 5 6 
#
# 1 0.008702 -0.000740 -0.002918 0.003014 0.003592 0.005407
# 2 -0.000740 0.011660 -0.001543 0.003617 -0.003583 0.008645
# 3 -0.002918 -0.001543 0.026497 0.011208 0.001754 0.014507
# 4 0.003014 0.003617 0.011208 0.044283 -0.007556 0.025400
# 5 0.003592 -0.003583 0.001754 -0.007556 0.026315 -0.010942
# 6 0.005407 0.008645 0.014507 0.025400 -0.010942 0.069351
#
#
# Mechanical properties :
#
#
# Convention : Reuss Voigt Hill
#
# Bulk Modulus (GPa) = 27.42950 58.41052 42.92001
# Shear Modulus (GPa) = 23.88203 37.99341 30.93772
#
# Velocity S-wave (km/s) = 3.21978 4.06111 3.66467
# Velocity P-wave (km/s) = 5.07243 6.88081 6.04463
#
# Compressibility (1/GPa) = 0.03645710
#
# Stress axis : x y z
#
# Youngs Moduli (GPa) = 114.91913 85.76005 37.73985
#
# Poissons Ratio (x) = 0.06348 0.11012
# Poissons Ratio (y) = 0.08507 0.05824
# Poissons Ratio (z) = 0.33531 0.13234
#
# Static dielectric constant tensor:
#      x y z
#    x 1.913960 -0.010390 0.002420 
#    y -0.010390 1.878090 0.005630 
#    z 0.002420 0.005630 1.966970 
# 
# From -- ./inp_files/557536.got.cif
#   From: 2010.05.17/outbox.cif.g08.bks.cpg/sg2_279_cif.got.tgz:557536.got - 2010.06.03 11:33:40.
