data_PCOD9088777
_publ_section_title
;
Structure prediction by ZEFSAII (Michael W. Deem and Ramdas Pophale) SiO2 
 PCOD9088777
Probable space group: P -1
;
_chemical_formula_sum "Si O2"
_cell_formula_units_Z 16
_cell_length_a 16.125119
_cell_length_b 9.368037
_cell_length_c 6.904592
_cell_angle_alpha 69.496827
_cell_angle_beta 102.057842
_cell_angle_gamma 134.049659
_cell_volume 701.234238
_symmetry_space_group_name_H-M "P -1"
_symmetry_group_IT_number 2
_symmetry_cell_setting 'triclinic'
loop_
_space_group_symop_operation_xyz
x,y,z
-x,-y,-z
loop_
_atom_site_type_symbol
_atom_site_label
_atom_site_fract_x
_atom_site_fract_y
_atom_site_fract_z
Si Si1 0.338747 0.843731 0.968168
Si Si2 0.475784 0.795390 0.304799
Si Si3 0.229713 0.220797 0.805719
Si Si4 0.980411 0.848662 0.400752
Si Si5 0.206366 0.990482 0.251053
Si Si6 0.369038 0.363137 0.422690
Si Si7 0.636415 0.333046 0.313345
Si Si8 0.818723 0.388364 0.657777
O O1 0.347306 0.746159 0.831563
O O2 0.399102 0.068151 0.800539
O O3 0.425006 0.893139 0.157003
O O4 0.219409 0.685765 0.101499
O O5 0.384924 0.561540 0.288172
O O6 0.475395 0.796414 0.537697
O O7 0.115384 0.186635 0.764829
O O8 0.273480 0.239896 0.602880
O O9 0.330062 0.454039 0.823823
O O10 0.215652 0.053941 0.003386
O O11 0.930680 0.631350 0.572986
O O12 0.000000 0.000000 0.500000
O O13 0.097960 0.950055 0.303307
O O14 0.321221 0.193433 0.316792
O O15 0.182502 0.781889 0.353188
O O16 0.500000 0.500000 0.500000
O O17 0.727103 0.374951 0.493863
#
# Coordination Sequence:
#
# PCOD9088777 Si02
#       8
#     2   2   2   2   2   2   2   2
#     4  10  19  37  63  86 133 168 222 271 323 391
#     4   9  20  36  57  93 121 176 230 264 307 398
#     4  10  23  43  69 103 123 180 234 267 335 406
#     4  11  23  48  77  92 133 177 228 286 336 397
#     4  12  25  44  70  99 141 173 223 287 337 389
#     4  11  25  42  64  96 146 178 220 266 337 402
#     4   9  19  37  63  88 131 171 219 268 327 386
#     4  10  25  40  63 104 131 166 219 280 346 396
#
# _framework density 22.816914000000001
#
# number of rings (size 3 to 8) (size 9 to 14) (size 15 to 20)
#    0.000    1.750    1.250    2.625    5.250    0.500 
#    4.500    0.625    0.000    0.000    0.000    0.000 
#    0.000    0.000    0.000    0.000    0.000    0.000 
#
# Total GULP energy -89183.587519 kJ/mol
# GULP energy per Si atom -5573.974220 kJ/mol
# Density = 2.276498 g / cm^3
# Si number density = 22.816914 Si / 1000 Ang^3
#
#
#
# Elastic Constant Matrix: (Units=GPa)
#
#
# Indices 1 2 3 4 5 6 
#
# 1 60.0916 1.5915 9.4200 -7.7383 2.5632 3.0246
# 2 1.5915 109.5428 34.2243 -8.8790 3.4890 -15.3414
# 3 9.4200 34.2243 85.2867 -7.5602 -14.2947 7.7302
# 4 -7.7383 -8.8790 -7.5602 33.1144 -9.0651 -3.3542
# 5 2.5632 3.4890 -14.2947 -9.0651 22.9299 -6.2222
# 6 3.0246 -15.3414 7.7302 -3.3542 -6.2222 35.3654
#
#
#
# Elastic Compliance Matrix: (Units=1/GPa)
#
#
# Indices 1 2 3 4 5 6 
#
# 1 0.017516 0.000657 -0.002283 0.002961 -0.002550 -0.000882
# 2 0.000657 0.012032 -0.005824 0.001790 -0.003187 0.006046
# 3 -0.002283 -0.005824 0.017242 0.005058 0.012984 -0.003336
# 4 0.002961 0.001790 0.005058 0.038537 0.019552 0.006513
# 5 -0.002550 -0.003187 0.012984 0.019552 0.062612 0.008868
# 6 -0.000882 0.006046 -0.003336 0.006513 0.008868 0.033881
#
#
# Mechanical properties :
#
#
# Convention : Reuss Voigt Hill
#
# Bulk Modulus (GPa) = 31.35980 38.37695 34.86838
# Shear Modulus (GPa) = 24.11366 32.26098 28.18732
#
# Velocity S-wave (km/s) = 3.25442 3.76427 3.51860
# Velocity P-wave (km/s) = 5.28163 5.97905 5.64113
#
# Compressibility (1/GPa) = 0.03188795
#
# Stress axis : x y z
#
# Youngs Moduli (GPa) = 57.08993 83.10989 57.99955
#
# Poissons Ratio (x) = -0.05456 0.13242
# Poissons Ratio (y) = -0.03748 0.33781
# Poissons Ratio (z) = 0.13035 0.48406
#
# Static dielectric constant tensor:
#      x y z
#    x 1.959110 -0.011150 -0.021260 
#    y -0.011150 1.985250 -0.044920 
#    z -0.021260 -0.044920 1.876630 
# 
# From -- ./inp_files/106719.got.cif
#   From: 2010.05.17/outbox.cif.g08.bks.cpg/sg2_54_cif.got.tgz:106719.got - 2010.06.03 11:33:40.
