data_PCOD9088026
_publ_section_title
;
Structure prediction by ZEFSAII (Michael W. Deem and Ramdas Pophale) SiO2 
 PCOD9088026
Probable space group: P -1
;
_chemical_formula_sum "Si O2"
_cell_formula_units_Z 12
_cell_length_a 7.793931
_cell_length_b 16.904967
_cell_length_c 8.913302
_cell_angle_alpha 128.533070
_cell_angle_beta 48.250606
_cell_angle_gamma 143.622093
_cell_volume 509.551627
_symmetry_space_group_name_H-M "P -1"
_symmetry_group_IT_number 2
_symmetry_cell_setting 'triclinic'
loop_
_space_group_symop_operation_xyz
x,y,z
-x,-y,-z
loop_
_atom_site_type_symbol
_atom_site_label
_atom_site_fract_x
_atom_site_fract_y
_atom_site_fract_z
Si Si1 0.511099 0.353493 0.061279
Si Si2 0.268404 0.560102 0.630968
Si Si3 0.807633 0.132597 0.314228
Si Si4 0.663103 0.298031 0.517256
Si Si5 0.344521 0.830577 0.239186
Si Si6 0.272277 0.371257 0.788928
O O1 0.695475 0.415046 0.185632
O O2 0.622949 0.484807 0.058280
O O3 0.145886 0.248367 0.185398
O O4 0.579614 0.260117 0.856774
O O5 0.261065 0.659856 0.653114
O O6 0.567988 0.591620 0.425898
O O7 0.974119 0.413502 0.565853
O O8 0.587160 0.159242 0.418892
O O9 0.805193 0.147845 0.513371
O O10 0.652225 0.980061 0.188825
O O11 0.415312 0.313497 0.714770
O O12 0.090318 0.746515 0.158719
#
# Coordination Sequence:
#
# PCOD9088026 Si02
#       6
#     2   2   2   2   2   2
#     4  12  20  38  62  82 113 146 190 230 273 333
#     4   9  17  33  61  85 103 147 186 223 281 321
#     4  11  21  42  56  78 121 147 185 227 281 334
#     4   9  18  34  63  80 108 158 174 225 293 321
#     4  11  25  35  58  88 108 151 189 229 274 330
#     4  10  19  37  58  86 110 142 190 228 277 324
#
# _framework density 23.550115999999999
#
# number of rings (size 3 to 8) (size 9 to 14) (size 15 to 20)
#    1.000    0.667    3.333    2.500    0.000    0.667 
#    0.000    5.833    0.000    0.000    0.000    0.000 
#    0.000    0.000    0.000    0.000    0.000    0.000 
#
# Total GULP energy -67013.320591 kJ/mol
# GULP energy per Si atom -5584.443383 kJ/mol
# Density = 2.349651 g / cm^3
# Si number density = 23.550116 Si / 1000 Ang^3
#
#
#
# Elastic Constant Matrix: (Units=GPa)
#
#
# Indices 1 2 3 4 5 6 
#
# 1 93.0844 56.0775 23.0135 14.6884 -21.0022 -2.9701
# 2 56.0775 122.2061 25.5225 23.7244 -24.4735 9.0994
# 3 23.0135 25.5225 72.0251 14.0395 -9.9501 12.1400
# 4 14.6884 23.7244 14.0395 26.3878 -7.2116 -11.4815
# 5 -21.0022 -24.4735 -9.9501 -7.2116 31.1412 -6.1461
# 6 -2.9701 9.0994 12.1400 -11.4815 -6.1461 29.3820
#
#
#
# Elastic Compliance Matrix: (Units=1/GPa)
#
#
# Indices 1 2 3 4 5 6 
#
# 1 0.017494 -0.007343 -0.004708 0.005812 0.007822 0.009895
# 2 -0.007343 0.015428 0.002289 -0.015851 0.001810 -0.012282
# 3 -0.004708 0.002289 0.020932 -0.019043 -0.002616 -0.017822
# 4 0.005812 -0.015851 -0.019043 0.084619 0.014746 0.049516
# 5 0.007822 0.001810 -0.002616 0.014746 0.044627 0.016408
# 6 0.009895 -0.012282 -0.017822 0.049516 0.016408 0.068983
#
#
# Mechanical properties :
#
#
# Convention : Reuss Voigt Hill
#
# Bulk Modulus (GPa) = 29.12851 55.17141 42.14996
# Shear Modulus (GPa) = 17.66472 29.56233 23.61352
#
# Velocity S-wave (km/s) = 2.74175 3.54686 3.16997
# Velocity P-wave (km/s) = 4.73482 6.34442 5.59778
#
# Compressibility (1/GPa) = 0.03433063
#
# Stress axis : x y z
#
# Youngs Moduli (GPa) = 57.16246 64.81535 47.77422
#
# Poissons Ratio (x) = 0.47593 0.22491
# Poissons Ratio (y) = 0.41974 -0.10935
# Poissons Ratio (z) = 0.26911 -0.14835
#
# Static dielectric constant tensor:
#      x y z
#    x 1.908230 -0.022900 -0.008300 
#    y -0.022900 1.864210 -0.017580 
#    z -0.008300 -0.017580 1.962240 
# 
# From -- ./inp_files/276747.got.cif
#   From: 2010.05.17/outbox.cif.g08.bks.cpg/sg2_139_cif.got.tgz:276747.got - 2010.06.03 11:33:40.
