data_PCOD9088944
_publ_section_title
;
Structure prediction by ZEFSAII (Michael W. Deem and Ramdas Pophale) SiO2 
 PCOD9088944
Probable space group: P -1
;
_chemical_formula_sum "Si O2"
_cell_formula_units_Z 14
_cell_length_a 10.396467
_cell_length_b 9.167984
_cell_length_c 21.401472
_cell_angle_alpha 31.391869
_cell_angle_beta 41.441619
_cell_angle_gamma 39.824344
_cell_volume 652.897269
_symmetry_space_group_name_H-M "P -1"
_symmetry_group_IT_number 2
_symmetry_cell_setting 'triclinic'
loop_
_space_group_symop_operation_xyz
x,y,z
-x,-y,-z
loop_
_atom_site_type_symbol
_atom_site_label
_atom_site_fract_x
_atom_site_fract_y
_atom_site_fract_z
Si Si1 0.102407 0.766466 0.785549
Si Si2 0.529400 0.827159 0.618593
Si Si3 0.257258 0.752674 0.316672
Si Si4 0.138072 0.350520 0.817464
Si Si5 0.711618 0.347179 0.014952
Si Si6 0.557916 0.393000 0.448981
Si Si7 0.331752 0.177570 0.047952
O O1 0.305791 0.807723 0.722504
O O2 0.175917 0.448139 0.838701
O O3 0.906049 0.797343 0.890130
O O4 0.986353 0.030836 0.679453
O O5 0.695374 0.497779 0.663527
O O6 0.500000 0.000000 0.500000
O O7 0.592841 0.041785 0.561853
O O8 0.368183 0.583178 0.400736
O O9 0.372153 0.973373 0.170797
O O10 0.239972 0.540258 0.670226
O O11 0.890806 0.427550 0.884124
O O12 0.227308 0.010495 0.883492
O O13 0.500000 0.500000 0.000000
O O14 0.683121 0.498545 0.039011
O O15 0.500000 0.500000 0.500000
O O16 0.500000 0.000000 0.000000
#
# Coordination Sequence:
#
# PCOD9088944 Si02
#       7
#     2   2   2   2   2   2   2
#     4   9  19  37  66  89 119 159 209 247 310 360
#     4  10  19  37  64  86 118 164 204 251 309 365
#     4   9  20  38  65  84 128 157 199 258 306 360
#     4  10  20  38  60  90 120 158 209 250 295 376
#     4  10  21  37  66  86 120 168 198 248 316 359
#     4  11  23  40  61  91 126 161 207 255 306 366
#     4   9  20  39  62  94 121 153 207 256 303 364
#
# _framework density 21.442882999999998
#
# number of rings (size 3 to 8) (size 9 to 14) (size 15 to 20)
#    0.857    1.429    2.857    0.857    0.000    3.429 
#    2.571    1.429    0.000    0.000    0.000    0.000 
#    0.000    0.000    0.000    0.000    0.000    0.000 
#
# Total GULP energy -77964.545519 kJ/mol
# GULP energy per Si atom -5568.896108 kJ/mol
# Density = 2.139408 g / cm^3
# Si number density = 21.442883 Si / 1000 Ang^3
#
#
#
# Elastic Constant Matrix: (Units=GPa)
#
#
# Indices 1 2 3 4 5 6 
#
# 1 58.5465 44.3758 45.1430 -1.2038 -16.0475 0.1816
# 2 44.3758 183.9419 63.5549 -8.5517 -22.6964 22.4902
# 3 45.1430 63.5549 74.0440 -2.9197 -33.6655 20.0793
# 4 -1.2038 -8.5517 -2.9197 46.0607 -1.6979 -3.0264
# 5 -16.0475 -22.6964 -33.6655 -1.6979 44.4869 -4.6405
# 6 0.1816 22.4902 20.0793 -3.0264 -4.6405 32.4159
#
#
#
# Elastic Compliance Matrix: (Units=1/GPa)
#
#
# Indices 1 2 3 4 5 6 
#
# 1 0.042037 -0.002249 -0.033523 -0.000421 -0.009206 0.020733
# 2 -0.002249 0.008007 -0.005241 0.000909 -0.000902 -0.002340
# 3 -0.033523 -0.005241 0.058115 0.000943 0.026294 -0.028322
# 4 -0.000421 0.000909 0.000943 0.022076 0.001986 0.001133
# 5 -0.009206 -0.000902 0.026294 0.001986 0.037624 -0.010038
# 6 0.020733 -0.002340 -0.028322 0.001133 -0.010038 0.048569
#
#
# Mechanical properties :
#
#
# Convention : Reuss Voigt Hill
#
# Bulk Modulus (GPa) = 38.26674 69.18664 53.72669
# Shear Modulus (GPa) = 16.27787 35.48996 25.88392
#
# Velocity S-wave (km/s) = 2.75821 4.07270 3.47812
# Velocity P-wave (km/s) = 5.29418 7.37912 6.42183
#
# Compressibility (1/GPa) = 0.02613236
#
# Stress axis : x y z
#
# Youngs Moduli (GPa) = 23.78835 124.88889 17.20729
#
# Poissons Ratio (x) = 0.28088 0.57684
# Poissons Ratio (y) = 0.05350 0.09019
# Poissons Ratio (z) = 0.79746 0.65457
#
# Static dielectric constant tensor:
#      x y z
#    x 1.815300 0.002050 -0.003230 
#    y 0.002050 1.820910 -0.066080 
#    z -0.003230 -0.066080 1.947980 
# 
# From -- ./inp_files/609448.got.cif
#   From: 2010.05.17/outbox.cif.g08.bks.cpg/sg2_305_cif.got.tgz:609448.got - 2010.06.03 11:33:40.
