data_PCOD9088541
_publ_section_title
;
Structure prediction by ZEFSAII (Michael W. Deem and Ramdas Pophale) SiO2 
 PCOD9088541
Probable space group: P -1
;
_chemical_formula_sum "Si O2"
_cell_formula_units_Z 14
_cell_length_a 9.539870
_cell_length_b 8.785572
_cell_length_c 9.286787
_cell_angle_alpha 74.792751
_cell_angle_beta 98.043328
_cell_angle_gamma 100.891750
_cell_volume 734.208909
_symmetry_space_group_name_H-M "P -1"
_symmetry_group_IT_number 2
_symmetry_cell_setting 'triclinic'
loop_
_space_group_symop_operation_xyz
x,y,z
-x,-y,-z
loop_
_atom_site_type_symbol
_atom_site_label
_atom_site_fract_x
_atom_site_fract_y
_atom_site_fract_z
Si Si1 0.935596 0.956047 0.157232
Si Si2 0.845788 0.441920 0.416716
Si Si3 0.789445 0.142452 0.677023
Si Si4 0.198920 0.778119 0.797439
Si Si5 0.596029 0.167802 0.921505
Si Si6 0.335270 0.274950 0.721842
Si Si7 0.354536 0.037040 0.537549
O O1 0.778671 0.851985 0.173022
O O2 0.044069 0.851035 0.267708
O O3 0.923178 0.121160 0.194962
O O4 0.000000 0.000000 0.000000
O O5 0.771073 0.297433 0.543459
O O6 0.860672 0.369854 0.276359
O O7 0.741418 0.572638 0.351965
O O8 0.000000 0.500000 0.500000
O O9 0.692542 0.132185 0.807655
O O10 0.751272 0.988613 0.606608
O O11 0.301500 0.900005 0.679629
O O12 0.295891 0.756865 0.955982
O O13 0.485332 0.283159 0.824954
O O14 0.500000 0.000000 0.000000
O O15 0.359634 0.197419 0.588826
O O16 0.500000 0.000000 0.500000
#
# Coordination Sequence:
#
# PCOD9088541 Si02
#       7
#     2   2   2   2   2   2   2
#     4  11  20  38  64  96 116 159 211 255 306 355
#     4  11  25  43  58  89 132 166 201 250 306 370
#     4  11  22  37  66  90 125 158 205 257 307 362
#     4  10  23  37  64  90 123 162 203 252 308 359
#     4  12  20  41  66  93 123 155 205 264 300 360
#     4  11  23  38  65  87 128 163 200 252 310 359
#     4  10  19  37  61  95 117 154 208 256 304 356
#
# _framework density 19.068141000000001
#
# number of rings (size 3 to 8) (size 9 to 14) (size 15 to 20)
#    0.000    1.143    7.143    0.000    2.000    2.857 
#    0.000    2.857    3.143    0.000    0.000    0.000 
#    0.000    0.000    0.000    0.000    0.000    0.000 
#
# Total GULP energy -78049.379034 kJ/mol
# GULP energy per Si atom -5574.955645 kJ/mol
# Density = 1.902474 g / cm^3
# Si number density = 19.068141 Si / 1000 Ang^3
#
#
#
# Elastic Constant Matrix: (Units=GPa)
#
#
# Indices 1 2 3 4 5 6 
#
# 1 100.8325 34.9323 52.0838 4.3194 1.0287 -25.5230
# 2 34.9323 106.8436 55.1109 11.6423 7.6458 -31.1942
# 3 52.0838 55.1109 124.3420 25.2193 5.0193 -15.7671
# 4 4.3194 11.6423 25.2193 24.0200 -9.0937 6.1987
# 5 1.0287 7.6458 5.0193 -9.0937 46.6511 0.6598
# 6 -25.5230 -31.1942 -15.7671 6.1987 0.6598 31.1946
#
#
#
# Elastic Compliance Matrix: (Units=1/GPa)
#
#
# Indices 1 2 3 4 5 6 
#
# 1 0.015036 0.001010 -0.005275 -0.000496 -0.000178 0.010748
# 2 0.001010 0.018443 -0.003081 -0.013285 -0.005593 0.020470
# 3 -0.005275 -0.003081 0.015679 -0.016692 -0.004375 0.003937
# 4 -0.000496 -0.013285 -0.016692 0.083697 0.020854 -0.039201
# 5 -0.000178 -0.005593 -0.004375 0.020854 0.027071 -0.012666
# 6 0.010748 0.020470 0.003937 -0.039201 -0.012666 0.071368
#
#
# Mechanical properties :
#
#
# Convention : Reuss Voigt Hill
#
# Bulk Modulus (GPa) = 29.01504 68.47468 48.74486
# Shear Modulus (GPa) = 19.41929 33.03254 26.22592
#
# Velocity S-wave (km/s) = 3.19472 4.16666 3.71263
# Velocity P-wave (km/s) = 5.37195 7.69003 6.63304
#
# Compressibility (1/GPa) = 0.03446489
#
# Stress axis : x y z
#
# Youngs Moduli (GPa) = 66.50680 54.22139 63.77959
#
# Poissons Ratio (x) = -0.05475 0.33644
# Poissons Ratio (y) = -0.06716 0.19652
# Poissons Ratio (z) = 0.35083 0.16707
#
# Static dielectric constant tensor:
#      x y z
#    x 1.705890 0.031530 0.047370 
#    y 0.031530 1.689670 0.007540 
#    z 0.047370 0.007540 1.685250 
# 
# From -- ./inp_files/149874.got.cif
#   From: 2010.05.17/outbox.cif.g08.bks.cpg/sg2_75_cif.got.tgz:149874.got - 2010.06.03 11:33:40.
