data_PCOD9088002
_publ_section_title
;
Structure prediction by ZEFSAII (Michael W. Deem and Ramdas Pophale) SiO2 
 PCOD9088002
Probable space group: P -1
;
_chemical_formula_sum "Si O2"
_cell_formula_units_Z 16
_cell_length_a 14.510211
_cell_length_b 7.119440
_cell_length_c 11.119104
_cell_angle_alpha 136.589502
_cell_angle_beta 66.802461
_cell_angle_gamma 124.287876
_cell_volume 651.960545
_symmetry_space_group_name_H-M "P -1"
_symmetry_group_IT_number 2
_symmetry_cell_setting 'triclinic'
loop_
_space_group_symop_operation_xyz
x,y,z
-x,-y,-z
loop_
_atom_site_type_symbol
_atom_site_label
_atom_site_fract_x
_atom_site_fract_y
_atom_site_fract_z
Si Si1 0.215455 0.306162 0.817062
Si Si2 0.876133 0.459379 0.807993
Si Si3 0.646987 0.915559 0.657397
Si Si4 0.574896 0.286381 0.676595
Si Si5 0.592349 0.304282 0.253541
Si Si6 0.358773 0.167350 0.831147
Si Si7 0.079947 0.528574 0.861042
Si Si8 0.228907 0.239324 0.143214
O O1 0.330130 0.600972 0.860091
O O2 0.265342 0.077028 0.731157
O O3 0.136436 0.299075 0.742695
O O4 0.146891 0.350847 0.984159
O O5 0.857729 0.621292 0.773963
O O6 0.998590 0.478251 0.766827
O O7 0.775528 0.123252 0.721908
O O8 0.628793 0.613294 0.455019
O O9 0.540440 0.828368 0.759593
O O10 0.623231 0.123064 0.668068
O O11 0.480225 0.379033 0.815833
O O12 0.684589 0.579869 0.711368
O O13 0.500000 0.000000 0.500000
O O14 0.622685 0.089961 0.225983
O O15 0.314328 0.324391 0.025487
O O16 0.000000 0.500000 0.000000
O O17 0.170139 0.877726 0.994357
#
# Coordination Sequence:
#
# PCOD9088002 Si02
#       8
#     2   2   2   2   2   2   2   2
#     4  10  20  36  58  85 115 152 197 247 286 346
#     4   9  20  37  61  84 115 151 199 249 288 341
#     4   9  20  37  56  86 118 157 193 238 296 357
#     4  10  20  36  58  90 125 152 189 241 296 363
#     4  10  19  37  58  82 123 153 192 238 298 354
#     4  10  20  36  57  89 119 155 192 240 294 353
#     4  10  20  38  56  89 117 151 205 250 281 341
#     4  10  19  37  62  86 116 157 196 240 301 341
#
# _framework density 24.541363
#
# number of rings (size 3 to 8) (size 9 to 14) (size 15 to 20)
#    0.000    2.250    1.250    1.500    0.000    1.500 
#   18.000    0.625    0.000    0.750    0.000    0.000 
#    0.000    0.000    0.000    0.000    0.000    0.000 
#
# Total GULP energy -89152.579752 kJ/mol
# GULP energy per Si atom -5572.036235 kJ/mol
# Density = 2.448551 g / cm^3
# Si number density = 24.541363 Si / 1000 Ang^3
#
#
#
# Elastic Constant Matrix: (Units=GPa)
#
#
# Indices 1 2 3 4 5 6 
#
# 1 176.9404 19.7296 25.7884 26.5900 -20.4429 5.2468
# 2 19.7296 50.8884 3.4319 11.3828 4.1541 4.0140
# 3 25.7884 3.4319 40.0592 18.7925 -0.3835 5.0258
# 4 26.5900 11.3828 18.7925 30.4015 2.0945 -2.2619
# 5 -20.4429 4.1541 -0.3835 2.0945 24.2683 13.7921
# 6 5.2468 4.0140 5.0258 -2.2619 13.7921 35.4730
#
#
#
# Elastic Compliance Matrix: (Units=1/GPa)
#
#
# Indices 1 2 3 4 5 6 
#
# 1 0.008670 -0.002131 -0.001109 -0.007337 0.011620 -0.005870
# 2 -0.002131 0.022654 0.003771 -0.008828 -0.003787 -0.001873
# 3 -0.001109 0.003771 0.038691 -0.025589 0.006972 -0.010087
# 4 -0.007337 -0.008828 -0.025589 0.061133 -0.020294 0.017498
# 5 0.011620 -0.003787 0.006972 -0.020294 0.071286 -0.031288
# 6 -0.005870 -0.001873 -0.010087 0.017498 -0.031288 0.043980
#
#
# Mechanical properties :
#
#
# Convention : Reuss Voigt Hill
#
# Bulk Modulus (GPa) = 14.06946 40.64310 27.35628
# Shear Modulus (GPa) = 18.58429 32.62444 25.60437
#
# Velocity S-wave (km/s) = 2.75483 3.65000 3.23354
# Velocity P-wave (km/s) = 3.98299 5.86177 5.01121
#
# Compressibility (1/GPa) = 0.07107593
#
# Stress axis : x y z
#
# Youngs Moduli (GPa) = 115.34057 44.14194 25.84605
#
# Poissons Ratio (x) = 0.09407 0.02867
# Poissons Ratio (y) = 0.24580 -0.09747
# Poissons Ratio (z) = 0.12796 -0.16646
#
# Static dielectric constant tensor:
#      x y z
#    x 1.633700 -0.621160 -0.207490 
#    y -0.621160 1.419430 -0.356350 
#    z -0.207490 -0.356350 1.843350 
# 
# From -- ./inp_files/445546.got.cif
#   From: 2010.05.17/outbox.cif.g08.bks.cpg/sg2_223_cif.got.tgz:445546.got - 2010.06.03 11:33:40.
