data_PCOD9088325
_publ_section_title
;
Structure prediction by ZEFSAII (Michael W. Deem and Ramdas Pophale) SiO2 
 PCOD9088325
Probable space group: P -1
;
_chemical_formula_sum "Si O2"
_cell_formula_units_Z 14
_cell_length_a 22.067746
_cell_length_b 13.317974
_cell_length_c 7.059827
_cell_angle_alpha 49.331266
_cell_angle_beta 39.255378
_cell_angle_gamma 24.965160
_cell_volume 544.228442
_symmetry_space_group_name_H-M "P -1"
_symmetry_group_IT_number 2
_symmetry_cell_setting 'triclinic'
loop_
_space_group_symop_operation_xyz
x,y,z
-x,-y,-z
loop_
_atom_site_type_symbol
_atom_site_label
_atom_site_fract_x
_atom_site_fract_y
_atom_site_fract_z
Si Si1 0.757489 0.217440 0.797953
Si Si2 0.908378 0.772173 0.878913
Si Si3 0.423398 0.476122 0.471278
Si Si4 0.142336 0.911679 0.882873
Si Si5 0.413542 0.210802 0.725301
Si Si6 0.717703 0.721391 0.441809
Si Si7 0.983854 0.369165 0.766368
O O1 0.717596 0.370677 0.548242
O O2 0.576004 0.392886 0.128819
O O3 0.878115 0.102920 0.827900
O O4 0.812938 0.021873 0.790079
O O5 0.783564 0.790769 0.119011
O O6 0.963737 0.694620 0.060516
O O7 0.098996 0.549291 0.592369
O O8 0.323908 0.649620 0.677432
O O9 0.497843 0.242338 0.579662
O O10 0.105760 0.111103 0.705039
O O11 0.000000 0.000000 0.000000
O O12 0.365787 0.263681 0.548441
O O13 0.564531 0.924481 0.713901
O O14 0.221562 0.422164 0.017290
O O15 0.000000 0.500000 0.500000
#
# Coordination Sequence:
#
# PCOD9088325 Si02
#       7
#     2   2   2   2   2   2   2
#     4  10  23  41  66  97 128 174 222 260 329 398
#     4   9  18  37  61  86 126 162 212 268 318 388
#     4  11  22  41  67  95 131 177 215 271 323 398
#     4  11  23  43  67  95 136 173 214 280 326 384
#     4  10  19  37  60  89 128 161 218 270 319 383
#     4   9  18  33  60  86 118 163 200 267 324 367
#     4  10  22  41  60  87 124 175 217 265 331 389
#
# _framework density 25.724489999999999
#
# number of rings (size 3 to 8) (size 9 to 14) (size 15 to 20)
#    0.000    2.000    2.857    0.429    0.000    4.000 
#    5.143    0.714    0.000    0.000    0.000    0.000 
#    0.000    0.000    0.000    0.000    0.000    0.000 
#
# Total GULP energy -78299.949756 kJ/mol
# GULP energy per Si atom -5592.853554 kJ/mol
# Density = 2.566594 g / cm^3
# Si number density = 25.724490 Si / 1000 Ang^3
#
#
#
# Elastic Constant Matrix: (Units=GPa)
#
#
# Indices 1 2 3 4 5 6 
#
# 1 112.5142 40.9482 23.8398 6.3760 8.1616 13.2581
# 2 40.9482 108.3296 20.4763 17.9790 17.4901 35.3182
# 3 23.8398 20.4763 66.2091 22.2711 10.0035 12.6139
# 4 6.3760 17.9790 22.2711 49.5002 2.0894 4.9039
# 5 8.1616 17.4901 10.0035 2.0894 33.3822 14.8538
# 6 13.2581 35.3182 12.6139 4.9039 14.8538 53.0771
#
#
#
# Elastic Compliance Matrix: (Units=1/GPa)
#
#
# Indices 1 2 3 4 5 6 
#
# 1 0.010858 -0.003899 -0.003298 0.001448 0.000056 0.000516
# 2 -0.003899 0.014186 0.000170 -0.003875 -0.003041 -0.007297
# 3 -0.003298 0.000170 0.020011 -0.008261 -0.003772 -0.002226
# 4 0.001448 -0.003875 -0.008261 0.024925 0.002006 0.001316
# 5 0.000056 -0.003041 -0.003772 0.002006 0.035786 -0.007294
# 6 0.000516 -0.007297 -0.002226 0.001316 -0.007294 0.026016
#
#
# Mechanical properties :
#
#
# Convention : Reuss Voigt Hill
#
# Bulk Modulus (GPa) = 32.25595 50.84241 41.54918
# Shear Modulus (GPa) = 32.01654 40.64449 36.33052
#
# Velocity S-wave (km/s) = 3.53171 3.97922 3.76213
# Velocity P-wave (km/s) = 5.40341 6.39683 5.92099
#
# Compressibility (1/GPa) = 0.03100204
#
# Stress axis : x y z
#
# Youngs Moduli (GPa) = 92.09395 70.49314 49.97203
#
# Poissons Ratio (x) = 0.27483 0.16480
# Poissons Ratio (y) = 0.35905 -0.00848
# Poissons Ratio (z) = 0.30371 -0.01197
#
# Static dielectric constant tensor:
#      x y z
#    x 2.054430 -0.025080 -0.009150 
#    y -0.025080 2.055280 0.054470 
#    z -0.009150 0.054470 2.057060 
# 
# From -- ./inp_files/342868.got.cif
#   From: 2010.05.17/outbox.cif.g08.bks.cpg/sg2_172_cif.got.tgz:342868.got - 2010.06.03 11:33:40.
