data_PCOD9088310
_publ_section_title
;
Structure prediction by ZEFSAII (Michael W. Deem and Ramdas Pophale) SiO2 
 PCOD9088310
Probable space group: P -1
;
_chemical_formula_sum "Si O2"
_cell_formula_units_Z 16
_cell_length_a 16.581262
_cell_length_b 15.049087
_cell_length_c 9.539474
_cell_angle_alpha 147.803573
_cell_angle_beta 32.818840
_cell_angle_gamma 143.934750
_cell_volume 647.321419
_symmetry_space_group_name_H-M "P -1"
_symmetry_group_IT_number 2
_symmetry_cell_setting 'triclinic'
loop_
_space_group_symop_operation_xyz
x,y,z
-x,-y,-z
loop_
_atom_site_type_symbol
_atom_site_label
_atom_site_fract_x
_atom_site_fract_y
_atom_site_fract_z
Si Si1 0.009424 0.700702 0.234494
Si Si2 0.233714 0.367683 0.252620
Si Si3 0.457061 0.657359 0.158286
Si Si4 0.721786 0.016121 0.642227
Si Si5 0.256171 0.769882 0.394374
Si Si6 0.033497 0.147941 0.028150
Si Si7 0.232773 0.437221 0.808428
Si Si8 0.488076 0.352158 0.497447
O O1 0.888972 0.710054 0.547147
O O2 0.923611 0.702000 0.214099
O O3 0.185094 0.833762 0.182107
O O4 0.000000 0.500000 0.000000
O O5 0.334030 0.575009 0.354624
O O6 0.133651 0.322574 0.197450
O O7 0.365927 0.272089 0.945731
O O8 0.401326 0.777963 0.294283
O O9 0.462832 0.487641 0.830595
O O10 0.557662 0.854908 0.680511
O O11 0.716037 0.111069 0.628295
O O12 0.847468 0.907922 0.315445
O O13 0.125508 0.821406 0.742385
O O14 0.198386 0.568871 0.147710
O O15 0.000000 0.000000 0.000000
O O16 0.363115 0.357700 0.567207
O O17 0.334617 0.562765 0.703398
#
# Coordination Sequence:
#
# PCOD9088310 Si02
#       8
#     2   2   2   2   2   2   2   2
#     4  12  22  40  63  92 125 162 206 257 311 373
#     4  11  20  38  65  89 122 167 206 251 312 364
#     4  10  22  37  64  94 121 162 216 253 300 372
#     4  11  22  39  65  89 125 164 205 260 314 365
#     4  10  21  40  61  94 121 161 210 256 304 366
#     4  10  19  37  60  88 119 157 202 248 314 356
#     4  10  21  40  63  89 124 163 207 250 304 375
#     4  10  21  39  65  91 120 166 208 250 308 373
#
# _framework density 24.717243
#
# number of rings (size 3 to 8) (size 9 to 14) (size 15 to 20)
#    0.000    1.500    6.250    0.000    0.000    1.500 
#    2.250    2.500    0.000    0.000    0.000    0.000 
#    0.000    0.000    0.000    0.000    0.000    0.000 
#
# Total GULP energy -89272.821855 kJ/mol
# GULP energy per Si atom -5579.551366 kJ/mol
# Density = 2.466099 g / cm^3
# Si number density = 24.717243 Si / 1000 Ang^3
#
#
#
# Elastic Constant Matrix: (Units=GPa)
#
#
# Indices 1 2 3 4 5 6 
#
# 1 104.2311 18.0284 10.2616 3.0647 -35.2607 5.0474
# 2 18.0284 98.7226 1.5449 -10.4899 -2.6886 5.3800
# 3 10.2616 1.5449 60.5161 2.8467 -20.3517 -4.5447
# 4 3.0647 -10.4899 2.8467 17.4187 2.1280 4.4794
# 5 -35.2607 -2.6886 -20.3517 2.1280 39.1602 -5.4321
# 6 5.0474 5.3800 -4.5447 4.4794 -5.4321 25.8549
#
#
#
# Elastic Compliance Matrix: (Units=1/GPa)
#
#
# Indices 1 2 3 4 5 6 
#
# 1 0.015519 -0.003499 0.003652 -0.008290 0.016533 0.003250
# 2 -0.003499 0.012007 -0.002117 0.010021 -0.004650 -0.004901
# 3 0.003652 -0.002117 0.022734 -0.009985 0.016745 0.008972
# 4 -0.008290 0.010021 -0.009985 0.073663 -0.018589 -0.018890
# 5 0.016533 -0.004650 0.016745 -0.018589 0.051869 0.014802
# 6 0.003250 -0.004901 0.008972 -0.018890 0.014802 0.047022
#
#
# Mechanical properties :
#
#
# Convention : Reuss Voigt Hill
#
# Bulk Modulus (GPa) = 21.58313 35.90437 28.74375
# Shear Modulus (GPa) = 20.64531 32.06241 26.35386
#
# Velocity S-wave (km/s) = 2.89322 3.60553 3.26883
# Velocity P-wave (km/s) = 4.46228 5.64718 5.08933
#
# Compressibility (1/GPa) = 0.04633249
#
# Stress axis : x y z
#
# Youngs Moduli (GPa) = 64.43736 83.28731 43.98656
#
# Poissons Ratio (x) = 0.29141 -0.16063
# Poissons Ratio (y) = 0.22546 0.09310
# Poissons Ratio (z) = -0.23531 0.17628
#
# Static dielectric constant tensor:
#      x y z
#    x 2.171500 0.157400 0.167950 
#    y 0.157400 2.212390 0.097650 
#    z 0.167950 0.097650 2.099840 
# 
# From -- ./inp_files/466469.got.cif
#   From: 2010.05.17/outbox.cif.g08.bks.cpg/sg2_234_cif.got.tgz:466469.got - 2010.06.03 11:33:40.
