data_PCOD9088375
_publ_section_title
;
Structure prediction by ZEFSAII (Michael W. Deem and Ramdas Pophale) SiO2 
 PCOD9088375
Probable space group: P -1
;
_chemical_formula_sum "Si O2"
_cell_formula_units_Z 14
_cell_length_a 13.923119
_cell_length_b 12.622424
_cell_length_c 14.385802
_cell_angle_alpha 28.481693
_cell_angle_beta 28.352018
_cell_angle_gamma 38.627630
_cell_volume 572.217337
_symmetry_space_group_name_H-M "P -1"
_symmetry_group_IT_number 2
_symmetry_cell_setting 'triclinic'
loop_
_space_group_symop_operation_xyz
x,y,z
-x,-y,-z
loop_
_atom_site_type_symbol
_atom_site_label
_atom_site_fract_x
_atom_site_fract_y
_atom_site_fract_z
Si Si1 0.242123 0.506111 0.779898
Si Si2 0.293206 0.971442 0.475918
Si Si3 0.937526 0.242639 0.632724
Si Si4 0.615466 0.767016 0.475007
Si Si5 0.313352 0.372076 0.008016
Si Si6 0.715534 0.520371 0.752690
Si Si7 0.853759 0.513737 0.327469
O O1 0.302483 0.742306 0.588085
O O2 0.275849 0.484927 0.657640
O O3 0.329653 0.328010 0.917392
O O4 0.000000 0.500000 0.000000
O O5 0.463599 0.960153 0.419645
O O6 0.328783 0.161961 0.223419
O O7 0.071143 0.019664 0.673026
O O8 0.791516 0.302876 0.796920
O O9 0.825565 0.307518 0.581915
O O10 0.113973 0.422125 0.361944
O O11 0.712652 0.730613 0.521017
O O12 0.784998 0.724365 0.285282
O O13 0.471270 0.554259 0.760720
O O14 0.089741 0.485325 0.124735
O O15 0.500000 0.500000 0.000000
#
# Coordination Sequence:
#
# PCOD9088375 Si02
#       7
#     2   2   2   2   2   2   2
#     4   9  19  35  58  84 116 155 189 227 281 333
#     4  10  20  37  58  86 119 147 190 238 274 337
#     4   9  20  35  56  84 113 147 187 235 284 331
#     4  10  21  37  58  83 115 151 188 235 287 333
#     4   9  19  36  55  81 114 149 188 231 276 329
#     4  10  19  37  61  81 110 150 187 232 290 340
#     4   9  18  36  56  79 116 153 186 229 280 331
#
# _framework density 24.466228999999998
#
# number of rings (size 3 to 8) (size 9 to 14) (size 15 to 20)
#    0.000    2.571    0.000    1.714    0.000    8.000 
#    0.000   20.714    0.000    0.000    0.000    1.000 
#    0.000    0.000    0.000    0.000    0.000    0.000 
#
# Total GULP energy -78164.110782 kJ/mol
# GULP energy per Si atom -5583.150770 kJ/mol
# Density = 2.441054 g / cm^3
# Si number density = 24.466229 Si / 1000 Ang^3
#
#
#
# Elastic Constant Matrix: (Units=GPa)
#
#
# Indices 1 2 3 4 5 6 
#
# 1 131.0629 42.7604 19.9842 -4.7369 44.4983 -5.2211
# 2 42.7604 123.1619 32.4000 20.5443 25.0578 -15.5660
# 3 19.9842 32.4000 89.9161 11.1272 16.1100 0.1906
# 4 -4.7369 20.5443 11.1272 42.1982 -3.3221 10.5405
# 5 44.4983 25.0578 16.1100 -3.3221 44.6290 0.2486
# 6 -5.2211 -15.5660 0.1906 10.5405 0.2486 41.4659
#
#
#
# Elastic Compliance Matrix: (Units=1/GPa)
#
#
# Indices 1 2 3 4 5 6 
#
# 1 0.012040 -0.002186 -0.000180 0.001536 -0.010600 0.000369
# 2 -0.002186 0.012513 -0.002250 -0.007714 -0.004644 0.006421
# 3 -0.000180 -0.002250 0.012894 -0.002526 -0.003398 -0.000264
# 4 0.001536 -0.007714 -0.002526 0.031451 0.006112 -0.010722
# 5 -0.010600 -0.004644 -0.003398 0.006112 0.037292 -0.004840
# 6 0.000369 0.006421 -0.000264 -0.010722 -0.004840 0.029329
#
#
# Mechanical properties :
#
#
# Convention : Reuss Voigt Hill
#
# Bulk Modulus (GPa) = 35.44152 59.38115 47.41133
# Shear Modulus (GPa) = 32.43469 42.25838 37.34653
#
# Velocity S-wave (km/s) = 3.64496 4.16048 3.91122
# Velocity P-wave (km/s) = 5.67729 6.88497 6.31009
#
# Compressibility (1/GPa) = 0.02821550
#
# Stress axis : x y z
#
# Youngs Moduli (GPa) = 83.05967 79.91484 77.55330
#
# Poissons Ratio (x) = 0.17467 0.01396
# Poissons Ratio (y) = 0.18154 0.17451
# Poissons Ratio (z) = 0.01495 0.17982
#
# Static dielectric constant tensor:
#      x y z
#    x 1.999280 -0.013390 0.063310 
#    y -0.013390 2.009820 0.024320 
#    z 0.063310 0.024320 1.982520 
# 
# From -- ./inp_files/533575.got.cif
#   From: 2010.05.17/outbox.cif.g08.bks.cpg/sg2_267_cif.got.tgz:533575.got - 2010.06.03 11:33:40.
