data_PCOD9088016
_publ_section_title
;
Structure prediction by ZEFSAII (Michael W. Deem and Ramdas Pophale) SiO2 
 PCOD9088016
Probable space group: P -1
;
_chemical_formula_sum "Si O2"
_cell_formula_units_Z 14
_cell_length_a 5.450390
_cell_length_b 26.547911
_cell_length_c 9.960490
_cell_angle_alpha 27.055373
_cell_angle_beta 55.647677
_cell_angle_gamma 54.575494
_cell_volume 529.683778
_symmetry_space_group_name_H-M "P -1"
_symmetry_group_IT_number 2
_symmetry_cell_setting 'triclinic'
loop_
_space_group_symop_operation_xyz
x,y,z
-x,-y,-z
loop_
_atom_site_type_symbol
_atom_site_label
_atom_site_fract_x
_atom_site_fract_y
_atom_site_fract_z
Si Si1 0.158954 0.869005 0.282262
Si Si2 0.663160 0.942045 0.802785
Si Si3 0.449402 0.363234 0.692898
Si Si4 0.912152 0.913883 0.521914
Si Si5 0.165239 0.609844 0.265128
Si Si6 0.982931 0.315513 0.426600
Si Si7 0.183071 0.465120 0.201027
O O1 0.000354 0.791421 0.419516
O O2 0.132890 0.845400 0.504056
O O3 0.491286 0.871964 0.119100
O O4 0.000000 0.000000 0.000000
O O5 0.817196 0.870671 0.797329
O O6 0.399825 0.035505 0.585664
O O7 0.904492 0.992209 0.698426
O O8 0.386668 0.501257 0.390564
O O9 0.636124 0.322745 0.867154
O O10 0.666278 0.325587 0.587016
O O11 0.117234 0.333922 0.873075
O O12 0.966952 0.556030 0.563588
O O13 0.199077 0.346748 0.401140
O O14 0.013670 0.421311 0.071285
O O15 0.500000 0.500000 0.000000
#
# Coordination Sequence:
#
# PCOD9088016 Si02
#       7
#     2   2   2   2   2   2   2
#     4  10  21  40  61  91 125 166 208 258 310 373
#     4   9  18  36  61  85 118 160 202 255 304 354
#     4   9  17  32  52  81 108 147 189 239 291 353
#     4   9  18  36  61  86 118 159 204 252 303 363
#     4   9  17  31  56  77 110 145 188 241 294 348
#     4  10  21  37  58  85 120 158 203 248 309 364
#     4  10  19  37  58  84 117 157 198 255 304 364
#
# _framework density 26.430866999999999
#
# number of rings (size 3 to 8) (size 9 to 14) (size 15 to 20)
#    0.000    2.571    1.429    0.429    0.000    0.000 
#   12.857    0.000    0.000    0.000    0.000    0.000 
#    0.000    0.000    0.000    0.000    0.000    0.000 
#
# Total GULP energy -78079.464066 kJ/mol
# GULP energy per Si atom -5577.104576 kJ/mol
# Density = 2.637071 g / cm^3
# Si number density = 26.430867 Si / 1000 Ang^3
#
#
#
# Elastic Constant Matrix: (Units=GPa)
#
#
# Indices 1 2 3 4 5 6 
#
# 1 125.4266 26.6314 16.0097 -9.5317 -32.6363 1.7235
# 2 26.6314 178.9806 65.2674 -1.5432 -14.7778 38.2588
# 3 16.0097 65.2674 92.0802 0.8795 -18.3160 -3.8308
# 4 -9.5317 -1.5432 0.8795 58.1754 6.4132 -5.3322
# 5 -32.6363 -14.7778 -18.3160 6.4132 35.8828 -1.2528
# 6 1.7235 38.2588 -3.8308 -5.3322 -1.2528 37.3186
#
#
#
# Elastic Compliance Matrix: (Units=1/GPa)
#
#
# Indices 1 2 3 4 5 6 
#
# 1 0.010697 -0.001626 0.001273 0.000788 0.009629 0.001739
# 2 -0.001626 0.011701 -0.008837 -0.000852 -0.001472 -0.012999
# 3 0.001273 -0.008837 0.018873 -0.000121 0.007563 0.011175
# 4 0.000788 -0.000852 -0.000121 0.017906 -0.002781 0.003289
# 5 0.009629 -0.001472 0.007563 -0.002781 0.040476 0.002802
# 6 0.001739 -0.012999 0.011175 0.003289 0.002802 0.041754
#
#
# Mechanical properties :
#
#
# Convention : Reuss Voigt Hill
#
# Bulk Modulus (GPa) = 43.68410 68.03383 55.85897
# Shear Modulus (GPa) = 29.86549 45.51396 37.68972
#
# Velocity S-wave (km/s) = 3.36512 4.15420 3.78030
# Velocity P-wave (km/s) = 5.62692 6.98613 6.34304
#
# Compressibility (1/GPa) = 0.02289162
#
# Stress axis : x y z
#
# Youngs Moduli (GPa) = 93.48372 85.45976 52.98576
#
# Poissons Ratio (x) = 0.13893 -0.06743
# Poissons Ratio (y) = 0.15197 0.46823
# Poissons Ratio (z) = -0.11896 0.75520
#
# Static dielectric constant tensor:
#      x y z
#    x 3.126910 0.186400 0.187670 
#    y 0.186400 2.161850 0.041440 
#    z 0.187670 0.041440 2.063670 
# 
# From -- ./inp_files/371391.got.cif
#   From: 2010.05.17/outbox.cif.g08.bks.cpg/sg2_186_cif.got.tgz:371391.got - 2010.06.03 11:33:40.
