data_PCOD9088973
_publ_section_title
;
Structure prediction by ZEFSAII (Michael W. Deem and Ramdas Pophale) SiO2 
 PCOD9088973
Probable space group: P -1
;
_chemical_formula_sum "Si O2"
_cell_formula_units_Z 16
_cell_length_a 14.405844
_cell_length_b 8.440230
_cell_length_c 14.098783
_cell_angle_alpha 100.506432
_cell_angle_beta 139.262497
_cell_angle_gamma 51.150577
_cell_volume 711.960587
_symmetry_space_group_name_H-M "P -1"
_symmetry_group_IT_number 2
_symmetry_cell_setting 'triclinic'
loop_
_space_group_symop_operation_xyz
x,y,z
-x,-y,-z
loop_
_atom_site_type_symbol
_atom_site_label
_atom_site_fract_x
_atom_site_fract_y
_atom_site_fract_z
Si Si1 0.819397 0.307370 0.495477
Si Si2 0.962546 0.718023 0.515148
Si Si3 0.511116 0.364759 0.127746
Si Si4 0.840395 0.793885 0.919902
Si Si5 0.469122 0.749977 0.400943
Si Si6 0.459021 0.159984 0.196351
Si Si7 0.827239 0.192921 0.191758
Si Si8 0.277844 0.557000 0.252775
O O1 0.672221 0.306626 0.323359
O O2 0.656301 0.574597 0.445958
O O3 0.987812 0.236027 0.541806
O O4 0.951785 0.100053 0.657725
O O5 0.000000 0.500000 0.500000
O O6 0.118503 0.681316 0.703480
O O7 0.717583 0.934166 0.390691
O O8 0.447208 0.237863 0.089455
O O9 0.646515 0.259366 0.123894
O O10 0.293272 0.661596 0.982486
O O11 0.665322 0.893361 0.875226
O O12 0.706970 0.967615 0.742290
O O13 0.000000 0.500000 0.000000
O O14 0.015658 0.776109 0.084347
O O15 0.355866 0.672484 0.315292
O O16 0.598152 0.648412 0.589464
O O17 0.348118 0.399192 0.196496
#
# Coordination Sequence:
#
# PCOD9088973 Si02
#       8
#     2   2   2   2   2   2   2   2
#     4  11  20  40  65  90 128 158 201 263 301 371
#     4  11  21  38  62  93 129 159 196 251 318 371
#     4  10  19  37  64  89 121 165 212 243 300 370
#     4  10  24  42  60  87 125 167 204 258 310 362
#     4  11  22  42  68  95 122 161 212 263 308 366
#     4  11  20  43  62  88 130 166 200 255 312 367
#     4  10  20  37  64  89 121 168 207 246 303 369
#     4  10  23  43  66  93 120 162 217 261 306 362
#
# _framework density 22.473153
#
# number of rings (size 3 to 8) (size 9 to 14) (size 15 to 20)
#    0.000    1.500    3.750    1.875    0.000    3.000 
#   18.000    1.875    0.000    0.000    0.000    0.000 
#    0.000    0.000    0.000    0.000    0.000    0.000 
#
# Total GULP energy -89272.405093 kJ/mol
# GULP energy per Si atom -5579.525318 kJ/mol
# Density = 2.242200 g / cm^3
# Si number density = 22.473153 Si / 1000 Ang^3
#
#
#
# Elastic Constant Matrix: (Units=GPa)
#
#
# Indices 1 2 3 4 5 6 
#
# 1 107.4582 8.2425 53.0779 -6.4572 25.6030 11.3295
# 2 8.2425 46.7453 9.5852 -14.8935 0.7256 12.9538
# 3 53.0779 9.5852 114.0384 -30.7898 0.4884 14.8310
# 4 -6.4572 -14.8935 -30.7898 22.4071 13.4128 -7.6007
# 5 25.6030 0.7256 0.4884 13.4128 41.4826 -6.3047
# 6 11.3295 12.9538 14.8310 -7.6007 -6.3047 22.2383
#
#
#
# Elastic Compliance Matrix: (Units=1/GPa)
#
#
# Indices 1 2 3 4 5 6 
#
# 1 0.015734 0.000914 -0.006214 0.000714 -0.010990 -0.007276
# 2 0.000914 0.040672 0.012355 0.049378 -0.020635 -0.021371
# 3 -0.006214 0.012355 0.023227 0.042501 -0.011658 -0.008301
# 4 0.000714 0.049378 0.042501 0.164645 -0.057709 -0.017558
# 5 -0.010990 -0.020635 -0.011658 -0.057709 0.053201 0.020752
# 6 -0.007276 -0.021371 -0.008301 -0.017558 0.020752 0.066541
#
#
# Mechanical properties :
#
#
# Convention : Reuss Voigt Hill
#
# Bulk Modulus (GPa) = 10.66726 45.56145 28.11436
# Shear Modulus (GPa) = 13.11798 30.38137 21.74967
#
# Velocity S-wave (km/s) = 2.41865 3.68080 3.11433
# Velocity P-wave (km/s) = 3.54355 6.19533 5.04673
#
# Compressibility (1/GPa) = 0.09374475
#
# Stress axis : x y z
#
# Youngs Moduli (GPa) = 63.55815 24.58664 43.05288
#
# Poissons Ratio (x) = -0.02248 0.26752
# Poissons Ratio (y) = -0.05810 -0.53194
# Poissons Ratio (z) = 0.39494 -0.30378
#
# Static dielectric constant tensor:
#      x y z
#    x 1.871150 0.002610 -0.009830 
#    y 0.002610 1.885130 -0.015080 
#    z -0.009830 -0.015080 1.873640 
# 
# From -- ./inp_files/308839.got.cif
#   From: 2010.05.17/outbox.cif.g08.bks.cpg/sg2_155_cif.got.tgz:308839.got - 2010.06.03 11:33:40.
