data_PCOD9088835
_publ_section_title
;
Structure prediction by ZEFSAII (Michael W. Deem and Ramdas Pophale) SiO2 
 PCOD9088835
Probable space group: P -1
;
_chemical_formula_sum "Si O2"
_cell_formula_units_Z 16
_cell_length_a 14.734973
_cell_length_b 8.271079
_cell_length_c 8.915236
_cell_angle_alpha 72.545079
_cell_angle_beta 45.663290
_cell_angle_gamma 84.699073
_cell_volume 730.328212
_symmetry_space_group_name_H-M "P -1"
_symmetry_group_IT_number 2
_symmetry_cell_setting 'triclinic'
loop_
_space_group_symop_operation_xyz
x,y,z
-x,-y,-z
loop_
_atom_site_type_symbol
_atom_site_label
_atom_site_fract_x
_atom_site_fract_y
_atom_site_fract_z
Si Si1 0.324958 0.639413 0.123424
Si Si2 0.176464 0.815131 0.004695
Si Si3 0.827574 0.543655 0.045926
Si Si4 0.416720 0.422856 0.831177
Si Si5 0.712818 0.435305 0.489661
Si Si6 0.575530 0.851664 0.910031
Si Si7 0.973767 0.924870 0.719605
Si Si8 0.758586 0.076958 0.425749
O O1 0.268975 0.772368 0.044332
O O2 0.246641 0.578850 0.380187
O O3 0.344726 0.482936 0.041735
O O4 0.466290 0.715112 0.997173
O O5 0.129349 0.621885 0.039467
O O6 0.084723 0.931874 0.156560
O O7 0.238005 0.922612 0.758458
O O8 0.889691 0.731832 0.864785
O O9 0.671116 0.519027 0.211653
O O10 0.828434 0.535849 0.227743
O O11 0.570047 0.488809 0.634477
O O12 0.388708 0.220027 0.950869
O O13 0.695252 0.240963 0.500584
O O14 0.682936 0.913836 0.646525
O O15 0.500000 0.000000 0.000000
O O16 0.100607 0.896912 0.671452
O O17 0.000000 0.000000 0.500000
#
# Coordination Sequence:
#
# PCOD9088835 Si02
#       8
#     2   2   2   2   2   2   2   2
#     4  10  21  38  61  95 129 165 209 259 322 384
#     4  10  25  44  64  95 133 160 221 269 308 381
#     4  10  24  42  66  95 125 170 210 263 325 371
#     4  10  20  37  60  95 132 161 209 258 317 386
#     4  10  19  37  63  90 127 165 205 261 317 381
#     4  11  20  35  66  92 126 166 203 255 321 374
#     4  12  26  44  69  91 127 174 219 262 316 380
#     4  11  23  41  62  96 129 167 215 266 310 377
#
# _framework density 21.907958000000001
#
# number of rings (size 3 to 8) (size 9 to 14) (size 15 to 20)
#    0.000    1.500    2.500    3.750    1.750    5.000 
#    0.000    5.000    0.000    0.000    0.000    0.000 
#    0.000    0.000    0.000    0.000    0.000    0.000 
#
# Total GULP energy -89130.827605 kJ/mol
# GULP energy per Si atom -5570.676725 kJ/mol
# Density = 2.185809 g / cm^3
# Si number density = 21.907958 Si / 1000 Ang^3
#
#
#
# Elastic Constant Matrix: (Units=GPa)
#
#
# Indices 1 2 3 4 5 6 
#
# 1 57.1331 -4.3374 15.3713 6.7511 6.9058 -6.0263
# 2 -4.3374 84.1940 34.7176 10.0895 -0.5157 -7.6468
# 3 15.3713 34.7176 113.3197 4.7121 35.8621 9.7237
# 4 6.7511 10.0895 4.7121 39.0741 3.0471 2.5327
# 5 6.9058 -0.5157 35.8621 3.0471 39.7936 7.3314
# 6 -6.0263 -7.6468 9.7237 2.5327 7.3314 21.1080
#
#
#
# Elastic Compliance Matrix: (Units=1/GPa)
#
#
# Indices 1 2 3 4 5 6 
#
# 1 0.020906 0.004523 -0.004619 -0.004836 -0.001001 0.010663
# 2 0.004523 0.017054 -0.008175 -0.005266 0.005364 0.010005
# 3 -0.004619 -0.008175 0.016656 0.002420 -0.013081 -0.007700
# 4 -0.004836 -0.005266 0.002420 0.028126 -0.002276 -0.006987
# 5 -0.001001 0.005364 -0.013081 -0.002276 0.038322 -0.005354
# 6 0.010663 0.010005 -0.007700 -0.006987 -0.005354 0.060289
#
#
# Mechanical properties :
#
#
# Convention : Reuss Voigt Hill
#
# Bulk Modulus (GPa) = 26.26410 38.46110 32.36260
# Shear Modulus (GPa) = 23.74319 33.92148 28.83233
#
# Velocity S-wave (km/s) = 3.29564 3.93919 3.63170
# Velocity P-wave (km/s) = 5.14743 6.18737 5.69120
#
# Compressibility (1/GPa) = 0.03807478
#
# Stress axis : x y z
#
# Youngs Moduli (GPa) = 47.83256 58.63711 60.03979
#
# Poissons Ratio (x) = -0.26524 0.27730
# Poissons Ratio (y) = -0.21637 0.49084
# Poissons Ratio (z) = 0.22092 0.47938
#
# Static dielectric constant tensor:
#      x y z
#    x 1.885800 -0.086000 0.048310 
#    y -0.086000 1.602230 -0.066270 
#    z 0.048310 -0.066270 1.848370 
# 
# From -- ./inp_files/294990.got.cif
#   From: 2010.05.17/outbox.cif.g08.bks.cpg/sg2_148_cif.got.tgz:294990.got - 2010.06.03 11:33:40.
