data_PCOD9088274
_publ_section_title
;
Structure prediction by ZEFSAII (Michael W. Deem and Ramdas Pophale) SiO2 
 PCOD9088274
Probable space group: P -1
;
_chemical_formula_sum "Si O2"
_cell_formula_units_Z 16
_cell_length_a 14.181647
_cell_length_b 11.053187
_cell_length_c 13.769067
_cell_angle_alpha 135.122956
_cell_angle_beta 30.169477
_cell_angle_gamma 133.446560
_cell_volume 748.009990
_symmetry_space_group_name_H-M "P -1"
_symmetry_group_IT_number 2
_symmetry_cell_setting 'triclinic'
loop_
_space_group_symop_operation_xyz
x,y,z
-x,-y,-z
loop_
_atom_site_type_symbol
_atom_site_label
_atom_site_fract_x
_atom_site_fract_y
_atom_site_fract_z
Si Si1 0.296038 0.894337 0.916571
Si Si2 0.865554 0.718629 0.006799
Si Si3 0.993755 0.945786 0.837620
Si Si4 0.393944 0.798586 0.112875
Si Si5 0.111421 0.524666 0.812067
Si Si6 0.837861 0.328673 0.562784
Si Si7 0.525271 0.481239 0.850441
Si Si8 0.062195 0.847024 0.294031
O O1 0.143070 0.893195 0.139769
O O2 0.209448 0.001411 0.970889
O O3 0.284073 0.694039 0.776907
O O4 0.496807 0.009596 0.839803
O O5 0.664216 0.619463 0.090450
O O6 0.978356 0.821110 0.873920
O O7 0.854499 0.874211 0.179410
O O8 0.983054 0.595502 0.886121
O O9 0.064455 0.834648 0.629268
O O10 0.258503 0.699598 0.262497
O O11 0.252051 0.805068 0.154090
O O12 0.553919 0.677427 0.891698
O O13 0.109025 0.327328 0.664769
O O14 0.000000 0.500000 0.000000
O O15 0.681896 0.360800 0.640460
O O16 0.000000 0.500000 0.500000
O O17 0.500000 0.500000 0.000000
O O18 0.000000 0.000000 0.500000
#
# Coordination Sequence:
#
# PCOD9088274 Si02
#       8
#     2   2   2   2   2   2   2   2
#     4  10  21  40  62  90 122 170 205 245 314 370
#     4  10  19  37  60  86 118 166 199 241 311 381
#     4  10  20  35  60  87 123 154 204 245 304 370
#     4  11  21  38  62  84 124 162 209 254 307 370
#     4   9  20  39  64  87 121 164 208 243 305 378
#     4  11  22  35  57  89 125 161 204 259 308 354
#     4  10  20  34  56  83 119 155 197 242 302 356
#     4  11  22  38  65  93 120 159 213 261 304 364
#
# _framework density 21.390087999999999
#
# number of rings (size 3 to 8) (size 9 to 14) (size 15 to 20)
#    0.000    1.750    1.250    4.875    0.000    0.500 
#    0.000    0.625    0.000    0.000    0.000    0.000 
#    0.000    0.000    0.000    0.000    0.000    0.000 
#
# Total GULP energy -89150.612014 kJ/mol
# GULP energy per Si atom -5571.913251 kJ/mol
# Density = 2.134140 g / cm^3
# Si number density = 21.390088 Si / 1000 Ang^3
#
#
#
# Elastic Constant Matrix: (Units=GPa)
#
#
# Indices 1 2 3 4 5 6 
#
# 1 61.9339 13.0808 -11.9913 -0.5502 -0.0985 -3.2390
# 2 13.0808 124.3566 17.9543 16.2409 5.6421 26.1217
# 3 -11.9913 17.9543 27.2601 16.7879 6.8116 -0.5963
# 4 -0.5502 16.2409 16.7879 31.6853 2.6063 3.3424
# 5 -0.0985 5.6421 6.8116 2.6063 16.6569 2.4001
# 6 -3.2390 26.1217 -0.5963 3.3424 2.4001 48.7845
#
#
#
# Elastic Compliance Matrix: (Units=1/GPa)
#
#
# Indices 1 2 3 4 5 6 
#
# 1 0.020738 -0.004631 0.017722 -0.006734 -0.005192 0.004790
# 2 -0.004631 0.011276 -0.009866 -0.000038 0.001133 -0.006519
# 3 0.017722 -0.009866 0.079617 -0.035929 -0.025094 0.011129
# 4 -0.006734 -0.000038 -0.035929 0.050380 0.007458 -0.004684
# 5 -0.005192 0.001133 -0.025094 0.007458 0.069463 -0.005187
# 6 0.004790 -0.006519 0.011129 -0.004684 -0.005187 0.025019
#
#
# Mechanical properties :
#
#
# Convention : Reuss Voigt Hill
#
# Bulk Modulus (GPa) = 8.46881 27.95979 18.21430
# Shear Modulus (GPa) = 17.27691 32.39247 24.83469
#
# Velocity S-wave (km/s) = 2.84510 3.89571 3.41110
# Velocity P-wave (km/s) = 3.84195 5.77366 4.90386
#
# Compressibility (1/GPa) = 0.11808038
#
# Stress axis : x y z
#
# Youngs Moduli (GPa) = 48.22073 88.68510 12.56010
#
# Poissons Ratio (x) = 0.41071 -0.22259
# Poissons Ratio (y) = 0.22332 0.12392
# Poissons Ratio (z) = -0.85455 0.87495
#
# Static dielectric constant tensor:
#      x y z
#    x 1.792250 0.000620 -0.005880 
#    y 0.000620 1.847560 0.092520 
#    z -0.005880 0.092520 1.727540 
# 
# From -- ./inp_files/532018.got.cif
#   From: 2010.05.17/outbox.cif.g08.bks.cpg/sg2_267_cif.got.tgz:532018.got - 2010.06.03 11:33:40.
