data_PCOD9088632
_publ_section_title
;
Structure prediction by ZEFSAII (Michael W. Deem and Ramdas Pophale) SiO2 
 PCOD9088632
Probable space group: P -1
;
_chemical_formula_sum "Si O2"
_cell_formula_units_Z 12
_cell_length_a 6.920062
_cell_length_b 11.824212
_cell_length_c 9.502328
_cell_angle_alpha 121.292973
_cell_angle_beta 107.179725
_cell_angle_gamma 117.458396
_cell_volume 417.886579
_symmetry_space_group_name_H-M "P -1"
_symmetry_group_IT_number 2
_symmetry_cell_setting 'triclinic'
loop_
_space_group_symop_operation_xyz
x,y,z
-x,-y,-z
loop_
_atom_site_type_symbol
_atom_site_label
_atom_site_fract_x
_atom_site_fract_y
_atom_site_fract_z
Si Si1 0.187700 0.883710 0.781778
Si Si2 0.166471 0.515005 0.687578
Si Si3 0.879896 0.159018 0.802827
Si Si4 0.706916 0.706740 0.766740
Si Si5 0.164448 0.238072 0.631203
Si Si6 0.327836 0.706508 0.341931
O O1 0.031875 0.660202 0.586962
O O2 0.960679 0.867554 0.809866
O O3 0.138070 0.917011 0.635988
O O4 0.500000 0.000000 0.000000
O O5 0.484207 0.700016 0.794464
O O6 0.267649 0.440808 0.762168
O O7 0.924848 0.463867 0.708221
O O8 0.815048 0.272297 0.798131
O O9 0.046715 0.163278 0.714173
O O10 0.561781 0.924815 0.610645
O O11 0.088566 0.259781 0.048018
O O12 0.500000 0.500000 0.500000
O O13 0.448210 0.291813 0.674524
#
# Coordination Sequence:
#
# PCOD9088632 Si02
#       6
#     2   2   2   2   2   2
#     4   9  18  36  62  83 114 154 192 235 290 337
#     4   8  19  36  57  82 113 154 190 231 286 341
#     4  10  21  36  63  85 116 152 198 239 287 340
#     4  10  20  39  62  81 119 159 188 236 297 344
#     4   9  20  36  61  88 117 145 200 241 284 340
#     4  10  19  37  62  89 114 149 197 243 286 335
#
# _framework density 28.715924999999999
#
# number of rings (size 3 to 8) (size 9 to 14) (size 15 to 20)
#    1.000    1.667    0.000    1.500    2.333    2.667 
#    0.000    7.500    3.667    0.000    0.000    0.000 
#    0.000    0.000    0.000    0.000    0.000    0.000 
#
# Total GULP energy -67148.881934 kJ/mol
# GULP energy per Si atom -5595.740161 kJ/mol
# Density = 2.865057 g / cm^3
# Si number density = 28.715925 Si / 1000 Ang^3
#
#
#
# Elastic Constant Matrix: (Units=GPa)
#
#
# Indices 1 2 3 4 5 6 
#
# 1 244.1425 55.4497 47.3999 -13.5427 -9.5642 32.2566
# 2 55.4497 104.1590 55.5390 0.0704 -3.8894 42.3075
# 3 47.3999 55.5390 177.9272 -30.3756 25.1908 3.9504
# 4 -13.5427 0.0704 -30.3756 40.8087 1.8756 -1.2150
# 5 -9.5642 -3.8894 25.1908 1.8756 45.0535 -12.6284
# 6 32.2566 42.3075 3.9504 -1.2150 -12.6284 50.1479
#
#
#
# Elastic Compliance Matrix: (Units=1/GPa)
#
#
# Indices 1 2 3 4 5 6 
#
# 1 0.004882 -0.001556 -0.000730 0.000996 0.000838 -0.001535
# 2 -0.001556 0.020444 -0.006835 -0.006155 0.001149 -0.015568
# 3 -0.000730 -0.006835 0.009899 0.007513 -0.005393 0.004280
# 4 0.000996 -0.006155 0.007513 0.030764 -0.004823 0.003492
# 5 0.000838 0.001149 -0.005393 -0.004823 0.027278 0.005669
# 6 -0.001535 -0.015568 0.004280 0.003492 0.005669 0.035238
#
#
# Mechanical properties :
#
#
# Convention : Reuss Voigt Hill
#
# Bulk Modulus (GPa) = 58.87607 93.66731 76.27169
# Shear Modulus (GPa) = 32.80692 51.72470 42.26581
#
# Velocity S-wave (km/s) = 3.38370 4.24872 3.84064
# Velocity P-wave (km/s) = 5.98443 7.53381 6.80337
#
# Compressibility (1/GPa) = 0.01698483
#
# Stress axis : x y z
#
# Youngs Moduli (GPa) = 204.84199 48.91403 101.01704
#
# Poissons Ratio (x) = 0.07610 0.07370
# Poissons Ratio (y) = 0.31869 0.69044
# Poissons Ratio (z) = 0.14944 0.33432
#
# Static dielectric constant tensor:
#      x y z
#    x 2.238460 -0.092970 -0.006520 
#    y -0.092970 2.351630 0.072010 
#    z -0.006520 0.072010 2.255110 
# 
# From -- ./inp_files/211160.got.cif
#   From: 2010.05.17/outbox.cif.g08.bks.cpg/sg2_106_cif.got.tgz:211160.got - 2010.06.03 11:33:40.
