data_PCOD9088485
_publ_section_title
;
Structure prediction by ZEFSAII (Michael W. Deem and Ramdas Pophale) SiO2 
 PCOD9088485
Probable space group: P -1
;
_chemical_formula_sum "Si O2"
_cell_formula_units_Z 16
_cell_length_a 8.094375
_cell_length_b 9.444109
_cell_length_c 15.588993
_cell_angle_alpha 106.152167
_cell_angle_beta 36.853925
_cell_angle_gamma 101.562758
_cell_volume 686.025028
_symmetry_space_group_name_H-M "P -1"
_symmetry_group_IT_number 2
_symmetry_cell_setting 'triclinic'
loop_
_space_group_symop_operation_xyz
x,y,z
-x,-y,-z
loop_
_atom_site_type_symbol
_atom_site_label
_atom_site_fract_x
_atom_site_fract_y
_atom_site_fract_z
Si Si1 0.979550 0.323786 0.966133
Si Si2 0.266036 0.891775 0.381037
Si Si3 0.594945 0.316433 0.864413
Si Si4 0.886060 0.666556 0.586684
Si Si5 0.447943 0.889446 0.582692
Si Si6 0.273112 0.694724 0.757476
Si Si7 0.192060 0.349287 0.706868
Si Si8 0.407391 0.350490 0.126268
O O1 0.940431 0.267246 0.069412
O O2 0.692000 0.284323 0.035249
O O3 0.000000 0.500000 0.000000
O O4 0.199350 0.291129 0.793225
O O5 0.381058 0.816881 0.234041
O O6 0.135537 0.764163 0.470118
O O7 0.471994 0.999064 0.356869
O O8 0.000000 0.000000 0.500000
O O9 0.553687 0.472090 0.859029
O O10 0.887477 0.331732 0.792597
O O11 0.384351 0.309019 0.029628
O O12 0.594792 0.699292 0.661630
O O13 0.821320 0.689202 0.717600
O O14 0.000000 0.500000 0.500000
O O15 0.221978 0.800636 0.715198
O O16 0.622859 0.747127 0.450601
O O17 0.500000 0.000000 0.500000
O O18 0.248558 0.522346 0.714545
#
# Coordination Sequence:
#
# PCOD9088485 Si02
#       8
#     2   2   2   2   2   2   2   2
#     4   8  17  34  61  89 119 151 194 255 311 351
#     4  12  23  41  59  84 129 165 197 247 314 363
#     4  10  19  37  61  89 123 154 199 254 303 357
#     4  11  21  36  64  95 120 158 208 254 300 365
#     4  12  27  40  57  89 124 167 206 250 311 370
#     4  10  21  40  61  89 122 161 206 251 306 362
#     4  10  20  38  63  88 121 159 203 256 306 358
#     4   9  19  33  59  97 115 148 208 253 292 357
#
# _framework density 23.322766000000001
#
# number of rings (size 3 to 8) (size 9 to 14) (size 15 to 20)
#    0.000    1.750    3.750    0.375    1.750    2.000 
#    0.000    2.500    0.000    0.000    0.000    0.000 
#    0.000    0.000    0.000    0.000    0.000    0.000 
#
# Total GULP energy -89198.623777 kJ/mol
# GULP energy per Si atom -5574.913986 kJ/mol
# Density = 2.326968 g / cm^3
# Si number density = 23.322766 Si / 1000 Ang^3
#
#
#
# Elastic Constant Matrix: (Units=GPa)
#
#
# Indices 1 2 3 4 5 6 
#
# 1 72.8570 26.8843 31.5674 -0.7786 23.9474 14.2900
# 2 26.8843 113.8455 65.3658 -2.2841 27.0984 7.0037
# 3 31.5674 65.3658 153.4828 -3.3789 35.6085 9.5516
# 4 -0.7786 -2.2841 -3.3789 45.3598 3.2063 15.6532
# 5 23.9474 27.0984 35.6085 3.2063 28.6915 -2.3032
# 6 14.2900 7.0037 9.5516 15.6532 -2.3032 35.7464
#
#
#
# Elastic Compliance Matrix: (Units=1/GPa)
#
#
# Indices 1 2 3 4 5 6 
#
# 1 0.023871 0.000217 0.001716 0.007387 -0.024276 -0.014843
# 2 0.000217 0.012961 -0.003248 0.002177 -0.008899 -0.003285
# 3 0.001716 -0.003248 0.010889 0.003389 -0.012681 -0.005261
# 4 0.007387 0.002177 0.003389 0.030181 -0.017295 -0.018616
# 5 -0.024276 -0.008899 -0.012681 -0.017295 0.083422 0.027785
# 6 -0.014843 -0.003285 -0.005261 -0.018616 0.027785 0.045900
#
#
# Mechanical properties :
#
#
# Convention : Reuss Voigt Hill
#
# Bulk Modulus (GPa) = 22.17597 65.31337 43.74467
# Shear Modulus (GPa) = 22.23360 36.38407 29.30884
#
# Velocity S-wave (km/s) = 3.09091 3.95400 3.54879
# Velocity P-wave (km/s) = 4.71881 6.99360 5.96563
#
# Compressibility (1/GPa) = 0.04509385
#
# Stress axis : x y z
#
# Youngs Moduli (GPa) = 41.89137 77.15274 91.83160
#
# Poissons Ratio (x) = -0.01676 -0.15761
# Poissons Ratio (y) = -0.00910 0.29823
# Poissons Ratio (z) = -0.07190 0.25056
#
# Static dielectric constant tensor:
#      x y z
#    x 1.639610 -0.265730 0.113900 
#    y -0.265730 -1.186090 0.556230 
#    z 0.113900 0.556230 1.771780 
# 
# From -- ./inp_files/272818.got.cif
#   From: 2010.05.17/outbox.cif.g08.bks.cpg/sg2_137_cif.got.tgz:272818.got - 2010.06.03 11:33:40.
