data_PCOD9088596
_publ_section_title
;
Structure prediction by ZEFSAII (Michael W. Deem and Ramdas Pophale) SiO2 
 PCOD9088596
Probable space group: P -1
;
_chemical_formula_sum "Si O2"
_cell_formula_units_Z 14
_cell_length_a 17.874396
_cell_length_b 10.993942
_cell_length_c 7.476638
_cell_angle_alpha 125.667637
_cell_angle_beta 102.664315
_cell_angle_gamma 35.723304
_cell_volume 588.462066
_symmetry_space_group_name_H-M "P -1"
_symmetry_group_IT_number 2
_symmetry_cell_setting 'triclinic'
loop_
_space_group_symop_operation_xyz
x,y,z
-x,-y,-z
loop_
_atom_site_type_symbol
_atom_site_label
_atom_site_fract_x
_atom_site_fract_y
_atom_site_fract_z
Si Si1 0.187633 0.636519 0.467316
Si Si2 0.487839 0.197917 0.122467
Si Si3 0.213301 0.257516 0.251753
Si Si4 0.382184 0.815321 0.290422
Si Si5 0.410292 0.299668 0.754011
Si Si6 0.889757 0.315309 0.947585
Si Si7 0.083720 0.374086 0.748871
O O1 0.337231 0.487400 0.401716
O O2 0.207525 0.447954 0.424188
O O3 0.152415 0.638393 0.246046
O O4 0.051650 0.965068 0.750210
O O5 0.446250 0.285111 0.965747
O O6 0.500000 0.000000 0.000000
O O7 0.655282 0.987005 0.042324
O O8 0.046180 0.477364 0.317726
O O9 0.280601 0.061539 0.291240
O O10 0.503153 0.730785 0.354104
O O11 0.242885 0.014123 0.518578
O O12 0.500000 0.500000 0.000000
O O13 0.500000 0.000000 0.500000
O O14 0.233149 0.566085 0.895971
O O15 0.887742 0.495147 0.145552
O O16 0.000000 0.500000 0.000000
#
# Coordination Sequence:
#
# PCOD9088596 Si02
#       7
#     2   2   2   2   2   2   2
#     4   9  18  36  65  93 125 160 211 259 322 380
#     4   8  17  33  59  84 116 161 201 246 310 370
#     4  10  21  41  63  91 129 174 209 261 322 386
#     4  11  26  44  65  92 131 177 212 261 328 385
#     4  10  19  37  62  86 119 160 213 257 303 364
#     4  10  20  36  63  98 124 163 208 263 314 380
#     4  12  24  41  66  97 133 166 215 266 323 375
#
# _framework density 23.790828000000001
#
# number of rings (size 3 to 8) (size 9 to 14) (size 15 to 20)
#    0.000    2.000    2.857    0.429    2.000    2.286 
#    0.000    7.857    0.000    0.000    0.000    0.000 
#    0.000    0.000    0.000    0.000    0.000    0.000 
#
# Total GULP energy -78084.256358 kJ/mol
# GULP energy per Si atom -5577.446883 kJ/mol
# Density = 2.373668 g / cm^3
# Si number density = 23.790828 Si / 1000 Ang^3
#
#
#
# Elastic Constant Matrix: (Units=GPa)
#
#
# Indices 1 2 3 4 5 6 
#
# 1 87.2054 16.4401 48.3160 14.8296 -27.5823 -33.0215
# 2 16.4401 81.7465 45.0996 5.7552 -10.9692 -5.2986
# 3 48.3160 45.0996 165.9217 52.0938 -28.6474 -29.8578
# 4 14.8296 5.7552 52.0938 40.8951 -10.9096 -8.5304
# 5 -27.5823 -10.9692 -28.6474 -10.9096 49.0667 15.4350
# 6 -33.0215 -5.2986 -29.8578 -8.5304 15.4350 36.7479
#
#
#
# Elastic Compliance Matrix: (Units=1/GPa)
#
#
# Indices 1 2 3 4 5 6 
#
# 1 0.019655 -0.001272 -0.001943 -0.000218 0.005295 0.013624
# 2 -0.001272 0.015299 -0.005779 0.005441 0.001482 -0.002992
# 3 -0.001943 -0.005779 0.013867 -0.014900 0.000869 0.004864
# 4 -0.000218 0.005441 -0.014900 0.042923 0.002796 -0.002729
# 5 0.005295 0.001482 0.000869 0.002796 0.026303 -0.004720
# 6 0.013624 -0.002992 0.004864 -0.002729 -0.004720 0.044325
#
#
# Mechanical properties :
#
#
# Convention : Reuss Voigt Hill
#
# Bulk Modulus (GPa) = 32.43258 61.62056 47.02657
# Shear Modulus (GPa) = 26.22802 40.34313 33.28558
#
# Velocity S-wave (km/s) = 3.32391 4.12241 3.74450
# Velocity P-wave (km/s) = 5.32852 6.97253 6.20521
#
# Compressibility (1/GPa) = 0.03083320
#
# Stress axis : x y z
#
# Youngs Moduli (GPa) = 50.87869 65.36488 72.11436
#
# Poissons Ratio (x) = 0.08312 0.14013
# Poissons Ratio (y) = 0.06470 0.41673
# Poissons Ratio (z) = 0.09886 0.37772
#
# Static dielectric constant tensor:
#      x y z
#    x 1.956210 -0.015730 -0.087070 
#    y -0.015730 1.992130 -0.055420 
#    z -0.087070 -0.055420 1.942430 
# 
# From -- ./inp_files/181430.got.cif
#   From: 2010.05.17/outbox.cif.g08.bks.cpg/sg2_91_cif.got.tgz:181430.got - 2010.06.03 11:33:40.
