data_PCOD9088483
_publ_section_title
;
Structure prediction by ZEFSAII (Michael W. Deem and Ramdas Pophale) SiO2 
 PCOD9088483
Probable space group: P -1
;
_chemical_formula_sum "Si O2"
_cell_formula_units_Z 16
_cell_length_a 8.549909
_cell_length_b 9.730922
_cell_length_c 16.128667
_cell_angle_alpha 116.435510
_cell_angle_beta 40.972211
_cell_angle_gamma 132.550541
_cell_volume 642.210911
_symmetry_space_group_name_H-M "P -1"
_symmetry_group_IT_number 2
_symmetry_cell_setting 'triclinic'
loop_
_space_group_symop_operation_xyz
x,y,z
-x,-y,-z
loop_
_atom_site_type_symbol
_atom_site_label
_atom_site_fract_x
_atom_site_fract_y
_atom_site_fract_z
Si Si1 0.097903 0.370672 0.461402
Si Si2 0.723624 0.447159 0.396159
Si Si3 0.682065 0.947864 0.466128
Si Si4 0.132512 0.113958 0.791275
Si Si5 0.679840 0.491197 0.153408
Si Si6 0.094585 0.666316 0.855132
Si Si7 0.630042 0.705203 0.948781
Si Si8 0.339420 0.079482 0.862323
O O1 0.067884 0.410266 0.579413
O O2 0.403380 0.442632 0.310161
O O3 0.000000 0.500000 0.500000
O O4 0.923636 0.145736 0.463112
O O5 0.500000 0.500000 0.500000
O O6 0.546548 0.229068 0.434869
O O7 0.851295 0.453861 0.260145
O O8 0.801193 0.877137 0.329561
O O9 0.500000 0.000000 0.500000
O O10 0.107456 0.281791 0.868680
O O11 0.373351 0.144429 0.770823
O O12 0.862394 0.901762 0.861090
O O13 0.828875 0.396310 0.107319
O O14 0.561980 0.425309 0.087802
O O15 0.815752 0.646849 0.912251
O O16 0.330903 0.893549 0.821231
O O17 0.494176 0.766249 0.090750
O O18 0.000000 0.000000 0.000000
#
# Coordination Sequence:
#
# PCOD9088483 Si02
#       8
#     2   2   2   2   2   2   2   2
#     4  12  23  37  59  90 118 164 210 242 304 370
#     4  12  23  39  58  88 130 159 198 256 302 359
#     4  12  21  36  62  86 118 166 203 247 305 364
#     4  10  19  37  61  89 122 161 205 249 306 368
#     4  12  22  39  65  90 122 164 205 254 306 366
#     4  10  21  41  62  89 127 160 203 258 302 361
#     4  10  22  43  65  87 126 163 201 260 314 361
#     4   8  19  39  63  87 122 163 200 256 316 359
#
# _framework density 24.913934000000001
#
# number of rings (size 3 to 8) (size 9 to 14) (size 15 to 20)
#    0.000    1.500    5.000    2.250    0.000    1.500 
#    0.000    8.125    0.000    0.000    0.000    0.000 
#    0.000    0.000    0.000    0.000    0.000    0.000 
#
# Total GULP energy -89207.871249 kJ/mol
# GULP energy per Si atom -5575.491953 kJ/mol
# Density = 2.485723 g / cm^3
# Si number density = 24.913934 Si / 1000 Ang^3
#
#
#
# Elastic Constant Matrix: (Units=GPa)
#
#
# Indices 1 2 3 4 5 6 
#
# 1 73.8021 55.1942 31.4185 32.9260 14.0116 1.2792
# 2 55.1942 140.1361 26.7675 35.7486 3.2122 6.3810
# 3 31.4185 26.7675 84.5488 41.3237 18.8406 25.4834
# 4 32.9260 35.7486 41.3237 50.0866 5.8859 1.0997
# 5 14.0116 3.2122 18.8406 5.8859 52.3121 15.1234
# 6 1.2792 6.3810 25.4834 1.0997 15.1234 37.2701
#
#
#
# Elastic Compliance Matrix: (Units=1/GPa)
#
#
# Indices 1 2 3 4 5 6 
#
# 1 0.024923 -0.007283 -0.003522 -0.007735 -0.005625 0.005310
# 2 -0.007283 0.011022 0.002638 -0.005415 0.002132 -0.004146
# 3 -0.003522 0.002638 0.030312 -0.023938 -0.001766 -0.019633
# 4 -0.007735 -0.005415 -0.023938 0.048196 0.001062 0.015707
# 5 -0.005625 0.002132 -0.001766 0.001062 0.023471 -0.008520
# 6 0.005310 -0.004146 -0.019633 0.015707 -0.008520 0.043777
#
#
# Mechanical properties :
#
#
# Convention : Reuss Voigt Hill
#
# Bulk Modulus (GPa) = 20.03082 58.36083 39.19582
# Shear Modulus (GPa) = 23.29108 40.27420 31.78264
#
# Velocity S-wave (km/s) = 3.06087 4.02498 3.57557
# Velocity P-wave (km/s) = 4.53314 6.71390 5.72825
#
# Compressibility (1/GPa) = 0.04992307
#
# Stress axis : x y z
#
# Youngs Moduli (GPa) = 40.12408 90.72963 32.99030
#
# Poissons Ratio (x) = 0.66078 0.11619
# Poissons Ratio (y) = 0.29222 -0.08704
# Poissons Ratio (z) = 0.14132 -0.23937
#
# Static dielectric constant tensor:
#      x y z
#    x 1.996370 0.021350 0.060180 
#    y 0.021350 1.928750 -0.079010 
#    z 0.060180 -0.079010 1.937730 
# 
# From -- ./inp_files/557438.got.cif
#   From: 2010.05.17/outbox.cif.g08.bks.cpg/sg2_279_cif.got.tgz:557438.got - 2010.06.03 11:33:40.
