data_PCOD9088458
_publ_section_title
;
Structure prediction by ZEFSAII (Michael W. Deem and Ramdas Pophale) SiO2 
 PCOD9088458
Probable space group: P -1
;
_chemical_formula_sum "Si O2"
_cell_formula_units_Z 16
_cell_length_a 7.174427
_cell_length_b 26.112968
_cell_length_c 14.864605
_cell_angle_alpha 20.082205
_cell_angle_beta 54.373788
_cell_angle_gamma 44.347447
_cell_volume 620.595915
_symmetry_space_group_name_H-M "P -1"
_symmetry_group_IT_number 2
_symmetry_cell_setting 'triclinic'
loop_
_space_group_symop_operation_xyz
x,y,z
-x,-y,-z
loop_
_atom_site_type_symbol
_atom_site_label
_atom_site_fract_x
_atom_site_fract_y
_atom_site_fract_z
Si Si1 0.338169 0.811305 0.597326
Si Si2 0.527711 0.482882 0.215491
Si Si3 0.139965 0.779036 0.980592
Si Si4 0.172845 0.135483 0.901581
Si Si5 0.904973 0.737915 0.801258
Si Si6 0.793513 0.643352 0.607799
Si Si7 0.519912 0.097632 0.208885
Si Si8 0.047568 0.067086 0.782047
O O1 0.559412 0.797761 0.487779
O O2 0.170692 0.743600 0.704159
O O3 0.500395 0.650490 0.892415
O O4 0.084944 0.028931 0.329312
O O5 0.366283 0.414491 0.316742
O O6 0.844800 0.291328 0.461877
O O7 0.338235 0.591493 0.177711
O O8 0.349782 0.812652 0.919775
O O9 0.941917 0.773401 0.119452
O O10 0.049309 0.297324 0.595209
O O11 0.500000 0.000000 0.000000
O O12 0.077685 0.003364 0.136598
O O13 0.801036 0.786554 0.854470
O O14 0.663904 0.893435 0.547276
O O15 0.992656 0.536091 0.095918
O O16 0.626484 0.054295 0.147841
O O17 0.000000 0.000000 0.000000
#
# Coordination Sequence:
#
# PCOD9088458 Si02
#       8
#     2   2   2   2   2   2   2   2
#     4  10  19  37  61  88 119 152 192 248 303 342
#     4  11  21  36  59  90 116 149 203 246 292 342
#     4  10  21  36  61  87 123 151 189 250 296 346
#     4  11  21  42  60  85 118 161 194 235 297 353
#     4   9  18  33  62  88 106 153 202 236 283 357
#     4  11  20  36  64  88 116 156 201 241 292 353
#     4   9  19  40  59  80 122 157 191 237 304 353
#     4  11  24  42  61  84 121 159 197 244 295 351
#
# _framework density 25.781669999999998
#
# number of rings (size 3 to 8) (size 9 to 14) (size 15 to 20)
#    0.000    1.750    2.500    4.125    0.000    2.500 
#    4.500    5.000    0.000   15.750    0.000    0.000 
#    0.000    0.000    0.000    0.000    0.000    0.000 
#
# Total GULP energy -89412.377975 kJ/mol
# GULP energy per Si atom -5588.273623 kJ/mol
# Density = 2.572299 g / cm^3
# Si number density = 25.781670 Si / 1000 Ang^3
#
#
#
# Elastic Constant Matrix: (Units=GPa)
#
#
# Indices 1 2 3 4 5 6 
#
# 1 57.4905 15.2790 15.5027 -9.8474 -14.3928 9.4397
# 2 15.2790 197.2083 17.9016 7.2747 -4.6440 1.9572
# 3 15.5027 17.9016 42.0372 1.2783 -6.4602 -8.6138
# 4 -9.8474 7.2747 1.2783 50.2014 6.5233 -4.8171
# 5 -14.3928 -4.6440 -6.4602 6.5233 36.6699 -8.6916
# 6 9.4397 1.9572 -8.6138 -4.8171 -8.6916 21.6574
#
#
#
# Elastic Compliance Matrix: (Units=1/GPa)
#
#
# Indices 1 2 3 4 5 6 
#
# 1 0.024034 -0.000819 -0.010514 0.003411 0.003971 -0.012231
# 2 -0.000819 0.005385 -0.002258 -0.000987 -0.000174 -0.001317
# 3 -0.010514 -0.002258 0.033939 -0.001492 0.006727 0.020653
# 4 0.003411 -0.000987 -0.001492 0.021253 -0.002410 0.001769
# 5 0.003971 -0.000174 0.006727 -0.002410 0.033730 0.013961
# 6 -0.012231 -0.001317 0.020653 0.001769 0.013961 0.065834
#
#
# Mechanical properties :
#
#
# Convention : Reuss Voigt Hill
#
# Bulk Modulus (GPa) = 27.64282 43.78918 35.71600
# Shear Modulus (GPa) = 22.38003 38.24259 30.31131
#
# Velocity S-wave (km/s) = 2.94948 3.85557 3.43256
# Velocity P-wave (km/s) = 4.72699 6.06977 5.43997
#
# Compressibility (1/GPa) = 0.03617576
#
# Stress axis : x y z
#
# Youngs Moduli (GPa) = 41.60819 185.71697 29.46499
#
# Poissons Ratio (x) = 0.15202 0.30980
# Poissons Ratio (y) = 0.03406 0.06652
# Poissons Ratio (z) = 0.43748 0.41929
#
# Static dielectric constant tensor:
#      x y z
#    x 2.154920 -0.015120 0.034340 
#    y -0.015120 2.141900 0.029400 
#    z 0.034340 0.029400 2.039080 
# 
# From -- ./inp_files/508956.got.cif
#   From: 2010.05.17/outbox.cif.g08.bks.cpg/sg2_255_cif.got.tgz:508956.got - 2010.06.03 11:33:40.
