data_PCOD9088508
_publ_section_title
;
Structure prediction by ZEFSAII (Michael W. Deem and Ramdas Pophale) SiO2 
 PCOD9088508
Probable space group: P -1
;
_chemical_formula_sum "Si O2"
_cell_formula_units_Z 16
_cell_length_a 9.428092
_cell_length_b 10.672466
_cell_length_c 11.751753
_cell_angle_alpha 60.121527
_cell_angle_beta 87.827155
_cell_angle_gamma 128.460536
_cell_volume 689.543677
_symmetry_space_group_name_H-M "P -1"
_symmetry_group_IT_number 2
_symmetry_cell_setting 'triclinic'
loop_
_space_group_symop_operation_xyz
x,y,z
-x,-y,-z
loop_
_atom_site_type_symbol
_atom_site_label
_atom_site_fract_x
_atom_site_fract_y
_atom_site_fract_z
Si Si1 0.006468 0.333087 0.187705
Si Si2 0.352651 0.898575 0.361543
Si Si3 0.415830 0.725474 0.631723
Si Si4 0.722929 0.197732 0.048513
Si Si5 0.955203 0.742098 0.109462
Si Si6 0.011169 0.835433 0.328182
Si Si7 0.266998 0.287491 0.067615
Si Si8 0.811641 0.903697 0.468423
O O1 0.133822 0.305821 0.130236
O O2 0.849180 0.283791 0.124275
O O3 0.183164 0.582771 0.109179
O O4 0.853620 0.109815 0.364371
O O5 0.369346 0.761553 0.493421
O O6 0.109336 0.766141 0.413302
O O7 0.471787 0.091683 0.360515
O O8 0.482189 0.001574 0.190304
O O9 0.197270 0.510306 0.789221
O O10 0.577885 0.716368 0.609334
O O11 0.815846 0.133557 0.001100
O O12 0.950039 0.763335 0.233445
O O13 0.833013 0.773505 0.027792
O O14 0.842931 0.814262 0.404264
O O15 0.218119 0.092497 0.201610
O O16 0.500000 0.500000 0.000000
O O17 0.000000 0.000000 0.500000
#
# Coordination Sequence:
#
# PCOD9088508 Si02
#       8
#     2   2   2   2   2   2   2   2
#     4   9  18  32  59  90 114 155 204 265 300 348
#     4  11  22  40  66  93 121 164 220 264 305 367
#     4  11  23  40  65  93 122 167 216 261 312 371
#     4  10  19  37  61  90 126 158 206 258 311 367
#     4  11  25  39  62  94 132 169 201 256 327 379
#     4  11  24  41  63  93 131 166 205 261 321 377
#     4  10  20  38  64  90 119 160 217 256 299 367
#     4  11  22  39  63  92 126 164 212 265 310 370
#
# _framework density 23.203751
#
# number of rings (size 3 to 8) (size 9 to 14) (size 15 to 20)
#    0.000    1.500    2.500    4.125    3.500    1.500 
#    0.000    0.000    0.000    0.000    0.000    0.000 
#    0.000    0.000    0.000    0.000    0.000    0.000 
#
# Total GULP energy -89153.695913 kJ/mol
# GULP energy per Si atom -5572.105995 kJ/mol
# Density = 2.315094 g / cm^3
# Si number density = 23.203751 Si / 1000 Ang^3
#
#
#
# Elastic Constant Matrix: (Units=GPa)
#
#
# Indices 1 2 3 4 5 6 
#
# 1 90.9210 8.8901 27.5125 16.0069 -11.3894 5.0431
# 2 8.8901 31.3703 -3.9353 21.3835 -5.6706 -0.5563
# 3 27.5125 -3.9353 59.4911 9.3992 -18.0539 -1.8980
# 4 16.0069 21.3835 9.3992 34.3159 -6.0413 -3.6013
# 5 -11.3894 -5.6706 -18.0539 -6.0413 44.8581 6.2713
# 6 5.0431 -0.5563 -1.8980 -3.6013 6.2713 21.7980
#
#
#
# Elastic Compliance Matrix: (Units=1/GPa)
#
#
# Indices 1 2 3 4 5 6 
#
# 1 0.014062 -0.001706 -0.005755 -0.004225 0.001144 -0.004825
# 2 -0.001706 0.064481 0.014157 -0.042404 0.008572 -0.006199
# 3 -0.005755 0.014157 0.024895 -0.011453 0.008888 -0.000589
# 4 -0.004225 -0.042404 -0.011453 0.060994 -0.004254 0.010199
# 5 0.001144 0.008572 0.008888 -0.004254 0.027785 -0.007968
# 6 -0.004825 -0.006199 -0.000589 0.010199 -0.007968 0.050760
#
#
# Mechanical properties :
#
#
# Convention : Reuss Voigt Hill
#
# Bulk Modulus (GPa) = 8.55947 27.41300 17.98624
# Shear Modulus (GPa) = 18.62015 30.14873 24.38444
#
# Velocity S-wave (km/s) = 2.83585 3.60850 3.24525
# Velocity P-wave (km/s) = 3.79731 5.40383 4.67017
#
# Compressibility (1/GPa) = 0.11682968
#
# Stress axis : x y z
#
# Youngs Moduli (GPa) = 71.11599 15.50853 40.16843
#
# Poissons Ratio (x) = 0.02646 0.23117
# Poissons Ratio (y) = 0.12132 -0.56867
# Poissons Ratio (z) = 0.40928 -0.21956
#
# Static dielectric constant tensor:
#      x y z
#    x 2.001760 -0.004170 -0.000410 
#    y -0.004170 1.870170 -0.040300 
#    z -0.000410 -0.040300 2.141650 
# 
# From -- ./inp_files/273904.got.cif
#   From: 2010.05.17/outbox.cif.g08.bks.cpg/sg2_137_cif.got.tgz:273904.got - 2010.06.03 11:33:40.
