data_PCOD9088562
_publ_section_title
;
Structure prediction by ZEFSAII (Michael W. Deem and Ramdas Pophale) SiO2 
 PCOD9088562
Probable space group: P -1
;
_chemical_formula_sum "Si O2"
_cell_formula_units_Z 16
_cell_length_a 17.436706
_cell_length_b 8.626963
_cell_length_c 12.114000
_cell_angle_alpha 121.144237
_cell_angle_beta 99.536570
_cell_angle_gamma 126.856813
_cell_volume 897.334154
_symmetry_space_group_name_H-M "P -1"
_symmetry_group_IT_number 2
_symmetry_cell_setting 'triclinic'
loop_
_space_group_symop_operation_xyz
x,y,z
-x,-y,-z
loop_
_atom_site_type_symbol
_atom_site_label
_atom_site_fract_x
_atom_site_fract_y
_atom_site_fract_z
Si Si1 0.222613 0.830905 0.419018
Si Si2 0.995058 0.991207 0.308565
Si Si3 0.422963 0.738225 0.795893
Si Si4 0.375223 0.621730 0.337573
Si Si5 0.513368 0.517305 0.377911
Si Si6 0.116808 0.304738 0.063460
Si Si7 0.137382 0.040726 0.548354
Si Si8 0.718366 0.364680 0.473657
O O1 0.142734 0.549800 0.213920
O O2 0.290562 0.831445 0.527335
O O3 0.336161 0.142622 0.490424
O O4 0.141273 0.832600 0.461480
O O5 0.038707 0.927527 0.387574
O O6 0.132504 0.339576 0.427414
O O7 0.908632 0.972174 0.349221
O O8 0.925129 0.779464 0.105135
O O9 0.503754 0.717239 0.760658
O O10 0.283744 0.398185 0.686993
O O11 0.383567 0.797790 0.708884
O O12 0.500000 0.000000 0.000000
O O13 0.423823 0.507365 0.299188
O O14 0.256336 0.459669 0.169078
O O15 0.310812 0.527843 0.408600
O O16 0.500000 0.000000 0.500000
O O17 0.500000 0.500000 0.500000
O O18 0.000000 0.000000 0.000000
#
# Coordination Sequence:
#
# PCOD9088562 Si02
#       8
#     2   2   2   2   2   2   2   2
#     4  10  21  38  60  91 117 156 206 247 306 361
#     4  10  20  40  60  82 120 164 196 246 303 359
#     4  10  22  39  59  86 121 157 207 253 294 359
#     4  11  20  37  61  90 122 156 197 248 308 357
#     4  11  21  37  62  89 118 163 199 244 310 367
#     4  11  21  37  62  92 120 152 203 254 296 349
#     4   9  22  40  59  84 120 163 203 241 309 365
#     4  10  19  37  62  79 123 159 192 248 309 346
#
# _framework density 17.830594000000001
#
# number of rings (size 3 to 8) (size 9 to 14) (size 15 to 20)
#    0.000    1.750    6.250    0.000    0.000    3.000 
#    2.250    3.750    0.000    0.000    0.000    0.000 
#    0.000    0.000    0.000    0.000    0.000    0.000 
#
# Total GULP energy -89189.830440 kJ/mol
# GULP energy per Si atom -5574.364403 kJ/mol
# Density = 1.779001 g / cm^3
# Si number density = 17.830594 Si / 1000 Ang^3
#
#
#
# Elastic Constant Matrix: (Units=GPa)
#
#
# Indices 1 2 3 4 5 6 
#
# 1 148.3314 35.7276 65.5396 -9.6085 -22.5528 4.8509
# 2 35.7276 70.8950 33.0368 -12.4557 -13.4160 7.1905
# 3 65.5396 33.0368 128.5528 -26.5968 -15.7031 -11.5879
# 4 -9.6085 -12.4557 -26.5968 26.2281 5.6789 -0.5008
# 5 -22.5528 -13.4160 -15.7031 5.6789 29.4633 0.3392
# 6 4.8509 7.1905 -11.5879 -0.5008 0.3392 27.4165
#
#
#
# Elastic Compliance Matrix: (Units=1/GPa)
#
#
# Indices 1 2 3 4 5 6 
#
# 1 0.010103 -0.002082 -0.005079 -0.003545 0.004802 -0.003512
# 2 -0.002082 0.018656 -0.002826 0.004112 0.004668 -0.005701
# 3 -0.005079 -0.002826 0.014143 0.011266 0.000102 0.007822
# 4 -0.003545 0.004112 0.011266 0.051345 -0.004794 0.005308
# 5 0.004802 0.004668 0.000102 -0.004794 0.040750 -0.002622
# 6 -0.003512 -0.005701 0.007822 0.005308 -0.002622 0.042027
#
#
# Mechanical properties :
#
#
# Convention : Reuss Voigt Hill
#
# Bulk Modulus (GPa) = 43.61650 68.48747 56.05198
# Shear Modulus (GPa) = 24.43325 30.85325 27.64325
#
# Velocity S-wave (km/s) = 3.70577 4.16427 3.94169
# Velocity P-wave (km/s) = 6.54408 7.84952 7.22634
#
# Compressibility (1/GPa) = 0.02292711
#
# Stress axis : x y z
#
# Youngs Moduli (GPa) = 98.98422 53.60347 70.70678
#
# Poissons Ratio (x) = 0.11162 0.35911
# Poissons Ratio (y) = 0.20613 0.19979
# Poissons Ratio (z) = 0.50273 0.15146
#
# Static dielectric constant tensor:
#      x y z
#    x 1.647940 -0.006250 0.023800 
#    y -0.006250 1.621320 -0.006390 
#    z 0.023800 -0.006390 1.597470 
# 
# From -- ./inp_files/218572.got.cif
#   From: 2010.05.17/outbox.cif.g08.bks.cpg/sg2_110_cif.got.tgz:218572.got - 2010.06.03 11:33:40.
