data_PCOD9088365
_publ_section_title
;
Structure prediction by ZEFSAII (Michael W. Deem and Ramdas Pophale) SiO2 
 PCOD9088365
Probable space group: P -1
;
_chemical_formula_sum "Si O2"
_cell_formula_units_Z 16
_cell_length_a 8.240472
_cell_length_b 25.381242
_cell_length_c 25.450949
_cell_angle_alpha 168.724349
_cell_angle_beta 133.653886
_cell_angle_gamma 46.724632
_cell_volume 751.696521
_symmetry_space_group_name_H-M "P -1"
_symmetry_group_IT_number 2
_symmetry_cell_setting 'triclinic'
loop_
_space_group_symop_operation_xyz
x,y,z
-x,-y,-z
loop_
_atom_site_type_symbol
_atom_site_label
_atom_site_fract_x
_atom_site_fract_y
_atom_site_fract_z
Si Si1 0.578818 0.963991 0.752438
Si Si2 0.711850 0.734229 0.152672
Si Si3 0.343176 0.766984 0.719457
Si Si4 0.091423 0.728979 0.516787
Si Si5 0.206604 0.773464 0.040761
Si Si6 0.041897 0.224247 0.271094
Si Si7 0.945626 0.245260 0.666477
Si Si8 0.285316 0.506324 0.234719
O O1 0.744011 0.093372 0.874391
O O2 0.473358 0.703470 0.449036
O O3 0.388704 0.201218 0.955341
O O4 0.716211 0.851260 0.723168
O O5 0.446501 0.753797 0.104028
O O6 0.808029 0.778759 0.275997
O O7 0.834275 0.957357 0.363108
O O8 0.799737 0.441291 0.865140
O O9 0.500000 0.500000 0.500000
O O10 0.248127 0.772511 0.644595
O O11 0.133646 0.771401 0.716272
O O12 0.500000 0.000000 0.000000
O O13 0.230603 0.607202 0.379589
O O14 0.961611 0.018513 0.761846
O O15 0.907606 0.506988 0.268095
O O16 0.000000 0.500000 0.500000
O O17 0.000000 0.000000 0.000000
O O18 0.923729 0.401298 0.758981
#
# Coordination Sequence:
#
# PCOD9088365 Si02
#       8
#     2   2   2   2   2   2   2   2
#     4  12  25  43  72  93 132 169 230 270 320 387
#     4  10  20  35  66  96 134 172 220 268 328 375
#     4  12  28  48  67  93 133 175 210 263 344 405
#     4  12  28  43  67  94 139 169 220 271 335 400
#     4  12  22  45  66  98 127 182 219 271 322 393
#     4  12  28  46  68 100 127 164 220 278 322 387
#     4  10  19  37  61 102 133 169 218 277 315 385
#     4  12  24  43  67 102 131 176 219 276 325 385
#
# _framework density 21.285184000000001
#
# number of rings (size 3 to 8) (size 9 to 14) (size 15 to 20)
#    0.000    0.500    3.750    4.500    7.000    0.000 
#    0.000    1.250    0.000    0.000    0.000    0.000 
#    0.000    0.000    0.000    0.000    0.000    0.000 
#
# Total GULP energy -89475.732628 kJ/mol
# GULP energy per Si atom -5592.233289 kJ/mol
# Density = 2.123674 g / cm^3
# Si number density = 21.285184 Si / 1000 Ang^3
#
#
#
# Elastic Constant Matrix: (Units=GPa)
#
#
# Indices 1 2 3 4 5 6 
#
# 1 68.9116 21.5895 6.6940 -2.6268 -9.5539 7.9816
# 2 21.5895 188.2359 45.6219 -3.0404 3.0637 -3.8621
# 3 6.6940 45.6219 132.8083 4.0098 1.2201 -9.6736
# 4 -2.6268 -3.0404 4.0098 37.6216 -6.0065 -2.1224
# 5 -9.5539 3.0637 1.2201 -6.0065 34.2739 -0.0755
# 6 7.9816 -3.8621 -9.6736 -2.1224 -0.0755 27.9717
#
#
#
# Elastic Compliance Matrix: (Units=1/GPa)
#
#
# Indices 1 2 3 4 5 6 
#
# 1 0.016518 -0.001899 -0.000644 0.001591 0.005065 -0.005064
# 2 -0.001899 0.006035 -0.001929 0.000456 -0.000919 0.000740
# 3 -0.000644 -0.001929 0.008461 -0.001024 -0.000481 0.002765
# 4 0.001591 0.000456 -0.001024 0.027763 0.005308 0.001376
# 5 0.005065 -0.000919 -0.000481 0.005308 0.031615 -0.001250
# 6 -0.005064 0.000740 0.002765 0.001376 -0.001250 0.038355
#
#
# Mechanical properties :
#
#
# Convention : Reuss Voigt Hill
#
# Bulk Modulus (GPa) = 45.30716 59.75185 52.52950
# Shear Modulus (GPa) = 34.47135 41.04346 37.75740
#
# Velocity S-wave (km/s) = 4.02867 4.39596 4.21632
# Velocity P-wave (km/s) = 6.55532 7.34159 6.95957
#
# Compressibility (1/GPa) = 0.02207157
#
# Stress axis : x y z
#
# Youngs Moduli (GPa) = 60.53916 165.69156 118.18377
#
# Poissons Ratio (x) = 0.31468 0.07606
# Poissons Ratio (y) = 0.11497 0.22797
# Poissons Ratio (z) = 0.03896 0.31960
#
# Static dielectric constant tensor:
#      x y z
#    x 1.779780 0.016260 0.021280 
#    y 0.016260 1.839070 -0.009650 
#    z 0.021280 -0.009650 1.730970 
# 
# From -- ./inp_files/226577.got.cif
#   From: 2010.05.17/outbox.cif.g08.bks.cpg/sg2_114_cif.got.tgz:226577.got - 2010.06.03 11:33:40.
