data_PCOD9088647
_publ_section_title
;
Structure prediction by ZEFSAII (Michael W. Deem and Ramdas Pophale) SiO2 
 PCOD9088647
Probable space group: P -1
;
_chemical_formula_sum "Si O2"
_cell_formula_units_Z 16
_cell_length_a 14.066841
_cell_length_b 11.385988
_cell_length_c 8.742658
_cell_angle_alpha 72.239176
_cell_angle_beta 136.909277
_cell_angle_gamma 128.292677
_cell_volume 721.828921
_symmetry_space_group_name_H-M "P -1"
_symmetry_group_IT_number 2
_symmetry_cell_setting 'triclinic'
loop_
_space_group_symop_operation_xyz
x,y,z
-x,-y,-z
loop_
_atom_site_type_symbol
_atom_site_label
_atom_site_fract_x
_atom_site_fract_y
_atom_site_fract_z
Si Si1 0.231044 0.824718 0.831586
Si Si2 0.439898 0.707406 0.269501
Si Si3 0.257800 0.093946 0.677120
Si Si4 0.940786 0.188554 0.088041
Si Si5 0.359216 0.810777 0.418161
Si Si6 0.190529 0.355103 0.052473
Si Si7 0.857759 0.868366 0.179080
Si Si8 0.110515 0.651261 0.459209
O O1 0.192565 0.786329 0.625381
O O2 0.332105 0.009481 0.878965
O O3 0.328406 0.757627 0.036767
O O4 0.057861 0.759588 0.757234
O O5 0.627986 0.813789 0.371015
O O6 0.431470 0.740985 0.423362
O O7 0.357258 0.530722 0.206223
O O8 0.251524 0.190617 0.767450
O O9 0.059512 0.963351 0.436434
O O10 0.808943 0.214604 0.846986
O O11 0.116272 0.272941 0.162418
O O12 0.854955 0.007043 0.058945
O O13 0.274385 0.710906 0.514869
O O14 0.500000 0.000000 0.500000
O O15 0.199010 0.254530 0.972710
O O16 0.039825 0.365054 0.808552
O O17 0.000000 0.500000 0.500000
#
# Coordination Sequence:
#
# PCOD9088647 Si02
#       8
#     2   2   2   2   2   2   2   2
#     4  10  19  37  62  90 115 155 198 246 302 364
#     4  11  23  37  61  91 125 150 196 256 316 346
#     4  10  21  38  62  88 116 157 204 255 288 363
#     4   9  22  38  64  85 118 162 204 240 295 369
#     4  10  23  40  63  93 124 157 201 254 308 366
#     4  11  22  38  59  89 123 160 194 254 298 365
#     4  10  21  40  63  83 114 166 214 236 292 363
#     4  11  21  35  61  92 125 158 195 247 312 366
#
# _framework density 22.165917
#
# number of rings (size 3 to 8) (size 9 to 14) (size 15 to 20)
#    0.000    1.750    2.500    1.500    3.500    4.000 
#    0.000    0.625    0.000    0.000    0.000    0.000 
#    0.000    0.000    0.000    0.000    0.000    0.000 
#
# Total GULP energy -89175.438148 kJ/mol
# GULP energy per Si atom -5573.464884 kJ/mol
# Density = 2.211547 g / cm^3
# Si number density = 22.165917 Si / 1000 Ang^3
#
#
#
# Elastic Constant Matrix: (Units=GPa)
#
#
# Indices 1 2 3 4 5 6 
#
# 1 188.7800 82.1172 23.8361 6.4448 -34.2853 19.6589
# 2 82.1172 83.8989 10.3390 5.4012 -13.5277 17.7665
# 3 23.8361 10.3390 22.4113 -0.9513 -10.0441 4.6042
# 4 6.4448 5.4012 -0.9513 23.1556 -2.7505 -9.2782
# 5 -34.2853 -13.5277 -10.0441 -2.7505 24.7084 -7.9975
# 6 19.6589 17.7665 4.6042 -9.2782 -7.9975 29.1294
#
#
#
# Elastic Compliance Matrix: (Units=1/GPa)
#
#
# Indices 1 2 3 4 5 6 
#
# 1 0.011566 -0.009656 -0.003737 0.000686 0.009836 0.001593
# 2 -0.009656 0.023656 -0.001091 -0.008343 -0.005689 -0.011959
# 3 -0.003737 -0.001091 0.057494 0.006389 0.018712 0.001273
# 4 0.000686 -0.008343 0.006389 0.057042 0.013590 0.025516
# 5 0.009836 -0.005689 0.018712 0.013590 0.065350 0.016145
# 6 0.001593 -0.011959 0.001273 0.025516 0.016145 0.052907
#
#
# Mechanical properties :
#
#
# Convention : Reuss Voigt Hill
#
# Bulk Modulus (GPa) = 15.68647 58.63053 37.15850
# Shear Modulus (GPa) = 15.71175 27.31854 21.51515
#
# Velocity S-wave (km/s) = 2.66526 3.51445 3.11889
# Velocity P-wave (km/s) = 4.06986 6.55566 5.45620
#
# Compressibility (1/GPa) = 0.06374922
#
# Stress axis : x y z
#
# Youngs Moduli (GPa) = 86.45982 42.27211 17.39301
#
# Poissons Ratio (x) = 0.40816 0.06500
# Poissons Ratio (y) = 0.83482 0.01898
# Poissons Ratio (z) = 0.32311 0.04612
#
# Static dielectric constant tensor:
#      x y z
#    x 1.901320 0.019110 -0.011040 
#    y 0.019110 1.892640 -0.016750 
#    z -0.011040 -0.016750 1.870800 
# 
# From -- ./inp_files/206346.got.cif
#   From: 2010.05.17/outbox.cif.g08.bks.cpg/sg2_104_cif.got.tgz:206346.got - 2010.06.03 11:33:40.
