data_PCOD9088201
_publ_section_title
;
Structure prediction by ZEFSAII (Michael W. Deem and Ramdas Pophale) SiO2 
 PCOD9088201
Probable space group: P -1
;
_chemical_formula_sum "Si O2"
_cell_formula_units_Z 16
_cell_length_a 24.736356
_cell_length_b 17.983761
_cell_length_c 5.198340
_cell_angle_alpha 89.504113
_cell_angle_beta 79.585489
_cell_angle_gamma 161.020191
_cell_volume 612.120724
_symmetry_space_group_name_H-M "P -1"
_symmetry_group_IT_number 2
_symmetry_cell_setting 'triclinic'
loop_
_space_group_symop_operation_xyz
x,y,z
-x,-y,-z
loop_
_atom_site_type_symbol
_atom_site_label
_atom_site_fract_x
_atom_site_fract_y
_atom_site_fract_z
Si Si1 0.244583 0.641042 0.150047
Si Si2 0.693550 0.795651 0.730343
Si Si3 0.111007 0.343200 0.594124
Si Si4 0.473852 0.656297 0.052342
Si Si5 0.237896 0.725055 0.647069
Si Si6 0.208004 0.317565 0.777815
Si Si7 0.146057 0.903205 0.781653
Si Si8 0.744580 0.101380 0.104969
O O1 0.269680 0.591732 0.259122
O O2 0.302606 0.776803 0.314202
O O3 0.000967 0.315234 0.316498
O O4 0.299750 0.748383 0.822688
O O5 0.725501 0.855820 0.400997
O O6 0.500000 0.500000 0.000000
O O7 0.640522 0.808915 0.877415
O O8 0.913359 0.053073 0.623270
O O9 0.184327 0.373420 0.714967
O O10 0.013565 0.280566 0.857530
O O11 0.328393 0.444537 0.421624
O O12 0.600150 0.896577 0.993741
O O13 0.332169 0.475147 0.930516
O O14 0.314877 0.904433 0.680600
O O15 0.990802 0.419132 0.838895
O O16 0.000000 0.000000 0.000000
O O17 0.283536 0.011994 0.714326
#
# Coordination Sequence:
#
# PCOD9088201 Si02
#       8
#     2   2   2   2   2   2   2   2
#     4  10  19  37  59  99 125 177 219 275 322 401
#     4  11  24  39  70 102 134 174 228 299 350 405
#     4  11  23  43  69  94 138 183 233 279 343 422
#     4  12  26  47  69 103 142 174 234 294 346 402
#     4  10  21  34  66 106 139 169 227 281 348 418
#     4  12  30  48  71  97 140 192 234 278 346 425
#     4  10  20  38  64  98 137 173 230 281 339 412
#     4  10  20  40  64 104 138 178 216 296 349 398
#
# _framework density 26.138635000000001
#
# number of rings (size 3 to 8) (size 9 to 14) (size 15 to 20)
#    0.000    1.250    3.750    2.625    5.250    8.000 
#    0.000    0.000    0.000    4.500    0.000    0.000 
#    0.000    0.000    0.000    0.000    0.000    0.000 
#
# Total GULP energy -89378.484848 kJ/mol
# GULP energy per Si atom -5586.155303 kJ/mol
# Density = 2.607914 g / cm^3
# Si number density = 26.138635 Si / 1000 Ang^3
#
#
#
# Elastic Constant Matrix: (Units=GPa)
#
#
# Indices 1 2 3 4 5 6 
#
# 1 84.2796 29.7634 19.9874 5.7532 14.6024 4.3819
# 2 29.7634 140.7442 34.6349 14.7176 10.4399 5.5706
# 3 19.9874 34.6349 107.5401 10.5469 19.6410 13.0345
# 4 5.7532 14.7176 10.5469 41.4629 2.1069 6.3215
# 5 14.6024 10.4399 19.6410 2.1069 31.5805 -1.6429
# 6 4.3819 5.5706 13.0345 6.3215 -1.6429 35.0551
#
#
#
# Elastic Compliance Matrix: (Units=1/GPa)
#
#
# Indices 1 2 3 4 5 6 
#
# 1 0.013838 -0.002268 -0.000679 -0.000480 -0.005261 -0.001277
# 2 -0.002268 0.008320 -0.002002 -0.002125 -0.000311 0.000074
# 3 -0.000679 -0.002002 0.011885 -0.001262 -0.006545 -0.004096
# 4 -0.000480 -0.002125 -0.001262 0.025851 -0.000214 -0.003805
# 5 -0.005261 -0.000311 -0.006545 -0.000214 0.038545 0.004986
# 6 -0.001277 0.000074 -0.004096 -0.003805 0.004986 0.031117
#
#
# Mechanical properties :
#
#
# Convention : Reuss Voigt Hill
#
# Bulk Modulus (GPa) = 41.41568 55.70393 48.55980
# Shear Modulus (GPa) = 33.89804 38.16492 36.03148
#
# Velocity S-wave (km/s) = 3.60510 3.82527 3.71681
# Velocity P-wave (km/s) = 5.76264 6.39276 6.08586
#
# Compressibility (1/GPa) = 0.02414545
#
# Stress axis : x y z
#
# Youngs Moduli (GPa) = 72.26490 120.19707 84.13811
#
# Poissons Ratio (x) = 0.27265 0.05710
# Poissons Ratio (y) = 0.16392 0.16842
# Poissons Ratio (z) = 0.04904 0.24060
#
# Static dielectric constant tensor:
#      x y z
#    x 2.101490 -0.003520 0.091700 
#    y -0.003520 2.121340 0.017130 
#    z 0.091700 0.017130 2.262570 
# 
# From -- ./inp_files/124755.got.cif
#   From: 2010.05.17/outbox.cif.g08.bks.cpg/sg2_63_cif.got.tgz:124755.got - 2010.06.03 11:33:40.
