data_PCOD9088865
_publ_section_title
;
Structure prediction by ZEFSAII (Michael W. Deem and Ramdas Pophale) SiO2 
 PCOD9088865
Probable space group: P -1
;
_chemical_formula_sum "Si O2"
_cell_formula_units_Z 14
_cell_length_a 8.747844
_cell_length_b 22.460734
_cell_length_c 13.748743
_cell_angle_alpha 26.502904
_cell_angle_beta 122.823208
_cell_angle_gamma 138.809844
_cell_volume 710.106828
_symmetry_space_group_name_H-M "P -1"
_symmetry_group_IT_number 2
_symmetry_cell_setting 'triclinic'
loop_
_space_group_symop_operation_xyz
x,y,z
-x,-y,-z
loop_
_atom_site_type_symbol
_atom_site_label
_atom_site_fract_x
_atom_site_fract_y
_atom_site_fract_z
Si Si1 0.326972 0.018102 0.177725
Si Si2 0.753389 0.683488 0.551205
Si Si3 0.896846 0.193085 0.932052
Si Si4 0.217205 0.948531 0.691502
Si Si5 0.266908 0.282824 0.274114
Si Si6 0.580466 0.630371 0.243987
Si Si7 0.474469 0.160521 0.807822
O O1 0.535363 0.017870 0.284199
O O2 0.402118 0.206820 0.958365
O O3 0.335282 0.026515 0.050898
O O4 0.043669 0.843236 0.377495
O O5 0.749212 0.701646 0.638480
O O6 0.616048 0.484967 0.745977
O O7 0.584229 0.715496 0.400322
O O8 0.772865 0.273059 0.753713
O O9 0.143474 0.279340 0.830082
O O10 0.934902 0.185395 0.069772
O O11 0.661056 0.974622 0.134994
O O12 0.012474 0.833073 0.702056
O O13 0.304469 0.146485 0.455769
O O14 0.500000 0.500000 0.000000
O O15 0.500000 0.500000 0.500000
#
# Coordination Sequence:
#
# PCOD9088865 Si02
#       7
#     2   2   2   2   2   2   2
#     4  11  23  42  62  93 132 157 202 248 312 381
#     4  12  23  40  64  90 125 168 198 257 312 354
#     4  10  20  38  63  90 125 161 206 245 309 372
#     4  10  23  44  67  88 119 169 203 258 309 355
#     4  11  24  44  66  90 119 157 220 261 297 357
#     4  12  23  37  59  96 131 164 196 244 308 373
#     4  10  19  37  63  92 121 162 199 248 305 370
#
# _framework density 19.715342
#
# number of rings (size 3 to 8) (size 9 to 14) (size 15 to 20)
#    0.000    1.143    4.286    2.143    0.000    3.429 
#    2.571    1.429    0.000    0.000    0.000    0.000 
#    0.000    0.000    0.000    0.000    0.000    0.000 
#
# Total GULP energy -78184.394505 kJ/mol
# GULP energy per Si atom -5584.599607 kJ/mol
# Density = 1.967047 g / cm^3
# Si number density = 19.715342 Si / 1000 Ang^3
#
#
#
# Elastic Constant Matrix: (Units=GPa)
#
#
# Indices 1 2 3 4 5 6 
#
# 1 117.9927 39.7125 44.2602 5.1150 31.5069 -10.2687
# 2 39.7125 121.2427 42.5134 4.6478 20.4676 -21.7622
# 3 44.2602 42.5134 53.5471 -3.4206 8.1362 0.2451
# 4 5.1150 4.6478 -3.4206 26.5263 -0.2196 4.9311
# 5 31.5069 20.4676 8.1362 -0.2196 -35.8505 42.3097
# 6 -10.2687 -21.7622 0.2451 4.9311 42.3097 8.1759
#
#
#
# Elastic Compliance Matrix: (Units=1/GPa)
#
#
# Indices 1 2 3 4 5 6 
#
# 1 0.011285 -0.001738 -0.008510 -0.002289 0.002843 -0.003529
# 2 -0.001738 0.011423 -0.008673 -0.003122 0.005471 0.002055
# 3 -0.008510 -0.008673 0.034209 0.007909 -0.007234 -0.002134
# 4 -0.002289 -0.003122 0.007909 0.040285 -0.006247 -0.003390
# 5 0.002843 0.005471 -0.007234 -0.006247 0.000313 0.020496
# 6 -0.003529 0.002055 -0.002134 -0.003390 0.020496 0.019393
#
#
# Mechanical properties :
#
#
# Convention : Reuss Voigt Hill
#
# Bulk Modulus (GPa) = 52.42296 60.63941 56.53118
# Shear Modulus (GPa) = 31.03447 10.85676 20.94562
#
# Velocity S-wave (km/s) = 3.97183 2.34919 3.26299
# Velocity P-wave (km/s) = 6.90519 6.17920 6.55226
#
# Compressibility (1/GPa) = 0.01907561
#
# Stress axis : x y z
#
# Youngs Moduli (GPa) = 88.61136 87.53959 29.23171
#
# Poissons Ratio (x) = 0.15215 0.24877
# Poissons Ratio (y) = 0.15401 0.25353
# Poissons Ratio (z) = 0.75410 0.75923
#
# Static dielectric constant tensor:
#      x y z
#    x 1.706020 -0.008390 0.038650 
#    y -0.008390 1.691620 -0.005640 
#    z 0.038650 -0.005640 1.711100 
# 
# From -- ./inp_files/200656.got.cif
#   From: 2010.05.17/outbox.cif.g08.bks.cpg/sg2_101_cif.got.tgz:200656.got - 2010.06.03 11:33:40.
