data_PCOD9088349
_publ_section_title
;
Structure prediction by ZEFSAII (Michael W. Deem and Ramdas Pophale) SiO2 
 PCOD9088349
Probable space group: P -1
;
_chemical_formula_sum "Si O2"
_cell_formula_units_Z 16
_cell_length_a 23.186363
_cell_length_b 4.929976
_cell_length_c 19.070040
_cell_angle_alpha 92.401193
_cell_angle_beta 16.182015
_cell_angle_gamma 89.611151
_cell_volume 598.253685
_symmetry_space_group_name_H-M "P -1"
_symmetry_group_IT_number 2
_symmetry_cell_setting 'triclinic'
loop_
_space_group_symop_operation_xyz
x,y,z
-x,-y,-z
loop_
_atom_site_type_symbol
_atom_site_label
_atom_site_fract_x
_atom_site_fract_y
_atom_site_fract_z
Si Si1 0.116776 0.133040 0.791407
Si Si2 0.689781 0.413734 0.056910
Si Si3 0.836942 0.701317 0.119850
Si Si4 0.771111 0.886164 0.043774
Si Si5 0.367947 0.087311 0.355745
Si Si6 0.227953 0.608115 0.445042
Si Si7 0.703595 0.137632 0.776414
Si Si8 0.099869 0.669521 0.326624
O O1 0.217762 0.123266 0.598252
O O2 0.913551 0.375943 0.026208
O O3 0.259948 0.207880 0.689769
O O4 0.047036 0.840502 0.881282
O O5 0.617294 0.710707 0.179914
O O6 0.843223 0.473151 0.815394
O O7 0.758409 0.201644 0.038570
O O8 0.556606 0.224475 0.166599
O O9 0.741625 0.824375 0.159606
O O10 0.004213 0.743360 0.742781
O O11 0.260072 0.289730 0.423467
O O12 0.389644 0.778899 0.298085
O O13 0.272525 0.653036 0.311952
O O14 0.707265 0.251484 0.852437
O O15 0.923083 0.926976 0.516668
O O16 0.500000 0.000000 0.000000
O O17 0.000000 0.500000 0.500000
#
# Coordination Sequence:
#
# PCOD9088349 Si02
#       8
#     2   2   2   2   2   2   2   2
#     4  10  19  37  60  95 125 163 208 268 308 376
#     4  12  27  42  65  92 136 166 208 265 336 380
#     4  10  20  35  64  92 126 162 213 259 317 370
#     4  12  22  43  64  96 124 172 210 262 315 389
#     4  12  24  42  65  98 128 168 214 269 320 383
#     4  12  24  42  69  93 126 163 227 264 309 390
#     4  11  26  44  67  95 127 173 221 271 330 395
#     4  11  26  45  64  92 133 171 213 275 333 391
#
# _framework density 26.744509999999998
#
# number of rings (size 3 to 8) (size 9 to 14) (size 15 to 20)
#    0.000    0.750    3.750    3.750    5.250    0.500 
#    0.000    1.250    0.000    0.000    0.000    0.000 
#    0.000    0.000    0.000    0.000    0.000    0.000 
#
# Total GULP energy -89564.035476 kJ/mol
# GULP energy per Si atom -5597.752217 kJ/mol
# Density = 2.668364 g / cm^3
# Si number density = 26.744510 Si / 1000 Ang^3
#
#
#
# Elastic Constant Matrix: (Units=GPa)
#
#
# Indices 1 2 3 4 5 6 
#
# 1 226.4032 49.7850 20.8680 -4.3189 16.9953 -7.9819
# 2 49.7850 118.6762 6.2655 -10.1201 15.5062 -17.5454
# 3 20.8680 6.2655 31.4794 -9.5723 -8.3751 -3.5013
# 4 -4.3189 -10.1201 -9.5723 29.9798 5.3967 -1.4681
# 5 16.9953 15.5062 -8.3751 5.3967 42.2651 -12.9340
# 6 -7.9819 -17.5454 -3.5013 -1.4681 -12.9340 59.8380
#
#
#
# Elastic Compliance Matrix: (Units=1/GPa)
#
#
# Indices 1 2 3 4 5 6 
#
# 1 0.005349 -0.001874 -0.004105 -0.000777 -0.002363 -0.000606
# 2 -0.001874 0.010240 -0.000161 0.003754 -0.002834 0.002223
# 3 -0.004105 -0.000161 0.040864 0.010861 0.009693 0.004158
# 4 -0.000777 0.003754 0.010861 0.038660 -0.003276 0.001873
# 5 -0.002363 -0.002834 0.009693 -0.003276 0.029756 0.005772
# 6 -0.000606 0.002223 0.004158 0.001873 0.005772 0.018820
#
#
# Mechanical properties :
#
#
# Convention : Reuss Voigt Hill
#
# Bulk Modulus (GPa) = 22.63866 58.93287 40.78577
# Shear Modulus (GPa) = 29.29252 46.39259 37.84255
#
# Velocity S-wave (km/s) = 3.31308 4.16944 3.76568
# Velocity P-wave (km/s) = 4.80817 6.72773 5.84726
#
# Compressibility (1/GPa) = 0.04417222
#
# Stress axis : x y z
#
# Youngs Moduli (GPa) = 186.96658 97.65538 24.47157
#
# Poissons Ratio (x) = 0.18302 0.10045
# Poissons Ratio (y) = 0.35041 0.00394
# Poissons Ratio (z) = 0.76748 0.01572
#
# Static dielectric constant tensor:
#      x y z
#    x -10.320060 8.216570 8.406320 
#    y 8.216570 -3.350380 -5.662680 
#    z 8.406320 -5.662680 -3.530730 
# 
# From -- ./inp_files/55568.got.cif
#   From: 2010.05.17/outbox.cif.g08.bks.cpg/sg2_28_cif.got.tgz:55568.got - 2010.06.03 11:33:40.
