data_PCOD9088606
_publ_section_title
;
Structure prediction by ZEFSAII (Michael W. Deem and Ramdas Pophale) SiO2 
 PCOD9088606
Probable space group: P -1
;
_chemical_formula_sum "Si O2"
_cell_formula_units_Z 15
_cell_length_a 7.073401
_cell_length_b 11.600533
_cell_length_c 11.830065
_cell_angle_alpha 110.682318
_cell_angle_beta 40.354584
_cell_angle_gamma 101.367785
_cell_volume 583.874514
_symmetry_space_group_name_H-M "P -1"
_symmetry_group_IT_number 2
_symmetry_cell_setting 'triclinic'
loop_
_space_group_symop_operation_xyz
x,y,z
-x,-y,-z
loop_
_atom_site_type_symbol
_atom_site_label
_atom_site_fract_x
_atom_site_fract_y
_atom_site_fract_z
Si Si1 0.500000 0.500000 0.000000
Si Si2 0.122406 0.277823 0.149822
Si Si3 0.917663 0.877743 0.214072
Si Si4 0.814501 0.388576 0.037836
Si Si5 0.348961 0.860138 0.600818
Si Si6 0.784357 0.620614 0.613466
Si Si7 0.996430 0.835258 0.517703
Si Si8 0.391863 0.937727 0.182523
O O1 0.236086 0.398421 0.081417
O O2 0.327382 0.591514 0.016035
O O3 0.206075 0.295514 0.249957
O O4 0.784919 0.244164 0.300142
O O5 0.303796 0.148003 0.984708
O O6 0.691282 0.852840 0.410262
O O7 0.002772 0.745107 0.072637
O O8 0.222928 0.918288 0.135285
O O9 0.757917 0.997887 0.263837
O O10 0.544814 0.407299 0.255079
O O11 0.000000 0.500000 0.000000
O O12 0.195231 0.850320 0.543417
O O13 0.000000 0.500000 0.500000
O O14 0.935185 0.695191 0.476042
O O15 0.188044 0.880225 0.347021
O O16 0.679694 0.916945 0.706435
#
# Coordination Sequence:
#
# PCOD9088606 Si02
#       8
#     1   2   2   2   2   2   2   2
#     4  10  22  44  60  94 126 168 208 268 310 378
#     4  10  21  37  65  87 118 173 204 260 320 378
#     4  10  20  40  61  90 125 161 205 262 319 377
#     4  11  25  41  65  92 126 173 213 259 323 382
#     4   9  21  38  65  89 124 160 208 263 315 377
#     4  10  22  37  58  88 122 162 212 258 307 380
#     4   9  21  35  62  89 115 161 204 261 306 375
#     4  10  19  37  62  87 120 154 210 252 320 371
#
# _framework density 25.690450999999999
#
# number of rings (size 3 to 8) (size 9 to 14) (size 15 to 20)
#    0.000    2.133    2.667    0.000    9.333    1.600 
#    2.400    0.667    0.000    4.000    0.000    0.000 
#    0.000    0.000    0.000    0.000    0.000    0.000 
#
# Total GULP energy -83552.347244 kJ/mol
# GULP energy per Si atom -5570.156483 kJ/mol
# Density = 2.563198 g / cm^3
# Si number density = 25.690451 Si / 1000 Ang^3
#
#
#
# Elastic Constant Matrix: (Units=GPa)
#
#
# Indices 1 2 3 4 5 6 
#
# 1 58.8963 6.3331 5.5720 -0.0577 -9.0338 -5.4791
# 2 6.3331 156.1916 30.1519 -19.5212 -20.1124 4.5072
# 3 5.5720 30.1519 89.3092 2.2312 -19.5235 2.8922
# 4 -0.0577 -19.5212 2.2312 38.8761 3.8494 -7.6088
# 5 -9.0338 -20.1124 -19.5235 3.8494 26.5280 -5.0607
# 6 -5.4791 4.5072 2.8922 -7.6088 -5.0607 43.5843
#
#
#
# Elastic Compliance Matrix: (Units=1/GPa)
#
#
# Indices 1 2 3 4 5 6 
#
# 1 0.018321 0.000010 0.000301 -0.000080 0.007069 0.003089
# 2 0.000010 0.007724 -0.001825 0.003666 0.004067 0.000436
# 3 0.000301 -0.001825 0.013900 -0.002651 0.009319 -0.000077
# 4 -0.000080 0.003666 -0.002651 0.028852 -0.002522 0.004531
# 5 0.007069 0.004067 0.009319 -0.002522 0.051438 0.005382
# 6 0.003089 0.000436 -0.000077 0.004531 0.005382 0.024708
#
#
# Mechanical properties :
#
#
# Convention : Reuss Voigt Hill
#
# Bulk Modulus (GPa) = 27.08757 43.16790 35.12773
# Shear Modulus (GPa) = 31.19614 39.28704 35.24159
#
# Velocity S-wave (km/s) = 3.48847 3.91480 3.70777
# Velocity P-wave (km/s) = 5.17616 6.10523 5.65979
#
# Compressibility (1/GPa) = 0.03691731
#
# Stress axis : x y z
#
# Youngs Moduli (GPa) = 54.58220 129.47426 71.94106
#
# Poissons Ratio (x) = -0.00131 -0.02164
# Poissons Ratio (y) = -0.00055 0.13127
# Poissons Ratio (z) = -0.01642 0.23625
#
# Static dielectric constant tensor:
#      x y z
#    x 1.886770 -0.005060 0.284500 
#    y -0.005060 2.041690 0.012130 
#    z 0.284500 0.012130 1.791480 
# 
# From -- ./inp_files/325834.got.cif
#   From: 2010.05.17/outbox.cif.g08.bks.cpg/sg2_163_cif.got.tgz:325834.got - 2010.06.03 11:33:40.
