data_PCOD9088049
_publ_section_title
;
Structure prediction by ZEFSAII (Michael W. Deem and Ramdas Pophale) SiO2 
 PCOD9088049
Probable space group: P -1
;
_chemical_formula_sum "Si O2"
_cell_formula_units_Z 16
_cell_length_a 9.788848
_cell_length_b 10.642797
_cell_length_c 9.460792
_cell_angle_alpha 98.360391
_cell_angle_beta 128.926067
_cell_angle_gamma 83.407758
_cell_volume 758.279239
_symmetry_space_group_name_H-M "P -1"
_symmetry_group_IT_number 2
_symmetry_cell_setting 'triclinic'
loop_
_space_group_symop_operation_xyz
x,y,z
-x,-y,-z
loop_
_atom_site_type_symbol
_atom_site_label
_atom_site_fract_x
_atom_site_fract_y
_atom_site_fract_z
Si Si1 0.582169 0.262700 0.602325
Si Si2 0.641470 0.402687 0.380828
Si Si3 0.349597 0.671514 0.036712
Si Si4 0.986661 0.746000 0.395211
Si Si5 0.097892 0.915821 0.258590
Si Si6 0.664339 0.615214 0.053285
Si Si7 0.779329 0.687106 0.532199
Si Si8 0.982626 0.184773 0.115382
O O1 0.579849 0.359500 0.487663
O O2 0.703386 0.140896 0.623260
O O3 0.389463 0.227814 0.519282
O O4 0.657294 0.334656 0.799387
O O5 0.474154 0.379635 0.166450
O O6 0.707383 0.546442 0.438756
O O7 0.821225 0.318412 0.461220
O O8 0.545333 0.686857 0.107766
O O9 0.211128 0.786138 0.940737
O O10 0.304276 0.535083 0.920853
O O11 0.884971 0.738670 0.475795
O O12 0.016839 0.874541 0.348461
O O13 0.856744 0.671439 0.191478
O O14 0.018600 0.844842 0.056821
O O15 0.067809 0.062209 0.227299
O O16 0.909594 0.693055 0.751389
#
# Coordination Sequence:
#
# PCOD9088049 Si02
#       8
#     2   2   2   2   2   2   2   2
#     4  10  21  38  59  87 124 152 196 246 296 354
#     4  11  23  37  59  94 129 153 195 244 299 367
#     4  10  19  37  58  88 121 156 188 246 299 352
#     4  11  23  39  61  92 121 160 202 241 301 361
#     4   9  23  44  59  84 119 158 205 257 291 344
#     4  11  20  36  62  89 128 157 185 246 307 357
#     4  12  21  36  61  90 119 158 197 243 303 361
#     4  10  22  40  66  81 117 160 209 247 298 347
#
# _framework density 21.100404999999999
#
# number of rings (size 3 to 8) (size 9 to 14) (size 15 to 20)
#    0.000    1.500    2.500    3.000    1.750    1.000 
#    0.000    4.375    0.000    0.000    0.000    0.000 
#    0.000    0.000    0.000    0.000    0.000    0.000 
#
# Total GULP energy -89164.166489 kJ/mol
# GULP energy per Si atom -5572.760406 kJ/mol
# Density = 2.105238 g / cm^3
# Si number density = 21.100405 Si / 1000 Ang^3
#
#
#
# Elastic Constant Matrix: (Units=GPa)
#
#
# Indices 1 2 3 4 5 6 
#
# 1 99.4019 37.0488 15.6801 -13.8876 -10.9498 -9.1927
# 2 37.0488 55.9744 29.1308 -24.4045 -10.4626 -11.9478
# 3 15.6801 29.1308 89.9268 -1.3143 -2.3279 -2.2508
# 4 -13.8876 -24.4045 -1.3143 31.6611 2.9435 -0.7598
# 5 -10.9498 -10.4626 -2.3279 2.9435 26.4352 -2.9898
# 6 -9.1927 -11.9478 -2.2508 -0.7598 -2.9898 20.1951
#
#
#
# Elastic Compliance Matrix: (Units=1/GPa)
#
#
# Indices 1 2 3 4 5 6 
#
# 1 0.013571 -0.009313 0.000715 -0.001382 0.002269 0.001031
# 2 -0.009313 0.061675 -0.016398 0.041899 0.018370 0.034717
# 3 0.000715 -0.016398 0.015805 -0.011460 -0.004512 -0.008714
# 4 -0.001382 0.041899 -0.011460 0.062412 0.011091 0.026872
# 5 0.002269 0.018370 -0.004512 0.011091 0.046521 0.018702
# 6 0.001031 0.034717 -0.008714 0.026872 0.018702 0.073334
#
#
# Mechanical properties :
#
#
# Convention : Reuss Voigt Hill
#
# Bulk Modulus (GPa) = 24.35545 45.44693 34.90119
# Shear Modulus (GPa) = 14.83692 26.55452 20.69572
#
# Velocity S-wave (km/s) = 2.65459 3.55136 3.13520
# Velocity P-wave (km/s) = 4.57859 6.19689 5.44816
#
# Compressibility (1/GPa) = 0.04105857
#
# Stress axis : x y z
#
# Youngs Moduli (GPa) = 73.68885 16.21398 63.27019
#
# Poissons Ratio (x) = 0.15099 -0.04523
# Poissons Ratio (y) = 0.68624 1.03753
# Poissons Ratio (z) = -0.05268 0.26588
#
# Static dielectric constant tensor:
#      x y z
#    x 1.785870 -0.025090 0.006570 
#    y -0.025090 1.739320 -0.008170 
#    z 0.006570 -0.008170 1.866880 
# 
# From -- ./inp_files/188892.got.cif
#   From: 2010.05.17/outbox.cif.g08.bks.cpg/sg2_95_cif.got.tgz:188892.got - 2010.06.03 11:33:40.
