data_PCOD9088717
_publ_section_title
;
Structure prediction by ZEFSAII (Michael W. Deem and Ramdas Pophale) SiO2 
 PCOD9088717
Probable space group: P -1
;
_chemical_formula_sum "Si O2"
_cell_formula_units_Z 16
_cell_length_a 9.127681
_cell_length_b 8.999605
_cell_length_c 13.890439
_cell_angle_alpha 77.732711
_cell_angle_beta 78.430214
_cell_angle_gamma 133.447148
_cell_volume 706.255096
_symmetry_space_group_name_H-M "P -1"
_symmetry_group_IT_number 2
_symmetry_cell_setting 'triclinic'
loop_
_space_group_symop_operation_xyz
x,y,z
-x,-y,-z
loop_
_atom_site_type_symbol
_atom_site_label
_atom_site_fract_x
_atom_site_fract_y
_atom_site_fract_z
Si Si1 0.802981 0.577844 0.991607
Si Si2 0.887592 0.329383 0.901966
Si Si3 0.731905 0.781706 0.827714
Si Si4 0.634339 0.219037 0.317021
Si Si5 0.991292 0.888632 0.608224
Si Si6 0.681065 0.064748 0.786336
Si Si7 0.468293 0.204672 0.541674
Si Si8 0.848397 0.481584 0.593677
O O1 0.849263 0.759271 0.892150
O O2 0.812405 0.426721 0.951379
O O3 0.993832 0.694753 0.033506
O O4 0.538426 0.404520 0.084332
O O5 0.099402 0.538696 0.773635
O O6 0.686100 0.100243 0.895050
O O7 0.770535 0.737061 0.725071
O O8 0.837091 0.032916 0.768366
O O9 0.542389 0.252480 0.412752
O O10 0.514477 0.134635 0.238900
O O11 0.574479 0.002417 0.389363
O O12 0.998780 0.722407 0.593530
O O13 0.000000 0.000000 0.500000
O O14 0.227946 0.102350 0.603307
O O15 0.744780 0.279265 0.707679
O O16 0.661547 0.416614 0.558848
O O17 0.000000 0.500000 0.500000
#
# Coordination Sequence:
#
# PCOD9088717 Si02
#       8
#     2   2   2   2   2   2   2   2
#     4  10  24  43  68  92 132 177 216 278 332 388
#     4  11  22  42  68  95 120 176 227 271 324 394
#     4  11  23  45  63  96 139 171 214 276 340 382
#     4  10  19  37  62  96 130 160 217 272 322 380
#     4  12  25  42  66  95 140 177 212 272 336 392
#     4  11  22  38  68  93 126 167 219 275 321 393
#     4  10  21  36  63  94 130 176 211 264 326 393
#     4  11  22  40  64 100 128 174 226 268 320 400
#
# _framework density 22.654703999999999
#
# number of rings (size 3 to 8) (size 9 to 14) (size 15 to 20)
#    0.000    1.250    1.250    6.750    0.000    1.500 
#    2.250    0.000    0.000    0.000    0.000    0.000 
#    0.000    0.000    0.000    0.000    0.000    0.000 
#
# Total GULP energy -89231.388212 kJ/mol
# GULP energy per Si atom -5576.961763 kJ/mol
# Density = 2.260314 g / cm^3
# Si number density = 22.654704 Si / 1000 Ang^3
#
#
#
# Elastic Constant Matrix: (Units=GPa)
#
#
# Indices 1 2 3 4 5 6 
#
# 1 112.1613 29.9218 46.2832 14.6936 8.8998 12.2680
# 2 29.9218 66.0606 28.1363 22.9193 13.1333 23.8600
# 3 46.2832 28.1363 99.4558 12.9319 -2.0313 6.1887
# 4 14.6936 22.9193 12.9319 33.7590 0.5088 6.9134
# 5 8.8998 13.1333 -2.0313 0.5088 41.8057 7.5675
# 6 12.2680 23.8600 6.1887 6.9134 7.5675 33.5348
#
#
#
# Elastic Compliance Matrix: (Units=1/GPa)
#
#
# Indices 1 2 3 4 5 6 
#
# 1 0.011903 -0.001902 -0.004726 -0.001777 -0.001903 -0.001333
# 2 -0.001902 0.029781 -0.004858 -0.014316 -0.006255 -0.015234
# 3 -0.004726 -0.004858 0.013597 -0.000328 0.002815 0.002109
# 4 -0.001777 -0.014316 -0.000328 0.039816 0.004054 0.001773
# 5 -0.001903 -0.006255 0.002815 0.004054 0.026786 -0.002253
# 6 -0.001333 -0.015234 0.002109 0.001773 -0.002253 0.040900
#
#
# Mechanical properties :
#
#
# Convention : Reuss Voigt Hill
#
# Bulk Modulus (GPa) = 30.95155 54.04003 42.49579
# Shear Modulus (GPa) = 25.44207 33.37565 29.40886
#
# Velocity S-wave (km/s) = 3.35481 3.84244 3.60687
# Velocity P-wave (km/s) = 5.35708 6.60237 6.01205
#
# Compressibility (1/GPa) = 0.03230856
#
# Stress axis : x y z
#
# Youngs Moduli (GPa) = 84.01265 33.57858 73.54378
#
# Poissons Ratio (x) = 0.06387 0.34756
# Poissons Ratio (y) = 0.15979 0.35731
# Poissons Ratio (z) = 0.39704 0.16314
#
# Static dielectric constant tensor:
#      x y z
#    x 1.987760 0.044550 -0.099640 
#    y 0.044550 1.862640 -0.034550 
#    z -0.099640 -0.034550 1.969880 
# 
# From -- ./inp_files/494878.got.cif
#   From: 2010.05.17/outbox.cif.g08.bks.cpg/sg2_248_cif.got.tgz:494878.got - 2010.06.03 11:33:40.
