data_PCOD9088248
_publ_section_title
;
Structure prediction by ZEFSAII (Michael W. Deem and Ramdas Pophale) SiO2 
 PCOD9088248
Probable space group: P -1
;
_chemical_formula_sum "Si O2"
_cell_formula_units_Z 16
_cell_length_a 11.847749
_cell_length_b 11.058597
_cell_length_c 9.411678
_cell_angle_alpha 38.659555
_cell_angle_beta 55.401023
_cell_angle_gamma 62.407010
_cell_volume 633.612881
_symmetry_space_group_name_H-M "P -1"
_symmetry_group_IT_number 2
_symmetry_cell_setting 'triclinic'
loop_
_space_group_symop_operation_xyz
x,y,z
-x,-y,-z
loop_
_atom_site_type_symbol
_atom_site_label
_atom_site_fract_x
_atom_site_fract_y
_atom_site_fract_z
Si Si1 0.899380 0.658236 0.506342
Si Si2 0.622393 0.227835 0.799930
Si Si3 0.082349 0.498744 0.088518
Si Si4 0.857294 0.078866 0.600957
Si Si5 0.679960 0.238718 0.342242
Si Si6 0.585125 0.766661 0.286190
Si Si7 0.640077 0.396471 0.943042
Si Si8 0.118726 0.205761 0.891460
O O1 0.755932 0.554984 0.716960
O O2 0.890808 0.828581 0.239617
O O3 0.000000 0.500000 0.500000
O O4 0.935981 0.682557 0.625251
O O5 0.758971 0.253168 0.583026
O O6 0.487668 0.301344 0.742719
O O7 0.632560 0.315665 0.865638
O O8 0.599937 0.998143 0.046202
O O9 0.233360 0.565563 0.882536
O O10 0.000000 0.500000 0.000000
O O11 0.011653 0.669221 0.075520
O O12 0.757772 0.073806 0.534140
O O13 0.000000 0.000000 0.500000
O O14 0.869801 0.960714 0.848083
O O15 0.525752 0.262528 0.485944
O O16 0.676241 0.223589 0.188338
O O17 0.737325 0.687499 0.285408
O O18 0.500000 0.500000 0.000000
#
# Coordination Sequence:
#
# PCOD9088248 Si02
#       8
#     2   2   2   2   2   2   2   2
#     4   9  21  39  58  83 126 167 207 261 309 374
#     4   9  21  39  62  94 127 164 213 263 320 374
#     4  10  21  37  59  87 125 167 210 260 306 376
#     4  10  19  38  66  86 122 164 210 270 312 375
#     4  10  21  39  62  93 127 160 213 266 315 381
#     4   9  19  37  63  87 125 160 210 270 308 375
#     4  11  23  41  65  91 133 172 207 260 324 391
#     4  10  19  37  60  84 118 163 204 255 324 372
#
# _framework density 25.252012000000001
#
# number of rings (size 3 to 8) (size 9 to 14) (size 15 to 20)
#    0.000    2.250    1.250    1.500    0.000    6.500 
#    0.000    6.875    0.000    0.000    0.000    0.000 
#    0.000    0.000    0.000    0.000    0.000    0.000 
#
# Total GULP energy -89108.552117 kJ/mol
# GULP energy per Si atom -5569.284507 kJ/mol
# Density = 2.519454 g / cm^3
# Si number density = 25.252012 Si / 1000 Ang^3
#
#
#
# Elastic Constant Matrix: (Units=GPa)
#
#
# Indices 1 2 3 4 5 6 
#
# 1 90.5543 24.3336 52.7921 19.9643 3.5720 -4.2726
# 2 24.3336 71.7904 21.2877 16.2654 -2.2792 -3.1193
# 3 52.7921 21.2877 170.2849 21.9922 31.1898 6.1540
# 4 19.9643 16.2654 21.9922 41.3308 -4.0834 4.4768
# 5 3.5720 -2.2792 31.1898 -4.0834 76.7189 24.7312
# 6 -4.2726 -3.1193 6.1540 4.4768 24.7312 40.5795
#
#
#
# Elastic Compliance Matrix: (Units=1/GPa)
#
#
# Indices 1 2 3 4 5 6 
#
# 1 0.015159 -0.002893 -0.003791 -0.004488 -0.000345 0.002654
# 2 -0.002893 0.016248 -0.000585 -0.004836 0.000115 0.001496
# 3 -0.003791 -0.000585 0.008082 -0.002670 -0.003516 0.000768
# 4 -0.004488 -0.004836 -0.002670 0.030932 0.005026 -0.006915
# 5 -0.000345 0.000115 -0.003516 0.005026 0.018377 -0.011249
# 6 0.002654 0.001496 0.000768 -0.006915 -0.011249 0.032539
#
#
# Mechanical properties :
#
#
# Convention : Reuss Voigt Hill
#
# Bulk Modulus (GPa) = 40.07831 58.82849 49.45340
# Shear Modulus (GPa) = 34.67588 47.34026 41.00807
#
# Velocity S-wave (km/s) = 3.70968 4.33449 4.03420
# Velocity P-wave (km/s) = 5.85276 6.95684 6.42854
#
# Compressibility (1/GPa) = 0.02495115
#
# Stress axis : x y z
#
# Youngs Moduli (GPa) = 65.96779 61.54670 123.73181
#
# Poissons Ratio (x) = 0.17804 0.46907
# Poissons Ratio (y) = 0.19083 0.07238
# Poissons Ratio (z) = 0.25009 0.03600
#
# Static dielectric constant tensor:
#      x y z
#    x 2.202070 -0.025850 0.121080 
#    y -0.025850 1.993280 -0.133730 
#    z 0.121080 -0.133730 2.150210 
# 
# From -- ./inp_files/256249.got.cif
#   From: 2010.05.17/outbox.cif.g08.bks.cpg/sg2_129_cif.got.tgz:256249.got - 2010.06.03 11:33:40.
