data_PCOD9088674
_publ_section_title
;
Structure prediction by ZEFSAII (Michael W. Deem and Ramdas Pophale) SiO2 
 PCOD9088674
Probable space group: P -1
;
_chemical_formula_sum "Si O2"
_cell_formula_units_Z 14
_cell_length_a 11.541441
_cell_length_b 4.913207
_cell_length_c 13.229392
_cell_angle_alpha 86.613597
_cell_angle_beta 122.615900
_cell_angle_gamma 87.869029
_cell_volume 628.645855
_symmetry_space_group_name_H-M "P -1"
_symmetry_group_IT_number 2
_symmetry_cell_setting 'triclinic'
loop_
_space_group_symop_operation_xyz
x,y,z
-x,-y,-z
loop_
_atom_site_type_symbol
_atom_site_label
_atom_site_fract_x
_atom_site_fract_y
_atom_site_fract_z
Si Si1 0.100617 0.737271 0.526974
Si Si2 0.397316 0.842178 0.023656
Si Si3 0.377428 0.339161 0.146748
Si Si4 0.171572 0.643655 0.772698
Si Si5 0.604982 0.929847 0.640143
Si Si6 0.988185 0.167842 0.724328
Si Si7 0.218876 0.579116 0.233743
O O1 0.206710 0.702906 0.670381
O O2 0.126900 0.756429 0.419474
O O3 0.000000 0.500000 0.500000
O O4 0.000000 0.000000 0.500000
O O5 0.290090 0.711349 0.902603
O O6 0.452358 0.576133 0.120540
O O7 0.500000 0.000000 0.000000
O O8 0.341916 0.085694 0.067116
O O9 0.456036 0.209251 0.285525
O O10 0.237960 0.487687 0.128239
O O11 0.119920 0.342131 0.762584
O O12 0.042415 0.854264 0.741999
O O13 0.669373 0.203427 0.698949
O O14 0.500000 0.000000 0.500000
O O15 0.729657 0.700389 0.676612
O O16 0.921964 0.271899 0.795733
#
# Coordination Sequence:
#
# PCOD9088674 Si02
#       7
#     2   2   2   2   2   2   2
#     4   8  16  32  54  79 116 152 191 246 293 342
#     4  12  24  43  64  87 119 170 215 259 303 358
#     4  10  22  42  63  85 129 155 199 269 307 347
#     4  10  21  37  60  87 122 163 209 252 301 361
#     4  10  20  39  65  87 126 163 200 248 319 361
#     4  10  19  37  62  91 124 159 197 252 314 375
#     4  10  20  37  63  92 127 158 193 252 323 365
#
# _framework density 22.270088999999999
#
# number of rings (size 3 to 8) (size 9 to 14) (size 15 to 20)
#    0.857    1.143    1.429    2.571    0.000    0.000 
#    2.571    4.286    9.429    0.000    0.000    0.000 
#    0.000    0.000    0.000    0.000    0.000    0.000 
#
# Total GULP energy -78006.150338 kJ/mol
# GULP energy per Si atom -5571.867881 kJ/mol
# Density = 2.221940 g / cm^3
# Si number density = 22.270089 Si / 1000 Ang^3
#
#
#
# Elastic Constant Matrix: (Units=GPa)
#
#
# Indices 1 2 3 4 5 6 
#
# 1 38.9769 -2.4626 28.2596 1.5203 -12.9723 2.3596
# 2 -2.4626 115.1319 22.9233 17.4139 -3.2286 11.7987
# 3 28.2596 22.9233 104.1619 1.8378 -12.7953 12.7693
# 4 1.5203 17.4139 1.8378 33.4778 -1.5691 -8.7274
# 5 -12.9723 -3.2286 -12.7953 -1.5691 18.1948 4.4810
# 6 2.3596 11.7987 12.7693 -8.7274 4.4810 31.0837
#
#
#
# Elastic Compliance Matrix: (Units=1/GPa)
#
#
# Indices 1 2 3 4 5 6 
#
# 1 0.040797 0.004475 -0.008087 -0.004192 0.025386 -0.006310
# 2 0.004475 0.011102 -0.002189 -0.007303 0.004559 -0.006362
# 3 -0.008087 -0.002189 0.013411 -0.000269 0.004430 -0.004779
# 4 -0.004192 -0.007303 -0.000269 0.037402 -0.004792 0.014393
# 5 0.025386 0.004559 0.004430 -0.004792 0.081132 -0.018519
# 6 -0.006310 -0.006362 -0.004779 0.014393 -0.018519 0.043739
#
#
# Mechanical properties :
#
#
# Convention : Reuss Voigt Hill
#
# Bulk Modulus (GPa) = 18.61897 39.52347 29.07122
# Shear Modulus (GPa) = 19.44868 30.52130 24.98499
#
# Velocity S-wave (km/s) = 2.95839 3.70605 3.35312
# Velocity P-wave (km/s) = 4.47751 6.00824 5.29844
#
# Compressibility (1/GPa) = 0.05370865
#
# Stress axis : x y z
#
# Youngs Moduli (GPa) = 24.51144 90.07769 74.56531
#
# Poissons Ratio (x) = -0.40314 0.60304
# Poissons Ratio (y) = -0.10970 0.16319
# Poissons Ratio (z) = 0.19824 0.19714
#
# Static dielectric constant tensor:
#      x y z
#    x 1.863450 -0.014500 -0.052590 
#    y -0.014500 1.799050 -0.049740 
#    z -0.052590 -0.049740 1.898900 
# 
# From -- ./inp_files/410895.got.cif
#   From: 2010.05.17/outbox.cif.g08.bks.cpg/sg2_206_cif.got.tgz:410895.got - 2010.06.03 11:33:40.
