data_PCOD9088631
_publ_section_title
;
Structure prediction by ZEFSAII (Michael W. Deem and Ramdas Pophale) SiO2 
 PCOD9088631
Probable space group: P -1
;
_chemical_formula_sum "Si O2"
_cell_formula_units_Z 13
_cell_length_a 19.907611
_cell_length_b 4.922162
_cell_length_c 5.173912
_cell_angle_alpha 86.841566
_cell_angle_beta 105.690939
_cell_angle_gamma 113.278951
_cell_volume 447.586769
_symmetry_space_group_name_H-M "P -1"
_symmetry_group_IT_number 2
_symmetry_cell_setting 'triclinic'
loop_
_space_group_symop_operation_xyz
x,y,z
-x,-y,-z
loop_
_atom_site_type_symbol
_atom_site_label
_atom_site_fract_x
_atom_site_fract_y
_atom_site_fract_z
Si Si1 0.742463 0.385387 0.050579
Si Si2 0.725284 0.995673 0.553089
Si Si3 0.891926 0.096977 0.669493
Si Si4 0.412166 0.736946 0.222975
Si Si5 0.000000 0.500000 0.000000
Si Si6 0.431447 0.140262 0.722704
Si Si7 0.085158 0.185145 0.796425
O O1 0.734552 0.246901 0.332986
O O2 0.825029 0.631617 0.092701
O O3 0.732495 0.138695 0.834935
O O4 0.673811 0.485634 0.911545
O O5 0.801146 0.937288 0.590125
O O6 0.638875 0.766889 0.413243
O O7 0.923575 0.447798 0.715467
O O8 0.922927 0.979379 0.471136
O O9 0.934030 0.073233 0.987382
O O10 0.420425 0.890875 0.502279
O O11 0.481097 0.638483 0.239451
O O12 0.423472 0.989948 0.002080
O O13 0.044633 0.397207 0.819419
#
# Coordination Sequence:
#
# PCOD9088631 Si02
#       7
#     2   2   2   2   1   2   2
#     4  10  19  37  62  88 126 169 205 256 314 366
#     4  10  19  37  62  88 126 169 205 256 314 366
#     4  12  27  45  69  98 127 166 213 260 321 382
#     4   8  14  25  48  83 117 156 207 249 293 359
#     4  12  28  50  72  92 132 164 210 270 314 390
#     4   8  14  25  48  83 117 156 207 249 293 359
#     4  12  27  45  69  98 127 166 213 260 321 382
#
# _framework density 29.044647000000001
#
# number of rings (size 3 to 8) (size 9 to 14) (size 15 to 20)
#    0.000    1.846    1.538    2.769    0.000    1.231 
#    0.000    0.000    0.000    1.846    0.000    0.000 
#    0.000    0.000    0.000    0.000    0.000    0.000 
#
# Total GULP energy -72733.191772 kJ/mol
# GULP energy per Si atom -5594.860906 kJ/mol
# Density = 2.897854 g / cm^3
# Si number density = 29.044647 Si / 1000 Ang^3
#
#
#
# Elastic Constant Matrix: (Units=GPa)
#
#
# Indices 1 2 3 4 5 6 
#
# 1 252.4296 29.5485 57.8340 37.7194 16.3522 15.4118
# 2 29.5485 91.6522 61.2003 2.9337 -3.0573 -4.5617
# 3 57.8340 61.2003 194.9601 22.3578 -30.7522 -22.3731
# 4 37.7194 2.9337 22.3578 40.7115 6.1681 11.4968
# 5 16.3522 -3.0573 -30.7522 6.1681 56.0383 5.0210
# 6 15.4118 -4.5617 -22.3731 11.4968 5.0210 34.3579
#
#
#
# Elastic Compliance Matrix: (Units=1/GPa)
#
#
# Indices 1 2 3 4 5 6 
#
# 1 0.005069 -0.000733 -0.001449 -0.002996 -0.001801 -0.002049
# 2 -0.000733 0.014369 -0.005242 0.003405 -0.002073 -0.002013
# 3 -0.001449 -0.005242 0.009715 -0.006622 0.005508 0.007691
# 4 -0.002996 0.003405 -0.006622 0.035361 -0.005249 -0.013581
# 5 -0.001801 -0.002073 0.005508 -0.005249 0.021614 0.002717
# 6 -0.002049 -0.002013 0.007691 -0.013581 0.002717 0.038913
#
#
# Mechanical properties :
#
#
# Convention : Reuss Voigt Hill
#
# Bulk Modulus (GPa) = 69.90129 92.91195 81.40662
# Shear Modulus (GPa) = 34.56459 52.25215 43.40837
#
# Velocity S-wave (km/s) = 3.45345 4.24610 3.87012
# Velocity P-wave (km/s) = 6.32621 7.48985 6.93249
#
# Compressibility (1/GPa) = 0.01430589
#
# Stress axis : x y z
#
# Youngs Moduli (GPa) = 197.28748 69.59542 102.92880
#
# Poissons Ratio (x) = 0.05098 0.14918
# Poissons Ratio (y) = 0.14452 0.53952
# Poissons Ratio (z) = 0.28593 0.36480
#
# Static dielectric constant tensor:
#      x y z
#    x 2.340200 0.187080 0.073680 
#    y 0.187080 2.861030 -0.073650 
#    z 0.073680 -0.073650 2.243010 
# 
# From -- ./inp_files/6336.got.cif
#   From: 2010.05.17/outbox.cif.g08.bks.cpg/sg2_4_cif.got.tgz:6336.got - 2010.06.03 11:33:40.
