data_PCOD9088616
_publ_section_title
;
Structure prediction by ZEFSAII (Michael W. Deem and Ramdas Pophale) SiO2 
 PCOD9088616
Probable space group: P -1
;
_chemical_formula_sum "Si O2"
_cell_formula_units_Z 16
_cell_length_a 12.000000
_cell_length_b 12.059046
_cell_length_c 14.414034
_cell_angle_alpha 69.741936
_cell_angle_beta 130.183209
_cell_angle_gamma 69.723321
_cell_volume 906.406966
_symmetry_space_group_name_H-M "P -1"
_symmetry_group_IT_number 2
_symmetry_cell_setting 'triclinic'
loop_
_space_group_symop_operation_xyz
x,y,z
-x,-y,-z
loop_
_atom_site_type_symbol
_atom_site_label
_atom_site_fract_x
_atom_site_fract_y
_atom_site_fract_z
Si Si1 0.633588 0.766953 0.214862
Si Si2 0.881053 0.782924 0.487525
Si Si3 0.749586 0.418790 0.405940
Si Si4 0.989036 0.621517 0.087009
Si Si5 0.139301 0.218670 0.821350
Si Si6 0.521759 0.110226 0.337326
Si Si7 0.655623 0.515692 0.827237
Si Si8 0.943363 0.693255 0.751457
O O1 0.766768 0.751155 0.374528
O O2 0.666270 0.607032 0.288871
O O3 0.755796 0.739433 0.195045
O O4 0.356863 0.984789 0.005363
O O5 0.002343 0.657409 0.683414
O O6 0.068918 0.727418 0.538777
O O7 0.664520 0.003239 0.346971
O O8 0.529198 0.472016 0.277385
O O9 0.910626 0.316952 0.614493
O O10 0.930880 0.700039 0.136595
O O11 0.183781 0.574713 0.152601
O O12 0.080970 0.426700 0.196084
O O13 0.739574 0.778677 0.849989
O O14 0.484350 0.269969 0.296897
O O15 0.696270 0.926765 0.553669
O O16 0.845676 0.386467 0.051386
#
# Coordination Sequence:
#
# PCOD9088616 Si02
#       8
#     2   2   2   2   2   2   2   2
#     4  10  19  37  62  88 105 138 191 242 274 319
#     4   9  18  38  63  84 103 139 191 241 275 310
#     4  11  23  37  53  86 123 144 177 223 284 349
#     4  11  20  37  60  83 110 144 193 232 267 325
#     4  10  20  36  62  83 107 146 188 237 275 308
#     4   9  20  38  60  85 104 140 198 232 271 315
#     4  11  25  36  51  85 123 152 176 216 279 349
#     4   9  19  37  60  81 103 148 186 238 269 303
#
# _framework density 17.652115999999999
#
# number of rings (size 3 to 8) (size 9 to 14) (size 15 to 20)
#    0.750    1.250    1.250    4.500    0.000    4.500 
#    0.000    0.625    0.000    0.000    0.000    0.000 
#    0.000    0.000    0.000    0.000    0.000    0.000 
#
# Total GULP energy -89241.195750 kJ/mol
# GULP energy per Si atom -5577.574734 kJ/mol
# Density = 1.761194 g / cm^3
# Si number density = 17.652116 Si / 1000 Ang^3
#
#
#
# Elastic Constant Matrix: (Units=GPa)
#
#
# Indices 1 2 3 4 5 6 
#
# 1 92.8641 51.2616 54.5047 3.2387 33.3249 -5.5531
# 2 51.2616 74.7828 37.7941 -13.4009 18.2957 -16.0638
# 3 54.5047 37.7941 122.2181 -13.5293 5.6715 6.7664
# 4 3.2387 -13.4009 -13.5293 23.0995 3.0162 0.1573
# 5 33.3249 18.2957 5.6715 3.0162 20.5655 6.2983
# 6 -5.5531 -16.0638 6.7664 0.1573 6.2983 23.1935
#
#
#
# Elastic Compliance Matrix: (Units=1/GPa)
#
#
# Indices 1 2 3 4 5 6 
#
# 1 0.354411 0.162765 -0.192920 0.035136 -0.816641 0.475391
# 2 0.162765 0.133169 -0.103025 0.050634 -0.447753 0.282504
# 3 -0.192920 -0.103025 0.117620 -0.021978 0.459752 -0.276557
# 4 0.035136 0.050634 -0.021978 0.071597 -0.132578 0.085410
# 5 -0.816641 -0.447753 0.459752 -0.132578 2.027172 -1.189352
# 6 0.475391 0.282504 -0.276557 0.085410 -1.189352 0.755674
#
#
# Mechanical properties :
#
#
# Convention : Reuss Voigt Hill
#
# Bulk Modulus (GPa) = 2.95126 64.10954 33.53040
# Shear Modulus (GPa) = 1.30244 23.12532 12.21388
#
# Velocity S-wave (km/s) = 0.85991 3.62340 2.63329
# Velocity P-wave (km/s) = 1.63139 7.34184 5.31808
#
# Compressibility (1/GPa) = 0.33883880
#
# Stress axis : x y z
#
# Youngs Moduli (GPa) = 2.82158 7.50928 8.50199
#
# Poissons Ratio (x) = -1.22225 1.64020
# Poissons Ratio (y) = -0.45925 0.87591
# Poissons Ratio (z) = 0.54434 0.77364
#
# Static dielectric constant tensor:
#      x y z
#    x 1.587180 -0.034990 -0.013180 
#    y -0.034990 1.597530 -0.017320 
#    z -0.013180 -0.017320 1.612120 
# 
# From -- ./inp_files/518912.got.cif
#   From: 2010.05.17/outbox.cif.g08.bks.cpg/sg2_260_cif.got.tgz:518912.got - 2010.06.03 11:33:40.
