data_PCOD9088790
_publ_section_title
;
Structure prediction by ZEFSAII (Michael W. Deem and Ramdas Pophale) SiO2 
 PCOD9088790
Probable space group: P -1
;
_chemical_formula_sum "Si O2"
_cell_formula_units_Z 16
_cell_length_a 7.795248
_cell_length_b 13.069071
_cell_length_c 15.569231
_cell_angle_alpha 144.029031
_cell_angle_beta 121.901124
_cell_angle_gamma 74.147884
_cell_volume 752.006258
_symmetry_space_group_name_H-M "P -1"
_symmetry_group_IT_number 2
_symmetry_cell_setting 'triclinic'
loop_
_space_group_symop_operation_xyz
x,y,z
-x,-y,-z
loop_
_atom_site_type_symbol
_atom_site_label
_atom_site_fract_x
_atom_site_fract_y
_atom_site_fract_z
Si Si1 0.487583 0.907783 0.195140
Si Si2 0.476479 0.499828 0.359113
Si Si3 0.701048 0.518148 0.875425
Si Si4 0.381957 0.759433 0.650699
Si Si5 0.260500 0.504433 0.832690
Si Si6 0.927169 0.611661 0.480848
Si Si7 0.350708 0.893430 0.461237
Si Si8 0.104434 0.224866 0.758882
O O1 0.708667 0.860026 0.227358
O O2 0.482429 0.035709 0.200054
O O3 0.513519 0.038153 0.371949
O O4 0.306725 0.713321 0.018163
O O5 0.343419 0.406936 0.177535
O O6 0.370654 0.620771 0.472428
O O7 0.521018 0.340130 0.318878
O O8 0.706658 0.629556 0.472379
O O9 0.491141 0.484464 0.856529
O O10 0.711535 0.321491 0.717456
O O11 0.888769 0.650544 0.069879
O O12 0.148689 0.765100 0.620948
O O13 0.139874 0.479751 0.692761
O O14 0.158483 0.358018 0.780126
O O15 0.000000 0.500000 0.500000
O O16 0.122344 0.925237 0.417601
O O17 0.500000 0.000000 0.500000
#
# Coordination Sequence:
#
# PCOD9088790 Si02
#       8
#     2   2   2   2   2   2   2   2
#     4  11  22  38  59  89 117 151 199 249 303 343
#     4   9  19  36  61  89 116 154 207 242 298 361
#     4  10  20  38  58  84 116 159 199 241 296 360
#     4  10  19  37  63  88 117 158 200 252 300 353
#     4  10  21  39  61  84 120 158 196 244 298 365
#     4   9  19  37  63  87 114 162 205 237 295 366
#     4  12  23  36  56  87 118 153 198 248 288 353
#     4  11  23  39  58  83 121 163 196 235 305 367
#
# _framework density 21.276416999999999
#
# number of rings (size 3 to 8) (size 9 to 14) (size 15 to 20)
#    0.000    1.750    1.250    4.500    0.000    2.000 
#    0.000   10.000    0.000    6.750    0.000    0.000 
#    0.000    0.000    0.000    0.000    0.000    0.000 
#
# Total GULP energy -89213.032464 kJ/mol
# GULP energy per Si atom -5575.814529 kJ/mol
# Density = 2.122799 g / cm^3
# Si number density = 21.276417 Si / 1000 Ang^3
#
#
#
# Elastic Constant Matrix: (Units=GPa)
#
#
# Indices 1 2 3 4 5 6 
#
# 1 64.6142 30.5886 9.4589 0.3866 4.1279 12.8897
# 2 30.5886 114.0945 31.7667 -1.8268 -1.2130 18.5437
# 3 9.4589 31.7667 40.0140 -6.6460 -8.6060 4.1585
# 4 0.3866 -1.8268 -6.6460 35.1574 3.4341 -2.9218
# 5 4.1279 -1.2130 -8.6060 3.4341 27.3688 2.0330
# 6 12.8897 18.5437 4.1585 -2.9218 2.0330 24.6070
#
#
#
# Elastic Compliance Matrix: (Units=1/GPa)
#
#
# Indices 1 2 3 4 5 6 
#
# 1 0.018966 -0.003524 -0.001772 -0.001010 -0.002938 -0.006857
# 2 -0.003524 0.013460 -0.009668 -0.001531 -0.001219 -0.006744
# 3 -0.001772 -0.009668 0.036018 0.005476 0.010335 0.001924
# 4 -0.001010 -0.001531 0.005476 0.030009 -0.002294 0.004510
# 5 -0.002938 -0.001219 0.010335 -0.002294 0.040682 -0.002922
# 6 -0.006857 -0.006744 0.001924 0.004510 -0.002922 0.049765
#
#
# Mechanical properties :
#
#
# Convention : Reuss Voigt Hill
#
# Bulk Modulus (GPa) = 25.96450 40.26123 33.11286
# Shear Modulus (GPa) = 21.58266 27.22055 24.40161
#
# Velocity S-wave (km/s) = 3.18841 3.58072 3.39024
# Velocity P-wave (km/s) = 5.07785 6.00495 5.56075
#
# Compressibility (1/GPa) = 0.03851412
#
# Stress axis : x y z
#
# Youngs Moduli (GPa) = 52.72630 74.29378 27.76387
#
# Poissons Ratio (x) = 0.26183 0.04921
# Poissons Ratio (y) = 0.18582 0.26843
# Poissons Ratio (z) = 0.09346 0.71829
#
# Static dielectric constant tensor:
#      x y z
#    x 1.845370 -0.019090 -0.023220 
#    y -0.019090 1.788200 -0.015310 
#    z -0.023220 -0.015310 1.766920 
# 
# From -- ./inp_files/207272.got.cif
#   From: 2010.05.17/outbox.cif.g08.bks.cpg/sg2_104_cif.got.tgz:207272.got - 2010.06.03 11:33:40.
