data_PCOD9088339
_publ_section_title
;
Structure prediction by ZEFSAII (Michael W. Deem and Ramdas Pophale) SiO2 
 PCOD9088339
Probable space group: P -1
;
_chemical_formula_sum "Si O2"
_cell_formula_units_Z 16
_cell_length_a 16.215419
_cell_length_b 21.892455
_cell_length_c 6.669203
_cell_angle_alpha 115.481056
_cell_angle_beta 118.499383
_cell_angle_gamma 20.823045
_cell_volume 738.690145
_symmetry_space_group_name_H-M "P -1"
_symmetry_group_IT_number 2
_symmetry_cell_setting 'triclinic'
loop_
_space_group_symop_operation_xyz
x,y,z
-x,-y,-z
loop_
_atom_site_type_symbol
_atom_site_label
_atom_site_fract_x
_atom_site_fract_y
_atom_site_fract_z
Si Si1 0.602676 0.140579 0.910979
Si Si2 0.397046 0.935612 0.793709
Si Si3 0.003248 0.851518 0.653267
Si Si4 0.839983 0.797077 0.894477
Si Si5 0.205819 0.655533 0.962124
Si Si6 0.649564 0.553195 0.883946
Si Si7 0.657648 0.334038 0.534794
Si Si8 0.241315 0.297870 0.458008
O O1 0.434231 0.194437 0.696916
O O2 0.835797 0.992823 0.832725
O O3 0.636461 0.098071 0.121057
O O4 0.457581 0.306197 0.969015
O O5 0.636847 0.766849 0.707221
O O6 0.171769 0.078426 0.584482
O O7 0.377412 0.022582 0.992912
O O8 0.206085 0.674970 0.758796
O O9 0.129080 0.817235 0.592593
O O10 0.792738 0.760511 0.665852
O O11 0.953691 0.783585 0.878992
O O12 0.064357 0.631632 0.068122
O O13 0.375691 0.486683 0.023214
O O14 0.237182 0.703599 0.193880
O O15 0.512082 0.618017 0.619338
O O16 0.500000 0.500000 0.500000
O O17 0.000000 0.500000 0.500000
#
# Coordination Sequence:
#
# PCOD9088339 Si02
#       8
#     2   2   2   2   2   2   2   2
#     4  11  22  42  61  88 128 161 199 255 308 364
#     4  11  23  41  65  91 123 166 203 252 303 365
#     4  11  20  39  65  85 128 158 201 257 300 361
#     4  10  19  43  61  92 121 159 211 245 301 366
#     4   9  19  39  62  86 121 154 205 253 296 357
#     4   9  20  37  63  86 124 160 202 248 307 358
#     4  10  19  37  60  92 120 157 206 253 303 356
#     4  11  23  41  63  91 126 159 202 256 310 362
#
# _framework density 21.659959000000001
#
# number of rings (size 3 to 8) (size 9 to 14) (size 15 to 20)
#    0.750    1.000    3.750    0.375    0.000    3.500 
#    2.250   15.000    0.000    0.000    0.000    0.000 
#    0.000    0.000    0.000    0.000    0.000    0.000 
#
# Total GULP energy -89148.677436 kJ/mol
# GULP energy per Si atom -5571.792340 kJ/mol
# Density = 2.161066 g / cm^3
# Si number density = 21.659959 Si / 1000 Ang^3
#
#
#
# Elastic Constant Matrix: (Units=GPa)
#
#
# Indices 1 2 3 4 5 6 
#
# 1 45.4118 20.7884 40.8774 1.0698 2.8652 -1.4797
# 2 20.7884 95.1293 45.1650 18.4550 -3.9102 1.9147
# 3 40.8774 45.1650 115.0261 -1.1303 7.7352 4.4068
# 4 1.0698 18.4550 -1.1303 36.4716 -3.6727 1.3377
# 5 2.8652 -3.9102 7.7352 -3.6727 37.3355 -0.7062
# 6 -1.4797 1.9147 4.4068 1.3377 -0.7062 27.9084
#
#
#
# Elastic Compliance Matrix: (Units=1/GPa)
#
#
# Indices 1 2 3 4 5 6 
#
# 1 0.033063 -0.001947 -0.011102 -0.000505 -0.000422 0.003653
# 2 -0.001947 0.015068 -0.005446 -0.007528 0.002118 0.000137
# 3 -0.011102 -0.005446 0.015091 0.003395 -0.002565 -0.002826
# 4 -0.000505 -0.007528 0.003395 0.031567 0.001624 -0.001518
# 5 -0.000422 0.002118 -0.002565 0.001624 0.027746 0.000862
# 6 0.003653 0.000137 -0.002826 -0.001518 0.000862 0.036556
#
#
# Mechanical properties :
#
#
# Convention : Reuss Voigt Hill
#
# Bulk Modulus (GPa) = 38.12115 52.13654 45.12884
# Shear Modulus (GPa) = 24.41106 30.25888 27.33497
#
# Velocity S-wave (km/s) = 3.36074 3.74170 3.55632
# Velocity P-wave (km/s) = 5.71817 6.54139 6.14358
#
# Compressibility (1/GPa) = 0.02623216
#
# Stress axis : x y z
#
# Youngs Moduli (GPa) = 30.24547 66.36634 66.26288
#
# Poissons Ratio (x) = 0.12923 0.73563
# Poissons Ratio (y) = 0.05889 0.36087
# Poissons Ratio (z) = 0.33578 0.36144
#
# Static dielectric constant tensor:
#      x y z
#    x 1.811720 -0.046840 -0.006840 
#    y -0.046840 1.840750 -0.011730 
#    z -0.006840 -0.011730 1.817890 
# 
# From -- ./inp_files/112987.got.cif
#   From: 2010.05.17/outbox.cif.g08.bks.cpg/sg2_57_cif.got.tgz:112987.got - 2010.06.03 11:33:40.
