data_PCOD9088495
_publ_section_title
;
Structure prediction by ZEFSAII (Michael W. Deem and Ramdas Pophale) SiO2 
 PCOD9088495
Probable space group: P -1
;
_chemical_formula_sum "Si O2"
_cell_formula_units_Z 13
_cell_length_a 8.253043
_cell_length_b 5.060510
_cell_length_c 12.428806
_cell_angle_alpha 74.350659
_cell_angle_beta 114.073411
_cell_angle_gamma 94.056640
_cell_volume 455.911646
_symmetry_space_group_name_H-M "P -1"
_symmetry_group_IT_number 2
_symmetry_cell_setting 'triclinic'
loop_
_space_group_symop_operation_xyz
x,y,z
-x,-y,-z
loop_
_atom_site_type_symbol
_atom_site_label
_atom_site_fract_x
_atom_site_fract_y
_atom_site_fract_z
Si Si1 0.916393 0.665942 0.057725
Si Si2 0.469798 0.195095 0.069042
Si Si3 0.500000 0.000000 0.500000
Si Si4 0.216748 0.816309 0.268688
Si Si5 0.792346 0.292428 0.257871
Si Si6 0.891707 0.662130 0.547829
Si Si7 0.419823 0.415090 0.650196
O O1 0.859759 0.435984 0.153947
O O2 0.045059 0.861395 0.138669
O O3 0.732179 0.806029 0.951232
O O4 0.000000 0.500000 0.000000
O O5 0.624553 0.119056 0.203278
O O6 0.500000 0.500000 0.000000
O O7 0.500000 0.000000 0.000000
O O8 0.678453 0.991163 0.641007
O O9 0.560472 0.298851 0.439165
O O10 0.147216 0.571506 0.350960
O O11 0.384241 0.695289 0.257703
O O12 0.702847 0.518579 0.288462
O O13 0.963166 0.149954 0.377707
O O14 0.692397 0.768745 0.445841
O O15 0.000000 0.500000 0.500000
#
# Coordination Sequence:
#
# PCOD9088495 Si02
#       7
#     2   2   1   2   2   2   2
#     4  10  21  42  69  98 130 177 233 281 345 408
#     4  10  22  45  68  99 137 181 233 285 346 413
#     4  10  20  36  56  96 126 166 218 268 346 400
#     4  10  20  37  60  89 128 169 216 275 339 404
#     4   9  19  38  63  90 129 172 219 279 337 405
#     4   8  15  30  58  82 116 162 208 267 326 395
#     4  10  19  37  61  89 131 168 220 271 340 408
#
# _framework density 28.514299999999999
#
# number of rings (size 3 to 8) (size 9 to 14) (size 15 to 20)
#    0.000    2.462    0.000    2.769    0.000    0.000 
#   22.154    3.077    0.000   18.462    0.000    0.000 
#    0.000    0.000    0.000    0.000    0.000    0.000 
#
# Total GULP energy -72627.768706 kJ/mol
# GULP energy per Si atom -5586.751439 kJ/mol
# Density = 2.844940 g / cm^3
# Si number density = 28.514300 Si / 1000 Ang^3
#
#
#
# Elastic Constant Matrix: (Units=GPa)
#
#
# Indices 1 2 3 4 5 6 
#
# 1 200.1798 32.4530 81.3107 0.3514 22.7722 -4.9070
# 2 32.4530 113.8732 47.9338 7.3254 14.8923 -0.6371
# 3 81.3107 47.9338 209.1442 24.3085 68.8118 10.6088
# 4 0.3514 7.3254 24.3085 47.2901 10.1019 -4.4370
# 5 22.7722 14.8923 68.8118 10.1019 89.3604 4.5574
# 6 -4.9070 -0.6371 10.6088 -4.4370 4.5574 35.9762
#
#
#
# Elastic Compliance Matrix: (Units=1/GPa)
#
#
# Indices 1 2 3 4 5 6 
#
# 1 0.006179 -0.000801 -0.002575 0.001504 0.000283 0.001738
# 2 -0.000801 0.009853 -0.001948 -0.000484 0.000088 0.000569
# 3 -0.002575 -0.001948 0.008364 -0.003162 -0.004969 -0.002613
# 4 0.001504 -0.000484 -0.003162 0.023374 -0.000719 0.004103
# 5 0.000283 0.000088 -0.004969 -0.000719 0.015036 -0.000488
# 6 0.001738 0.000569 -0.002613 0.004103 -0.000488 0.029381
#
#
# Mechanical properties :
#
#
# Convention : Reuss Voigt Hill
#
# Bulk Modulus (GPa) = 72.74073 94.06581 83.40327
# Shear Modulus (GPa) = 46.54699 58.62532 52.58615
#
# Velocity S-wave (km/s) = 4.04469 4.53923 4.29908
# Velocity P-wave (km/s) = 6.88319 7.78032 7.34547
#
# Compressibility (1/GPa) = 0.01374746
#
# Stress axis : x y z
#
# Youngs Moduli (GPa) = 161.83916 101.49238 119.56273
#
# Poissons Ratio (x) = 0.08132 0.30783
# Poissons Ratio (y) = 0.12967 0.23294
# Poissons Ratio (z) = 0.41668 0.19773
#
# Static dielectric constant tensor:
#      x y z
#    x 2.117410 0.022120 0.150030 
#    y 0.022120 2.137500 -0.051580 
#    z 0.150030 -0.051580 2.290060 
# 
# From -- ./inp_files/487239.got.cif
#   From: 2010.05.17/outbox.cif.g08.bks.cpg/sg2_244_cif.got.tgz:487239.got - 2010.06.03 11:33:40.
