data_PCOD9088043
_publ_section_title
;
Structure prediction by ZEFSAII (Michael W. Deem and Ramdas Pophale) SiO2 
 PCOD9088043
Probable space group: P -1
;
_chemical_formula_sum "Si O2"
_cell_formula_units_Z 11
_cell_length_a 11.780311
_cell_length_b 9.138915
_cell_length_c 6.802599
_cell_angle_alpha 92.031206
_cell_angle_beta 104.766413
_cell_angle_gamma 140.134165
_cell_volume 421.209470
_symmetry_space_group_name_H-M "P -1"
_symmetry_group_IT_number 2
_symmetry_cell_setting 'triclinic'
loop_
_space_group_symop_operation_xyz
x,y,z
-x,-y,-z
loop_
_atom_site_type_symbol
_atom_site_label
_atom_site_fract_x
_atom_site_fract_y
_atom_site_fract_z
Si Si1 0.500000 0.000000 0.000000
Si Si2 0.193385 0.239961 0.716398
Si Si3 0.872863 0.015281 0.984500
Si Si4 0.845240 0.467007 0.679059
Si Si5 0.498542 0.739055 0.654575
Si Si6 0.916501 0.555248 0.249199
O O1 0.510247 0.874048 0.836534
O O2 0.265925 0.725569 0.916970
O O3 0.248115 0.161240 0.880969
O O4 0.362518 0.467723 0.656459
O O5 0.131916 0.325520 0.812258
O O6 0.000000 0.000000 0.500000
O O7 0.715778 0.892171 0.739945
O O8 0.011847 0.287976 0.121640
O O9 0.000000 0.000000 0.000000
O O10 0.620403 0.300631 0.576952
O O11 0.911525 0.555058 0.485332
O O12 0.889212 0.340330 0.721633
#
# Coordination Sequence:
#
# PCOD9088043 Si02
#       6
#     1   2   2   2   2   2
#     4   8  14  28  56  86  98 136 198 238 262 314
#     4  10  19  37  58  87 112 147 191 238 274 327
#     4  12  23  37  56  85 123 151 181 230 293 346
#     4   9  18  34  54  82 109 147 187 233 274 329
#     4  10  20  34  62  84 110 148 196 231 278 328
#     4   9  16  31  60  81 109 141 194 241 267 320
#
# _framework density 26.115271
#
# number of rings (size 3 to 8) (size 9 to 14) (size 15 to 20)
#    0.000    2.545    5.455    0.545    0.000    0.727 
#    0.000    0.909    0.000    1.091    0.000    0.000 
#    0.000    0.000    0.000    0.000    0.000    0.000 
#
# Total GULP energy -61263.797546 kJ/mol
# GULP energy per Si atom -5569.436141 kJ/mol
# Density = 2.605583 g / cm^3
# Si number density = 26.115271 Si / 1000 Ang^3
#
#
#
# Elastic Constant Matrix: (Units=GPa)
#
#
# Indices 1 2 3 4 5 6 
#
# 1 129.5655 10.8324 31.5555 16.7597 42.3438 1.1387
# 2 10.8324 104.7190 45.1820 19.3875 12.3254 -23.0961
# 3 31.5555 45.1820 119.5815 36.6571 14.1220 -9.2591
# 4 16.7597 19.3875 36.6571 50.6114 0.4665 4.4842
# 5 42.3438 12.3254 14.1220 0.4665 56.5826 0.5455
# 6 1.1387 -23.0961 -9.2591 4.4842 0.5455 33.6323
#
#
#
# Elastic Compliance Matrix: (Units=1/GPa)
#
#
# Indices 1 2 3 4 5 6 
#
# 1 0.011000 0.001093 -0.001390 -0.003027 -0.008104 0.000531
# 2 0.001093 0.014023 -0.003205 -0.004209 -0.003128 0.009322
# 3 -0.001390 -0.003205 0.012634 -0.007660 -0.001375 0.002368
# 4 -0.003027 -0.004209 -0.007660 0.028655 0.004943 -0.008798
# 5 -0.008104 -0.003128 -0.001375 0.004943 0.024753 -0.003312
# 6 0.000531 0.009322 0.002368 -0.008798 -0.003312 0.037996
#
#
# Mechanical properties :
#
#
# Convention : Reuss Voigt Hill
#
# Bulk Modulus (GPa) = 32.62302 58.77842 45.70072
# Shear Modulus (GPa) = 34.18038 45.91834 40.04936
#
# Velocity S-wave (km/s) = 3.62170 4.19775 3.92032
# Velocity P-wave (km/s) = 5.47795 6.78609 6.16680
#
# Compressibility (1/GPa) = 0.03065320
#
# Stress axis : x y z
#
# Youngs Moduli (GPa) = 90.90510 71.31306 79.15162
#
# Poissons Ratio (x) = -0.07794 0.11000
# Poissons Ratio (y) = -0.09936 0.25370
# Poissons Ratio (z) = 0.12634 0.22857
#
# Static dielectric constant tensor:
#      x y z
#    x 2.112320 0.066020 0.071330 
#    y 0.066020 2.146730 -0.086160 
#    z 0.071330 -0.086160 1.992260 
# 
# From -- ./inp_files/232441.got.cif
#   From: 2010.05.17/outbox.cif.g08.bks.cpg/sg2_117_cif.got.tgz:232441.got - 2010.06.03 11:33:40.
