data_PCOD9088603
_publ_section_title
;
Structure prediction by ZEFSAII (Michael W. Deem and Ramdas Pophale) SiO2 
 PCOD9088603
Probable space group: P -1
;
_chemical_formula_sum "Si O2"
_cell_formula_units_Z 16
_cell_length_a 28.263779
_cell_length_b 9.552592
_cell_length_c 14.124806
_cell_angle_alpha 53.938796
_cell_angle_beta 22.948319
_cell_angle_gamma 40.229987
_cell_volume 855.546613
_symmetry_space_group_name_H-M "P -1"
_symmetry_group_IT_number 2
_symmetry_cell_setting 'triclinic'
loop_
_space_group_symop_operation_xyz
x,y,z
-x,-y,-z
loop_
_atom_site_type_symbol
_atom_site_label
_atom_site_fract_x
_atom_site_fract_y
_atom_site_fract_z
Si Si1 0.068548 0.805371 0.087411
Si Si2 0.230486 0.695486 0.640592
Si Si3 0.941740 0.552614 0.443856
Si Si4 0.544327 0.208269 0.760968
Si Si5 0.295831 0.315409 0.335242
Si Si6 0.373044 0.482660 0.781318
Si Si7 0.714065 0.806227 0.945913
Si Si8 0.564901 0.617358 0.790101
O O1 0.959572 0.742200 0.329117
O O2 0.187239 0.651392 0.837929
O O3 0.185124 0.722463 0.996676
O O4 0.946552 0.085466 0.173441
O O5 0.313230 0.796143 0.474741
O O6 0.358665 0.480570 0.416412
O O7 0.866618 0.550298 0.486654
O O8 0.808314 0.657276 0.733436
O O9 0.129598 0.303477 0.228622
O O10 0.419152 0.420206 0.831213
O O11 0.633914 0.944596 0.662296
O O12 0.440655 0.254980 0.025561
O O13 0.290488 0.444649 0.383752
O O14 0.500000 0.500000 0.500000
O O15 0.382829 0.271770 0.811470
O O16 0.589497 0.090434 0.044679
O O17 0.500000 0.500000 0.000000
#
# Coordination Sequence:
#
# PCOD9088603 Si02
#       8
#     2   2   2   2   2   2   2   2
#     4  10  22  37  61  86 117 160 204 248 297 357
#     4  11  22  39  59  87 122 159 204 244 301 364
#     4  10  19  37  62  87 116 157 203 248 294 353
#     4  11  19  36  62  91 115 158 208 247 288 361
#     4  11  20  36  62  89 118 156 208 248 294 351
#     4  11  20  35  64  93 118 151 203 255 293 351
#     4  10  21  37  60  93 121 154 199 252 301 352
#     4  12  23  38  60  90 125 158 198 254 307 352
#
# _framework density 18.701494
#
# number of rings (size 3 to 8) (size 9 to 14) (size 15 to 20)
#    0.000    1.250    6.250    1.500    0.000    0.000 
#    0.000    5.000    0.000    0.000    0.000    0.000 
#    0.000    0.000    0.000    0.000    0.000    0.000 
#
# Total GULP energy -89220.981078 kJ/mol
# GULP energy per Si atom -5576.311317 kJ/mol
# Density = 1.865893 g / cm^3
# Si number density = 18.701494 Si / 1000 Ang^3
#
#
#
# Elastic Constant Matrix: (Units=GPa)
#
#
# Indices 1 2 3 4 5 6 
#
# 1 94.5314 30.5147 22.7904 5.4935 -17.8612 -14.9115
# 2 30.5147 72.4939 26.8964 -6.2817 -8.6772 -10.4806
# 3 22.7904 26.8964 66.0000 -16.1925 -7.2445 2.5753
# 4 5.4935 -6.2817 -16.1925 31.8505 -2.2940 -7.0678
# 5 -17.8612 -8.6772 -7.2445 -2.2940 30.9526 3.2131
# 6 -14.9115 -10.4806 2.5753 -7.0678 3.2131 32.5919
#
#
#
# Elastic Compliance Matrix: (Units=1/GPa)
#
#
# Indices 1 2 3 4 5 6 
#
# 1 0.014794 -0.003708 -0.004110 -0.003964 0.005777 0.004472
# 2 -0.003708 0.018618 -0.005701 0.002664 0.001405 0.005180
# 3 -0.004110 -0.005701 0.021732 0.010021 0.002220 -0.003477
# 4 -0.003964 0.002664 0.010021 0.039359 0.003049 0.006486
# 5 0.005777 0.001405 0.002220 0.003049 0.036785 -0.000046
# 6 0.004472 0.005180 -0.003477 0.006486 -0.000046 0.036080
#
#
# Mechanical properties :
#
#
# Convention : Reuss Voigt Hill
#
# Bulk Modulus (GPa) = 35.58037 43.71426 39.64731
# Shear Modulus (GPa) = 24.53677 29.26725 26.90201
#
# Velocity S-wave (km/s) = 3.62611 3.96026 3.79686
# Velocity P-wave (km/s) = 6.04965 6.65861 6.36142
#
# Compressibility (1/GPa) = 0.02810539
#
# Stress axis : x y z
#
# Youngs Moduli (GPa) = 67.59699 53.71105 46.01446
#
# Poissons Ratio (x) = 0.19913 0.18913
# Poissons Ratio (y) = 0.25062 0.26235
# Poissons Ratio (z) = 0.27785 0.30623
#
# Static dielectric constant tensor:
#      x y z
#    x 1.676460 -0.026670 -0.019620 
#    y -0.026670 1.640580 -0.006150 
#    z -0.019620 -0.006150 1.653010 
# 
# From -- ./inp_files/282251.got.cif
#   From: 2010.05.17/outbox.cif.g08.bks.cpg/sg2_142_cif.got.tgz:282251.got - 2010.06.03 11:33:40.
