data_PCOD9088735
_publ_section_title
;
Structure prediction by ZEFSAII (Michael W. Deem and Ramdas Pophale) SiO2 
 PCOD9088735
Probable space group: P -1
;
_chemical_formula_sum "Si O2"
_cell_formula_units_Z 16
_cell_length_a 16.174659
_cell_length_b 16.090584
_cell_length_c 10.351041
_cell_angle_alpha 32.085867
_cell_angle_beta 146.880555
_cell_angle_gamma 145.287425
_cell_volume 720.847791
_symmetry_space_group_name_H-M "P -1"
_symmetry_group_IT_number 2
_symmetry_cell_setting 'triclinic'
loop_
_space_group_symop_operation_xyz
x,y,z
-x,-y,-z
loop_
_atom_site_type_symbol
_atom_site_label
_atom_site_fract_x
_atom_site_fract_y
_atom_site_fract_z
Si Si1 0.800038 0.112619 0.969186
Si Si2 0.317729 0.963136 0.355033
Si Si3 0.846926 0.299253 0.301730
Si Si4 0.119773 0.112710 0.291171
Si Si5 0.873332 0.811691 0.222696
Si Si6 0.691693 0.121259 0.076405
Si Si7 0.660708 0.715303 0.308336
Si Si8 0.693708 0.548033 0.842940
O O1 0.739648 0.196321 0.896074
O O2 0.987648 0.129459 0.197690
O O3 0.684880 0.911341 0.093073
O O4 0.783242 0.153184 0.744238
O O5 0.272911 0.858967 0.564019
O O6 0.500000 0.000000 0.500000
O O7 0.270768 0.128835 0.091819
O O8 0.770476 0.260948 0.107053
O O9 0.026940 0.295045 0.561251
O O10 0.826051 0.465067 0.107248
O O11 0.244334 0.300271 0.173234
O O12 0.213106 0.004005 0.616066
O O13 0.017168 0.997556 0.191815
O O14 0.803479 0.725076 0.383258
O O15 0.500000 0.000000 0.000000
O O16 0.677407 0.638929 0.568295
O O17 0.483412 0.599190 0.172887
#
# Coordination Sequence:
#
# PCOD9088735 Si02
#       8
#     2   2   2   2   2   2   2   2
#     4  10  20  39  61  82 108 157 197 226 270 353
#     4  10  19  37  63  83 109 152 201 232 273 345
#     4  11  23  34  55  92 117 146 184 248 292 325
#     4   9  20  35  57  80 111 158 186 227 276 347
#     4   9  21  39  57  82 112 150 196 239 279 333
#     4  11  20  33  55  87 116 142 189 239 280 323
#     4   9  19  33  56  80 115 153 194 225 279 343
#     4  11  20  33  55  85 119 153 187 230 289 347
#
# _framework density 22.196086000000001
#
# number of rings (size 3 to 8) (size 9 to 14) (size 15 to 20)
#    0.000    2.250    1.250    3.750    5.250    0.500 
#    0.000    2.500    0.000    0.000    0.000   25.375 
#    0.000    0.000    0.000    0.000    0.000    0.000 
#
# Total GULP energy -89218.290772 kJ/mol
# GULP energy per Si atom -5576.143173 kJ/mol
# Density = 2.214557 g / cm^3
# Si number density = 22.196086 Si / 1000 Ang^3
#
#
#
# Elastic Constant Matrix: (Units=GPa)
#
#
# Indices 1 2 3 4 5 6 
#
# 1 59.3834 -8.0290 -2.2619 9.4175 6.4107 8.5823
# 2 -8.0290 72.2512 11.6257 -0.1461 10.0684 5.0108
# 3 -2.2619 11.6257 50.7257 13.6004 19.6964 2.4364
# 4 9.4175 -0.1461 13.6004 27.6286 9.3464 6.3697
# 5 6.4107 10.0684 19.6964 9.3464 29.1787 2.7477
# 6 8.5823 5.0108 2.4364 6.3697 2.7477 19.4066
#
#
#
# Elastic Compliance Matrix: (Units=1/GPa)
#
#
# Indices 1 2 3 4 5 6 
#
# 1 0.019933 0.002864 0.004259 -0.005140 -0.005883 -0.007569
# 2 0.002864 0.015571 -0.002017 0.003055 -0.005119 -0.005312
# 3 0.004259 -0.002017 0.029766 -0.010530 -0.017031 0.000768
# 4 -0.005140 0.003055 -0.010530 0.048349 -0.007169 -0.012048
# 5 -0.005883 -0.005119 -0.017031 -0.007169 0.051011 0.001192
# 6 -0.007569 -0.005312 0.000768 -0.012048 0.001192 0.059937
#
#
# Mechanical properties :
#
#
# Convention : Reuss Voigt Hill
#
# Bulk Modulus (GPa) = 13.24830 20.55888 16.90359
# Shear Modulus (GPa) = 20.87527 27.31115 24.09321
#
# Velocity S-wave (km/s) = 3.07007 3.51158 3.29822
# Velocity P-wave (km/s) = 4.30684 5.07189 4.70494
#
# Compressibility (1/GPa) = 0.07548140
#
# Stress axis : x y z
#
# Youngs Moduli (GPa) = 50.16688 64.22012 33.59563
#
# Poissons Ratio (x) = -0.18394 -0.14307
# Poissons Ratio (y) = -0.14369 0.06778
# Poissons Ratio (z) = -0.21364 0.12956
#
# Static dielectric constant tensor:
#      x y z
#    x 1.872030 -0.039820 -0.027380 
#    y -0.039820 1.872110 0.065250 
#    z -0.027380 0.065250 1.885270 
# 
# From -- ./inp_files/466557.got.cif
#   From: 2010.05.17/outbox.cif.g08.bks.cpg/sg2_234_cif.got.tgz:466557.got - 2010.06.03 11:33:40.
