data_PCOD9088081
_publ_section_title
;
Structure prediction by ZEFSAII (Michael W. Deem and Ramdas Pophale) SiO2 
 PCOD9088081
Probable space group: P -1
;
_chemical_formula_sum "Si O2"
_cell_formula_units_Z 16
_cell_length_a 14.241138
_cell_length_b 9.300657
_cell_length_c 15.271221
_cell_angle_alpha 39.658040
_cell_angle_beta 140.844559
_cell_angle_gamma 119.173784
_cell_volume 784.425254
_symmetry_space_group_name_H-M "P -1"
_symmetry_group_IT_number 2
_symmetry_cell_setting 'triclinic'
loop_
_space_group_symop_operation_xyz
x,y,z
-x,-y,-z
loop_
_atom_site_type_symbol
_atom_site_label
_atom_site_fract_x
_atom_site_fract_y
_atom_site_fract_z
Si Si1 0.899039 0.024213 0.328959
Si Si2 0.977352 0.444291 0.110502
Si Si3 0.881165 0.261865 0.786015
Si Si4 0.569313 0.367354 0.972789
Si Si5 0.626311 0.711903 0.727859
Si Si6 0.012963 0.513614 0.399672
Si Si7 0.575455 0.120334 0.637644
Si Si8 0.653483 0.706076 0.018004
O O1 0.981920 0.172969 0.255594
O O2 0.718575 0.160603 0.149447
O O3 0.000000 0.000000 0.500000
O O4 0.919951 0.758410 0.445009
O O5 0.069832 0.560467 0.193197
O O6 0.798969 0.569635 0.940209
O O7 0.000000 0.500000 0.000000
O O8 0.708931 0.246151 0.688754
O O9 0.889097 0.351692 0.650316
O O10 0.000000 0.000000 0.000000
O O11 0.622671 0.505040 0.027250
O O12 0.524892 0.560601 0.773217
O O13 0.425405 0.293626 0.944659
O O14 0.587939 0.726592 0.589897
O O15 0.617287 0.950848 0.661804
O O16 0.837641 0.643025 0.182789
O O17 0.000000 0.500000 0.500000
O O18 0.576954 0.951515 0.799391
#
# Coordination Sequence:
#
# PCOD9088081 Si02
#       8
#     2   2   2   2   2   2   2   2
#     4  11  21  43  64  90 130 172 212 267 321 382
#     4  11  24  41  68  96 127 170 218 262 323 393
#     4  12  22  42  64  93 136 169 206 278 327 368
#     4   9  19  36  63  85 126 163 211 264 309 374
#     4   9  19  38  58  94 121 169 211 256 315 385
#     4  12  26  40  66  98 126 168 221 266 324 391
#     4  10  20  35  65  87 130 165 209 263 320 375
#     4  10  19  37  58  96 121 163 215 260 310 381
#
# _framework density 20.397099000000001
#
# number of rings (size 3 to 8) (size 9 to 14) (size 15 to 20)
#    0.000    1.500    5.000    0.750    3.500    1.000 
#    2.250    1.250    0.000    0.000    0.000    0.000 
#    0.000    0.000    0.000    0.000    0.000    0.000 
#
# Total GULP energy -89128.178917 kJ/mol
# GULP energy per Si atom -5570.511182 kJ/mol
# Density = 2.035067 g / cm^3
# Si number density = 20.397099 Si / 1000 Ang^3
#
#
#
# Elastic Constant Matrix: (Units=GPa)
#
#
# Indices 1 2 3 4 5 6 
#
# 1 71.2163 19.9674 -0.1878 -10.7941 -21.1505 5.1280
# 2 19.9674 40.5062 20.6003 -13.5624 -3.3420 10.0485
# 3 -0.1878 20.6003 60.5290 -5.8072 -15.2249 2.8397
# 4 -10.7941 -13.5624 -5.8072 27.0610 6.6355 1.7969
# 5 -21.1505 -3.3420 -15.2249 6.6355 33.3234 0.7447
# 6 5.1280 10.0485 2.8397 1.7969 0.7447 26.0273
#
#
#
# Elastic Compliance Matrix: (Units=1/GPa)
#
#
# Indices 1 2 3 4 5 6 
#
# 1 0.023639 -0.015212 0.009756 -0.000504 0.018043 -0.000330
# 2 -0.015212 0.051326 -0.019063 0.020776 -0.017004 -0.015687
# 3 0.009756 -0.019063 0.026887 -0.004305 0.017371 0.002304
# 4 -0.000504 0.020776 -0.004305 0.049345 -0.009792 -0.010579
# 5 0.018043 -0.017004 0.017371 -0.009792 0.049634 0.000371
# 6 -0.000330 -0.015687 0.002304 -0.010579 0.000371 0.045011
#
#
# Mechanical properties :
#
#
# Convention : Reuss Voigt Hill
#
# Bulk Modulus (GPa) = 18.93468 28.11237 23.52352
# Shear Modulus (GPa) = 16.00077 26.07377 21.03727
#
# Velocity S-wave (km/s) = 2.80387 3.57922 3.21500
# Velocity P-wave (km/s) = 4.44808 5.55820 5.03383
#
# Compressibility (1/GPa) = 0.05281316
#
# Stress axis : x y z
#
# Youngs Moduli (GPa) = 42.30354 19.48320 37.19219
#
# Poissons Ratio (x) = 0.29639 -0.36286
# Poissons Ratio (y) = 0.64354 0.70901
# Poissons Ratio (z) = -0.41272 0.37141
#
# Static dielectric constant tensor:
#      x y z
#    x 1.798430 0.042170 -0.014460 
#    y 0.042170 1.709030 -0.010610 
#    z -0.014460 -0.010610 1.886750 
# 
# From -- ./inp_files/528128.got.cif
#   From: 2010.05.17/outbox.cif.g08.bks.cpg/sg2_265_cif.got.tgz:528128.got - 2010.06.03 11:33:40.
