data_PCOD9088140
_publ_section_title
;
Structure prediction by ZEFSAII (Michael W. Deem and Ramdas Pophale) SiO2 
 PCOD9088140
Probable space group: P -1
;
_chemical_formula_sum "Si O2"
_cell_formula_units_Z 12
_cell_length_a 13.898648
_cell_length_b 14.100133
_cell_length_c 8.881566
_cell_angle_alpha 115.264032
_cell_angle_beta 76.944411
_cell_angle_gamma 158.904940
_cell_volume 480.653566
_symmetry_space_group_name_H-M "P -1"
_symmetry_group_IT_number 2
_symmetry_cell_setting 'triclinic'
loop_
_space_group_symop_operation_xyz
x,y,z
-x,-y,-z
loop_
_atom_site_type_symbol
_atom_site_label
_atom_site_fract_x
_atom_site_fract_y
_atom_site_fract_z
Si Si1 0.142701 0.677781 0.408819
Si Si2 0.429139 0.492861 0.669455
Si Si3 0.175032 0.472189 0.734927
Si Si4 0.870750 0.235767 0.995519
Si Si5 0.340625 0.250975 0.785574
Si Si6 0.001666 0.827396 0.891253
O O1 0.000000 0.500000 0.500000
O O2 0.084393 0.740652 0.429871
O O3 0.500000 0.000000 0.500000
O O4 0.983761 0.459339 0.173129
O O5 0.500000 0.500000 0.500000
O O6 0.254108 0.428159 0.671003
O O7 0.253565 0.232883 0.662341
O O8 0.770307 0.867770 0.880384
O O9 0.068285 0.391464 0.889290
O O10 0.501594 0.858117 0.834173
O O11 0.912186 0.199736 0.098290
O O12 0.632134 0.469684 0.797155
O O13 0.085590 0.938311 0.766129
O O14 0.500000 0.500000 0.000000
#
# Coordination Sequence:
#
# PCOD9088140 Si02
#       6
#     2   2   2   2   2   2
#     4  12  26  45  70 106 137 169 221 291 351 397
#     4  10  22  40  64  97 134 174 224 281 328 381
#     4  11  24  45  69  97 135 185 229 269 336 416
#     4  11  22  44  72  98 132 182 227 271 333 418
#     4  10  19  37  59  86 124 168 214 261 314 388
#     4  10  21  39  62  90 124 172 219 259 319 396
#
# _framework density 24.966006
#
# number of rings (size 3 to 8) (size 9 to 14) (size 15 to 20)
#    0.000    1.333    0.000    8.000    0.000    2.667 
#    0.000   27.500    0.000    0.000    0.000    0.000 
#    0.000    0.000    0.000    0.000    0.000    0.000 
#
# Total GULP energy -67217.765702 kJ/mol
# GULP energy per Si atom -5601.480475 kJ/mol
# Density = 2.490918 g / cm^3
# Si number density = 24.966006 Si / 1000 Ang^3
#
#
#
# Elastic Constant Matrix: (Units=GPa)
#
#
# Indices 1 2 3 4 5 6 
#
# 1 140.6524 27.7203 56.8697 -10.9506 22.4109 22.8004
# 2 27.7203 130.7740 40.5045 -21.4345 -3.0631 24.9241
# 3 56.8697 40.5045 117.6388 -18.3665 -9.2188 6.2551
# 4 -10.9506 -21.4345 -18.3665 56.0368 -0.6001 8.0816
# 5 22.4109 -3.0631 -9.2188 -0.6001 54.6959 -0.5150
# 6 22.8004 24.9241 6.2551 8.0816 -0.5150 40.0043
#
#
#
# Elastic Compliance Matrix: (Units=1/GPa)
#
#
# Indices 1 2 3 4 5 6 
#
# 1 0.011237 0.000645 -0.005521 0.001484 -0.005542 -0.006314
# 2 0.000645 0.010489 -0.002886 0.004244 -0.000186 -0.007311
# 3 -0.005521 -0.002886 0.012605 0.001604 0.004268 0.002705
# 4 0.001484 0.004244 0.001604 0.021450 0.000059 -0.008074
# 5 -0.005542 -0.000186 0.004268 0.000059 0.021290 0.002869
# 6 -0.006314 -0.007311 0.002705 -0.008074 0.002869 0.034396
#
#
# Mechanical properties :
#
#
# Convention : Reuss Voigt Hill
#
# Bulk Modulus (GPa) = 53.17619 71.02826 62.10222
# Shear Modulus (GPa) = 37.52050 47.74544 42.63297
#
# Velocity S-wave (km/s) = 3.88088 4.37786 4.13684
# Velocity P-wave (km/s) = 6.43641 7.35296 6.90990
#
# Compressibility (1/GPa) = 0.01880541
#
# Stress axis : x y z
#
# Youngs Moduli (GPa) = 88.99025 95.33972 79.33628
#
# Poissons Ratio (x) = -0.06150 0.43804
# Poissons Ratio (y) = -0.05741 0.22900
# Poissons Ratio (z) = 0.49134 0.27519
#
# Static dielectric constant tensor:
#      x y z
#    x 1.922640 -0.004180 0.036420 
#    y -0.004180 1.993040 0.072400 
#    z 0.036420 0.072400 2.046670 
# 
# From -- ./inp_files/313708.got.cif
#   From: 2010.05.17/outbox.cif.g08.bks.cpg/sg2_157_cif.got.tgz:313708.got - 2010.06.03 11:33:40.
