data_PCOD9088644
_publ_section_title
;
Structure prediction by ZEFSAII (Michael W. Deem and Ramdas Pophale) SiO2 
 PCOD9088644
Probable space group: P -1
;
_chemical_formula_sum "Si O2"
_cell_formula_units_Z 14
_cell_length_a 9.474599
_cell_length_b 20.988641
_cell_length_c 8.609900
_cell_angle_alpha 53.028515
_cell_angle_beta 116.301938
_cell_angle_gamma 151.559381
_cell_volume 634.707552
_symmetry_space_group_name_H-M "P -1"
_symmetry_group_IT_number 2
_symmetry_cell_setting 'triclinic'
loop_
_space_group_symop_operation_xyz
x,y,z
-x,-y,-z
loop_
_atom_site_type_symbol
_atom_site_label
_atom_site_fract_x
_atom_site_fract_y
_atom_site_fract_z
Si Si1 0.768516 0.204344 0.962601
Si Si2 0.372316 0.920007 0.388300
Si Si3 0.290315 0.707054 0.756503
Si Si4 0.360775 0.159872 0.936056
Si Si5 0.685580 0.685382 0.401144
Si Si6 0.327219 0.403944 0.792967
Si Si7 0.245230 0.512349 0.950462
O O1 0.612096 0.060743 0.177446
O O2 0.500376 0.152066 0.906928
O O3 0.967105 0.263553 0.826785
O O4 0.031224 0.366419 0.949431
O O5 0.354366 0.816145 0.535587
O O6 0.045261 0.822890 0.372894
O O7 0.500000 0.000000 0.500000
O O8 0.300709 0.630128 0.774453
O O9 0.501413 0.789209 0.895743
O O10 0.954884 0.571491 0.865590
O O11 0.424159 0.272117 0.725081
O O12 0.000000 0.000000 0.000000
O O13 0.522246 0.568883 0.632492
O O14 0.588520 0.606379 0.305750
O O15 0.443180 0.399085 0.995976
#
# Coordination Sequence:
#
# PCOD9088644 Si02
#       7
#     2   2   2   2   2   2   2
#     4  11  24  37  66  93 131 156 212 263 309 357
#     4  12  20  40  63  96 117 169 209 253 304 381
#     4  10  20  35  65  91 119 162 218 240 307 378
#     4  11  20  39  62  92 123 168 202 259 309 370
#     4  11  23  39  67  85 127 166 211 245 322 377
#     4  11  23  40  61  97 122 165 205 266 307 368
#     4  10  19  37  62  89 126 160 203 259 305 367
#
# _framework density 22.057403999999998
#
# number of rings (size 3 to 8) (size 9 to 14) (size 15 to 20)
#    0.000    1.143    7.143    0.429    0.000    1.143 
#    0.000    0.714    0.000    0.000    0.000    0.000 
#    0.000    0.000    0.000    0.000    0.000    0.000 
#
# Total GULP energy -78133.427444 kJ/mol
# GULP energy per Si atom -5580.959103 kJ/mol
# Density = 2.200720 g / cm^3
# Si number density = 22.057404 Si / 1000 Ang^3
#
#
#
# Elastic Constant Matrix: (Units=GPa)
#
#
# Indices 1 2 3 4 5 6 
#
# 1 96.6613 14.2061 61.4815 -19.5526 28.9636 16.8051
# 2 14.2061 82.5839 18.6701 3.1813 10.5663 24.5572
# 3 61.4815 18.6701 100.2548 -24.9444 34.1839 -1.9995
# 4 -19.5526 3.1813 -24.9444 37.1635 -0.2299 8.5180
# 5 28.9636 10.5663 34.1839 -0.2299 43.1347 -10.2242
# 6 16.8051 24.5572 -1.9995 8.5180 -10.2242 35.9906
#
#
#
# Elastic Compliance Matrix: (Units=1/GPa)
#
#
# Indices 1 2 3 4 5 6 
#
# 1 0.029705 0.007905 -0.009025 0.015544 -0.021663 -0.029598
# 2 0.007905 0.019442 -0.003291 0.005243 -0.012642 -0.021972
# 3 -0.009025 -0.003291 0.021906 0.009575 -0.009822 0.002621
# 4 0.015544 0.005243 0.009575 0.047531 -0.025910 -0.028914
# 5 -0.021663 -0.012642 -0.009822 -0.025910 0.058153 0.040848
# 6 -0.029598 -0.021972 0.002621 -0.028914 0.040848 0.075190
#
#
# Mechanical properties :
#
#
# Convention : Reuss Voigt Hill
#
# Bulk Modulus (GPa) = 16.06955 52.02394 34.04674
# Shear Modulus (GPa) = 17.76229 35.60057 26.68143
#
# Velocity S-wave (km/s) = 2.84082 4.02182 3.48176
# Velocity P-wave (km/s) = 4.24988 6.72336 5.62428
#
# Compressibility (1/GPa) = 0.06222950
#
# Stress axis : x y z
#
# Youngs Moduli (GPa) = 33.66399 51.43419 45.64986
#
# Poissons Ratio (x) = -0.40657 0.41201
# Poissons Ratio (y) = -0.26610 0.15025
# Poissons Ratio (z) = 0.30383 0.16929
#
# Static dielectric constant tensor:
#      x y z
#    x 1.843420 -0.044890 0.028630 
#    y -0.044890 1.882640 -0.042620 
#    z 0.028630 -0.042620 1.884510 
# 
# From -- ./inp_files/177576.got.cif
#   From: 2010.05.17/outbox.cif.g08.bks.cpg/sg2_89_cif.got.tgz:177576.got - 2010.06.03 11:33:40.
