data_PCOD9088056
_publ_section_title
;
Structure prediction by ZEFSAII (Michael W. Deem and Ramdas Pophale) SiO2 
 PCOD9088056
Probable space group: P -1
;
_chemical_formula_sum "Si O2"
_cell_formula_units_Z 16
_cell_length_a 13.709706
_cell_length_b 12.921762
_cell_length_c 11.298387
_cell_angle_alpha 84.756942
_cell_angle_beta 62.891828
_cell_angle_gamma 31.639603
_cell_volume 721.924946
_symmetry_space_group_name_H-M "P -1"
_symmetry_group_IT_number 2
_symmetry_cell_setting 'triclinic'
loop_
_space_group_symop_operation_xyz
x,y,z
-x,-y,-z
loop_
_atom_site_type_symbol
_atom_site_label
_atom_site_fract_x
_atom_site_fract_y
_atom_site_fract_z
Si Si1 0.910589 0.283986 0.350723
Si Si2 0.702528 0.272643 0.583818
Si Si3 0.711141 0.829111 0.507125
Si Si4 0.271572 0.666345 0.970600
Si Si5 0.529587 0.768649 0.651090
Si Si6 0.809003 0.041367 0.991055
Si Si7 0.263563 0.978762 0.416056
Si Si8 0.970437 0.289944 0.760752
O O1 0.742587 0.322602 0.455277
O O2 0.711653 0.545671 0.481760
O O3 0.059288 0.149660 0.157172
O O4 0.149599 0.078021 0.337495
O O5 0.522233 0.469797 0.769011
O O6 0.582674 0.262369 0.621556
O O7 0.000000 0.000000 0.500000
O O8 0.689845 0.736751 0.590541
O O9 0.622540 0.006206 0.615762
O O10 0.992591 0.623623 0.313264
O O11 0.500000 0.000000 0.500000
O O12 0.025464 0.869238 0.993739
O O13 0.266503 0.561507 0.054370
O O14 0.230131 0.807562 0.053917
O O15 0.243541 0.037370 0.715067
O O16 0.450835 0.778915 0.815394
O O17 0.021020 0.182262 0.623912
#
# Coordination Sequence:
#
# PCOD9088056 Si02
#       8
#     2   2   2   2   2   2   2   2
#     4  11  22  37  56  88 126 156 192 247 304 359
#     4  10  21  37  55  86 124 158 195 244 301 359
#     4   8  17  36  64  81 113 159 204 247 288 347
#     4  10  19  37  58  89 121 153 206 247 290 360
#     4  10  19  38  61  87 117 159 202 244 293 353
#     4  10  22  35  57  92 123 155 197 247 300 356
#     4   9  20  38  55  86 115 155 203 235 298 357
#     4   8  18  36  60  83 110 156 201 244 290 342
#
# _framework density 22.162969
#
# number of rings (size 3 to 8) (size 9 to 14) (size 15 to 20)
#    0.750    1.750    1.250    0.750    1.750    1.000 
#    4.500    5.625    0.000    5.250    0.000    0.000 
#    0.000    0.000    0.000    0.000    0.000    0.000 
#
# Total GULP energy -89095.629402 kJ/mol
# GULP energy per Si atom -5568.476838 kJ/mol
# Density = 2.211252 g / cm^3
# Si number density = 22.162969 Si / 1000 Ang^3
#
#
#
# Elastic Constant Matrix: (Units=GPa)
#
#
# Indices 1 2 3 4 5 6 
#
# 1 133.3978 43.0139 34.4021 -6.9286 5.4940 28.2965
# 2 43.0139 52.8555 17.7854 -7.7241 -10.0664 27.6074
# 3 34.4021 17.7854 105.3342 -11.8510 -7.4322 24.6861
# 4 -6.9286 -7.7241 -11.8510 30.8730 3.5298 1.2322
# 5 5.4940 -10.0664 -7.4322 3.5298 32.8046 0.7929
# 6 28.2965 27.6074 24.6861 1.2322 0.7929 38.4820
#
#
#
# Elastic Compliance Matrix: (Units=1/GPa)
#
#
# Indices 1 2 3 4 5 6 
#
# 1 0.011424 -0.009658 -0.002582 -0.000233 -0.005444 0.000305
# 2 -0.009658 0.044639 0.004553 0.010062 0.015953 -0.028494
# 3 -0.002582 0.004553 0.012784 0.005358 0.004387 -0.009831
# 4 -0.000233 0.010062 0.005358 0.037309 0.000608 -0.011691
# 5 -0.005444 0.015953 0.004387 0.000608 0.037486 -0.011048
# 6 0.000305 -0.028494 -0.009831 -0.011691 -0.011048 0.053113
#
#
# Mechanical properties :
#
#
# Convention : Reuss Voigt Hill
#
# Bulk Modulus (GPa) = 18.70127 53.55448 36.12788
# Shear Modulus (GPa) = 21.74346 33.52432 27.63389
#
# Velocity S-wave (km/s) = 3.13560 3.89347 3.53491
# Velocity P-wave (km/s) = 4.64389 6.66548 5.74431
#
# Compressibility (1/GPa) = 0.05347229
#
# Stress axis : x y z
#
# Youngs Moduli (GPa) = 87.53519 22.40202 78.22008
#
# Poissons Ratio (x) = 0.21636 0.20197
# Poissons Ratio (y) = 0.84542 -0.35611
# Poissons Ratio (z) = 0.22602 -0.10199
#
# Static dielectric constant tensor:
#      x y z
#    x 1.853730 -0.004330 -0.017090 
#    y -0.004330 1.977510 -0.028360 
#    z -0.017090 -0.028360 1.787410 
# 
# From -- ./inp_files/306036.got.cif
#   From: 2010.05.17/outbox.cif.g08.bks.cpg/sg2_154_cif.got.tgz:306036.got - 2010.06.03 11:33:40.
