data_PCOD9088509
_publ_section_title
;
Structure prediction by ZEFSAII (Michael W. Deem and Ramdas Pophale) SiO2 
 PCOD9088509
Probable space group: P -1
;
_chemical_formula_sum "Si O2"
_cell_formula_units_Z 16
_cell_length_a 14.025614
_cell_length_b 17.323359
_cell_length_c 25.814551
_cell_angle_alpha 18.308805
_cell_angle_beta 23.940958
_cell_angle_gamma 21.710034
_cell_volume 700.792724
_symmetry_space_group_name_H-M "P -1"
_symmetry_group_IT_number 2
_symmetry_cell_setting 'triclinic'
loop_
_space_group_symop_operation_xyz
x,y,z
-x,-y,-z
loop_
_atom_site_type_symbol
_atom_site_label
_atom_site_fract_x
_atom_site_fract_y
_atom_site_fract_z
Si Si1 0.611155 0.105217 0.713713
Si Si2 0.330509 0.821963 0.756228
Si Si3 0.867015 0.725876 0.077453
Si Si4 0.337009 0.151849 0.255675
Si Si5 0.636227 0.151535 0.399138
Si Si6 0.765209 0.307507 0.933587
Si Si7 0.985098 0.725721 0.572411
Si Si8 0.127105 0.546306 0.855267
O O1 0.377097 0.147823 0.842023
O O2 0.725185 0.322966 0.526325
O O3 0.553285 0.057127 0.713985
O O4 0.876311 0.820162 0.781018
O O5 0.335480 0.794909 0.708984
O O6 0.563884 0.523548 0.852552
O O7 0.403437 0.067652 0.575615
O O8 0.048799 0.877392 0.884448
O O9 0.784494 0.681739 0.088816
O O10 0.078930 0.422636 0.188412
O O11 0.223378 0.055758 0.421098
O O12 0.557106 0.236199 0.113039
O O13 0.639006 0.391919 0.279765
O O14 0.898039 0.867395 0.469449
O O15 0.919718 0.471446 0.771786
O O16 0.000000 0.000000 0.000000
O O17 0.000000 0.500000 0.000000
#
# Coordination Sequence:
#
# PCOD9088509 Si02
#       8
#     2   2   2   2   2   2   2   2
#     4  10  23  40  62  93 125 168 210 258 317 371
#     4   9  18  38  67  90 125 163 205 261 312 373
#     4  10  21  38  63  93 124 163 210 257 313 369
#     4  10  22  41  63  89 126 166 210 259 316 369
#     4   9  18  36  65  89 120 170 203 251 320 363
#     4  10  22  40  64  93 122 165 208 262 318 375
#     4  10  21  41  62  91 130 164 210 260 310 374
#     4  10  19  37  61  90 127 163 204 256 310 374
#
# _framework density 22.831288000000001
#
# number of rings (size 3 to 8) (size 9 to 14) (size 15 to 20)
#    0.000    2.250    1.250    0.750    1.750    1.000 
#    6.750    0.000    0.000    1.500    0.000    0.000 
#    0.000    0.000    0.000    0.000    0.000    0.000 
#
# Total GULP energy -89296.893147 kJ/mol
# GULP energy per Si atom -5581.055822 kJ/mol
# Density = 2.277932 g / cm^3
# Si number density = 22.831288 Si / 1000 Ang^3
#
#
#
# Elastic Constant Matrix: (Units=GPa)
#
#
# Indices 1 2 3 4 5 6 
#
# 1 125.4974 32.9975 64.0382 12.8385 -13.2317 8.8273
# 2 32.9975 64.8566 46.8997 25.2722 -2.6740 8.8274
# 3 64.0382 46.8997 153.4924 34.4061 -12.7171 6.4304
# 4 12.8385 25.2722 34.4061 30.6553 0.2181 -3.6381
# 5 -13.2317 -2.6740 -12.7171 0.2181 43.2444 1.4791
# 6 8.8273 8.8274 6.4304 -3.6381 1.4791 24.7099
#
#
#
# Elastic Compliance Matrix: (Units=1/GPa)
#
#
# Indices 1 2 3 4 5 6 
#
# 1 0.010879 -0.003421 -0.003784 0.002323 0.002043 -0.001460
# 2 -0.003421 0.028443 -0.001980 -0.021172 0.000632 -0.011579
# 3 -0.003784 -0.001980 0.011115 -0.009553 0.002117 -0.002367
# 4 0.002323 -0.021172 -0.009553 0.062065 -0.004358 0.018619
# 5 0.002043 0.000632 0.002117 -0.004358 0.024557 -0.003618
# 6 -0.001460 -0.011579 -0.002367 0.018619 -0.003618 0.048701
#
#
# Mechanical properties :
#
#
# Convention : Reuss Voigt Hill
#
# Bulk Modulus (GPa) = 31.18534 70.19079 50.68807
# Shear Modulus (GPa) = 23.27539 33.04931 28.16235
#
# Velocity S-wave (km/s) = 3.19635 3.80879 3.51593
# Velocity P-wave (km/s) = 5.22598 7.08184 6.22348
#
# Compressibility (1/GPa) = 0.03206635
#
# Stress axis : x y z
#
# Youngs Moduli (GPa) = 91.92016 35.15793 89.97075
#
# Poissons Ratio (x) = 0.12028 0.34044
# Poissons Ratio (y) = 0.31447 0.17816
# Poissons Ratio (z) = 0.34781 0.06962
#
# Static dielectric constant tensor:
#      x y z
#    x 1.885890 0.021220 -0.034590 
#    y 0.021220 1.862730 -0.043900 
#    z -0.034590 -0.043900 1.897850 
# 
# From -- ./inp_files/619719.got.cif
#   From: 2010.05.17/outbox.cif.g08.bks.cpg/sg2_310_cif.got.tgz:619719.got - 2010.06.03 11:33:40.
