data_PCOD9088276
_publ_section_title
;
Structure prediction by ZEFSAII (Michael W. Deem and Ramdas Pophale) SiO2 
 PCOD9088276
Probable space group: P -1
;
_chemical_formula_sum "Si O2"
_cell_formula_units_Z 15
_cell_length_a 10.151717
_cell_length_b 8.531620
_cell_length_c 16.476060
_cell_angle_alpha 142.688818
_cell_angle_beta 49.885427
_cell_angle_gamma 130.721383
_cell_volume 630.637462
_symmetry_space_group_name_H-M "P -1"
_symmetry_group_IT_number 2
_symmetry_cell_setting 'triclinic'
loop_
_space_group_symop_operation_xyz
x,y,z
-x,-y,-z
loop_
_atom_site_type_symbol
_atom_site_label
_atom_site_fract_x
_atom_site_fract_y
_atom_site_fract_z
Si Si1 0.255715 0.386463 0.131710
Si Si2 0.000000 0.500000 0.000000
Si Si3 0.312055 0.929750 0.804205
Si Si4 0.981921 0.839212 0.578133
Si Si5 0.399197 0.567919 0.890359
Si Si6 0.589693 0.875324 0.790136
Si Si7 0.010206 0.391385 0.760301
Si Si8 0.923508 0.232121 0.310112
O O1 0.443796 0.512871 0.156407
O O2 0.172407 0.596388 0.206540
O O3 0.102765 0.203318 0.179922
O O4 0.286145 0.187551 0.967816
O O5 0.996670 0.413571 0.871134
O O6 0.188418 0.412011 0.904464
O O7 0.494197 0.889131 0.748495
O O8 0.259248 0.916379 0.726004
O O9 0.157020 0.666562 0.789493
O O10 0.782312 0.838220 0.683898
O O11 0.963145 0.558463 0.425657
O O12 0.084838 0.838966 0.621659
O O13 0.059048 0.115935 0.611991
O O14 0.471174 0.642625 0.800980
O O15 0.400394 0.850814 0.051170
#
# Coordination Sequence:
#
# PCOD9088276 Si02
#       8
#     2   1   2   2   2   2   2   2
#     4  10  22  40  62  91 126 162 199 248 314 358
#     4  12  22  34  60  96 118 150 202 260 298 348
#     4  10  22  39  62  92 121 161 202 249 312 357
#     4  11  23  39  62  90 121 165 211 241 304 359
#     4  10  20  36  61  87 125 156 195 253 309 362
#     4  10  19  37  60  86 119 163 196 248 309 365
#     4  11  23  35  60  94 120 158 200 259 295 359
#     4  10  22  40  63  87 123 169 202 249 294 377
#
# _framework density 23.785457999999998
#
# number of rings (size 3 to 8) (size 9 to 14) (size 15 to 20)
#    0.000    1.600    4.000    1.600    3.733    3.200 
#    0.000    0.000    0.000    7.200    0.000    0.000 
#    0.000    0.000    0.000    0.000    0.000    0.000 
#
# Total GULP energy -83632.643448 kJ/mol
# GULP energy per Si atom -5575.509563 kJ/mol
# Density = 2.373132 g / cm^3
# Si number density = 23.785458 Si / 1000 Ang^3
#
#
#
# Elastic Constant Matrix: (Units=GPa)
#
#
# Indices 1 2 3 4 5 6 
#
# 1 200.3418 27.4101 31.1273 5.0028 13.9207 -19.4644
# 2 27.4101 42.5833 0.3383 16.0127 0.2461 1.4474
# 3 31.1273 0.3383 48.3618 4.7367 10.7409 -15.6125
# 4 5.0028 16.0127 4.7367 28.9603 -9.9964 -9.0135
# 5 13.9207 0.2461 10.7409 -9.9964 32.7310 -1.0124
# 6 -19.4644 1.4474 -15.6125 -9.0135 -1.0124 29.9184
#
#
#
# Elastic Compliance Matrix: (Units=1/GPa)
#
#
# Indices 1 2 3 4 5 6 
#
# 1 0.006595 -0.005706 -0.003159 0.003599 -0.000503 0.003986
# 2 -0.005706 0.037655 0.003929 -0.026815 -0.007701 -0.011823
# 3 -0.003159 0.003929 0.028905 -0.006456 -0.009816 0.010561
# 4 0.003599 -0.026815 -0.006456 0.063159 0.020697 0.019998
# 5 -0.000503 -0.007701 -0.009816 0.020697 0.040444 0.002527
# 6 0.003986 -0.011823 0.010561 0.019998 0.002527 0.048211
#
#
# Mechanical properties :
#
#
# Convention : Reuss Voigt Hill
#
# Bulk Modulus (GPa) = 15.80205 45.44870 30.62537
# Shear Modulus (GPa) = 19.53606 33.81600 26.67603
#
# Velocity S-wave (km/s) = 2.86902 3.77465 3.35255
# Velocity P-wave (km/s) = 4.19917 6.17629 5.28108
#
# Compressibility (1/GPa) = 0.06328293
#
# Stress axis : x y z
#
# Youngs Moduli (GPa) = 151.62263 26.55701 34.59564
#
# Poissons Ratio (x) = 0.15154 0.10930
# Poissons Ratio (y) = 0.86520 -0.13593
# Poissons Ratio (z) = 0.47901 -0.10435
#
# Static dielectric constant tensor:
#      x y z
#    x 1.911860 0.082390 0.066600 
#    y 0.082390 0.955500 -0.681200 
#    z 0.066600 -0.681200 1.367270 
# 
# From -- ./inp_files/554763.got.cif
#   From: 2010.05.17/outbox.cif.g08.bks.cpg/sg2_278_cif.got.tgz:554763.got - 2010.06.03 11:33:40.
