data_PCOD9088653
_publ_section_title
;
Structure prediction by ZEFSAII (Michael W. Deem and Ramdas Pophale) SiO2 
 PCOD9088653
Probable space group: P -1
;
_chemical_formula_sum "Si O2"
_cell_formula_units_Z 12
_cell_length_a 14.842656
_cell_length_b 11.095373
_cell_length_c 9.459906
_cell_angle_alpha 35.587859
_cell_angle_beta 149.660002
_cell_angle_gamma 132.621389
_cell_volume 456.343377
_symmetry_space_group_name_H-M "P -1"
_symmetry_group_IT_number 2
_symmetry_cell_setting 'triclinic'
loop_
_space_group_symop_operation_xyz
x,y,z
-x,-y,-z
loop_
_atom_site_type_symbol
_atom_site_label
_atom_site_fract_x
_atom_site_fract_y
_atom_site_fract_z
Si Si1 0.672869 0.403296 0.742657
Si Si2 0.238831 0.989300 0.397508
Si Si3 0.341497 0.589754 0.603339
Si Si4 0.638274 0.003663 0.922347
Si Si5 0.939729 0.935762 0.220357
Si Si6 0.948629 0.649071 0.036357
O O1 0.500000 0.500000 0.500000
O O2 0.661172 0.490337 0.484275
O O3 0.676321 0.153012 0.964046
O O4 0.848331 0.486761 0.968184
O O5 0.123018 0.847521 0.476525
O O6 0.445931 0.921804 0.757804
O O7 0.187488 0.227072 0.156598
O O8 0.165884 0.997451 0.132266
O O9 0.387344 0.824769 0.402362
O O10 0.147203 0.565300 0.435313
O O11 0.500000 0.500000 0.000000
O O12 0.803756 0.857495 0.223943
O O13 0.996121 0.148730 0.168791
#
# Coordination Sequence:
#
# PCOD9088653 Si02
#       6
#     2   2   2   2   2   2
#     4  10  16  28  46  68  94 117 149 193 230 266
#     4   9  14  27  41  69  92 114 148 193 228 263
#     4   9  19  30  43  67  97 126 151 178 233 280
#     4   9  17  26  45  64  98 112 151 184 232 260
#     4   8  16  24  42  66  94 116 145 189 235 260
#     4   9  15  28  46  66  93 117 147 193 225 266
#
# _framework density 26.295988000000001
#
# number of rings (size 3 to 8) (size 9 to 14) (size 15 to 20)
#    2.000    1.000    1.667    1.000    0.000    0.000 
#    0.000    3.333    0.000    0.000    0.000   11.667 
#    0.000    0.000    0.000    0.000    0.000    0.000 
#
# Total GULP energy -66857.636973 kJ/mol
# GULP energy per Si atom -5571.469748 kJ/mol
# Density = 2.623614 g / cm^3
# Si number density = 26.295988 Si / 1000 Ang^3
#
#
#
# Elastic Constant Matrix: (Units=GPa)
#
#
# Indices 1 2 3 4 5 6 
#
# 1 139.3178 43.7188 58.9696 6.6434 46.3800 -26.3041
# 2 43.7188 81.0945 44.0165 5.5115 5.9066 -16.1506
# 3 58.9696 44.0165 136.9941 23.6510 30.3247 -1.1342
# 4 6.6434 5.5115 23.6510 34.2905 1.2359 3.8281
# 5 46.3800 5.9066 30.3247 1.2359 62.7833 -5.5740
# 6 -26.3041 -16.1506 -1.1342 3.8281 -5.5740 36.6967
#
#
#
# Elastic Compliance Matrix: (Units=1/GPa)
#
#
# Indices 1 2 3 4 5 6 
#
# 1 0.013323 -0.003802 -0.002675 -0.000600 -0.007585 0.006704
# 2 -0.003802 0.017902 -0.005069 0.000589 0.004054 0.005551
# 3 -0.002675 -0.005069 0.011923 -0.006357 -0.003504 -0.003649
# 4 -0.000600 0.000589 -0.006357 0.033873 0.002478 -0.003524
# 5 -0.007585 0.004054 -0.003504 0.002478 0.022744 -0.000565
# 6 0.006704 0.005551 -0.003649 -0.003524 -0.000565 0.034668
#
#
# Mechanical properties :
#
#
# Convention : Reuss Voigt Hill
#
# Bulk Modulus (GPa) = 49.85945 72.31290 61.08618
# Shear Modulus (GPa) = 30.44897 40.80088 35.62493
#
# Velocity S-wave (km/s) = 3.40653 3.94331 3.68471
# Velocity P-wave (km/s) = 5.87151 6.94926 6.43300
#
# Compressibility (1/GPa) = 0.02005638
#
# Stress axis : x y z
#
# Youngs Moduli (GPa) = 75.05923 55.85838 83.87409
#
# Poissons Ratio (x) = 0.21237 0.22437
# Poissons Ratio (y) = 0.28537 0.42513
# Poissons Ratio (z) = 0.20079 0.28313
#
# Static dielectric constant tensor:
#      x y z
#    x 2.074670 -0.015190 0.059840 
#    y -0.015190 2.167320 -0.047780 
#    z 0.059840 -0.047780 2.076650 
# 
# From -- ./inp_files/233485.got.cif
#   From: 2010.05.17/outbox.cif.g08.bks.cpg/sg2_117_cif.got.tgz:233485.got - 2010.06.03 11:33:40.
