data_PCOD9088924
_publ_section_title
;
Structure prediction by ZEFSAII (Michael W. Deem and Ramdas Pophale) SiO2 
 PCOD9088924
Probable space group: P -1
;
_chemical_formula_sum "Si O2"
_cell_formula_units_Z 14
_cell_length_a 10.497393
_cell_length_b 7.082255
_cell_length_c 17.941656
_cell_angle_alpha 50.073481
_cell_angle_beta 37.545828
_cell_angle_gamma 73.118768
_cell_volume 551.040847
_symmetry_space_group_name_H-M "P -1"
_symmetry_group_IT_number 2
_symmetry_cell_setting 'triclinic'
loop_
_space_group_symop_operation_xyz
x,y,z
-x,-y,-z
loop_
_atom_site_type_symbol
_atom_site_label
_atom_site_fract_x
_atom_site_fract_y
_atom_site_fract_z
Si Si1 0.533842 0.691244 0.342100
Si Si2 0.207440 0.963848 0.007969
Si Si3 0.110947 0.256119 0.294110
Si Si4 0.343452 0.098394 0.151219
Si Si5 0.001123 0.538626 0.400803
Si Si6 0.864466 0.179421 0.170203
Si Si7 0.795517 0.352933 0.317486
O O1 0.256254 0.557947 0.489176
O O2 0.593376 0.444216 0.401669
O O3 0.668007 0.807409 0.171692
O O4 0.654832 0.967065 0.267493
O O5 0.418086 0.918702 0.957259
O O6 0.021803 0.664267 0.137097
O O7 0.056807 0.067121 0.101605
O O8 0.137007 0.418222 0.315816
O O9 0.860637 0.186520 0.392560
O O10 0.284849 0.358521 0.113164
O O11 0.214518 0.037134 0.309840
O O12 0.162707 0.870842 0.238047
O O13 0.000000 0.500000 0.500000
O O14 0.773025 0.198413 0.289763
O O15 0.000000 0.500000 0.000000
#
# Coordination Sequence:
#
# PCOD9088924 Si02
#       7
#     2   2   2   2   2   2   2
#     4  11  22  39  61 103 134 166 221 275 330 394
#     4  10  19  37  64 100 132 163 225 272 320 390
#     4  10  25  46  70  98 130 178 230 268 325 409
#     4  10  23  46  68  96 133 177 225 267 328 395
#     4  12  26  45  67  98 137 179 216 278 341 388
#     4  11  19  35  66  96 132 173 217 270 328 385
#     4  10  21  40  65  97 131 172 219 275 327 388
#
# _framework density 25.406466999999999
#
# number of rings (size 3 to 8) (size 9 to 14) (size 15 to 20)
#    0.000    1.429    4.286    1.286    0.000    9.143 
#    2.571    1.429    0.000    0.000    0.000    0.000 
#    0.000    0.000    0.000    0.000    0.000    0.000 
#
# Total GULP energy -77973.533994 kJ/mol
# GULP energy per Si atom -5569.538142 kJ/mol
# Density = 2.534864 g / cm^3
# Si number density = 25.406467 Si / 1000 Ang^3
#
#
#
# Elastic Constant Matrix: (Units=GPa)
#
#
# Indices 1 2 3 4 5 6 
#
# 1 154.6000 80.2043 48.6340 14.8628 -39.0687 -0.3440
# 2 80.2043 202.8131 46.9649 51.1302 -29.6596 7.4832
# 3 48.6340 46.9649 73.2005 13.5689 -15.3278 2.7278
# 4 14.8628 51.1302 13.5689 43.3798 -2.1306 3.6317
# 5 -39.0687 -29.6596 -15.3278 -2.1306 45.5800 9.2022
# 6 -0.3440 7.4832 2.7278 3.6317 9.2022 40.9505
#
#
#
# Elastic Compliance Matrix: (Units=1/GPa)
#
#
# Indices 1 2 3 4 5 6 
#
# 1 0.010587 -0.002536 -0.004289 0.001060 0.006161 -0.000640
# 2 -0.002536 0.009133 -0.001807 -0.009060 0.003030 -0.001447
# 3 -0.004289 -0.001807 0.018384 -0.001989 0.001455 -0.001081
# 4 0.001060 -0.009060 -0.001989 0.033818 -0.004015 -0.000300
# 5 0.006161 0.003030 0.001455 -0.004015 0.030946 -0.007197
# 6 -0.000640 -0.001447 -0.001081 -0.000300 -0.007197 0.026395
#
#
# Mechanical properties :
#
#
# Convention : Reuss Voigt Hill
#
# Bulk Modulus (GPa) = 47.98613 86.91332 67.44973
# Shear Modulus (GPa) = 32.57907 42.96941 37.77424
#
# Velocity S-wave (km/s) = 3.58483 4.11698 3.86008
# Velocity P-wave (km/s) = 6.00525 7.54206 6.81710
#
# Compressibility (1/GPa) = 0.02083935
#
# Stress axis : x y z
#
# Youngs Moduli (GPa) = 94.45726 109.49882 54.39578
#
# Poissons Ratio (x) = 0.27768 0.23332
# Poissons Ratio (y) = 0.23954 0.09827
# Poissons Ratio (z) = 0.40516 0.19782
#
# Static dielectric constant tensor:
#      x y z
#    x 2.031570 -0.008720 0.006270 
#    y -0.008720 1.985200 -0.089130 
#    z 0.006270 -0.089130 2.158650 
# 
# From -- ./inp_files/563537.got.cif
#   From: 2010.05.17/outbox.cif.g08.bks.cpg/sg2_282_cif.got.tgz:563537.got - 2010.06.03 11:33:40.
