data_PCOD9088298
_publ_section_title
;
Structure prediction by ZEFSAII (Michael W. Deem and Ramdas Pophale) SiO2 
 PCOD9088298
Probable space group: P -1
;
_chemical_formula_sum "Si O2"
_cell_formula_units_Z 16
_cell_length_a 12.208862
_cell_length_b 13.815649
_cell_length_c 11.545947
_cell_angle_alpha 146.613653
_cell_angle_beta 57.500508
_cell_angle_gamma 131.301624
_cell_volume 804.637815
_symmetry_space_group_name_H-M "P -1"
_symmetry_group_IT_number 2
_symmetry_cell_setting 'triclinic'
loop_
_space_group_symop_operation_xyz
x,y,z
-x,-y,-z
loop_
_atom_site_type_symbol
_atom_site_label
_atom_site_fract_x
_atom_site_fract_y
_atom_site_fract_z
Si Si1 0.199738 0.375257 0.260727
Si Si2 0.456705 0.380412 0.737426
Si Si3 0.739027 0.992914 0.152527
Si Si4 0.155599 0.648901 0.385866
Si Si5 0.466288 0.750309 0.222855
Si Si6 0.853858 0.508348 0.334064
Si Si7 0.355546 0.339711 0.493523
Si Si8 0.665550 0.050314 0.990759
O O1 0.371745 0.507827 0.274707
O O2 0.130001 0.450365 0.273168
O O3 0.168307 0.439715 0.468109
O O4 0.186348 0.154781 0.043014
O O5 0.444805 0.218046 0.675406
O O6 0.385170 0.334743 0.607589
O O7 0.417037 0.530297 0.981034
O O8 0.583813 0.887946 0.201970
O O9 0.839349 0.192160 0.363175
O O10 0.696214 0.036906 0.095144
O O11 0.314424 0.748463 0.335790
O O12 0.026909 0.596126 0.315183
O O13 0.773200 0.602762 0.397483
O O14 0.771939 0.275236 0.123082
O O15 0.500000 0.500000 0.500000
O O16 0.310668 0.123219 0.254122
O O17 0.500000 0.000000 0.000000
#
# Coordination Sequence:
#
# PCOD9088298 Si02
#       8
#     2   2   2   2   2   2   2   2
#     4  10  19  37  60  87 125 159 196 260 305 354
#     4   9  18  37  65  89 117 159 210 258 304 349
#     4  11  22  39  67  95 118 165 213 254 307 354
#     4  11  24  39  59  91 134 162 204 251 305 375
#     4   9  20  39  64  92 118 163 212 257 294 359
#     4  12  24  39  59  94 132 164 196 251 321 369
#     4  12  21  40  63  90 127 160 204 260 309 367
#     4  12  24  37  64  98 121 158 206 256 314 368
#
# _framework density 19.884725
#
# number of rings (size 3 to 8) (size 9 to 14) (size 15 to 20)
#    0.000    1.250    5.000    2.250    1.750    1.500 
#    0.000    0.625    0.000    1.500    0.000    0.000 
#    0.000    0.000    0.000    0.000    0.000    0.000 
#
# Total GULP energy -89314.725945 kJ/mol
# GULP energy per Si atom -5582.170372 kJ/mol
# Density = 1.983947 g / cm^3
# Si number density = 19.884725 Si / 1000 Ang^3
#
#
#
# Elastic Constant Matrix: (Units=GPa)
#
#
# Indices 1 2 3 4 5 6 
#
# 1 129.8515 25.5544 44.8094 22.2422 11.2527 -6.0833
# 2 25.5544 29.1711 36.7133 7.2119 0.4944 -11.8702
# 3 44.8094 36.7133 112.7711 20.0521 -0.8538 3.0120
# 4 22.2422 7.2119 20.0521 24.6662 -7.7658 3.8762
# 5 11.2527 0.4944 -0.8538 -7.7658 33.3203 -1.6258
# 6 -6.0833 -11.8702 3.0120 3.8762 -1.6258 17.9176
#
#
#
# Elastic Compliance Matrix: (Units=1/GPa)
#
#
# Indices 1 2 3 4 5 6 
#
# 1 0.011492 -0.004566 -0.001374 -0.010269 -0.006106 0.002775
# 2 -0.004566 0.135557 -0.041901 -0.017236 -0.000731 0.098961
# 3 -0.001374 -0.041901 0.024107 -0.001108 -0.000118 -0.032049
# 4 -0.010269 -0.017236 -0.001108 0.065589 0.017650 -0.027307
# 5 -0.006106 -0.000731 -0.000118 0.017650 0.036045 -0.003085
# 6 0.002775 0.098961 -0.032049 -0.027307 -0.003085 0.133329
#
#
# Mechanical properties :
#
#
# Convention : Reuss Voigt Hill
#
# Bulk Modulus (GPa) = 13.24973 53.99421 33.62197
# Shear Modulus (GPa) = 9.48841 26.16193 17.82517
#
# Velocity S-wave (km/s) = 2.18679 3.63117 2.99728
# Velocity P-wave (km/s) = 3.61301 6.69276 5.37805
#
# Compressibility (1/GPa) = 0.07547321
#
# Stress axis : x y z
#
# Youngs Moduli (GPa) = 87.01611 7.37697 41.48212
#
# Poissons Ratio (x) = 0.03368 0.05700
# Poissons Ratio (y) = 0.39733 1.73814
# Poissons Ratio (z) = 0.11958 0.30910
#
# Static dielectric constant tensor:
#      x y z
#    x 1.714100 -0.011780 -0.037940 
#    y -0.011780 1.705460 0.000860 
#    z -0.037940 0.000860 1.708680 
# 
# From -- ./inp_files/433252.got.cif
#   From: 2010.05.17/outbox.cif.g08.bks.cpg/sg2_217_cif.got.tgz:433252.got - 2010.06.03 11:33:40.
