data_PCOD9088548
_publ_section_title
;
Structure prediction by ZEFSAII (Michael W. Deem and Ramdas Pophale) SiO2 
 PCOD9088548
Probable space group: P -1
;
_chemical_formula_sum "Si O2"
_cell_formula_units_Z 14
_cell_length_a 13.803923
_cell_length_b 10.957285
_cell_length_c 7.759186
_cell_angle_alpha 131.845290
_cell_angle_beta 49.910335
_cell_angle_gamma 112.598311
_cell_volume 666.732541
_symmetry_space_group_name_H-M "P -1"
_symmetry_group_IT_number 2
_symmetry_cell_setting 'triclinic'
loop_
_space_group_symop_operation_xyz
x,y,z
-x,-y,-z
loop_
_atom_site_type_symbol
_atom_site_label
_atom_site_fract_x
_atom_site_fract_y
_atom_site_fract_z
Si Si1 0.615543 0.156917 0.851785
Si Si2 0.798433 0.452675 0.955250
Si Si3 0.973260 0.771423 0.450772
Si Si4 0.858864 0.925194 0.382786
Si Si5 0.407496 0.360187 0.425705
Si Si6 0.438937 0.335903 0.981583
Si Si7 0.176927 0.300514 0.104471
O O1 0.704175 0.309897 0.905953
O O2 0.712875 0.001408 0.621764
O O3 0.502240 0.194362 0.156397
O O4 0.544123 0.190910 0.782298
O O5 0.844469 0.517935 0.781582
O O6 0.918946 0.375281 0.847968
O O7 0.715013 0.603000 0.282405
O O8 0.896115 0.825976 0.420419
O O9 0.886480 0.722905 0.661805
O O10 0.050248 0.924516 0.571832
O O11 0.875949 0.820944 0.090510
O O12 0.500000 0.500000 0.500000
O O13 0.373882 0.384258 0.285866
O O14 0.330077 0.276963 0.929178
O O15 0.500000 0.500000 0.000000
#
# Coordination Sequence:
#
# PCOD9088548 Si02
#       7
#     2   2   2   2   2   2   2
#     4   8  18  38  64  89 126 164 201 255 314 375
#     4  10  19  39  65  92 123 160 211 264 307 364
#     4  10  24  45  62  89 126 170 215 255 308 366
#     4  10  23  44  65  86 129 170 208 254 311 378
#     4   8  16  34  61  87 122 161 196 247 316 357
#     4  10  19  37  61  96 131 154 201 263 313 371
#     4  12  23  38  64  95 127 161 214 259 308 372
#
# _framework density 20.997924000000001
#
# number of rings (size 3 to 8) (size 9 to 14) (size 15 to 20)
#    0.857    1.429    1.429    0.857    2.000    1.143 
#    2.571   10.000    0.000    0.000    0.000    0.000 
#    0.000    0.000    0.000    0.000    0.000    0.000 
#
# Total GULP energy -78012.459389 kJ/mol
# GULP energy per Si atom -5572.318528 kJ/mol
# Density = 2.095013 g / cm^3
# Si number density = 20.997924 Si / 1000 Ang^3
#
#
#
# Elastic Constant Matrix: (Units=GPa)
#
#
# Indices 1 2 3 4 5 6 
#
# 1 137.2318 43.8983 32.7546 6.6516 -8.3151 -12.7349
# 2 43.8983 79.5288 35.4101 -17.9281 -18.7478 -5.7619
# 3 32.7546 35.4101 73.4383 -6.9203 -14.9306 -15.0291
# 4 6.6516 -17.9281 -6.9203 30.0966 -6.2033 -0.8613
# 5 -8.3151 -18.7478 -14.9306 -6.2033 36.0782 11.6162
# 6 -12.7349 -5.7619 -15.0291 -0.8613 11.6162 42.8330
#
#
#
# Elastic Compliance Matrix: (Units=1/GPa)
#
#
# Indices 1 2 3 4 5 6 
#
# 1 0.010627 -0.007654 -0.002291 -0.008333 -0.004692 0.002431
# 2 -0.007654 0.026708 -0.005573 0.019178 0.014449 -0.004171
# 3 -0.002291 -0.005573 0.019169 0.002445 0.003516 0.004391
# 4 -0.008333 0.019178 0.002445 0.050841 0.018802 -0.003116
# 5 -0.004692 0.014449 0.003516 0.018802 0.041785 -0.009172
# 6 0.002431 -0.004171 0.004391 -0.003116 -0.009172 0.027474
#
#
# Mechanical properties :
#
#
# Convention : Reuss Voigt Hill
#
# Bulk Modulus (GPa) = 39.26376 57.14722 48.20549
# Shear Modulus (GPa) = 23.13434 33.67728 28.40581
#
# Velocity S-wave (km/s) = 3.32285 4.00914 3.68202
# Velocity P-wave (km/s) = 5.78457 6.97895 6.40964
#
# Compressibility (1/GPa) = 0.02546878
#
# Stress axis : x y z
#
# Youngs Moduli (GPa) = 94.09610 37.44257 52.16661
#
# Poissons Ratio (x) = 0.28660 0.11950
# Poissons Ratio (y) = 0.72025 0.29070
# Poissons Ratio (z) = 0.21555 0.20865
#
# Static dielectric constant tensor:
#      x y z
#    x 1.764480 0.013680 -0.024740 
#    y 0.013680 1.765260 0.011530 
#    z -0.024740 0.011530 1.771660 
# 
# From -- ./inp_files/301609.got.cif
#   From: 2010.05.17/outbox.cif.g08.bks.cpg/sg2_151_cif.got.tgz:301609.got - 2010.06.03 11:33:40.
