data_PCOD9088584
_publ_section_title
;
Structure prediction by ZEFSAII (Michael W. Deem and Ramdas Pophale) SiO2 
 PCOD9088584
Probable space group: P -1
;
_chemical_formula_sum "Si O2"
_cell_formula_units_Z 14
_cell_length_a 12.480425
_cell_length_b 21.171927
_cell_length_c 8.483113
_cell_angle_alpha 32.286570
_cell_angle_beta 39.961883
_cell_angle_gamma 25.288311
_cell_volume 511.443323
_symmetry_space_group_name_H-M "P -1"
_symmetry_group_IT_number 2
_symmetry_cell_setting 'triclinic'
loop_
_space_group_symop_operation_xyz
x,y,z
-x,-y,-z
loop_
_atom_site_type_symbol
_atom_site_label
_atom_site_fract_x
_atom_site_fract_y
_atom_site_fract_z
Si Si1 0.589309 0.234567 0.435205
Si Si2 0.427522 0.104031 0.700219
Si Si3 0.073879 0.597914 0.245651
Si Si4 0.573420 0.097421 0.067619
Si Si5 0.861201 0.284898 0.380912
Si Si6 0.428754 0.389156 0.783733
Si Si7 0.106077 0.896046 0.901648
O O1 0.505597 0.194287 0.467057
O O2 0.365055 0.442190 0.281835
O O3 0.605128 0.147402 0.756657
O O4 0.829623 0.162730 0.231484
O O5 0.126600 0.259132 0.700316
O O6 0.500000 0.000000 0.000000
O O7 0.527307 0.978549 0.703605
O O8 0.000000 0.500000 0.500000
O O9 0.046794 0.693513 0.921365
O O10 0.397015 0.273056 0.002166
O O11 0.858643 0.953754 0.109404
O O12 0.574655 0.384852 0.491903
O O13 0.810917 0.415790 0.290378
O O14 0.020149 0.078837 0.634570
O O15 0.657631 0.262123 0.921728
#
# Coordination Sequence:
#
# PCOD9088584 Si02
#       7
#     2   2   2   2   2   2   2
#     4  10  20  37  61  86 125 158 206 258 300 362
#     4   9  19  37  60  82 119 161 198 252 307 354
#     4  10  20  37  62  89 119 163 212 250 303 367
#     4  10  20  37  58  92 123 157 208 256 302 366
#     4  10  19  37  62  85 120 168 200 245 315 357
#     4  10  22  39  60  90 131 159 203 252 311 375
#     4  11  21  40  64  92 123 165 206 255 306 366
#
# _framework density 27.373512999999999
#
# number of rings (size 3 to 8) (size 9 to 14) (size 15 to 20)
#    0.000    2.000    1.429    3.857    0.000    1.143 
#   10.286    4.286    0.000   12.000    0.000    0.000 
#    0.000    0.000    0.000    0.000    0.000    0.000 
#
# Total GULP energy -78219.924516 kJ/mol
# GULP energy per Si atom -5587.137465 kJ/mol
# Density = 2.731121 g / cm^3
# Si number density = 27.373513 Si / 1000 Ang^3
#
#
#
# Elastic Constant Matrix: (Units=GPa)
#
#
# Indices 1 2 3 4 5 6 
#
# 1 111.0188 21.9041 26.1229 -22.3571 -12.6880 24.7440
# 2 21.9041 144.9903 10.2390 -30.1345 1.5667 17.4454
# 3 26.1229 10.2390 89.6825 -10.0588 -12.1023 -7.6169
# 4 -22.3571 -30.1345 -10.0588 45.4293 7.7718 -8.6305
# 5 -12.6880 1.5667 -12.1023 7.7718 34.5282 -5.1398
# 6 24.7440 17.4454 -7.6169 -8.6305 -5.1398 29.5490
#
#
#
# Elastic Compliance Matrix: (Units=1/GPa)
#
#
# Indices 1 2 3 4 5 6 
#
# 1 0.013285 0.000385 -0.004360 0.003536 0.000859 -0.011294
# 2 0.000385 0.008586 -0.001252 0.005159 -0.002540 -0.004650
# 3 -0.004360 -0.001252 0.014068 0.001103 0.004495 0.009121
# 4 0.003536 0.005159 0.001103 0.028567 -0.004710 0.001802
# 5 0.000859 -0.002540 0.004495 -0.004710 0.032966 0.006297
# 6 -0.011294 -0.004650 0.009121 0.001802 0.006297 0.050017
#
#
# Mechanical properties :
#
#
# Convention : Reuss Voigt Hill
#
# Bulk Modulus (GPa) = 39.23663 51.35818 45.29740
# Shear Modulus (GPa) = 30.04120 41.06300 35.55210
#
# Velocity S-wave (km/s) = 3.31638 3.87731 3.60777
# Velocity P-wave (km/s) = 5.38789 6.23277 5.82567
#
# Compressibility (1/GPa) = 0.02548639
#
# Stress axis : x y z
#
# Youngs Moduli (GPa) = 75.27372 116.46374 71.08163
#
# Poissons Ratio (x) = -0.04488 0.30995
# Poissons Ratio (y) = -0.02901 0.08896
# Poissons Ratio (z) = 0.32822 0.14576
#
# Static dielectric constant tensor:
#      x y z
#    x 2.240110 -0.001460 -0.002680 
#    y -0.001460 2.175510 0.041120 
#    z -0.002680 0.041120 2.200440 
# 
# From -- ./inp_files/282683.got.cif
#   From: 2010.05.17/outbox.cif.g08.bks.cpg/sg2_142_cif.got.tgz:282683.got - 2010.06.03 11:33:40.
