data_PCOD9088870
_publ_section_title
;
Structure prediction by ZEFSAII (Michael W. Deem and Ramdas Pophale) SiO2 
 PCOD9088870
Probable space group: P -1
;
_chemical_formula_sum "Si O2"
_cell_formula_units_Z 16
_cell_length_a 15.914308
_cell_length_b 8.586673
_cell_length_c 12.490649
_cell_angle_alpha 128.322198
_cell_angle_beta 35.385782
_cell_angle_gamma 134.158853
_cell_volume 703.490014
_symmetry_space_group_name_H-M "P -1"
_symmetry_group_IT_number 2
_symmetry_cell_setting 'triclinic'
loop_
_space_group_symop_operation_xyz
x,y,z
-x,-y,-z
loop_
_atom_site_type_symbol
_atom_site_label
_atom_site_fract_x
_atom_site_fract_y
_atom_site_fract_z
Si Si1 0.632660 0.558351 0.793229
Si Si2 0.582887 0.821132 0.523060
Si Si3 0.713499 0.081812 0.211733
Si Si4 0.606597 0.586829 0.203770
Si Si5 0.780458 0.019565 0.890767
Si Si6 0.838650 0.372942 0.801022
Si Si7 0.438592 0.963529 0.168767
Si Si8 0.814782 0.277528 0.415687
O O1 0.544407 0.563201 0.775909
O O2 0.696000 0.374810 0.627234
O O3 0.783070 0.788529 0.761735
O O4 0.500000 0.500000 0.000000
O O5 0.441482 0.873768 0.638689
O O6 0.584717 0.624949 0.367666
O O7 0.566901 0.837220 0.673853
O O8 0.750672 0.030486 0.417915
O O9 0.798270 0.245575 0.290510
O O10 0.660555 0.831612 0.200280
O O11 0.823022 0.109914 0.004923
O O12 0.739082 0.495509 0.009538
O O13 0.849865 0.201787 0.804381
O O14 0.586761 0.936920 0.057424
O O15 0.733668 0.234519 0.751237
O O16 0.008020 0.555272 0.669852
O O17 0.500000 0.000000 0.000000
#
# Coordination Sequence:
#
# PCOD9088870 Si02
#       8
#     2   2   2   2   2   2   2   2
#     4  12  20  38  69  93 109 167 219 252 294 372
#     4  10  19  37  63  93 116 160 216 259 292 360
#     4  10  19  39  66  90 115 161 216 257 286 368
#     4  11  20  37  64  95 119 156 214 249 308 366
#     4  10  21  39  64  86 123 165 210 246 302 374
#     4  11  25  39  56  94 133 162 189 260 329 359
#     4   9  19  38  59  83 125 163 197 246 306 364
#     4  11  23  38  61  94 126 153 205 266 309 361
#
# _framework density 22.743749000000001
#
# number of rings (size 3 to 8) (size 9 to 14) (size 15 to 20)
#    0.000    1.500    5.000    1.500    0.000    3.500 
#    0.000    9.375    0.000    0.000    0.000    0.000 
#    0.000    0.000    0.000    0.000    0.000    0.000 
#
# Total GULP energy -89315.444852 kJ/mol
# GULP energy per Si atom -5582.215303 kJ/mol
# Density = 2.269198 g / cm^3
# Si number density = 22.743749 Si / 1000 Ang^3
#
#
#
# Elastic Constant Matrix: (Units=GPa)
#
#
# Indices 1 2 3 4 5 6 
#
# 1 52.3782 14.6187 28.6667 9.4620 30.7263 12.7034
# 2 14.6187 116.8624 38.4560 18.9176 1.2068 14.8247
# 3 28.6667 38.4560 81.9034 31.9024 27.0035 12.8775
# 4 9.4620 18.9176 31.9024 47.1840 11.5660 0.0285
# 5 30.7263 1.2068 27.0035 11.5660 30.9838 5.8728
# 6 12.7034 14.8247 12.8775 0.0285 5.8728 33.1447
#
#
#
# Elastic Compliance Matrix: (Units=1/GPa)
#
#
# Indices 1 2 3 4 5 6 
#
# 1 0.052298 -0.006154 0.002054 0.003617 -0.053119 -0.008681
# 2 -0.006154 0.011988 -0.006199 -0.002439 0.012480 -0.002804
# 3 0.002054 -0.006199 0.025552 -0.010469 -0.019302 -0.004513
# 4 0.003617 -0.002439 -0.010469 0.030125 -0.006543 0.004905
# 5 -0.053119 0.012480 -0.019302 -0.006543 0.102966 0.004038
# 6 -0.008681 -0.002804 -0.004513 0.004905 0.004038 0.035786
#
#
# Mechanical properties :
#
#
# Convention : Reuss Voigt Hill
#
# Bulk Modulus (GPa) = 14.44217 46.06966 30.25591
# Shear Modulus (GPa) = 16.53469 33.55600 25.04534
#
# Velocity S-wave (km/s) = 2.69922 3.84525 3.32203
# Velocity P-wave (km/s) = 4.00975 6.32571 5.29588
#
# Compressibility (1/GPa) = 0.06924169
#
# Stress axis : x y z
#
# Youngs Moduli (GPa) = 19.12113 83.41393 39.13517
#
# Poissons Ratio (x) = 0.51331 -0.08039
# Poissons Ratio (y) = 0.11767 0.24260
# Poissons Ratio (z) = -0.03928 0.51708
#
# Static dielectric constant tensor:
#      x y z
#    x 1.897860 -0.032290 0.048210 
#    y -0.032290 1.935680 0.013770 
#    z 0.048210 0.013770 1.867910 
# 
# From -- ./inp_files/540857.got.cif
#   From: 2010.05.17/outbox.cif.g08.bks.cpg/sg2_271_cif.got.tgz:540857.got - 2010.06.03 11:33:40.
