data_PCOD9088830
_publ_section_title
;
Structure prediction by ZEFSAII (Michael W. Deem and Ramdas Pophale) SiO2 
 PCOD9088830
Probable space group: P -1
;
_chemical_formula_sum "Si O2"
_cell_formula_units_Z 16
_cell_length_a 8.263138
_cell_length_b 10.092382
_cell_length_c 22.526938
_cell_angle_alpha 136.205193
_cell_angle_beta 145.976631
_cell_angle_gamma 55.636340
_cell_volume 724.699893
_symmetry_space_group_name_H-M "P -1"
_symmetry_group_IT_number 2
_symmetry_cell_setting 'triclinic'
loop_
_space_group_symop_operation_xyz
x,y,z
-x,-y,-z
loop_
_atom_site_type_symbol
_atom_site_label
_atom_site_fract_x
_atom_site_fract_y
_atom_site_fract_z
Si Si1 0.478572 0.975750 0.297903
Si Si2 0.490104 0.442050 0.809806
Si Si3 0.639006 0.540290 0.768299
Si Si4 0.116568 0.089594 0.713952
Si Si5 0.444127 0.339074 0.349988
Si Si6 0.933829 0.681548 0.500899
Si Si7 0.833982 0.276338 0.585432
Si Si8 0.262538 0.406702 0.942574
O O1 0.294519 0.152040 0.277980
O O2 0.692820 0.082790 0.447418
O O3 0.362595 0.764181 0.217703
O O4 0.636125 0.926291 0.267028
O O5 0.534995 0.596775 0.820506
O O6 0.151235 0.364640 0.688050
O O7 0.623324 0.542608 0.941407
O O8 0.613720 0.660917 0.739008
O O9 0.398183 0.356866 0.630495
O O10 0.964735 0.496488 0.865371
O O11 0.220862 0.187081 0.837759
O O12 0.894442 0.213379 0.651235
O O13 0.975577 0.877318 0.612287
O O14 0.362079 0.545086 0.413687
O O15 0.788787 0.317438 0.458506
O O16 0.000000 0.500000 0.500000
O O17 0.500000 0.500000 0.000000
#
# Coordination Sequence:
#
# PCOD9088830 Si02
#       8
#     2   2   2   2   2   2   2   2
#     4  10  20  35  62  92 127 160 203 255 315 364
#     4  11  22  39  63  91 126 161 210 266 302 357
#     4  11  22  40  63  92 125 161 204 261 321 355
#     4  10  19  37  63  90 122 162 213 246 309 366
#     4  10  20  38  62  93 127 166 197 249 316 383
#     4   9  20  38  61  91 129 155 191 262 321 363
#     4  11  19  36  64  95 122 161 215 250 300 377
#     4  12  22  41  65  90 121 168 222 255 289 377
#
# _framework density 22.078104
#
# number of rings (size 3 to 8) (size 9 to 14) (size 15 to 20)
#    0.000    1.500    3.750    4.500    0.000    0.500 
#    4.500    0.625    8.250    6.750    0.000    0.000 
#    0.000    0.000    0.000    0.000    0.000    0.000 
#
# Total GULP energy -89082.481484 kJ/mol
# GULP energy per Si atom -5567.655093 kJ/mol
# Density = 2.202785 g / cm^3
# Si number density = 22.078104 Si / 1000 Ang^3
#
#
#
# Elastic Constant Matrix: (Units=GPa)
#
#
# Indices 1 2 3 4 5 6 
#
# 1 53.6552 12.2273 34.4071 -10.1960 -11.8487 7.0757
# 2 12.2273 88.3225 33.2143 12.2760 -9.3669 3.1437
# 3 34.4071 33.2143 128.5480 -5.6542 -30.0533 -6.4030
# 4 -10.1960 12.2760 -5.6542 22.5159 -7.2273 -2.7747
# 5 -11.8487 -9.3669 -30.0533 -7.2273 41.4384 -7.7071
# 6 7.0757 3.1437 -6.4030 -2.7747 -7.7071 35.9099
#
#
#
# Elastic Compliance Matrix: (Units=1/GPa)
#
#
# Indices 1 2 3 4 5 6 
#
# 1 0.026610 -0.003182 -0.004634 0.013875 0.005282 -0.003585
# 2 -0.003182 0.014903 -0.004526 -0.012236 -0.003552 -0.003193
# 3 -0.004634 -0.004526 0.013082 0.007517 0.009620 0.006287
# 4 0.013875 -0.012236 0.007517 0.066801 0.020003 0.009132
# 5 0.005282 -0.003552 0.009620 0.020003 0.037263 0.010529
# 6 -0.003585 -0.003193 0.006287 0.009132 0.010529 0.032920
#
#
# Mechanical properties :
#
#
# Convention : Reuss Voigt Hill
#
# Bulk Modulus (GPa) = 33.43361 47.80255 40.61808
# Shear Modulus (GPa) = 22.10108 32.68463 27.39286
#
# Velocity S-wave (km/s) = 3.16736 3.85178 3.52621
# Velocity P-wave (km/s) = 5.34344 6.44051 5.91746
#
# Compressibility (1/GPa) = 0.02991002
#
# Stress axis : x y z
#
# Youngs Moduli (GPa) = 37.58004 67.10259 76.44145
#
# Poissons Ratio (x) = 0.21352 0.35420
# Poissons Ratio (y) = 0.11958 0.34601
# Poissons Ratio (z) = 0.17413 0.30374
#
# Static dielectric constant tensor:
#      x y z
#    x 2.070480 0.035600 -0.030060 
#    y 0.035600 1.858350 -0.021550 
#    z -0.030060 -0.021550 1.877030 
# 
# From -- ./inp_files/607615.got.cif
#   From: 2010.05.17/outbox.cif.g08.bks.cpg/sg2_304_cif.got.tgz:607615.got - 2010.06.03 11:33:40.
