data_PCOD9088332
_publ_section_title
;
Structure prediction by ZEFSAII (Michael W. Deem and Ramdas Pophale) SiO2 
 PCOD9088332
Probable space group: P -1
;
_chemical_formula_sum "Si O2"
_cell_formula_units_Z 14
_cell_length_a 8.515685
_cell_length_b 9.299804
_cell_length_c 14.807381
_cell_angle_alpha 103.583663
_cell_angle_beta 130.896829
_cell_angle_gamma 104.921391
_cell_volume 713.991555
_symmetry_space_group_name_H-M "P -1"
_symmetry_group_IT_number 2
_symmetry_cell_setting 'triclinic'
loop_
_space_group_symop_operation_xyz
x,y,z
-x,-y,-z
loop_
_atom_site_type_symbol
_atom_site_label
_atom_site_fract_x
_atom_site_fract_y
_atom_site_fract_z
Si Si1 0.184411 0.501012 0.304135
Si Si2 0.808723 0.196599 0.736297
Si Si3 0.422822 0.606956 0.599301
Si Si4 0.782366 0.033477 0.520590
Si Si5 0.109252 0.021056 0.142459
Si Si6 0.212802 0.878820 0.843921
Si Si7 0.973339 0.780039 0.546653
O O1 0.153621 0.615242 0.235863
O O2 0.308090 0.608802 0.459751
O O3 0.375893 0.446458 0.342763
O O4 0.918907 0.323094 0.200571
O O5 0.897850 0.150534 0.671554
O O6 0.511287 0.053659 0.605789
O O7 0.914249 0.155201 0.856508
O O8 0.600211 0.810006 0.728404
O O9 0.197143 0.435610 0.542065
O O10 0.904134 0.150266 0.494245
O O11 0.815162 0.868812 0.512647
O O12 0.953641 0.059297 0.161322
O O13 0.000000 0.000000 0.000000
O O14 0.164801 0.859666 0.715188
O O15 0.500000 0.000000 0.000000
#
# Coordination Sequence:
#
# PCOD9088332 Si02
#       7
#     2   2   2   2   2   2   2
#     4   9  18  35  65  85 112 152 197 241 285 341
#     4  11  20  38  56  92 116 150 193 247 294 342
#     4   9  17  37  60  87 113 153 197 236 284 346
#     4  10  20  32  61  91 120 142 190 251 297 327
#     4  11  24  40  60  83 121 159 192 238 294 353
#     4  10  22  42  60  82 120 164 191 229 292 357
#     4  10  19  37  60  91 113 152 195 243 284 345
#
# _framework density 19.608073000000001
#
# number of rings (size 3 to 8) (size 9 to 14) (size 15 to 20)
#    0.000    2.000    2.857    2.571    2.000    0.000 
#    2.571    8.571    0.000    0.000    0.000    0.000 
#    0.000    0.000    0.000    0.000    0.000    0.000 
#
# Total GULP energy -78101.393234 kJ/mol
# GULP energy per Si atom -5578.670945 kJ/mol
# Density = 1.956344 g / cm^3
# Si number density = 19.608073 Si / 1000 Ang^3
#
#
#
# Elastic Constant Matrix: (Units=GPa)
#
#
# Indices 1 2 3 4 5 6 
#
# 1 45.5978 16.7843 16.2557 -7.7960 0.5630 6.7691
# 2 16.7843 149.0746 58.6697 -26.8550 3.4023 8.8572
# 3 16.2557 58.6697 106.6473 -7.4893 11.6232 17.3807
# 4 -7.7960 -26.8550 -7.4893 31.6718 7.6232 -0.9044
# 5 0.5630 3.4023 11.6232 7.6232 18.4236 -0.4382
# 6 6.7691 8.8572 17.3807 -0.9044 -0.4382 26.0226
#
#
#
# Elastic Compliance Matrix: (Units=1/GPa)
#
#
# Indices 1 2 3 4 5 6 
#
# 1 0.024517 -0.000702 -0.002063 0.005201 -0.001580 -0.004607
# 2 -0.000702 0.010067 -0.004676 0.007766 -0.002099 0.000114
# 3 -0.002063 -0.004676 0.014535 0.000859 -0.008782 -0.007698
# 4 0.005201 0.007766 0.000859 0.044512 -0.020633 -0.003370
# 5 -0.001580 -0.002099 -0.008782 -0.020633 0.068969 0.007435
# 6 -0.004607 0.000114 -0.007698 -0.003370 0.007435 0.044738
#
#
# Mechanical properties :
#
#
# Convention : Reuss Voigt Hill
#
# Bulk Modulus (GPa) = 29.20628 53.85989 41.53309
# Shear Modulus (GPa) = 21.40112 29.19762 25.29937
#
# Velocity S-wave (km/s) = 3.30729 3.86302 3.59591
# Velocity P-wave (km/s) = 5.43245 6.88659 6.20228
#
# Compressibility (1/GPa) = 0.03423921
#
# Stress axis : x y z
#
# Youngs Moduli (GPa) = 40.78769 99.32956 68.79722
#
# Poissons Ratio (x) = 0.06973 0.14191
# Poissons Ratio (y) = 0.02863 0.32168
# Poissons Ratio (z) = 0.08413 0.46445
#
# Static dielectric constant tensor:
#      x y z
#    x 1.731970 -0.022390 -0.008390 
#    y -0.022390 1.703000 0.009980 
#    z -0.008390 0.009980 1.655160 
# 
# From -- ./inp_files/199720.got.cif
#   From: 2010.05.17/outbox.cif.g08.bks.cpg/sg2_100_cif.got.tgz:199720.got - 2010.06.03 11:33:40.
