data_PCOD9088952
_publ_section_title
;
Structure prediction by ZEFSAII (Michael W. Deem and Ramdas Pophale) SiO2 
 PCOD9088952
Probable space group: P -1
;
_chemical_formula_sum "Si O2"
_cell_formula_units_Z 16
_cell_length_a 15.124586
_cell_length_b 11.689746
_cell_length_c 8.301813
_cell_angle_alpha 90.899974
_cell_angle_beta 48.619926
_cell_angle_gamma 120.661378
_cell_volume 821.554635
_symmetry_space_group_name_H-M "P -1"
_symmetry_group_IT_number 2
_symmetry_cell_setting 'triclinic'
loop_
_space_group_symop_operation_xyz
x,y,z
-x,-y,-z
loop_
_atom_site_type_symbol
_atom_site_label
_atom_site_fract_x
_atom_site_fract_y
_atom_site_fract_z
Si Si1 0.254160 0.536822 0.660535
Si Si2 0.402913 0.826080 0.653197
Si Si3 0.956263 0.382632 0.807262
Si Si4 0.518387 0.297531 0.173766
Si Si5 0.855735 0.558007 0.846283
Si Si6 0.734735 0.833632 0.797865
Si Si7 0.992724 0.814897 0.459800
Si Si8 0.515862 0.477412 0.789024
O O1 0.376056 0.720789 0.536639
O O2 0.333881 0.494649 0.450500
O O3 0.089351 0.469630 0.784328
O O4 0.215912 0.474728 0.888677
O O5 0.483422 0.806679 0.700566
O O6 0.500000 0.000000 0.500000
O O7 0.224078 0.741470 0.917791
O O8 0.959672 0.509931 0.722293
O O9 0.989435 0.288895 0.666209
O O10 0.394976 0.204802 0.174931
O O11 0.482269 0.398733 0.295732
O O12 0.704703 0.434352 0.909240
O O13 0.944595 0.728752 0.687772
O O14 0.853031 0.813232 0.581182
O O15 0.847648 0.008273 0.723280
O O16 0.635858 0.702665 0.051291
O O17 0.500000 0.500000 0.000000
#
# Coordination Sequence:
#
# PCOD9088952 Si02
#       8
#     2   2   2   2   2   2   2   2
#     4  10  22  38  65  88 117 165 202 243 304 349
#     4  10  23  40  60  91 128 155 197 251 303 359
#     4  10  21  39  61  85 117 163 206 239 295 362
#     4   9  19  38  59  86 116 155 202 238 298 353
#     4  10  21  38  58  88 117 156 203 249 290 362
#     4  10  22  36  61  86 124 155 195 256 298 348
#     4  11  22  39  58  89 121 156 202 251 302 346
#     4  10  19  37  64  87 116 155 206 246 286 360
#
# _framework density 19.475273000000001
#
# number of rings (size 3 to 8) (size 9 to 14) (size 15 to 20)
#    0.000    2.250    1.250    3.375    3.500    4.000 
#    0.000    2.500    0.000    6.000    0.000    0.000 
#    0.000    0.000    0.000    0.000    0.000    0.000 
#
# Total GULP energy -89128.911749 kJ/mol
# GULP energy per Si atom -5570.556984 kJ/mol
# Density = 1.943095 g / cm^3
# Si number density = 19.475273 Si / 1000 Ang^3
#
#
#
# Elastic Constant Matrix: (Units=GPa)
#
#
# Indices 1 2 3 4 5 6 
#
# 1 65.1715 4.8717 9.5915 5.0739 -13.0293 1.3479
# 2 4.8717 69.4667 17.6447 -3.2338 12.6254 -12.1254
# 3 9.5915 17.6447 53.8001 4.5120 -1.5196 -5.6670
# 4 5.0739 -3.2338 4.5120 47.0724 -11.6403 -1.5190
# 5 -13.0293 12.6254 -1.5196 -11.6403 24.3096 -5.6001
# 6 1.3479 -12.1254 -5.6670 -1.5190 -5.6001 31.6736
#
#
#
# Elastic Compliance Matrix: (Units=1/GPa)
#
#
# Indices 1 2 3 4 5 6 
#
# 1 0.018071 -0.002798 -0.002072 0.000870 0.011390 -0.000155
# 2 -0.002798 0.018664 -0.005430 -0.000405 -0.010718 0.004378
# 3 -0.002072 -0.005430 0.021172 -0.001394 0.002882 0.002240
# 4 0.000870 -0.000405 -0.001394 0.024585 0.013063 0.003047
# 5 0.011390 -0.010718 0.002882 0.013063 0.060930 0.007327
# 6 -0.000155 0.004378 0.002240 0.003047 0.007327 0.035097
#
#
# Mechanical properties :
#
#
# Convention : Reuss Voigt Hill
#
# Bulk Modulus (GPa) = 26.80412 28.07268 27.43840
# Shear Modulus (GPa) = 23.63465 31.03313 27.33389
#
# Velocity S-wave (km/s) = 3.48742 3.99615 3.75042
# Velocity P-wave (km/s) = 5.47806 5.97814 5.73355
#
# Compressibility (1/GPa) = 0.03730769
#
# Stress axis : x y z
#
# Youngs Moduli (GPa) = 55.33805 53.57874 47.23254
#
# Poissons Ratio (x) = 0.14990 0.09785
# Poissons Ratio (y) = 0.15482 0.25648
# Poissons Ratio (z) = 0.11464 0.29094
#
# Static dielectric constant tensor:
#      x y z
#    x 1.733830 0.002300 0.009010 
#    y 0.002300 1.699700 0.019830 
#    z 0.009010 0.019830 1.718780 
# 
# From -- ./inp_files/303202.got.cif
#   From: 2010.05.17/outbox.cif.g08.bks.cpg/sg2_152_cif.got.tgz:303202.got - 2010.06.03 11:33:40.
