data_PCOD9088976
_publ_section_title
;
Structure prediction by ZEFSAII (Michael W. Deem and Ramdas Pophale) SiO2 
 PCOD9088976
Probable space group: P -1
;
_chemical_formula_sum "Si O2"
_cell_formula_units_Z 16
_cell_length_a 9.935272
_cell_length_b 17.576295
_cell_length_c 10.221933
_cell_angle_alpha 125.607123
_cell_angle_beta 59.629429
_cell_angle_gamma 147.942726
_cell_volume 769.976450
_symmetry_space_group_name_H-M "P -1"
_symmetry_group_IT_number 2
_symmetry_cell_setting 'triclinic'
loop_
_space_group_symop_operation_xyz
x,y,z
-x,-y,-z
loop_
_atom_site_type_symbol
_atom_site_label
_atom_site_fract_x
_atom_site_fract_y
_atom_site_fract_z
Si Si1 0.370870 0.870149 0.223433
Si Si2 0.961051 0.028950 0.762691
Si Si3 0.012722 0.554776 0.690035
Si Si4 0.801540 0.821137 0.948203
Si Si5 0.440115 0.754186 0.876136
Si Si6 0.641067 0.235823 0.610759
Si Si7 0.874018 0.057504 0.548953
Si Si8 0.892248 0.218684 0.278779
O O1 0.448035 0.849421 0.294016
O O2 0.170518 0.853520 0.347768
O O3 0.617510 0.040567 0.218697
O O4 0.291370 0.760334 0.041735
O O5 0.970912 0.922213 0.619427
O O6 0.688037 0.917727 0.850350
O O7 0.976861 0.083034 0.667247
O O8 0.181242 0.166563 0.890081
O O9 0.254089 0.634838 0.734067
O O10 0.038882 0.676880 0.766957
O O11 0.000000 0.500000 0.500000
O O12 0.766304 0.396200 0.723098
O O13 0.552086 0.731795 0.901276
O O14 0.910915 0.773129 0.801763
O O15 0.000000 0.000000 0.000000
O O16 0.404878 0.121292 0.512873
O O17 0.847009 0.261212 0.472438
#
# Coordination Sequence:
#
# PCOD9088976 Si02
#       8
#     2   2   2   2   2   2   2   2
#     4  11  21  34  63  96 117 154 207 259 298 348
#     4  10  20  35  56  91 128 150 195 254 315 347
#     4  10  23  42  60  87 122 168 204 244 292 370
#     4  10  20  33  58  94 122 147 191 264 304 342
#     4  11  22  36  64  89 123 154 204 250 306 350
#     4  10  22  38  59  86 130 160 202 245 301 360
#     4  10  21  34  61  90 121 162 197 253 308 355
#     4  10  19  37  64  90 118 159 204 249 298 355
#
# _framework density 20.779855999999999
#
# number of rings (size 3 to 8) (size 9 to 14) (size 15 to 20)
#    0.000    1.750    2.500    4.500    7.000    1.500 
#    0.000    2.500    5.500    1.500    0.000    0.000 
#    0.000    0.000    0.000    0.000    0.000    0.000 
#
# Total GULP energy -89204.670966 kJ/mol
# GULP energy per Si atom -5575.291935 kJ/mol
# Density = 2.073256 g / cm^3
# Si number density = 20.779856 Si / 1000 Ang^3
#
#
#
# Elastic Constant Matrix: (Units=GPa)
#
#
# Indices 1 2 3 4 5 6 
#
# 1 117.1299 35.1358 43.8180 14.6373 13.7164 -4.2695
# 2 35.1358 38.4072 22.8486 7.4972 1.4770 -4.7948
# 3 43.8180 22.8486 84.5075 -3.9714 8.7015 -0.8760
# 4 14.6373 7.4972 -3.9714 18.2387 9.2591 1.2692
# 5 13.7164 1.4770 8.7015 9.2591 41.4478 5.3612
# 6 -4.2695 -4.7948 -0.8760 1.2692 5.3612 19.7436
#
#
#
# Elastic Compliance Matrix: (Units=1/GPa)
#
#
# Indices 1 2 3 4 5 6 
#
# 1 0.014298 -0.007747 -0.005553 -0.008840 -0.001569 0.001958
# 2 -0.007747 0.042225 -0.008659 -0.016373 0.005532 0.007745
# 3 -0.005553 -0.008659 0.018188 0.014475 -0.004625 -0.002171
# 4 -0.008840 -0.016373 0.014475 0.080747 -0.016809 -0.005872
# 5 -0.001569 0.005532 -0.004625 -0.016809 0.029985 -0.006262
# 6 0.001958 0.007745 -0.002171 -0.005872 -0.006262 0.054935
#
#
# Mechanical properties :
#
#
# Convention : Reuss Voigt Hill
#
# Bulk Modulus (GPa) = 32.47350 49.29437 40.88394
# Shear Modulus (GPa) = 16.97453 25.10215 21.03834
#
# Velocity S-wave (km/s) = 2.86120 3.47941 3.18534
# Velocity P-wave (km/s) = 5.15525 6.31786 5.76593
#
# Compressibility (1/GPa) = 0.03079434
#
# Stress axis : x y z
#
# Youngs Moduli (GPa) = 69.93756 23.68277 54.98270
#
# Poissons Ratio (x) = 0.18346 0.30532
# Poissons Ratio (y) = 0.54178 0.47607
# Poissons Ratio (z) = 0.38837 0.20506
#
# Static dielectric constant tensor:
#      x y z
#    x 1.794270 -0.011960 -0.027750 
#    y -0.011960 1.776710 -0.033060 
#    z -0.027750 -0.033060 1.795750 
# 
# From -- ./inp_files/401334.got.cif
#   From: 2010.05.17/outbox.cif.g08.bks.cpg/sg2_201_cif.got.tgz:401334.got - 2010.06.03 11:33:40.
