data_PCOD9088894
_publ_section_title
;
Structure prediction by ZEFSAII (Michael W. Deem and Ramdas Pophale) SiO2 
 PCOD9088894
Probable space group: P -1
;
_chemical_formula_sum "Si O2"
_cell_formula_units_Z 14
_cell_length_a 9.539270
_cell_length_b 8.593970
_cell_length_c 11.243348
_cell_angle_alpha 136.404214
_cell_angle_beta 54.496836
_cell_angle_gamma 126.669436
_cell_volume 491.154437
_symmetry_space_group_name_H-M "P -1"
_symmetry_group_IT_number 2
_symmetry_cell_setting 'triclinic'
loop_
_space_group_symop_operation_xyz
x,y,z
-x,-y,-z
loop_
_atom_site_type_symbol
_atom_site_label
_atom_site_fract_x
_atom_site_fract_y
_atom_site_fract_z
Si Si1 0.013121 0.600745 0.183905
Si Si2 0.152715 0.195554 0.956712
Si Si3 0.756581 0.243224 0.546639
Si Si4 0.619074 0.697797 0.891565
Si Si5 0.602327 0.390817 0.256746
Si Si6 0.051728 0.049828 0.297658
Si Si7 0.466072 0.835695 0.608276
O O1 0.114504 0.448201 0.120685
O O2 0.802870 0.518956 0.275572
O O3 0.082194 0.885018 0.296502
O O4 0.000000 0.500000 0.000000
O O5 0.230648 0.127034 0.172091
O O6 0.342013 0.225966 0.947843
O O7 0.110602 0.117300 0.798040
O O8 0.681066 0.462194 0.725105
O O9 0.709663 0.183825 0.396467
O O10 0.965231 0.259844 0.480499
O O11 0.631217 0.031056 0.572173
O O12 0.429871 0.660602 0.896788
O O13 0.495436 0.578688 0.433011
O O14 0.540109 0.158787 0.242527
O O15 0.000000 0.000000 0.000000
#
# Coordination Sequence:
#
# PCOD9088894 Si02
#       7
#     2   2   2   2   2   2   2
#     4  10  21  40  65  86 120 173 207 243 309 382
#     4   9  21  40  60  86 121 163 205 241 314 369
#     4  10  19  37  63  95 123 159 211 255 305 364
#     4  10  22  38  61  97 126 156 210 261 302 360
#     4  10  20  39  61  91 126 159 208 258 305 367
#     4  10  20  39  62  87 128 166 204 251 311 371
#     4   9  20  35  62  91 125 165 198 254 321 363
#
# _framework density 28.504273000000001
#
# number of rings (size 3 to 8) (size 9 to 14) (size 15 to 20)
#    0.000    2.286    1.429    0.429    4.000    1.143 
#    2.571   10.714    0.000    0.000    0.000    0.000 
#    0.000    0.000    0.000    0.000    0.000    0.000 
#
# Total GULP energy -78368.513059 kJ/mol
# GULP energy per Si atom -5597.750933 kJ/mol
# Density = 2.843940 g / cm^3
# Si number density = 28.504273 Si / 1000 Ang^3
#
#
#
# Elastic Constant Matrix: (Units=GPa)
#
#
# Indices 1 2 3 4 5 6 
#
# 1 161.8218 57.9605 4.1547 -7.0212 2.4506 -37.0759
# 2 57.9605 159.4223 19.7378 -6.0534 -3.4227 -41.7328
# 3 4.1547 19.7378 62.3648 0.7021 5.1534 -1.7161
# 4 -7.0212 -6.0534 0.7021 33.8035 6.6108 -8.6044
# 5 2.4506 -3.4227 5.1534 6.6108 47.5948 0.0121
# 6 -37.0759 -41.7328 -1.7161 -8.6044 0.0121 51.3585
#
#
#
# Elastic Compliance Matrix: (Units=1/GPa)
#
#
# Indices 1 2 3 4 5 6 
#
# 1 0.008012 -0.001525 0.000132 0.002850 -0.000934 0.005027
# 2 -0.001525 0.009013 -0.002652 0.002920 0.000607 0.006623
# 3 0.000132 -0.002652 0.016988 -0.000840 -0.001920 -0.001632
# 4 0.002850 0.002920 -0.000840 0.034193 -0.004598 0.010132
# 5 -0.000934 0.000607 -0.001920 -0.004598 0.021949 -0.001021
# 6 0.005027 0.006623 -0.001632 0.010132 -0.001021 0.030125
#
#
# Mechanical properties :
#
#
# Convention : Reuss Voigt Hill
#
# Bulk Modulus (GPa) = 38.57381 60.81279 49.69330
# Shear Modulus (GPa) = 36.49339 46.66843 41.58091
#
# Velocity S-wave (km/s) = 3.58198 4.05068 3.82352
# Velocity P-wave (km/s) = 5.53800 6.57710 6.07979
#
# Compressibility (1/GPa) = 0.02592433
#
# Stress axis : x y z
#
# Youngs Moduli (GPa) = 124.81188 110.94900 58.86406
#
# Poissons Ratio (x) = 0.16922 -0.00779
# Poissons Ratio (y) = 0.19037 0.15609
# Poissons Ratio (z) = -0.01652 0.29420
#
# Static dielectric constant tensor:
#      x y z
#    x 2.307500 0.047420 0.074500 
#    y 0.047420 2.214290 0.052260 
#    z 0.074500 0.052260 2.360640 
# 
# From -- ./inp_files/376815.got.cif
#   From: 2010.05.17/outbox.cif.g08.bks.cpg/sg2_189_cif.got.tgz:376815.got - 2010.06.03 11:33:40.
