data_PCOD9088265
_publ_section_title
;
Structure prediction by ZEFSAII (Michael W. Deem and Ramdas Pophale) SiO2 
 PCOD9088265
Probable space group: P -1
;
_chemical_formula_sum "Si O2"
_cell_formula_units_Z 16
_cell_length_a 7.384125
_cell_length_b 19.760061
_cell_length_c 7.893901
_cell_angle_alpha 125.833145
_cell_angle_beta 95.811220
_cell_angle_gamma 51.529328
_cell_volume 665.410158
_symmetry_space_group_name_H-M "P -1"
_symmetry_group_IT_number 2
_symmetry_cell_setting 'triclinic'
loop_
_space_group_symop_operation_xyz
x,y,z
-x,-y,-z
loop_
_atom_site_type_symbol
_atom_site_label
_atom_site_fract_x
_atom_site_fract_y
_atom_site_fract_z
Si Si1 0.743344 0.254849 0.869986
Si Si2 0.746293 0.268579 0.508202
Si Si3 0.086242 0.318779 0.635496
Si Si4 0.147385 0.057237 0.045438
Si Si5 0.540252 0.496785 0.796856
Si Si6 0.375484 0.229190 0.864548
Si Si7 0.191234 0.006689 0.600611
Si Si8 0.635819 0.830159 0.866869
O O1 0.662205 0.267470 0.683863
O O2 0.576245 0.239942 0.929296
O O3 0.041146 0.140043 0.744620
O O4 0.665755 0.371977 0.091786
O O5 0.555392 0.395916 0.588534
O O6 0.980793 0.257375 0.558752
O O7 0.867960 0.159335 0.243274
O O8 0.181928 0.316012 0.823788
O O9 0.293317 0.250428 0.405549
O O10 0.824098 0.444373 0.729907
O O11 0.238412 0.121251 0.096948
O O12 0.186058 0.997069 0.786491
O O13 0.340520 0.951117 0.036502
O O14 0.500000 0.500000 0.000000
O O15 0.537854 0.100006 0.610108
O O16 0.269304 0.238425 0.049900
O O17 0.000000 0.000000 0.500000
#
# Coordination Sequence:
#
# PCOD9088265 Si02
#       8
#     2   2   2   2   2   2   2   2
#     4  10  20  38  56  85 118 161 199 234 299 354
#     4   8  18  36  60  85 108 157 204 239 289 342
#     4   9  19  38  61  86 117 152 197 253 283 344
#     4  10  19  37  60  85 120 157 196 246 299 343
#     4   8  17  36  64  80 116 152 203 247 281 352
#     4  11  22  37  58  91 125 151 196 244 300 360
#     4  10  22  37  54  88 120 155 197 238 294 362
#     4  10  21  35  59  92 121 151 194 252 297 349
#
# _framework density 24.045317000000001
#
# number of rings (size 3 to 8) (size 9 to 14) (size 15 to 20)
#    0.750    1.750    1.250    0.750    1.750    1.000 
#    4.500    5.000    5.500    0.000    0.000    0.000 
#    0.000    0.000    0.000    0.000    0.000    0.000 
#
# Total GULP energy -89244.729228 kJ/mol
# GULP energy per Si atom -5577.795577 kJ/mol
# Density = 2.399059 g / cm^3
# Si number density = 24.045317 Si / 1000 Ang^3
#
#
#
# Elastic Constant Matrix: (Units=GPa)
#
#
# Indices 1 2 3 4 5 6 
#
# 1 37.8753 0.2550 2.5256 0.3325 -5.6122 12.3862
# 2 0.2550 74.1556 31.4975 14.4690 -7.5407 7.2469
# 3 2.5256 31.4975 91.9243 4.5071 -15.9541 3.4712
# 4 0.3325 14.4690 4.5071 44.3572 -8.6756 -1.6872
# 5 -5.6122 -7.5407 -15.9541 -8.6756 19.3384 -3.6560
# 6 12.3862 7.2469 3.4712 -1.6872 -3.6560 20.8630
#
#
#
# Elastic Compliance Matrix: (Units=1/GPa)
#
#
# Indices 1 2 3 4 5 6 
#
# 1 0.033912 0.002555 0.000184 -0.000490 0.007015 -0.019862
# 2 0.002555 0.017630 -0.005738 -0.005670 -0.001047 -0.007328
# 3 0.000184 -0.005738 0.014623 0.002676 0.011396 0.001664
# 4 -0.000490 -0.005670 0.002676 0.026932 0.013127 0.006293
# 5 0.007015 -0.001047 0.011396 0.013127 0.070074 0.007644
# 6 -0.019862 -0.007328 0.001664 0.006293 0.007644 0.063841
#
#
# Mechanical properties :
#
#
# Convention : Reuss Voigt Hill
#
# Bulk Modulus (GPa) = 16.62018 30.27904 23.44961
# Shear Modulus (GPa) = 19.75782 28.22353 23.99068
#
# Velocity S-wave (km/s) = 2.86963 3.42974 3.16211
# Velocity P-wave (km/s) = 4.23163 5.32015 4.80680
#
# Compressibility (1/GPa) = 0.06016781
#
# Stress axis : x y z
#
# Youngs Moduli (GPa) = 29.48808 56.72298 68.38438
#
# Poissons Ratio (x) = -0.14493 -0.01261
# Poissons Ratio (y) = -0.07534 0.39238
# Poissons Ratio (z) = -0.00544 0.32547
#
# Static dielectric constant tensor:
#      x y z
#    x 1.943910 -0.006430 0.006230 
#    y -0.006430 1.967720 0.060120 
#    z 0.006230 0.060120 1.965590 
# 
# From -- ./inp_files/221000.got.cif
#   From: 2010.05.17/outbox.cif.g08.bks.cpg/sg2_111_cif.got.tgz:221000.got - 2010.06.03 11:33:40.
