data_PCOD9088252
_publ_section_title
;
Structure prediction by ZEFSAII (Michael W. Deem and Ramdas Pophale) SiO2 
 PCOD9088252
Probable space group: P -1
;
_chemical_formula_sum "Si O2"
_cell_formula_units_Z 16
_cell_length_a 11.715745
_cell_length_b 19.937803
_cell_length_c 13.727667
_cell_angle_alpha 33.529673
_cell_angle_beta 32.063073
_cell_angle_gamma 54.141755
_cell_volume 856.957862
_symmetry_space_group_name_H-M "P -1"
_symmetry_group_IT_number 2
_symmetry_cell_setting 'triclinic'
loop_
_space_group_symop_operation_xyz
x,y,z
-x,-y,-z
loop_
_atom_site_type_symbol
_atom_site_label
_atom_site_fract_x
_atom_site_fract_y
_atom_site_fract_z
Si Si1 0.031561 0.828907 0.419064
Si Si2 0.870627 0.281226 0.185160
Si Si3 0.189109 0.051389 0.714559
Si Si4 0.548359 0.022297 0.825336
Si Si5 0.120147 0.464013 0.051062
Si Si6 0.302633 0.905709 0.641507
Si Si7 0.636274 0.612917 0.187457
Si Si8 0.286326 0.122182 0.254176
O O1 0.861996 0.840633 0.443426
O O2 0.019295 0.682859 0.626314
O O3 0.936416 0.871001 0.536593
O O4 0.290932 0.933526 0.076242
O O5 0.853122 0.211086 0.178400
O O6 0.654037 0.174693 0.532276
O O7 0.847526 0.421197 0.034449
O O8 0.110317 0.307009 0.039411
O O9 0.458929 0.108945 0.485947
O O10 0.171531 0.930930 0.799678
O O11 0.000000 0.000000 0.000000
O O12 0.732587 0.965501 0.721299
O O13 0.500000 0.000000 0.000000
O O14 0.342497 0.455183 0.846898
O O15 0.000000 0.500000 0.000000
O O16 0.379343 0.044906 0.357903
O O17 0.500000 0.500000 0.500000
O O18 0.554263 0.727556 0.076742
#
# Coordination Sequence:
#
# PCOD9088252 Si02
#       8
#     2   2   2   2   2   2   2   2
#     4  10  21  37  59  80 110 152 187 229 283 339
#     4  10  21  37  52  83 119 146 190 232 282 334
#     4  10  19  37  60  85 107 140 195 236 292 336
#     4  11  21  31  55  84 113 148 182 236 278 328
#     4   9  19  37  55  78 116 155 184 215 277 348
#     4   9  20  37  57  81 112 144 176 253 287 318
#     4  10  21  34  54  81 116 158 186 223 272 339
#     4   9  20  35  51  81 112 141 191 223 278 336
#
# _framework density 18.670696
#
# number of rings (size 3 to 8) (size 9 to 14) (size 15 to 20)
#    0.000    2.250    0.000    3.750    5.250    5.500 
#    2.250    0.625    0.000    0.750    0.000    0.000 
#    0.000    0.000    0.000    0.000    0.000    0.000 
#
# Total GULP energy -89073.818583 kJ/mol
# GULP energy per Si atom -5567.113661 kJ/mol
# Density = 1.862820 g / cm^3
# Si number density = 18.670696 Si / 1000 Ang^3
#
#
#
# Elastic Constant Matrix: (Units=GPa)
#
#
# Indices 1 2 3 4 5 6 
#
# 1 75.9305 49.6519 34.3718 -5.8550 8.5219 3.4593
# 2 49.6519 94.4667 33.4669 -5.1589 1.1153 4.0720
# 3 34.3718 33.4669 103.9057 -1.2775 10.0895 -9.9964
# 4 -5.8550 -5.1589 -1.2775 31.4116 5.1145 13.3703
# 5 8.5219 1.1153 10.0895 5.1145 18.2064 0.9533
# 6 3.4593 4.0720 -9.9964 13.3703 0.9533 38.6974
#
#
#
# Elastic Compliance Matrix: (Units=1/GPa)
#
#
# Indices 1 2 3 4 5 6 
#
# 1 0.023300 -0.010349 -0.003726 0.005611 -0.009592 -0.003659
# 2 -0.010349 0.017068 -0.002761 0.000751 0.005221 -0.001972
# 3 -0.003726 -0.002761 0.012638 -0.001823 -0.004821 0.004637
# 4 0.005611 0.000751 -0.001823 0.041365 -0.012495 -0.015036
# 5 -0.009592 0.005221 -0.004821 -0.012495 0.065185 0.001774
# 6 -0.003659 -0.001972 0.004637 -0.015036 0.001774 0.032725
#
#
# Mechanical properties :
#
#
# Convention : Reuss Voigt Hill
#
# Bulk Modulus (GPa) = 51.72527 56.58713 54.15620
# Shear Modulus (GPa) = 21.51490 28.11723 24.81607
#
# Velocity S-wave (km/s) = 3.39829 3.88487 3.64970
# Velocity P-wave (km/s) = 6.56978 7.10611 6.84320
#
# Compressibility (1/GPa) = 0.01933291
#
# Stress axis : x y z
#
# Youngs Moduli (GPa) = 42.91894 58.58931 79.12735
#
# Poissons Ratio (x) = 0.60635 0.29481
# Poissons Ratio (y) = 0.44417 0.21851
# Poissons Ratio (z) = 0.15991 0.16179
#
# Static dielectric constant tensor:
#      x y z
#    x 1.686850 0.001080 -0.010220 
#    y 0.001080 1.737980 0.002570 
#    z -0.010220 0.002570 1.658070 
# 
# From -- ./inp_files/519578.got.cif
#   From: 2010.05.17/outbox.cif.g08.bks.cpg/sg2_260_cif.got.tgz:519578.got - 2010.06.03 11:33:40.
