data_PCOD9088802
_publ_section_title
;
Structure prediction by ZEFSAII (Michael W. Deem and Ramdas Pophale) SiO2 
 PCOD9088802
Probable space group: P -1
;
_chemical_formula_sum "Si O2"
_cell_formula_units_Z 14
_cell_length_a 19.837983
_cell_length_b 16.177388
_cell_length_c 12.029729
_cell_angle_alpha 148.632503
_cell_angle_beta 42.022424
_cell_angle_gamma 158.274351
_cell_volume 718.061431
_symmetry_space_group_name_H-M "P -1"
_symmetry_group_IT_number 2
_symmetry_cell_setting 'triclinic'
loop_
_space_group_symop_operation_xyz
x,y,z
-x,-y,-z
loop_
_atom_site_type_symbol
_atom_site_label
_atom_site_fract_x
_atom_site_fract_y
_atom_site_fract_z
Si Si1 0.541471 0.159828 0.240212
Si Si2 0.261519 0.990169 0.709683
Si Si3 0.550455 0.625876 0.460567
Si Si4 0.531645 0.329535 0.960148
Si Si5 0.777765 0.334999 0.343644
Si Si6 0.152636 0.473740 0.283234
Si Si7 0.801294 0.144514 0.610868
O O1 0.577220 0.390517 0.428840
O O2 0.702850 0.314557 0.300621
O O3 0.342046 0.900668 0.253108
O O4 0.500000 0.000000 0.000000
O O5 0.225354 0.749649 0.481768
O O6 0.266538 0.035554 0.624964
O O7 0.072484 0.819517 0.794217
O O8 0.442701 0.266912 0.879748
O O9 0.500000 0.500000 0.500000
O O10 0.755916 0.977701 0.583948
O O11 0.532421 0.463388 0.206772
O O12 0.728820 0.502263 0.896593
O O13 0.380144 0.998599 0.808303
O O14 0.808388 0.490362 0.590634
O O15 0.981120 0.527736 0.294496
#
# Coordination Sequence:
#
# PCOD9088802 Si02
#       7
#     2   2   2   2   2   2   2
#     4  10  21  39  62  79 110 154 200 233 280 342
#     4   9  17  34  57  94 114 153 187 232 281 346
#     4  10  24  43  55  82 121 151 190 249 291 329
#     4  11  20  35  62  88 121 150 185 238 292 336
#     4  10  19  37  63  89 109 156 194 228 284 346
#     4   9  18  32  59  90 125 143 189 231 285 347
#     4   9  21  38  61  83 121 144 197 238 276 348
#
# _framework density 19.496938
#
# number of rings (size 3 to 8) (size 9 to 14) (size 15 to 20)
#    0.857    1.429    0.000    5.143    0.000    1.143 
#    2.571    2.143    0.000    0.000    0.000    0.000 
#    0.000    0.000    0.000    0.000    0.000    0.000 
#
# Total GULP energy -77972.656563 kJ/mol
# GULP energy per Si atom -5569.475469 kJ/mol
# Density = 1.945256 g / cm^3
# Si number density = 19.496938 Si / 1000 Ang^3
#
#
#
# Elastic Constant Matrix: (Units=GPa)
#
#
# Indices 1 2 3 4 5 6 
#
# 1 94.1832 23.5343 19.1075 -8.5648 18.6502 5.3271
# 2 23.5343 90.7511 28.5559 -25.9729 9.6078 12.6424
# 3 19.1075 28.5559 66.2360 -31.0797 2.3621 21.5216
# 4 -8.5648 -25.9729 -31.0797 14.5337 -4.6087 1.0816
# 5 18.6502 9.6078 2.3621 -4.6087 14.3472 -2.3932
# 6 5.3271 12.6424 21.5216 1.0816 -2.3932 33.6429
#
#
#
# Elastic Compliance Matrix: (Units=1/GPa)
#
#
# Indices 1 2 3 4 5 6 
#
# 1 0.014722 0.000710 0.001852 0.008579 -0.018053 -0.005343
# 2 0.000710 0.009711 -0.017450 -0.023544 -0.010885 0.007384
# 3 0.001852 -0.017450 -0.017954 -0.072403 -0.007767 0.019525
# 4 0.008579 -0.023544 -0.072403 -0.132525 -0.016546 0.056889
# 5 -0.018053 -0.010885 -0.007767 -0.016546 0.099680 0.019540
# 6 -0.005343 0.007384 0.019525 0.056889 0.019540 0.014866
#
#
# Mechanical properties :
#
#
# Convention : Reuss Voigt Hill
#
# Bulk Modulus (GPa) = -42.92515 43.72952 0.40219
# Shear Modulus (GPa) = 475.75291 24.50295 250.12793
#
# Velocity S-wave (km/s) = 15.63790 3.54893 11.33884
# Velocity P-wave (km/s) = 17.43543 6.26664 13.10086
#
# Compressibility (1/GPa) = -0.02329637
#
# Stress axis : x y z
#
# Youngs Moduli (GPa) = 67.92775 102.97283 -55.69779
#
# Poissons Ratio (x) = -0.07315 0.10317
# Poissons Ratio (y) = -0.04825 -0.97194
# Poissons Ratio (z) = -0.12583 1.79690
#
# Static dielectric constant tensor:
#      x y z
#    x 1.748320 -0.025930 -0.008290 
#    y -0.025930 1.704900 0.004490 
#    z -0.008290 0.004490 1.681740 
# 
# From -- ./inp_files/472479.got.cif
#   From: 2010.05.17/outbox.cif.g08.bks.cpg/sg2_237_cif.got.tgz:472479.got - 2010.06.03 11:33:40.
