data_PCOD9088990
_publ_section_title
;
Structure prediction by ZEFSAII (Michael W. Deem and Ramdas Pophale) SiO2 
 PCOD9088990
Probable space group: P -1
;
_chemical_formula_sum "Si O2"
_cell_formula_units_Z 16
_cell_length_a 11.875657
_cell_length_b 9.179129
_cell_length_c 11.762801
_cell_angle_alpha 107.837177
_cell_angle_beta 99.825373
_cell_angle_gamma 130.245482
_cell_volume 802.925957
_symmetry_space_group_name_H-M "P -1"
_symmetry_group_IT_number 2
_symmetry_cell_setting 'triclinic'
loop_
_space_group_symop_operation_xyz
x,y,z
-x,-y,-z
loop_
_atom_site_type_symbol
_atom_site_label
_atom_site_fract_x
_atom_site_fract_y
_atom_site_fract_z
Si Si1 0.199230 0.931090 0.853116
Si Si2 0.914056 0.809324 0.345343
Si Si3 0.633352 0.994586 0.516428
Si Si4 0.985113 0.544755 0.376119
Si Si5 0.122398 0.178361 0.291545
Si Si6 0.447378 0.610447 0.567640
Si Si7 0.394693 0.267179 0.765163
Si Si8 0.647811 0.742152 0.843839
O O1 0.130427 0.693206 0.765418
O O2 0.037008 0.878343 0.787025
O O3 0.342517 0.114172 0.827245
O O4 0.269986 0.045028 0.015391
O O5 0.906211 0.633222 0.355643
O O6 0.744538 0.734523 0.265771
O O7 0.000000 0.000000 0.500000
O O8 0.046832 0.962213 0.300382
O O9 0.579648 0.855650 0.589119
O O10 0.609973 0.846680 0.374718
O O11 0.500000 0.000000 0.500000
O O12 0.822747 0.249299 0.591515
O O13 0.000000 0.500000 0.500000
O O14 0.250932 0.415924 0.444600
O O15 0.221686 0.208069 0.208656
O O16 0.500000 0.500000 0.500000
O O17 0.492395 0.649938 0.716885
O O18 0.574177 0.534110 0.861612
#
# Coordination Sequence:
#
# PCOD9088990 Si02
#       8
#     2   2   2   2   2   2   2   2
#     4  11  24  41  62  96 132 167 205 264 329 376
#     4  11  21  38  64  90 125 163 216 262 309 373
#     4  12  23  39  63  99 126 158 215 275 315 363
#     4  12  23  40  62  94 129 164 212 264 319 377
#     4  10  20  39  66  94 120 169 222 258 304 381
#     4  10  19  37  64  91 120 161 216 258 303 367
#     4  11  22  42  64  92 125 169 215 261 314 384
#     4  11  22  39  67  93 131 164 214 260 320 383
#
# _framework density 19.927119000000001
#
# number of rings (size 3 to 8) (size 9 to 14) (size 15 to 20)
#    0.000    1.000    5.000    4.500    0.000    1.000 
#    0.000    3.125    2.750    0.000    0.000    0.000 
#    0.000    0.000    0.000    0.000    0.000    0.000 
#
# Total GULP energy -89274.730232 kJ/mol
# GULP energy per Si atom -5579.670640 kJ/mol
# Density = 1.988176 g / cm^3
# Si number density = 19.927119 Si / 1000 Ang^3
#
#
#
# Elastic Constant Matrix: (Units=GPa)
#
#
# Indices 1 2 3 4 5 6 
#
# 1 78.9205 38.3933 19.3610 2.9244 -13.4773 -3.0745
# 2 38.3933 146.4710 39.1666 17.1783 -15.9949 -1.9304
# 3 19.3610 39.1666 133.4898 17.9519 -9.2996 -6.0456
# 4 2.9244 17.1783 17.9519 23.7996 -7.9425 -5.8705
# 5 -13.4773 -15.9949 -9.2996 -7.9425 21.4770 2.1328
# 6 -3.0745 -1.9304 -6.0456 -5.8705 2.1328 39.6100
#
#
#
# Elastic Compliance Matrix: (Units=1/GPa)
#
#
# Indices 1 2 3 4 5 6 
#
# 1 0.015985 -0.003443 -0.001285 0.004599 0.008502 0.001101
# 2 -0.003443 0.008852 -0.001389 -0.004352 0.002302 -0.000817
# 3 -0.001285 -0.001389 0.008828 -0.005425 -0.000062 0.000379
# 4 0.004599 -0.004352 -0.005425 0.056143 0.017393 0.006701
# 5 0.008502 0.002302 -0.000062 0.017393 0.060006 0.000109
# 6 0.001101 -0.000817 0.000379 0.006701 0.000109 0.026337
#
#
# Mechanical properties :
#
#
# Convention : Reuss Voigt Hill
#
# Bulk Modulus (GPa) = 46.66032 61.41366 54.03699
# Shear Modulus (GPa) = 25.57168 34.44135 30.00652
#
# Velocity S-wave (km/s) = 3.58615 4.16187 3.88469
# Velocity P-wave (km/s) = 6.37288 7.34717 6.87730
#
# Compressibility (1/GPa) = 0.02143149
#
# Stress axis : x y z
#
# Youngs Moduli (GPa) = 62.55672 112.96481 113.28146
#
# Poissons Ratio (x) = 0.38894 0.14552
# Poissons Ratio (y) = 0.21539 0.15739
# Poissons Ratio (z) = 0.08036 0.15695
#
# Static dielectric constant tensor:
#      x y z
#    x 1.696420 0.023120 0.036370 
#    y 0.023120 1.710660 -0.041150 
#    z 0.036370 -0.041150 1.699110 
# 
# From -- ./inp_files/257359.got.cif
#   From: 2010.05.17/outbox.cif.g08.bks.cpg/sg2_129_cif.got.tgz:257359.got - 2010.06.03 11:33:40.
