data_PCOD9088956
_publ_section_title
;
Structure prediction by ZEFSAII (Michael W. Deem and Ramdas Pophale) SiO2 
 PCOD9088956
Probable space group: P -1
;
_chemical_formula_sum "Si O2"
_cell_formula_units_Z 16
_cell_length_a 14.454011
_cell_length_b 9.627312
_cell_length_c 10.780291
_cell_angle_alpha 115.693239
_cell_angle_beta 138.377074
_cell_angle_gamma 88.128036
_cell_volume 784.279457
_symmetry_space_group_name_H-M "P -1"
_symmetry_group_IT_number 2
_symmetry_cell_setting 'triclinic'
loop_
_space_group_symop_operation_xyz
x,y,z
-x,-y,-z
loop_
_atom_site_type_symbol
_atom_site_label
_atom_site_fract_x
_atom_site_fract_y
_atom_site_fract_z
Si Si1 0.001092 0.769573 0.323091
Si Si2 0.460068 0.814748 0.324116
Si Si3 0.465035 0.664960 0.009228
Si Si4 0.247071 0.186786 0.330099
Si Si5 0.977032 0.193045 0.926247
Si Si6 0.771068 0.837182 0.244659
Si Si7 0.081877 0.607056 0.846069
Si Si8 0.845387 0.648962 0.472944
O O1 0.044314 0.778534 0.226229
O O2 0.829098 0.761208 0.161540
O O3 0.989255 0.601062 0.313495
O O4 0.131726 0.953048 0.583149
O O5 0.505032 0.794178 0.217673
O O6 0.569171 0.752096 0.484387
O O7 0.500000 0.000000 0.500000
O O8 0.270665 0.695778 0.086559
O O9 0.585839 0.767762 0.058657
O O10 0.500000 0.500000 0.000000
O O11 0.275384 0.556261 0.757137
O O12 0.225569 0.304858 0.458952
O O13 0.137897 0.181014 0.104788
O O14 0.163665 0.989266 0.228515
O O15 0.982296 0.346265 0.075681
O O16 0.836743 0.772367 0.404141
O O17 0.017161 0.677809 0.696470
#
# Coordination Sequence:
#
# PCOD9088956 Si02
#       8
#     2   2   2   2   2   2   2   2
#     4  11  22  37  57  89 126 157 198 240 309 363
#     4  12  22  35  59  97 124 149 200 260 308 338
#     4  10  19  37  64  87 118 155 205 253 288 353
#     4  10  19  37  65  87 112 159 211 246 289 362
#     4  10  20  39  61  84 123 161 197 244 303 363
#     4  10  21  37  64  85 117 166 200 242 295 372
#     4  11  24  36  62  95 123 152 197 260 301 350
#     4  10  20  40  67  89 113 159 213 245 292 353
#
# _framework density 20.400891000000001
#
# number of rings (size 3 to 8) (size 9 to 14) (size 15 to 20)
#    0.000    1.500    5.000    1.875    0.000    2.000 
#    0.000    2.500    2.750    1.500    0.000    0.000 
#    0.000    0.000    0.000    0.000    0.000    0.000 
#
# Total GULP energy -89199.596106 kJ/mol
# GULP energy per Si atom -5574.974757 kJ/mol
# Density = 2.035446 g / cm^3
# Si number density = 20.400891 Si / 1000 Ang^3
#
#
#
# Elastic Constant Matrix: (Units=GPa)
#
#
# Indices 1 2 3 4 5 6 
#
# 1 58.1664 12.8342 1.6363 5.8671 3.4470 -17.8649
# 2 12.8342 64.5007 32.9738 10.0224 9.2560 -12.1650
# 3 1.6363 32.9738 75.8556 3.4166 18.7714 -11.9734
# 4 5.8671 10.0224 3.4166 37.1239 -13.6326 -0.6943
# 5 3.4470 9.2560 18.7714 -13.6326 42.2752 1.3278
# 6 -17.8649 -12.1650 -11.9734 -0.6943 1.3278 26.4680
#
#
#
# Elastic Compliance Matrix: (Units=1/GPa)
#
#
# Indices 1 2 3 4 5 6 
#
# 1 0.023806 -0.002278 0.004942 -0.005459 -0.005944 0.017412
# 2 -0.002278 0.022327 -0.007707 -0.006115 -0.003418 0.005249
# 3 0.004942 -0.007707 0.020376 -0.003811 -0.009287 0.009377
# 4 -0.005459 -0.006115 -0.003811 0.035187 0.015076 -0.008053
# 5 -0.005944 -0.003418 -0.009287 0.015076 0.034221 -0.011105
# 6 0.017412 0.005249 0.009377 -0.008053 -0.011105 0.056534
#
#
# Mechanical properties :
#
#
# Convention : Reuss Voigt Hill
#
# Bulk Modulus (GPa) = 17.72289 32.60125 25.16207
# Shear Modulus (GPa) = 22.58906 31.24532 26.91719
#
# Velocity S-wave (km/s) = 3.33116 3.91777 3.63631
# Velocity P-wave (km/s) = 4.84785 6.03989 5.47640
#
# Compressibility (1/GPa) = 0.05642420
#
# Stress axis : x y z
#
# Youngs Moduli (GPa) = 42.00551 44.78795 49.07682
#
# Poissons Ratio (x) = 0.10203 -0.24254
# Poissons Ratio (y) = 0.09570 0.37822
# Poissons Ratio (z) = -0.20759 0.34517
#
# Static dielectric constant tensor:
#      x y z
#    x 1.774450 -0.030660 0.009300 
#    y -0.030660 1.714330 0.000880 
#    z 0.009300 0.000880 1.781110 
# 
# From -- ./inp_files/446365.got.cif
#   From: 2010.05.17/outbox.cif.g08.bks.cpg/sg2_224_cif.got.tgz:446365.got - 2010.06.03 11:33:40.
