data_PCOD9088139
_publ_section_title
;
Structure prediction by ZEFSAII (Michael W. Deem and Ramdas Pophale) SiO2 
 PCOD9088139
Probable space group: P -1
;
_chemical_formula_sum "Si O2"
_cell_formula_units_Z 16
_cell_length_a 7.781214
_cell_length_b 16.580093
_cell_length_c 15.784173
_cell_angle_alpha 154.315400
_cell_angle_beta 106.485980
_cell_angle_gamma 90.392625
_cell_volume 655.972026
_symmetry_space_group_name_H-M "P -1"
_symmetry_group_IT_number 2
_symmetry_cell_setting 'triclinic'
loop_
_space_group_symop_operation_xyz
x,y,z
-x,-y,-z
loop_
_atom_site_type_symbol
_atom_site_label
_atom_site_fract_x
_atom_site_fract_y
_atom_site_fract_z
Si Si1 0.324467 0.244899 0.988785
Si Si2 0.103184 0.775484 0.256078
Si Si3 0.223597 0.781763 0.770971
Si Si4 0.330388 0.066306 0.216580
Si Si5 0.361909 0.286646 0.848788
Si Si6 0.375430 0.494561 0.562608
Si Si7 0.083040 0.740142 0.030694
Si Si8 0.149842 0.754835 0.547248
O O1 0.467145 0.311959 0.158548
O O2 0.163038 0.316302 0.048855
O O3 0.461254 0.352313 0.021244
O O4 0.167266 0.957338 0.690171
O O5 0.878403 0.759701 0.216614
O O6 0.296485 0.029842 0.571469
O O7 0.000000 0.500000 0.000000
O O8 0.187590 0.812902 0.206969
O O9 0.209622 0.551286 0.564804
O O10 0.106058 0.759940 0.645466
O O11 0.500000 0.000000 0.000000
O O12 0.193738 0.872056 0.939225
O O13 0.290676 0.254262 0.368624
O O14 0.599098 0.182552 0.361520
O O15 0.234682 0.948352 0.181880
O O16 0.500000 0.500000 0.000000
O O17 0.500000 0.500000 0.500000
O O18 0.031828 0.503082 0.763405
#
# Coordination Sequence:
#
# PCOD9088139 Si02
#       8
#     2   2   2   2   2   2   2   2
#     4  11  22  40  63  91 124 162 200 257 308 361
#     4  10  23  45  63  90 131 161 200 268 318 371
#     4  10  19  37  59  86 120 165 202 248 299 357
#     4  11  23  37  61  89 119 164 205 248 305 362
#     4  10  24  42  66  95 124 163 211 257 318 378
#     4  12  19  37  65  86 123 165 200 248 306 354
#     4  11  25  39  62  94 120 157 209 254 306 372
#     4  11  21  41  62  85 126 161 207 251 302 364
#
# _framework density 24.391285
#
# number of rings (size 3 to 8) (size 9 to 14) (size 15 to 20)
#    0.000    1.250    6.250    0.750    1.750    3.000 
#    0.000    4.375    0.000    0.000    0.000    0.000 
#    0.000    0.000    0.000    0.000    0.000    0.000 
#
# Total GULP energy -89492.277278 kJ/mol
# GULP energy per Si atom -5593.267330 kJ/mol
# Density = 2.433577 g / cm^3
# Si number density = 24.391285 Si / 1000 Ang^3
#
#
#
# Elastic Constant Matrix: (Units=GPa)
#
#
# Indices 1 2 3 4 5 6 
#
# 1 72.2633 34.6896 35.1440 -0.6494 -11.9205 5.6707
# 2 34.6896 165.0450 47.4195 14.0183 -22.8242 50.8450
# 3 35.1440 47.4195 101.2369 19.9002 -26.4616 1.7809
# 4 -0.6494 14.0183 19.9002 48.2224 -11.1342 -4.9664
# 5 -11.9205 -22.8242 -26.4616 -11.1342 34.5479 8.9070
# 6 5.6707 50.8450 1.7809 -4.9664 8.9070 41.0123
#
#
#
# Elastic Compliance Matrix: (Units=1/GPa)
#
#
# Indices 1 2 3 4 5 6 
#
# 1 0.017898 -0.002893 -0.005365 0.003674 0.000929 0.001588
# 2 -0.002893 0.016636 -0.002273 -0.003294 0.013222 -0.023396
# 3 -0.005365 -0.002273 0.015392 -0.004080 0.006889 0.000901
# 4 0.003674 -0.003294 -0.004080 0.024598 0.002287 0.006234
# 5 0.000929 0.013222 0.006889 0.002287 0.051143 -0.027649
# 6 0.001588 -0.023396 0.000901 0.006234 -0.027649 0.059889
#
#
# Mechanical properties :
#
#
# Convention : Reuss Voigt Hill
#
# Bulk Modulus (GPa) = 34.64671 63.67237 49.15954
# Shear Modulus (GPa) = 23.12247 39.50933 31.31590
#
# Velocity S-wave (km/s) = 3.08227 4.02906 3.58704
# Velocity P-wave (km/s) = 5.18677 6.91416 6.11180
#
# Compressibility (1/GPa) = 0.02886277
#
# Stress axis : x y z
#
# Youngs Moduli (GPa) = 55.87146 60.11153 64.96927
#
# Poissons Ratio (x) = 0.17391 0.34859
# Poissons Ratio (y) = 0.16165 0.14767
# Poissons Ratio (z) = 0.29977 0.13663
#
# Static dielectric constant tensor:
#      x y z
#    x 2.158720 0.027480 0.174780 
#    y 0.027480 1.948380 0.039470 
#    z 0.174780 0.039470 2.159940 
# 
# From -- ./inp_files/505932.got.cif
#   From: 2010.05.17/outbox.cif.g08.bks.cpg/sg2_253_cif.got.tgz:505932.got - 2010.06.03 11:33:40.
