data_PCOD9088536
_publ_section_title
;
Structure prediction by ZEFSAII (Michael W. Deem and Ramdas Pophale) SiO2 
 PCOD9088536
Probable space group: P -1
;
_chemical_formula_sum "Si O2"
_cell_formula_units_Z 16
_cell_length_a 9.454686
_cell_length_b 15.323646
_cell_length_c 9.038827
_cell_angle_alpha 95.697065
_cell_angle_beta 86.475981
_cell_angle_gamma 39.667795
_cell_volume 811.967749
_symmetry_space_group_name_H-M "P -1"
_symmetry_group_IT_number 2
_symmetry_cell_setting 'triclinic'
loop_
_space_group_symop_operation_xyz
x,y,z
-x,-y,-z
loop_
_atom_site_type_symbol
_atom_site_label
_atom_site_fract_x
_atom_site_fract_y
_atom_site_fract_z
Si Si1 0.446546 0.924487 0.510092
Si Si2 0.519213 0.186239 0.224604
Si Si3 0.721912 0.282288 0.289542
Si Si4 0.647116 0.453706 0.837215
Si Si5 0.764569 0.582738 0.963389
Si Si6 0.883535 0.965582 0.952049
Si Si7 0.598573 0.183004 0.746714
Si Si8 0.099609 0.812324 0.407246
O O1 0.559313 0.829621 0.632638
O O2 0.524557 0.825264 0.354032
O O3 0.500000 0.000000 0.500000
O O4 0.171844 0.047052 0.556938
O O5 0.634035 0.223216 0.275066
O O6 0.331793 0.305545 0.137960
O O7 0.705730 0.035096 0.104779
O O8 0.522002 0.440407 0.269984
O O9 0.817857 0.251623 0.442297
O O10 0.920192 0.194136 0.137970
O O11 0.774800 0.481357 0.876911
O O12 0.814957 0.298878 0.738648
O O13 0.500000 0.500000 0.000000
O O14 0.575064 0.676450 0.120992
O O15 0.000000 0.500000 0.000000
O O16 0.743719 0.055701 0.829952
O O17 0.000000 0.000000 0.000000
O O18 0.770073 0.161836 0.642344
#
# Coordination Sequence:
#
# PCOD9088536 Si02
#       8
#     2   2   2   2   2   2   2   2
#     4  12  26  41  62  98 129 160 210 265 317 369
#     4   9  20  39  64  88 124 164 212 253 310 371
#     4  10  19  37  61  94 124 159 211 253 314 368
#     4  11  24  39  60  98 125 161 215 261 300 368
#     4  10  23  45  67  89 128 173 207 251 315 384
#     4   9  17  32  62  92 115 154 209 255 296 368
#     4  11  21  41  67  93 119 167 209 250 315 376
#     4  12  22  40  66  90 131 164 203 261 314 371
#
# _framework density 19.705214999999999
#
# number of rings (size 3 to 8) (size 9 to 14) (size 15 to 20)
#    0.000    1.500    3.750    3.000    3.500    0.000 
#    2.250    3.125    0.000    0.000    0.000    0.000 
#    0.000    0.000    0.000    0.000    0.000    0.000 
#
# Total GULP energy -89329.257531 kJ/mol
# GULP energy per Si atom -5583.078596 kJ/mol
# Density = 1.966036 g / cm^3
# Si number density = 19.705215 Si / 1000 Ang^3
#
#
#
# Elastic Constant Matrix: (Units=GPa)
#
#
# Indices 1 2 3 4 5 6 
#
# 1 65.2233 21.6657 19.2905 -10.3071 10.4955 1.0077
# 2 21.6657 44.7300 18.8877 5.3681 7.4497 -3.9297
# 3 19.2905 18.8877 97.1043 -12.5576 17.4473 5.2318
# 4 -10.3071 5.3681 -12.5576 37.8546 7.9069 5.4806
# 5 10.4955 7.4497 17.4473 7.9069 20.8374 -1.3044
# 6 1.0077 -3.9297 5.2318 5.4806 -1.3044 29.9508
#
#
#
# Elastic Compliance Matrix: (Units=1/GPa)
#
#
# Indices 1 2 3 4 5 6 
#
# 1 0.022873 -0.011596 0.002167 0.012367 -0.014230 -0.005552
# 2 -0.011596 0.032245 -0.006985 -0.012379 0.005381 0.008340
# 3 0.002167 -0.006985 0.016067 0.011371 -0.016776 -0.006607
# 4 0.012367 -0.012379 0.011371 0.043178 -0.028533 -0.013170
# 5 -0.014230 0.005381 -0.016776 -0.028533 0.078907 0.012773
# 6 -0.005552 0.008340 -0.006607 -0.013170 0.012773 0.038790
#
#
# Mechanical properties :
#
#
# Convention : Reuss Voigt Hill
#
# Bulk Modulus (GPa) = 26.07144 36.30506 31.18825
# Shear Modulus (GPa) = 18.00672 27.54281 22.77476
#
# Velocity S-wave (km/s) = 3.02620 3.74269 3.40335
# Velocity P-wave (km/s) = 5.04678 6.09435 5.59514
#
# Compressibility (1/GPa) = 0.03835615
#
# Stress axis : x y z
#
# Youngs Moduli (GPa) = 43.71991 31.01279 62.23894
#
# Poissons Ratio (x) = 0.35962 -0.13486
# Poissons Ratio (y) = 0.50697 0.43475
# Poissons Ratio (z) = -0.09473 0.21663
#
# Static dielectric constant tensor:
#      x y z
#    x 1.655180 -0.002890 -0.001730 
#    y -0.002890 1.677360 0.017770 
#    z -0.001730 0.017770 1.725510 
# 
# From -- ./inp_files/184395.got.cif
#   From: 2010.05.17/outbox.cif.g08.bks.cpg/sg2_93_cif.got.tgz:184395.got - 2010.06.03 11:33:40.
