data_PCOD9088610
_publ_section_title
;
Structure prediction by ZEFSAII (Michael W. Deem and Ramdas Pophale) SiO2 
 PCOD9088610
Probable space group: P -1
;
_chemical_formula_sum "Si O2"
_cell_formula_units_Z 16
_cell_length_a 9.952700
_cell_length_b 12.959292
_cell_length_c 9.664226
_cell_angle_alpha 72.574665
_cell_angle_beta 117.296205
_cell_angle_gamma 130.632636
_cell_volume 840.627042
_symmetry_space_group_name_H-M "P -1"
_symmetry_group_IT_number 2
_symmetry_cell_setting 'triclinic'
loop_
_space_group_symop_operation_xyz
x,y,z
-x,-y,-z
loop_
_atom_site_type_symbol
_atom_site_label
_atom_site_fract_x
_atom_site_fract_y
_atom_site_fract_z
Si Si1 0.715908 0.862722 0.820285
Si Si2 0.293264 0.396615 0.079397
Si Si3 0.998762 0.609536 0.865585
Si Si4 0.980154 0.602380 0.531108
Si Si5 0.691120 0.074824 0.147011
Si Si6 0.723249 0.638783 0.222855
Si Si7 0.385268 0.884588 0.606431
Si Si8 0.120804 0.057285 0.826949
O O1 0.679893 0.719930 0.847937
O O2 0.520772 0.840882 0.716983
O O3 0.798115 0.925129 0.986249
O O4 0.892154 0.966435 0.761096
O O5 0.496800 0.541413 0.134183
O O6 0.158586 0.384536 0.137946
O O7 0.207625 0.370736 0.893849
O O8 0.188001 0.765152 0.895879
O O9 0.965456 0.576730 0.699411
O O10 0.000000 0.500000 0.000000
O O11 0.800622 0.590237 0.392658
O O12 0.000000 0.500000 0.500000
O O13 0.171602 0.753448 0.526258
O O14 0.635664 0.055207 0.288799
O O15 0.808090 0.016349 0.193238
O O16 0.500000 0.000000 0.000000
O O17 0.796031 0.789824 0.234316
O O18 0.500000 0.000000 0.500000
#
# Coordination Sequence:
#
# PCOD9088610 Si02
#       8
#     2   2   2   2   2   2   2   2
#     4  10  19  37  62  87 125 162 204 254 314 375
#     4  10  21  40  63  91 121 163 213 260 314 375
#     4  11  25  41  64  93 126 170 217 260 314 376
#     4  11  24  44  62  91 130 167 212 265 315 378
#     4  11  23  41  64  94 131 160 215 264 311 374
#     4  10  22  38  65  90 124 165 207 261 320 377
#     4  11  24  41  63  93 127 169 208 256 324 380
#     4  10  20  37  63  94 121 160 207 262 314 375
#
# _framework density 19.033411000000001
#
# number of rings (size 3 to 8) (size 9 to 14) (size 15 to 20)
#    0.000    1.500    2.500    2.250    1.750    4.500 
#    2.250    1.875    0.000    0.000    0.000    0.000 
#    0.000    0.000    0.000    0.000    0.000    0.000 
#
# Total GULP energy -89316.487038 kJ/mol
# GULP energy per Si atom -5582.280440 kJ/mol
# Density = 1.899009 g / cm^3
# Si number density = 19.033411 Si / 1000 Ang^3
#
#
#
# Elastic Constant Matrix: (Units=GPa)
#
#
# Indices 1 2 3 4 5 6 
#
# 1 110.0700 26.1973 33.4140 -3.6482 -23.8281 -19.2560
# 2 26.1973 86.1066 39.4537 -5.6256 -26.2106 -11.6164
# 3 33.4140 39.4537 80.9116 -10.5237 -11.8609 -13.1350
# 4 -3.6482 -5.6256 -10.5237 25.6019 3.0229 -0.9322
# 5 -23.8281 -26.2106 -11.8609 3.0229 32.2967 -0.6012
# 6 -19.2560 -11.6164 -13.1350 -0.9322 -0.6012 32.4621
#
#
#
# Elastic Compliance Matrix: (Units=1/GPa)
#
#
# Indices 1 2 3 4 5 6 
#
# 1 0.013174 0.001601 -0.003653 -0.000175 0.009826 0.007086
# 2 0.001601 0.019562 -0.007207 0.000045 0.014505 0.005304
# 3 -0.003653 -0.007207 0.018237 0.005768 -0.002335 0.002756
# 4 -0.000175 0.000045 0.005768 0.041755 -0.001819 0.003412
# 5 0.009826 0.014505 -0.002335 -0.001819 0.049500 0.010939
# 6 0.007086 0.005304 0.002756 0.003412 0.010939 0.038322
#
#
# Mechanical properties :
#
#
# Convention : Reuss Voigt Hill
#
# Bulk Modulus (GPa) = 30.81094 52.80202 41.80648
# Shear Modulus (GPa) = 23.82226 29.94035 26.88130
#
# Velocity S-wave (km/s) = 3.54164 3.97046 3.76216
# Velocity P-wave (km/s) = 5.73997 6.98723 6.39408
#
# Compressibility (1/GPa) = 0.03245601
#
# Stress axis : x y z
#
# Youngs Moduli (GPa) = 75.90659 51.11855 54.83239
#
# Poissons Ratio (x) = -0.08186 0.20032
# Poissons Ratio (y) = -0.12156 0.39518
# Poissons Ratio (z) = 0.27731 0.36841
#
# Static dielectric constant tensor:
#      x y z
#    x 1.652480 0.022090 -0.015660 
#    y 0.022090 1.673210 -0.019460 
#    z -0.015660 -0.019460 1.672890 
# 
# From -- ./inp_files/186162.got.cif
#   From: 2010.05.17/outbox.cif.g08.bks.cpg/sg2_94_cif.got.tgz:186162.got - 2010.06.03 11:33:40.
