data_PCOD9088467
_publ_section_title
;
Structure prediction by ZEFSAII (Michael W. Deem and Ramdas Pophale) SiO2 
 PCOD9088467
Probable space group: P -1
;
_chemical_formula_sum "Si O2"
_cell_formula_units_Z 12
_cell_length_a 14.074211
_cell_length_b 8.735217
_cell_length_c 7.847893
_cell_angle_alpha 55.416587
_cell_angle_beta 41.660841
_cell_angle_gamma 56.294861
_cell_volume 512.698571
_symmetry_space_group_name_H-M "P -1"
_symmetry_group_IT_number 2
_symmetry_cell_setting 'triclinic'
loop_
_space_group_symop_operation_xyz
x,y,z
-x,-y,-z
loop_
_atom_site_type_symbol
_atom_site_label
_atom_site_fract_x
_atom_site_fract_y
_atom_site_fract_z
Si Si1 0.042233 0.636070 0.004326
Si Si2 0.597138 0.397018 0.779510
Si Si3 0.659903 0.971701 0.887046
Si Si4 0.333428 0.436109 0.875484
Si Si5 0.975559 0.960166 0.359805
Si Si6 0.154704 0.533705 0.395479
O O1 0.217842 0.597879 0.826960
O O2 0.967414 0.571821 0.312253
O O3 0.000000 0.500000 0.000000
O O4 0.988694 0.860961 0.898299
O O5 0.745185 0.464805 0.570487
O O6 0.641648 0.167587 0.891538
O O7 0.500000 0.500000 0.000000
O O8 0.497754 0.443526 0.711963
O O9 0.677700 0.761782 0.076071
O O10 0.802231 0.961014 0.583242
O O11 0.500000 0.000000 0.000000
O O12 0.255882 0.435486 0.166571
O O13 0.080898 0.754805 0.311739
O O14 0.000000 0.000000 0.500000
#
# Coordination Sequence:
#
# PCOD9088467 Si02
#       6
#     2   2   2   2   2   2
#     4  12  23  38  64  95 123 167 207 253 314 366
#     4   9  19  37  66  90 123 167 202 253 314 363
#     4  10  19  37  61  88 122 163 199 250 311 362
#     4  10  22  40  64  93 127 162 207 257 308 368
#     4  12  22  39  64  91 124 165 207 254 312 365
#     4  11  22  42  65  92 129 161 206 260 305 369
#
# _framework density 23.405564999999999
#
# number of rings (size 3 to 8) (size 9 to 14) (size 15 to 20)
#    0.000    1.333    5.000    0.500    0.000    0.667 
#    0.000    9.167    0.000    3.000    0.000    0.000 
#    0.000    0.000    0.000    0.000    0.000    0.000 
#
# Total GULP energy -66976.394031 kJ/mol
# GULP energy per Si atom -5581.366169 kJ/mol
# Density = 2.335229 g / cm^3
# Si number density = 23.405565 Si / 1000 Ang^3
#
#
#
# Elastic Constant Matrix: (Units=GPa)
#
#
# Indices 1 2 3 4 5 6 
#
# 1 130.5059 20.8576 25.8752 1.6898 -24.5305 -1.0844
# 2 20.8576 118.5207 19.1418 -7.3714 3.7293 -6.0252
# 3 25.8752 19.1418 51.7326 2.2629 -25.2938 -14.6195
# 4 1.6898 -7.3714 2.2629 39.8680 -8.6544 3.7959
# 5 -24.5305 3.7293 -25.2938 -8.6544 47.0925 3.0965
# 6 -1.0844 -6.0252 -14.6195 3.7959 3.0965 41.5424
#
#
#
# Elastic Compliance Matrix: (Units=1/GPa)
#
#
# Indices 1 2 3 4 5 6 
#
# 1 0.009050 -0.001309 -0.002667 0.000408 0.003539 -0.001193
# 2 -0.001309 0.009650 -0.004897 0.001306 -0.003823 -0.000192
# 3 -0.002667 -0.004897 0.033097 -0.000092 0.016122 0.009674
# 4 0.000408 0.001306 -0.000092 0.026680 0.005137 -0.002653
# 5 0.003539 -0.003823 0.016122 0.005137 0.032833 0.002295
# 6 -0.001193 -0.000192 0.009674 -0.002653 0.002295 0.027489
#
#
# Mechanical properties :
#
#
# Convention : Reuss Voigt Hill
#
# Bulk Modulus (GPa) = 29.36749 48.05650 38.71199
# Shear Modulus (GPa) = 29.78031 41.35956 35.56993
#
# Velocity S-wave (km/s) = 3.57089 4.20823 3.90259
# Velocity P-wave (km/s) = 5.43839 6.64747 6.07310
#
# Compressibility (1/GPa) = 0.03405126
#
# Stress axis : x y z
#
# Youngs Moduli (GPa) = 110.49172 103.62360 30.21437
#
# Poissons Ratio (x) = 0.13560 0.08060
# Poissons Ratio (y) = 0.14459 0.14796
# Poissons Ratio (z) = 0.29473 0.50746
#
# Static dielectric constant tensor:
#      x y z
#    x 1.973590 -0.019090 -0.021410 
#    y -0.019090 1.888110 0.027930 
#    z -0.021410 0.027930 1.916750 
# 
# From -- ./inp_files/188808.got.cif
#   From: 2010.05.17/outbox.cif.g08.bks.cpg/sg2_95_cif.got.tgz:188808.got - 2010.06.03 11:33:40.
