data_PCOD9088078
_publ_section_title
;
Structure prediction by ZEFSAII (Michael W. Deem and Ramdas Pophale) SiO2 
 PCOD9088078
Probable space group: P -1
;
_chemical_formula_sum "Si O2"
_cell_formula_units_Z 14
_cell_length_a 10.062197
_cell_length_b 9.285507
_cell_length_c 10.508833
_cell_angle_alpha 98.792351
_cell_angle_beta 39.826126
_cell_angle_gamma 74.298519
_cell_volume 490.981791
_symmetry_space_group_name_H-M "P -1"
_symmetry_group_IT_number 2
_symmetry_cell_setting 'triclinic'
loop_
_space_group_symop_operation_xyz
x,y,z
-x,-y,-z
loop_
_atom_site_type_symbol
_atom_site_label
_atom_site_fract_x
_atom_site_fract_y
_atom_site_fract_z
Si Si1 0.605115 0.144147 0.831590
Si Si2 0.347513 0.424909 0.252355
Si Si3 0.707796 0.579223 0.112551
Si Si4 0.963397 0.703448 0.787867
Si Si5 0.391535 0.186456 0.533478
Si Si6 0.926655 0.745595 0.463789
Si Si7 0.716039 0.311821 0.241226
O O1 0.608313 0.242947 0.968874
O O2 0.336066 0.157076 0.023707
O O3 0.847692 0.931856 0.610011
O O4 0.544041 0.270401 0.768650
O O5 0.779000 0.436965 0.756865
O O6 0.218735 0.324955 0.368159
O O7 0.201233 0.580187 0.495986
O O8 0.693610 0.676352 0.266166
O O9 0.741884 0.395150 0.103321
O O10 0.937672 0.559704 0.861307
O O11 0.040359 0.783095 0.853245
O O12 0.195554 0.200982 0.577971
O O13 0.500000 0.000000 0.500000
O O14 0.403754 0.797360 0.692243
O O15 0.500000 0.500000 0.500000
#
# Coordination Sequence:
#
# PCOD9088078 Si02
#       7
#     2   2   2   2   2   2   2
#     4  10  20  33  60  94 128 159 217 263 305 386
#     4  11  21  34  64  95 120 175 218 250 326 373
#     4   9  19  34  58  93 125 168 206 256 319 377
#     4  10  19  37  58  94 125 164 218 255 311 386
#     4  11  21  39  62  96 128 168 206 266 332 375
#     4  11  19  36  58  92 125 163 214 263 309 384
#     4  10  21  34  62  90 129 169 209 265 314 389
#
# _framework density 28.514295000000001
#
# number of rings (size 3 to 8) (size 9 to 14) (size 15 to 20)
#    0.857    0.857    4.286    2.571    0.000    0.000 
#    0.000    2.857    0.000   14.571    3.714    1.000 
#    0.000    0.000    0.000    0.000    0.000    0.000 
#
# Total GULP energy -78113.002133 kJ/mol
# GULP energy per Si atom -5579.500152 kJ/mol
# Density = 2.844939 g / cm^3
# Si number density = 28.514295 Si / 1000 Ang^3
#
#
#
# Elastic Constant Matrix: (Units=GPa)
#
#
# Indices 1 2 3 4 5 6 
#
# 1 100.3907 37.5841 23.5934 2.1440 13.4391 -5.1421
# 2 37.5841 166.2868 76.3251 4.5346 3.9626 -5.5327
# 3 23.5934 76.3251 112.6633 5.2319 8.5473 8.8595
# 4 2.1440 4.5346 5.2319 55.2834 5.6782 -5.8044
# 5 13.4391 3.9626 8.5473 5.6782 31.6824 -13.8251
# 6 -5.1421 -5.5327 8.8595 -5.8044 -13.8251 42.9717
#
#
#
# Elastic Compliance Matrix: (Units=1/GPa)
#
#
# Indices 1 2 3 4 5 6 
#
# 1 0.011535 -0.002277 -0.000512 0.000235 -0.004627 -0.000264
# 2 -0.002277 0.009528 -0.006451 -0.000045 0.002928 0.003220
# 3 -0.000512 -0.006451 0.014219 -0.000859 -0.005092 -0.005578
# 4 0.000235 -0.000045 -0.000859 0.018611 -0.002343 0.001960
# 5 -0.004627 0.002928 -0.005092 -0.002343 0.040944 0.013729
# 6 -0.000264 0.003220 -0.005578 0.001960 0.013729 0.029486
#
#
# Mechanical properties :
#
#
# Convention : Reuss Voigt Hill
#
# Bulk Modulus (GPa) = 59.52154 72.70510 66.11332
# Shear Modulus (GPa) = 33.69188 42.11004 37.90096
#
# Velocity S-wave (km/s) = 3.44114 3.84709 3.64976
# Velocity P-wave (km/s) = 6.05873 6.72953 6.40292
#
# Compressibility (1/GPa) = 0.01680064
#
# Stress axis : x y z
#
# Youngs Moduli (GPa) = 86.69425 104.95260 70.33060
#
# Poissons Ratio (x) = 0.23898 0.03601
# Poissons Ratio (y) = 0.19740 0.45373
# Poissons Ratio (z) = 0.04439 0.67709
#
# Static dielectric constant tensor:
#      x y z
#    x 2.525530 0.000380 -0.092000 
#    y 0.000380 2.145430 -0.006140 
#    z -0.092000 -0.006140 2.364010 
# 
# From -- ./inp_files/412599.got.cif
#   From: 2010.05.17/outbox.cif.g08.bks.cpg/sg2_207_cif.got.tgz:412599.got - 2010.06.03 11:33:40.
