data_PCOD9088455
_publ_section_title
;
Structure prediction by ZEFSAII (Michael W. Deem and Ramdas Pophale) SiO2 
 PCOD9088455
Probable space group: P -1
;
_chemical_formula_sum "Si O2"
_cell_formula_units_Z 14
_cell_length_a 12.222193
_cell_length_b 17.713026
_cell_length_c 7.635471
_cell_angle_alpha 80.168919
_cell_angle_beta 131.536970
_cell_angle_gamma 139.370664
_cell_volume 589.108216
_symmetry_space_group_name_H-M "P -1"
_symmetry_group_IT_number 2
_symmetry_cell_setting 'triclinic'
loop_
_space_group_symop_operation_xyz
x,y,z
-x,-y,-z
loop_
_atom_site_type_symbol
_atom_site_label
_atom_site_fract_x
_atom_site_fract_y
_atom_site_fract_z
Si Si1 0.299797 0.665793 0.152701
Si Si2 0.013193 0.163166 0.684975
Si Si3 0.842238 0.644295 0.023984
Si Si4 0.611726 0.669690 0.520728
Si Si5 0.665725 0.830219 0.124896
Si Si6 0.577036 0.110719 0.688649
Si Si7 0.738644 0.027565 0.076171
O O1 0.542614 0.723681 0.487353
O O2 0.408986 0.701884 0.052399
O O3 0.311450 0.761702 0.148017
O O4 0.000000 0.500000 0.000000
O O5 0.781323 0.052463 0.320045
O O6 0.265196 0.213863 0.898574
O O7 0.785305 0.042172 0.655247
O O8 0.130402 0.304051 0.777026
O O9 0.663267 0.631301 0.740708
O O10 0.649193 0.482231 0.826071
O O11 0.178563 0.785203 0.248970
O O12 0.917013 0.813624 0.682298
O O13 0.595186 0.879144 0.937137
O O14 0.000000 0.000000 0.500000
O O15 0.607334 0.043856 0.847262
#
# Coordination Sequence:
#
# PCOD9088455 Si02
#       7
#     2   2   2   2   2   2   2
#     4  12  21  37  65  86 117 160 204 241 293 365
#     4  11  20  37  61  90 121 155 199 251 296 344
#     4  10  23  37  58  89 126 156 197 247 298 360
#     4  10  20  40  58  85 117 166 201 232 304 364
#     4  10  19  37  61  88 116 156 200 238 299 352
#     4  11  21  36  62  92 119 158 200 242 299 356
#     4  10  20  37  64  88 118 158 201 243 291 362
#
# _framework density 23.764734000000001
#
# number of rings (size 3 to 8) (size 9 to 14) (size 15 to 20)
#    0.000    1.429    7.143    0.857    0.000    0.571 
#    0.000    7.857    0.000    1.714    0.000    0.000 
#    0.000    0.000    0.000    0.000    0.000    0.000 
#
# Total GULP energy -77976.938125 kJ/mol
# GULP energy per Si atom -5569.781295 kJ/mol
# Density = 2.371064 g / cm^3
# Si number density = 23.764734 Si / 1000 Ang^3
#
#
#
# Elastic Constant Matrix: (Units=GPa)
#
#
# Indices 1 2 3 4 5 6 
#
# 1 168.9838 45.4931 47.7114 6.7207 35.6526 -14.8322
# 2 45.4931 130.9560 30.6010 2.2020 18.1136 -18.3579
# 3 47.7114 30.6010 52.4600 5.7938 15.2161 -2.1811
# 4 6.7207 2.2020 5.7938 23.4409 -0.7970 20.4209
# 5 35.6526 18.1136 15.2161 -0.7970 41.9057 4.6738
# 6 -14.8322 -18.3579 -2.1811 20.4209 4.6738 33.2780
#
#
#
# Elastic Compliance Matrix: (Units=1/GPa)
#
#
# Indices 1 2 3 4 5 6 
#
# 1 0.011956 0.001855 -0.005600 -0.019840 -0.011524 0.019779
# 2 0.001855 0.011898 -0.003594 -0.017677 -0.007884 0.019110
# 3 -0.005600 -0.003594 0.028495 -0.007572 -0.004470 0.002663
# 4 -0.019840 -0.017677 -0.007572 0.162078 0.044268 -0.124767
# 5 -0.011524 -0.007884 -0.004470 0.044268 0.044355 -0.043173
# 6 0.019779 0.019110 0.002663 -0.124767 -0.043173 0.132208
#
#
# Mechanical properties :
#
#
# Convention : Reuss Voigt Hill
#
# Bulk Modulus (GPa) = 26.54528 66.66788 46.60658
# Shear Modulus (GPa) = 11.95530 34.96453 23.45992
#
# Velocity S-wave (km/s) = 2.24535 3.83989 3.14534
# Velocity P-wave (km/s) = 4.23278 6.91186 5.73107
#
# Compressibility (1/GPa) = 0.03767148
#
# Stress axis : x y z
#
# Youngs Moduli (GPa) = 83.64229 84.04714 35.09365
#
# Poissons Ratio (x) = -0.15594 0.19652
# Poissons Ratio (y) = -0.15519 0.12614
# Poissons Ratio (z) = 0.46838 0.30209
#
# Static dielectric constant tensor:
#      x y z
#    x 2.082910 0.050340 -0.017090 
#    y 0.050340 2.007150 -0.029520 
#    z -0.017090 -0.029520 2.003030 
# 
# From -- ./inp_files/277893.got.cif
#   From: 2010.05.17/outbox.cif.g08.bks.cpg/sg2_139_cif.got.tgz:277893.got - 2010.06.03 11:33:40.
