data_PCOD9088249
_publ_section_title
;
Structure prediction by ZEFSAII (Michael W. Deem and Ramdas Pophale) SiO2 
 PCOD9088249
Probable space group: P -1
;
_chemical_formula_sum "Si O2"
_cell_formula_units_Z 16
_cell_length_a 8.115267
_cell_length_b 22.894011
_cell_length_c 9.398692
_cell_angle_alpha 129.021612
_cell_angle_beta 109.317796
_cell_angle_gamma 116.092694
_cell_volume 598.547785
_symmetry_space_group_name_H-M "P -1"
_symmetry_group_IT_number 2
_symmetry_cell_setting 'triclinic'
loop_
_space_group_symop_operation_xyz
x,y,z
-x,-y,-z
loop_
_atom_site_type_symbol
_atom_site_label
_atom_site_fract_x
_atom_site_fract_y
_atom_site_fract_z
Si Si1 0.505848 0.838295 0.518499
Si Si2 0.718474 0.689019 0.820919
Si Si3 0.303105 0.745493 0.616727
Si Si4 0.229062 0.362481 0.526272
Si Si5 0.967346 0.480315 0.291445
Si Si6 0.049187 0.981903 0.330287
Si Si7 0.754193 0.700524 0.176281
Si Si8 0.066123 0.155066 0.301531
O O1 0.212721 0.722730 0.388848
O O2 0.701063 0.833015 0.602043
O O3 0.547985 0.856630 0.386130
O O4 0.722915 0.996661 0.865947
O O5 0.834218 0.671993 0.712421
O O6 0.265398 0.526294 0.421187
O O7 0.827419 0.713829 0.052721
O O8 0.916828 0.845071 0.090868
O O9 0.133205 0.605904 0.424240
O O10 0.140195 0.749763 0.672608
O O11 0.744171 0.905696 0.022763
O O12 0.526533 0.540693 0.915053
O O13 0.311656 0.310986 0.529057
O O14 0.000000 0.500000 0.500000
O O15 0.532461 0.338145 0.944929
O O16 0.000000 0.000000 0.500000
O O17 0.059697 0.849000 0.598092
#
# Coordination Sequence:
#
# PCOD9088249 Si02
#       8
#     2   2   2   2   2   2   2   2
#     4  11  21  41  62  84 117 156 203 242 299 341
#     4  10  19  37  60  84 119 159 191 239 308 343
#     4  10  20  37  59  86 120 157 194 239 299 358
#     4  11  22  38  57  85 125 161 186 235 312 354
#     4   8  17  35  59  86 113 154 200 246 291 337
#     4  11  20  38  64  89 110 152 204 248 283 347
#     4  10  21  36  61  90 116 149 205 247 285 358
#     4  11  20  38  60  85 116 155 199 240 294 344
#
# _framework density 26.731365
#
# number of rings (size 3 to 8) (size 9 to 14) (size 15 to 20)
#    0.000    1.750    3.750    2.250    0.000    0.500 
#    0.000    8.750    0.000    0.000    0.000    0.000 
#    0.000    0.000    0.000    0.000    0.000    0.000 
#
# Total GULP energy -89223.379720 kJ/mol
# GULP energy per Si atom -5576.461233 kJ/mol
# Density = 2.667052 g / cm^3
# Si number density = 26.731365 Si / 1000 Ang^3
#
#
#
# Elastic Constant Matrix: (Units=GPa)
#
#
# Indices 1 2 3 4 5 6 
#
# 1 85.0199 53.5504 43.7019 -13.4578 -20.6169 23.3809
# 2 53.5504 157.7683 41.2256 -11.8193 -27.6259 31.9462
# 3 43.7019 41.2256 87.9046 -16.3688 -43.7497 2.0227
# 4 -13.4578 -11.8193 -16.3688 32.9371 3.2064 -22.6823
# 5 -20.6169 -27.6259 -43.7497 3.2064 50.8321 -1.4399
# 6 23.3809 31.9462 2.0227 -22.6823 -1.4399 54.8913
#
#
#
# Elastic Compliance Matrix: (Units=1/GPa)
#
#
# Indices 1 2 3 4 5 6 
#
# 1 0.019953 -0.003294 -0.009810 -0.002818 -0.002174 -0.007442
# 2 -0.003294 0.009116 -0.002108 -0.002658 0.001834 -0.004875
# 3 -0.009810 -0.002108 0.029861 0.016022 0.019889 0.011448
# 4 -0.002818 -0.002658 0.016022 0.051746 0.008612 0.023765
# 5 -0.002174 0.001834 0.019889 0.008612 0.036466 0.003641
# 6 -0.007442 -0.004875 0.011448 0.023765 0.003641 0.033719
#
#
# Mechanical properties :
#
#
# Convention : Reuss Voigt Hill
#
# Bulk Modulus (GPa) = 35.08073 67.51654 51.29863
# Shear Modulus (GPa) = 22.64633 40.54642 31.59637
#
# Velocity S-wave (km/s) = 2.91380 3.89885 3.44175
# Velocity P-wave (km/s) = 4.94694 6.75132 5.91830
#
# Compressibility (1/GPa) = 0.02850568
#
# Stress axis : x y z
#
# Youngs Moduli (GPa) = 50.11898 109.69251 33.48886
#
# Poissons Ratio (x) = 0.36131 0.32853
# Poissons Ratio (y) = 0.16508 0.07059
# Poissons Ratio (z) = 0.49168 0.23122
#
# Static dielectric constant tensor:
#      x y z
#    x 2.116750 0.010020 0.111250 
#    y 0.010020 2.090470 -0.053720 
#    z 0.111250 -0.053720 2.326350 
# 
# From -- ./inp_files/225618.got.cif
#   From: 2010.05.17/outbox.cif.g08.bks.cpg/sg2_113_cif.got.tgz:225618.got - 2010.06.03 11:33:40.
