data_PCOD9088268
_publ_section_title
;
Structure prediction by ZEFSAII (Michael W. Deem and Ramdas Pophale) SiO2 
 PCOD9088268
Probable space group: P -1
;
_chemical_formula_sum "Si O2"
_cell_formula_units_Z 16
_cell_length_a 8.553832
_cell_length_b 11.477301
_cell_length_c 15.908781
_cell_angle_alpha 42.900002
_cell_angle_beta 72.872239
_cell_angle_gamma 44.219982
_cell_volume 648.228721
_symmetry_space_group_name_H-M "P -1"
_symmetry_group_IT_number 2
_symmetry_cell_setting 'triclinic'
loop_
_space_group_symop_operation_xyz
x,y,z
-x,-y,-z
loop_
_atom_site_type_symbol
_atom_site_label
_atom_site_fract_x
_atom_site_fract_y
_atom_site_fract_z
Si Si1 0.183408 0.959623 0.055612
Si Si2 0.252554 0.156841 0.800099
Si Si3 0.362522 0.429666 0.586870
Si Si4 0.265698 0.496083 0.085098
Si Si5 0.257858 0.250035 0.351380
Si Si6 0.878725 0.277192 0.353732
Si Si7 0.691577 0.393533 0.138819
Si Si8 0.036168 0.835081 0.287224
O O1 0.341104 0.961739 0.966970
O O2 0.023844 0.230059 0.989190
O O3 0.221018 0.785899 0.216236
O O4 0.000000 0.000000 0.000000
O O5 0.426609 0.175768 0.729012
O O6 0.971648 0.465660 0.711648
O O7 0.176686 0.090022 0.772909
O O8 0.500000 0.500000 0.500000
O O9 0.262744 0.554289 0.629058
O O10 0.161596 0.593043 0.455647
O O11 0.371821 0.269331 0.248532
O O12 0.423923 0.531890 0.076311
O O13 0.272638 0.472172 0.997404
O O14 0.115055 0.214890 0.343277
O O15 0.500000 0.000000 0.500000
O O16 0.713919 0.400158 0.230367
O O17 0.000000 0.000000 0.500000
O O18 0.906705 0.083955 0.236058
#
# Coordination Sequence:
#
# PCOD9088268 Si02
#       8
#     2   2   2   2   2   2   2   2
#     4   8  16  33  61  86 114 152 197 248 304 351
#     4   9  20  39  60  88 117 159 202 253 305 360
#     4  11  24  39  57  88 121 160 205 252 312 360
#     4   9  19  35  58  91 116 153 207 245 291 368
#     4  10  21  36  61  91 119 157 208 251 301 363
#     4  11  22  39  58  82 122 161 197 249 311 357
#     4  10  20  37  60  87 123 157 197 249 304 363
#     4  10  19  37  60  85 121 157 200 254 300 362
#
# _framework density 24.682645999999998
#
# number of rings (size 3 to 8) (size 9 to 14) (size 15 to 20)
#    0.000    2.250    1.250    1.125    1.750    4.500 
#    2.250    0.625    0.000    0.000    0.000    0.000 
#    0.000    0.000    0.000    0.000    0.000    0.000 
#
# Total GULP energy -89115.344991 kJ/mol
# GULP energy per Si atom -5569.709062 kJ/mol
# Density = 2.462647 g / cm^3
# Si number density = 24.682646 Si / 1000 Ang^3
#
#
#
# Elastic Constant Matrix: (Units=GPa)
#
#
# Indices 1 2 3 4 5 6 
#
# 1 65.1540 18.8590 33.0224 15.4303 -21.5704 6.8629
# 2 18.8590 65.3004 50.5521 31.2170 -2.0724 7.8711
# 3 33.0224 50.5521 177.9572 35.6499 -20.7118 15.1639
# 4 15.4303 31.2170 35.6499 51.4097 0.9832 2.2253
# 5 -21.5704 -2.0724 -20.7118 0.9832 41.6844 6.4802
# 6 6.8629 7.8711 15.1639 2.2253 6.4802 25.1385
#
#
#
# Elastic Compliance Matrix: (Units=1/GPa)
#
#
# Indices 1 2 3 4 5 6 
#
# 1 0.022436 -0.002549 -0.000307 -0.004870 0.012686 -0.007981
# 2 -0.002549 0.025142 -0.004285 -0.011364 -0.001430 -0.003217
# 3 -0.000307 -0.004285 0.008427 -0.003040 0.004598 -0.004574
# 4 -0.004870 -0.011364 -0.003040 0.029794 -0.006181 0.005677
# 5 0.012686 -0.001430 0.004598 -0.006181 0.035137 -0.014300
# 6 -0.007981 -0.003217 -0.004574 0.005677 -0.014300 0.048909
#
#
# Mechanical properties :
#
#
# Convention : Reuss Voigt Hill
#
# Bulk Modulus (GPa) = 23.96726 57.03097 40.49911
# Shear Modulus (GPa) = 25.24814 37.37840 31.31327
#
# Velocity S-wave (km/s) = 3.20177 3.89570 3.56565
# Velocity P-wave (km/s) = 4.83732 6.58720 5.77888
#
# Compressibility (1/GPa) = 0.04172358
#
# Stress axis : x y z
#
# Youngs Moduli (GPa) = 44.57180 39.77411 118.65997
#
# Poissons Ratio (x) = 0.10138 0.03642
# Poissons Ratio (y) = 0.11361 0.50845
# Poissons Ratio (z) = 0.01368 0.17043
#
# Static dielectric constant tensor:
#      x y z
#    x 2.309590 0.182100 -0.263370 
#    y 0.182100 2.317290 -0.261730 
#    z -0.263370 -0.261730 2.179710 
# 
# From -- ./inp_files/499866.got.cif
#   From: 2010.05.17/outbox.cif.g08.bks.cpg/sg2_250_cif.got.tgz:499866.got - 2010.06.03 11:33:40.
