data_PCOD9088421
_publ_section_title
;
Structure prediction by ZEFSAII (Michael W. Deem and Ramdas Pophale) SiO2 
 PCOD9088421
Probable space group: P -1
;
_chemical_formula_sum "Si O2"
_cell_formula_units_Z 16
_cell_length_a 16.927654
_cell_length_b 17.072150
_cell_length_c 16.805333
_cell_angle_alpha 35.071895
_cell_angle_beta 17.373476
_cell_angle_gamma 37.907421
_cell_volume 832.390114
_symmetry_space_group_name_H-M "P -1"
_symmetry_group_IT_number 2
_symmetry_cell_setting 'triclinic'
loop_
_space_group_symop_operation_xyz
x,y,z
-x,-y,-z
loop_
_atom_site_type_symbol
_atom_site_label
_atom_site_fract_x
_atom_site_fract_y
_atom_site_fract_z
Si Si1 0.584498 0.278947 0.323050
Si Si2 0.997342 0.054573 0.682123
Si Si3 0.440583 0.414304 0.925455
Si Si4 0.918527 0.307076 0.444239
Si Si5 0.774103 0.495259 0.286687
Si Si6 0.127679 0.245887 0.914473
Si Si7 0.735009 0.096823 0.179844
Si Si8 0.477814 0.831972 0.844741
O O1 0.504389 0.429385 0.243715
O O2 0.336680 0.224399 0.657426
O O3 0.709216 0.193917 0.200160
O O4 0.834107 0.291125 0.130522
O O5 0.998296 0.149897 0.522711
O O6 0.270554 0.076305 0.451062
O O7 0.760532 0.115903 0.913067
O O8 0.923619 0.897645 0.873005
O O9 0.671919 0.352612 0.698477
O O10 0.432246 0.321035 0.089060
O O11 0.166882 0.392771 0.160988
O O12 0.832634 0.358872 0.396645
O O13 0.500000 0.500000 0.500000
O O14 0.773594 0.629472 0.231788
O O15 0.000000 0.500000 0.000000
O O16 0.650078 0.166772 0.120371
O O17 0.500000 0.000000 0.500000
O O18 0.000000 0.000000 0.000000
#
# Coordination Sequence:
#
# PCOD9088421 Si02
#       8
#     2   2   2   2   2   2   2   2
#     4  12  22  37  63  85 121 159 204 251 291 347
#     4  10  21  38  64  85 117 164 197 246 284 351
#     4  10  19  37  61  86 112 161 200 248 286 350
#     4  10  20  40  61  87 120 153 199 234 301 361
#     4  12  24  40  63  92 121 153 189 246 306 358
#     4  12  23  40  62  92 117 152 212 241 290 366
#     4  12  24  37  54  85 125 163 198 251 305 338
#     4  10  21  37  58  86 122 155 207 243 298 341
#
# _framework density 19.221755999999999
#
# number of rings (size 3 to 8) (size 9 to 14) (size 15 to 20)
#    0.000    1.000    2.500    6.000    0.000    0.500 
#    0.000    1.250    0.000    7.500    0.000    0.000 
#    0.000    0.000    0.000    0.000    0.000    0.000 
#
# Total GULP energy -89236.463297 kJ/mol
# GULP energy per Si atom -5577.278956 kJ/mol
# Density = 1.917801 g / cm^3
# Si number density = 19.221756 Si / 1000 Ang^3
#
#
#
# Elastic Constant Matrix: (Units=GPa)
#
#
# Indices 1 2 3 4 5 6 
#
# 1 102.9597 37.0049 28.3773 -8.3212 2.0482 -22.9093
# 2 37.0049 75.1922 15.3056 -11.6658 4.0841 -20.1957
# 3 28.3773 15.3056 117.0078 11.5980 -11.2323 -13.6732
# 4 -8.3212 -11.6658 11.5980 42.4734 -9.3303 5.2627
# 5 2.0482 4.0841 -11.2323 -9.3303 35.5087 -1.5665
# 6 -22.9093 -20.1957 -13.6732 5.2627 -1.5665 28.3590
#
#
#
# Elastic Compliance Matrix: (Units=1/GPa)
#
#
# Indices 1 2 3 4 5 6 
#
# 1 0.013349 -0.004187 -0.002068 0.001138 -0.000354 0.006574
# 2 -0.004187 0.018397 -0.000774 0.003167 -0.000903 0.008708
# 3 -0.002068 -0.000774 0.010126 -0.003208 0.002719 0.003406
# 4 0.001138 0.003167 -0.003208 0.027114 0.005543 -0.003098
# 5 -0.000354 -0.000903 0.002719 0.005543 0.030649 0.001046
# 6 0.006574 0.008708 0.003406 -0.003098 0.001046 0.049049
#
#
# Mechanical properties :
#
#
# Convention : Reuss Voigt Hill
#
# Bulk Modulus (GPa) = 35.95399 50.72611 43.34005
# Shear Modulus (GPa) = 29.06731 35.56636 32.31683
#
# Velocity S-wave (km/s) = 3.89293 4.30620 4.10477
# Velocity P-wave (km/s) = 6.24115 7.15344 6.71281
#
# Compressibility (1/GPa) = 0.02781332
#
# Stress axis : x y z
#
# Youngs Moduli (GPa) = 74.91017 54.35781 98.75347
#
# Poissons Ratio (x) = 0.22761 0.20425
# Poissons Ratio (y) = 0.31366 0.07643
# Poissons Ratio (z) = 0.15494 0.04207
#
# Static dielectric constant tensor:
#      x y z
#    x 1.574480 -0.049730 0.003230 
#    y -0.049730 1.696460 -0.031830 
#    z 0.003230 -0.031830 1.655870 
# 
# From -- ./inp_files/534217.got.cif
#   From: 2010.05.17/outbox.cif.g08.bks.cpg/sg2_268_cif.got.tgz:534217.got - 2010.06.03 11:33:40.
