data_PCOD9088689
_publ_section_title
;
Structure prediction by ZEFSAII (Michael W. Deem and Ramdas Pophale) SiO2 
 PCOD9088689
Probable space group: P -1
;
_chemical_formula_sum "Si O2"
_cell_formula_units_Z 14
_cell_length_a 13.775209
_cell_length_b 19.561030
_cell_length_c 11.976999
_cell_angle_alpha 32.940433
_cell_angle_beta 137.431493
_cell_angle_gamma 158.950060
_cell_volume 611.991414
_symmetry_space_group_name_H-M "P -1"
_symmetry_group_IT_number 2
_symmetry_cell_setting 'triclinic'
loop_
_space_group_symop_operation_xyz
x,y,z
-x,-y,-z
loop_
_atom_site_type_symbol
_atom_site_label
_atom_site_fract_x
_atom_site_fract_y
_atom_site_fract_z
Si Si1 0.428351 0.636753 0.184848
Si Si2 0.504943 0.116100 0.435373
Si Si3 0.042761 0.690772 0.066353
Si Si4 0.715094 0.815012 0.952517
Si Si5 0.595269 0.100248 0.123179
Si Si6 0.871104 0.835914 0.440371
Si Si7 0.299909 0.313478 0.245447
O O1 0.702736 0.797611 0.264769
O O2 0.198655 0.357307 0.390967
O O3 0.502306 0.688590 0.045925
O O4 0.345485 0.711930 0.049324
O O5 0.288593 0.063227 0.290592
O O6 0.805170 0.411545 0.279065
O O7 0.500000 0.000000 0.500000
O O8 0.439780 0.009310 0.646559
O O9 0.301814 0.876836 0.114754
O O10 0.168255 0.764428 0.948349
O O11 0.908093 0.727853 0.902088
O O12 0.599791 0.602176 0.087858
O O13 0.000000 0.000000 0.000000
O O14 0.730747 0.745867 0.568576
O O15 0.187308 0.114429 0.349713
#
# Coordination Sequence:
#
# PCOD9088689 Si02
#       7
#     2   2   2   2   2   2   2
#     4  10  19  37  62  92 133 167 217 272 326 397
#     4  11  23  44  66  97 136 176 217 286 335 392
#     4  10  23  41  68  97 132 177 221 271 331 408
#     4  10  22  41  61  90 128 179 223 270 337 395
#     4  11  22  42  68 101 132 177 222 269 336 408
#     4   9  18  34  60  89 122 169 204 270 332 376
#     4   9  18  38  62  88 131 165 219 274 323 393
#
# _framework density 22.876138999999998
#
# number of rings (size 3 to 8) (size 9 to 14) (size 15 to 20)
#    0.000    2.000    2.857    0.429    0.000    1.714 
#    7.714    0.714    0.000    0.000    0.000    0.000 
#    0.000    0.000    0.000    0.000    0.000    0.000 
#
# Total GULP energy -78374.698608 kJ/mol
# GULP energy per Si atom -5598.192758 kJ/mol
# Density = 2.282407 g / cm^3
# Si number density = 22.876139 Si / 1000 Ang^3
#
#
#
# Elastic Constant Matrix: (Units=GPa)
#
#
# Indices 1 2 3 4 5 6 
#
# 1 83.6701 37.1783 57.1108 -9.9868 -0.0170 -18.3013
# 2 37.1783 133.8754 55.0849 -7.4494 12.2987 -13.5905
# 3 57.1108 55.0849 159.4786 7.4941 -5.0409 -16.8791
# 4 -9.9868 -7.4494 7.4941 44.4498 -14.9204 3.6365
# 5 -0.0170 12.2987 -5.0409 -14.9204 41.0337 -5.0574
# 6 -18.3013 -13.5905 -16.8791 3.6365 -5.0574 34.0185
#
#
#
# Elastic Compliance Matrix: (Units=1/GPa)
#
#
# Indices 1 2 3 4 5 6 
#
# 1 0.018611 -0.002284 -0.005365 0.005080 0.002655 0.006290
# 2 -0.002284 0.009505 -0.002487 0.000462 -0.002882 0.000857
# 3 -0.005365 -0.002487 0.009350 -0.002976 0.000960 0.001220
# 4 0.005080 0.000462 -0.002976 0.027397 0.009450 -0.000083
# 5 0.002655 -0.002882 0.000960 0.009450 0.029294 0.004099
# 6 0.006290 0.000857 0.001220 -0.000083 0.004099 0.034345
#
#
# Mechanical properties :
#
#
# Convention : Reuss Voigt Hill
#
# Bulk Modulus (GPa) = 58.16018 75.08579 66.62298
# Shear Modulus (GPa) = 32.36128 39.07707 35.71917
#
# Velocity S-wave (km/s) = 3.76524 4.13752 3.95576
# Velocity P-wave (km/s) = 6.66197 7.46455 7.07465
#
# Compressibility (1/GPa) = 0.01719390
#
# Stress axis : x y z
#
# Youngs Moduli (GPa) = 53.73113 105.21162 106.94955
#
# Poissons Ratio (x) = 0.24027 0.57380
# Poissons Ratio (y) = 0.12270 0.26601
# Poissons Ratio (z) = 0.28827 0.26169
#
# Static dielectric constant tensor:
#      x y z
#    x 1.860750 0.010310 -0.026240 
#    y 0.010310 1.875870 -0.034040 
#    z -0.026240 -0.034040 1.854380 
# 
# From -- ./inp_files/238787.got.cif
#   From: 2010.05.17/outbox.cif.g08.bks.cpg/sg2_120_cif.got.tgz:238787.got - 2010.06.03 11:33:40.
