data_PCOD9088638
_publ_section_title
;
Structure prediction by ZEFSAII (Michael W. Deem and Ramdas Pophale) SiO2 
 PCOD9088638
Probable space group: P -1
;
_chemical_formula_sum "Si O2"
_cell_formula_units_Z 14
_cell_length_a 19.144526
_cell_length_b 13.850650
_cell_length_c 7.817775
_cell_angle_alpha 27.911479
_cell_angle_beta 139.123120
_cell_angle_gamma 147.535692
_cell_volume 520.417682
_symmetry_space_group_name_H-M "P -1"
_symmetry_group_IT_number 2
_symmetry_cell_setting 'triclinic'
loop_
_space_group_symop_operation_xyz
x,y,z
-x,-y,-z
loop_
_atom_site_type_symbol
_atom_site_label
_atom_site_fract_x
_atom_site_fract_y
_atom_site_fract_z
Si Si1 0.388015 0.708046 0.732238
Si Si2 0.881133 0.411546 0.666899
Si Si3 0.336190 0.219800 0.308995
Si Si4 0.828323 0.661636 0.628684
Si Si5 0.087070 0.957777 0.492854
Si Si6 0.141838 0.758614 0.492278
Si Si7 0.440117 0.614574 0.330098
O O1 0.259429 0.643742 0.501646
O O2 0.500000 0.000000 0.500000
O O3 0.417241 0.522495 0.983496
O O4 0.366228 0.652144 0.982527
O O5 0.880999 0.291909 0.671494
O O6 0.008057 0.696258 0.429484
O O7 0.893477 0.259053 0.076810
O O8 0.431542 0.171681 0.666446
O O9 0.203481 0.129771 0.307564
O O10 0.273414 0.032030 0.330441
O O11 0.677007 0.545751 0.502577
O O12 0.929754 0.809870 0.428986
O O13 0.872876 0.857450 0.559743
O O14 0.845705 0.445199 0.064531
O O15 0.500000 0.500000 0.500000
#
# Coordination Sequence:
#
# PCOD9088638 Si02
#       7
#     2   2   2   2   2   2   2
#     4  11  22  39  64  90 124 170 210 248 317 376
#     4  10  21  39  64  89 126 170 199 252 316 380
#     4  11  23  40  65  95 126 162 212 266 296 367
#     4  10  19  37  62  90 123 166 204 252 306 378
#     4  10  20  37  66  94 118 163 217 252 303 370
#     4  10  22  41  63  92 128 162 208 256 316 362
#     4  10  19  37  62  89 120 166 207 253 307 369
#
# _framework density 26.90147
#
# number of rings (size 3 to 8) (size 9 to 14) (size 15 to 20)
#    0.000    1.714    4.286    0.857    2.000    3.429 
#    0.000    3.571    0.000    0.000    0.000    0.000 
#    0.000    0.000    0.000    0.000    0.000    0.000 
#
# Total GULP energy -78210.039522 kJ/mol
# GULP energy per Si atom -5586.431394 kJ/mol
# Density = 2.684024 g / cm^3
# Si number density = 26.901470 Si / 1000 Ang^3
#
#
#
# Elastic Constant Matrix: (Units=GPa)
#
#
# Indices 1 2 3 4 5 6 
#
# 1 83.9134 17.4460 5.8515 10.7127 9.0517 26.6865
# 2 17.4460 184.0333 33.3474 -7.0465 6.3144 19.2640
# 3 5.8515 33.3474 85.2977 -19.4106 0.2322 7.3552
# 4 10.7127 -7.0465 -19.4106 32.5125 9.6589 5.8234
# 5 9.0517 6.3144 0.2322 9.6589 21.1709 7.4506
# 6 26.6865 19.2640 7.3552 5.8234 7.4506 54.1973
#
#
#
# Elastic Compliance Matrix: (Units=1/GPa)
#
#
# Indices 1 2 3 4 5 6 
#
# 1 0.014838 -0.000629 -0.001129 -0.003946 -0.002159 -0.006208
# 2 -0.000629 0.006098 -0.001965 0.001067 -0.001487 -0.001501
# 3 -0.001129 -0.001965 0.015002 0.010111 -0.003206 -0.001427
# 4 -0.003946 0.001067 0.010111 0.044079 -0.018130 -0.002052
# 5 -0.002159 -0.001487 -0.003206 -0.018130 0.058331 -0.004044
# 6 -0.006208 -0.001501 -0.001427 -0.002052 -0.004044 0.023012
#
#
# Mechanical properties :
#
#
# Convention : Reuss Voigt Hill
#
# Bulk Modulus (GPa) = 35.09667 51.83711 43.46689
# Shear Modulus (GPa) = 28.04226 41.34946 34.69586
#
# Velocity S-wave (km/s) = 3.23213 3.92480 3.59519
# Velocity P-wave (km/s) = 5.19650 6.31267 5.78159
#
# Compressibility (1/GPa) = 0.02849273
#
# Stress axis : x y z
#
# Youngs Moduli (GPa) = 67.39645 163.97503 66.65835
#
# Poissons Ratio (x) = 0.10317 0.07523
# Poissons Ratio (y) = 0.04241 0.13097
# Poissons Ratio (z) = 0.07606 0.32218
#
# Static dielectric constant tensor:
#      x y z
#    x 2.304060 0.025130 -0.031080 
#    y 0.025130 2.122890 -0.016990 
#    z -0.031080 -0.016990 2.237550 
# 
# From -- ./inp_files/326366.got.cif
#   From: 2010.05.17/outbox.cif.g08.bks.cpg/sg2_164_cif.got.tgz:326366.got - 2010.06.03 11:33:40.
