data_PCOD9088506
_publ_section_title
;
Structure prediction by ZEFSAII (Michael W. Deem and Ramdas Pophale) SiO2 
 PCOD9088506
Probable space group: P -1
;
_chemical_formula_sum "Si O2"
_cell_formula_units_Z 16
_cell_length_a 13.932814
_cell_length_b 26.316174
_cell_length_c 8.134318
_cell_angle_alpha 143.939993
_cell_angle_beta 141.818242
_cell_angle_gamma 21.299612
_cell_volume 630.133273
_symmetry_space_group_name_H-M "P -1"
_symmetry_group_IT_number 2
_symmetry_cell_setting 'triclinic'
loop_
_space_group_symop_operation_xyz
x,y,z
-x,-y,-z
loop_
_atom_site_type_symbol
_atom_site_label
_atom_site_fract_x
_atom_site_fract_y
_atom_site_fract_z
Si Si1 0.017520 0.615137 0.392852
Si Si2 0.384858 0.867609 0.241988
Si Si3 0.089033 0.153091 0.003669
Si Si4 0.771710 0.555337 0.440813
Si Si5 0.719819 0.185109 0.727080
Si Si6 0.471054 0.646303 0.767776
Si Si7 0.633282 0.939391 0.344023
Si Si8 0.134163 0.670283 0.169156
O O1 0.701343 0.740914 0.307500
O O2 0.036747 0.708381 0.702971
O O3 0.144868 0.497441 0.398623
O O4 0.208863 0.505280 0.212135
O O5 0.302643 0.887230 0.372356
O O6 0.250667 0.015783 0.392322
O O7 0.347780 0.791928 0.909487
O O8 0.404487 0.022426 0.119692
O O9 0.987642 0.217717 0.852227
O O10 0.988228 0.106856 0.816188
O O11 0.491253 0.727167 0.474578
O O12 0.000000 0.500000 0.500000
O O13 0.752075 0.466474 0.116236
O O14 0.610223 0.305750 0.027582
O O15 0.346411 0.625251 0.444476
O O16 0.879127 0.765375 0.189704
O O17 0.500000 0.000000 0.500000
#
# Coordination Sequence:
#
# PCOD9088506 Si02
#       8
#     2   2   2   2   2   2   2   2
#     4  10  19  37  61  90 124 163 196 249 301 358
#     4   9  22  39  63  87 129 157 201 252 296 354
#     4  10  22  41  61  88 122 159 206 248 302 357
#     4  11  21  37  62  91 124 157 198 246 303 363
#     4  10  21  38  62  92 125 160 195 251 306 351
#     4  10  21  36  60  93 123 156 201 247 302 354
#     4  11  24  44  66  86 117 164 208 250 298 359
#     4  11  24  40  63  91 121 163 201 251 300 362
#
# _framework density 25.391455000000001
#
# number of rings (size 3 to 8) (size 9 to 14) (size 15 to 20)
#    0.750    1.000    1.250    3.000    0.000    7.500 
#    0.000    0.625    0.000    0.000    0.000    0.000 
#    0.000    0.000    0.000    0.000    0.000    0.000 
#
# Total GULP energy -89460.655415 kJ/mol
# GULP energy per Si atom -5591.290963 kJ/mol
# Density = 2.533366 g / cm^3
# Si number density = 25.391455 Si / 1000 Ang^3
#
#
#
# Elastic Constant Matrix: (Units=GPa)
#
#
# Indices 1 2 3 4 5 6 
#
# 1 90.1080 22.4104 -2.5548 -5.4421 10.9788 -6.0966
# 2 22.4104 54.7732 9.5021 -6.3454 0.3651 -5.9522
# 3 -2.5548 9.5021 39.3163 -12.9862 2.9777 -5.8247
# 4 -5.4421 -6.3454 -12.9862 34.3570 -7.0454 -1.5237
# 5 10.9788 0.3651 2.9777 -7.0454 39.9253 3.6064
# 6 -6.0966 -5.9522 -5.8247 -1.5237 3.6064 42.4480
#
#
#
# Elastic Compliance Matrix: (Units=1/GPa)
#
#
# Indices 1 2 3 4 5 6 
#
# 1 0.013265 -0.005576 0.003327 0.001651 -0.003730 0.001956
# 2 -0.005576 0.021747 -0.004981 0.001699 0.001873 0.001467
# 3 0.003327 -0.004981 0.031415 0.011353 -0.001628 0.004636
# 4 0.001651 0.001699 0.011353 0.035046 0.004606 0.002900
# 5 -0.003730 0.001873 -0.001628 0.004606 0.027229 -0.002644
# 6 0.001956 0.001467 0.004636 0.002900 -0.002644 0.025010
#
#
# Mechanical properties :
#
#
# Convention : Reuss Voigt Hill
#
# Bulk Modulus (GPa) = 19.24320 26.99031 23.11675
# Shear Modulus (GPa) = 26.95513 33.66871 30.31192
#
# Velocity S-wave (km/s) = 3.26173 3.64536 3.45887
# Velocity P-wave (km/s) = 4.66693 5.32644 5.00755
#
# Compressibility (1/GPa) = 0.05196641
#
# Stress axis : x y z
#
# Youngs Moduli (GPa) = 75.38360 45.98441 31.83210
#
# Poissons Ratio (x) = 0.25641 -0.10591
# Poissons Ratio (y) = 0.42035 0.15857
# Poissons Ratio (z) = -0.25082 0.22906
#
# Static dielectric constant tensor:
#      x y z
#    x 2.037630 0.016860 0.015240 
#    y 0.016860 2.017780 0.024050 
#    z 0.015240 0.024050 2.011400 
# 
# From -- ./inp_files/321100.got.cif
#   From: 2010.05.17/outbox.cif.g08.bks.cpg/sg2_161_cif.got.tgz:321100.got - 2010.06.03 11:33:40.
