data_PCOD9088721
_publ_section_title
;
Structure prediction by ZEFSAII (Michael W. Deem and Ramdas Pophale) SiO2 
 PCOD9088721
Probable space group: P -1
;
_chemical_formula_sum "Si O2"
_cell_formula_units_Z 16
_cell_length_a 13.644606
_cell_length_b 14.499797
_cell_length_c 11.034936
_cell_angle_alpha 74.737981
_cell_angle_beta 34.374972
_cell_angle_gamma 50.941317
_cell_volume 775.706509
_symmetry_space_group_name_H-M "P -1"
_symmetry_group_IT_number 2
_symmetry_cell_setting 'triclinic'
loop_
_space_group_symop_operation_xyz
x,y,z
-x,-y,-z
loop_
_atom_site_type_symbol
_atom_site_label
_atom_site_fract_x
_atom_site_fract_y
_atom_site_fract_z
Si Si1 0.454905 0.106924 0.916227
Si Si2 0.723786 0.005917 0.416705
Si Si3 0.948129 0.456439 0.917286
Si Si4 0.362131 0.166731 0.514505
Si Si5 0.123586 0.986711 0.093592
Si Si6 0.281274 0.839956 0.226033
Si Si7 0.663202 0.310188 0.576654
Si Si8 0.070026 0.621232 0.786062
O O1 0.507005 0.178961 0.919105
O O2 0.650468 0.025816 0.627357
O O3 0.169269 0.233114 0.099114
O O4 0.500000 0.000000 0.000000
O O5 0.759907 0.886985 0.361809
O O6 0.966346 0.978002 0.173048
O O7 0.481617 0.144428 0.532772
O O8 0.121930 0.339054 0.672629
O O9 0.079604 0.504624 0.788794
O O10 0.632439 0.603106 0.179611
O O11 0.966754 0.369488 0.035471
O O12 0.631412 0.058382 0.197859
O O13 0.267527 0.861197 0.091252
O O14 0.894440 0.152930 0.324986
O O15 0.298629 0.729034 0.306452
O O16 0.000000 0.000000 0.500000
O O17 0.688391 0.410084 0.481899
#
# Coordination Sequence:
#
# PCOD9088721 Si02
#       8
#     2   2   2   2   2   2   2   2
#     4  12  20  37  68 100 127 167 217 273 319 366
#     4  11  22  41  62  93 133 166 214 262 321 375
#     4  11  24  43  62  92 137 167 211 265 319 391
#     4  11  25  41  63  93 132 173 211 258 320 393
#     4  11  23  41  66  98 127 168 212 270 319 377
#     4  10  19  37  62  97 128 154 215 275 309 369
#     4  11  22  40  66  97 125 163 217 268 320 378
#     4  11  23  39  65  94 128 171 212 264 326 373
#
# _framework density 20.626356000000001
#
# number of rings (size 3 to 8) (size 9 to 14) (size 15 to 20)
#    0.000    1.000    5.000    3.750    3.500    1.000 
#    0.000    0.625    0.000    1.500    0.000    0.000 
#    0.000    0.000    0.000    0.000    0.000    0.000 
#
# Total GULP energy -89122.129093 kJ/mol
# GULP energy per Si atom -5570.133068 kJ/mol
# Density = 2.057941 g / cm^3
# Si number density = 20.626356 Si / 1000 Ang^3
#
#
#
# Elastic Constant Matrix: (Units=GPa)
#
#
# Indices 1 2 3 4 5 6 
#
# 1 75.3012 23.9096 15.7714 -9.7152 -13.5417 -4.4467
# 2 23.9096 81.8791 34.7926 -25.0626 0.6520 -4.1500
# 3 15.7714 34.7926 67.1207 3.8187 -2.7134 11.6440
# 4 -9.7152 -25.0626 3.8187 34.2922 0.4545 -4.5163
# 5 -13.5417 0.6520 -2.7134 0.4545 23.5041 -18.0326
# 6 -4.4467 -4.1500 11.6440 -4.5163 -18.0326 36.3213
#
#
#
# Elastic Compliance Matrix: (Units=1/GPa)
#
#
# Indices 1 2 3 4 5 6 
#
# 1 0.022293 0.001539 -0.009159 0.010843 0.027541 0.020863
# 2 0.001539 0.029010 -0.019697 0.026171 0.011841 0.018951
# 3 -0.009159 -0.019697 0.032522 -0.023949 -0.021617 -0.027508
# 4 0.010843 0.026171 -0.023949 0.057934 0.026435 0.032323
# 5 0.027541 0.011841 -0.021617 0.026435 0.107481 0.068304
# 6 0.020863 0.018951 -0.027508 0.032323 0.068304 0.079000
#
#
# Mechanical properties :
#
#
# Convention : Reuss Voigt Hill
#
# Bulk Modulus (GPa) = 34.25693 41.47203 37.86448
# Shear Modulus (GPa) = 12.73544 28.81203 20.77373
#
# Velocity S-wave (km/s) = 2.48752 3.74151 3.17700
# Velocity P-wave (km/s) = 4.98946 6.23018 5.64402
#
# Compressibility (1/GPa) = 0.02919117
#
# Stress axis : x y z
#
# Youngs Moduli (GPa) = 44.85642 34.47030 30.74883
#
# Poissons Ratio (x) = -0.05305 0.28163
# Poissons Ratio (y) = -0.06904 0.60567
# Poissons Ratio (z) = 0.41084 0.67897
#
# Static dielectric constant tensor:
#      x y z
#    x 1.803110 -0.021210 -0.004410 
#    y -0.021210 1.771020 0.009110 
#    z -0.004410 0.009110 1.841840 
# 
# From -- ./inp_files/426673.got.cif
#   From: 2010.05.17/outbox.cif.g08.bks.cpg/sg2_214_cif.got.tgz:426673.got - 2010.06.03 11:33:40.
