data_PCOD9088585
_publ_section_title
;
Structure prediction by ZEFSAII (Michael W. Deem and Ramdas Pophale) SiO2 
 PCOD9088585
Probable space group: P -1
;
_chemical_formula_sum "Si O2"
_cell_formula_units_Z 16
_cell_length_a 7.291218
_cell_length_b 6.155797
_cell_length_c 18.921625
_cell_angle_alpha 54.358128
_cell_angle_beta 121.096500
_cell_angle_gamma 108.855947
_cell_volume 590.695101
_symmetry_space_group_name_H-M "P -1"
_symmetry_group_IT_number 2
_symmetry_cell_setting 'triclinic'
loop_
_space_group_symop_operation_xyz
x,y,z
-x,-y,-z
loop_
_atom_site_type_symbol
_atom_site_label
_atom_site_fract_x
_atom_site_fract_y
_atom_site_fract_z
Si Si1 0.366604 0.694850 0.385118
Si Si2 0.836151 0.057940 0.379454
Si Si3 0.462281 0.015245 0.792903
Si Si4 0.438031 0.243722 0.890991
Si Si5 0.862520 0.476686 0.141416
Si Si6 0.752131 0.748292 0.674198
Si Si7 0.212531 0.347193 0.057350
Si Si8 0.999945 0.435944 0.429902
O O1 0.500000 0.500000 0.500000
O O2 0.360401 0.499409 0.347428
O O3 0.116757 0.655882 0.365435
O O4 0.382106 0.008764 0.362791
O O5 0.650136 0.944327 0.312013
O O6 0.051253 0.125416 0.361851
O O7 0.797898 0.322356 0.367724
O O8 0.859909 0.827151 0.485134
O O9 0.296806 0.785363 0.837241
O O10 0.709303 0.934516 0.846004
O O11 0.472357 0.213832 0.821378
O O12 0.199703 0.339695 0.840135
O O13 0.599092 0.470692 0.908097
O O14 0.500000 0.000000 0.000000
O O15 0.103999 0.385677 0.210344
O O16 0.790314 0.652359 0.027818
O O17 0.000000 0.500000 0.000000
O O18 0.000000 0.500000 0.500000
#
# Coordination Sequence:
#
# PCOD9088585 Si02
#       8
#     2   2   2   2   2   2   2   2
#     4  11  23  41  60  91 124 167 204 256 320 387
#     4   9  20  35  60  94 116 153 209 266 306 361
#     4  10  20  38  61  89 117 158 215 253 308 370
#     4  11  19  37  68  86 113 164 217 261 304 377
#     4  10  21  37  61  90 116 158 213 262 307 368
#     4  10  22  38  65  91 121 160 217 260 309 376
#     4  11  23  39  55  89 131 162 195 258 325 378
#     4  10  19  37  62  85 122 157 200 256 318 363
#
# _framework density 27.086729999999999
#
# number of rings (size 3 to 8) (size 9 to 14) (size 15 to 20)
#    0.000    1.750    3.750    1.125    3.500    2.500 
#    2.250    1.250    0.000    0.000    0.000    0.000 
#    0.000    0.000    0.000    0.000    0.000    0.000 
#
# Total GULP energy -89079.375711 kJ/mol
# GULP energy per Si atom -5567.460982 kJ/mol
# Density = 2.702508 g / cm^3
# Si number density = 27.086730 Si / 1000 Ang^3
#
#
#
# Elastic Constant Matrix: (Units=GPa)
#
#
# Indices 1 2 3 4 5 6 
#
# 1 60.6090 53.4431 7.3627 10.0612 15.8395 -24.8824
# 2 53.4431 163.2164 54.6904 26.2009 10.3750 -28.7783
# 3 7.3627 54.6904 149.0913 16.4302 22.0184 -22.6792
# 4 10.0612 26.2009 16.4302 50.2723 -12.5522 -2.8977
# 5 15.8395 10.3750 22.0184 -12.5522 33.8922 5.0378
# 6 -24.8824 -28.7783 -22.6792 -2.8977 5.0378 50.6496
#
#
#
# Elastic Compliance Matrix: (Units=1/GPa)
#
#
# Indices 1 2 3 4 5 6 
#
# 1 0.046106 -0.009983 0.012228 -0.015543 -0.035929 0.025138
# 2 -0.009983 0.010489 -0.003926 -0.001332 0.003682 -0.001145
# 3 0.012228 -0.003926 0.012647 -0.008257 -0.017377 0.010695
# 4 -0.015543 -0.001332 -0.008257 0.032379 0.026947 -0.012918
# 5 -0.035929 0.003682 -0.017377 0.026947 0.070724 -0.028832
# 6 0.025138 -0.001145 0.010695 -0.012918 -0.028832 0.038360
#
#
# Mechanical properties :
#
#
# Convention : Reuss Voigt Hill
#
# Bulk Modulus (GPa) = 15.17905 67.10100 41.14003
# Shear Modulus (GPa) = 21.18404 44.12419 32.65412
#
# Velocity S-wave (km/s) = 2.79961 4.04046 3.47585
# Velocity P-wave (km/s) = 4.00830 6.82595 5.59732
#
# Compressibility (1/GPa) = 0.06588026
#
# Stress axis : x y z
#
# Youngs Moduli (GPa) = 21.68904 95.33732 79.07293
#
# Poissons Ratio (x) = 0.95175 -0.96690
# Poissons Ratio (y) = 0.21652 0.31042
# Poissons Ratio (z) = -0.26521 0.37427
#
# Static dielectric constant tensor:
#      x y z
#    x 2.366910 0.770270 0.076720 
#    y 0.770270 -2.537050 -0.457980 
#    z 0.076720 -0.457980 2.415660 
# 
# From -- ./inp_files/94436.got.cif
#   From: 2010.05.17/outbox.cif.g08.bks.cpg/sg2_48_cif.got.tgz:94436.got - 2010.06.03 11:33:40.
