data_PCOD9088551
_publ_section_title
;
Structure prediction by ZEFSAII (Michael W. Deem and Ramdas Pophale) SiO2 
 PCOD9088551
Probable space group: P -1
;
_chemical_formula_sum "Si O2"
_cell_formula_units_Z 16
_cell_length_a 12.730077
_cell_length_b 5.807590
_cell_length_c 11.319307
_cell_angle_alpha 62.466918
_cell_angle_beta 95.969207
_cell_angle_gamma 86.205069
_cell_volume 731.826909
_symmetry_space_group_name_H-M "P -1"
_symmetry_group_IT_number 2
_symmetry_cell_setting 'triclinic'
loop_
_space_group_symop_operation_xyz
x,y,z
-x,-y,-z
loop_
_atom_site_type_symbol
_atom_site_label
_atom_site_fract_x
_atom_site_fract_y
_atom_site_fract_z
Si Si1 0.748873 0.451132 0.053131
Si Si2 0.169611 0.044916 0.085399
Si Si3 0.491303 0.686046 0.572059
Si Si4 0.274932 0.731313 0.675164
Si Si5 0.134859 0.265262 0.445332
Si Si6 0.915026 0.524224 0.359461
Si Si7 0.047625 0.914240 0.867092
Si Si8 0.711048 0.472289 0.764656
O O1 0.686231 0.299001 0.176900
O O2 0.869124 0.311477 0.122513
O O3 0.755479 0.755335 0.001050
O O4 0.717038 0.442928 0.914098
O O5 0.243278 0.813044 0.211875
O O6 0.102505 0.938447 0.996361
O O7 0.070931 0.162620 0.127115
O O8 0.500000 0.500000 0.500000
O O9 0.375933 0.674996 0.616998
O O10 0.592135 0.566801 0.689649
O O11 0.500000 0.000000 0.500000
O O12 0.196698 0.513132 0.701927
O O13 0.200840 0.000969 0.567951
O O14 0.115428 0.465336 0.507353
O O15 0.207161 0.349813 0.327394
O O16 0.009498 0.293475 0.389000
O O17 0.950487 0.802712 0.259579
#
# Coordination Sequence:
#
# PCOD9088551 Si02
#       8
#     2   2   2   2   2   2   2   2
#     4  11  24  39  67 103 141 182 236 301 359 440
#     4  10  21  38  63  95 144 187 231 288 353 435
#     4  12  29  53  81 108 143 192 248 306 367 440
#     4  12  25  44  73 100 141 186 242 301 370 426
#     4  11  23  42  65 101 144 185 237 300 356 441
#     4  11  22  39  65 102 144 183 241 294 366 427
#     4  10  19  37  61  97 142 189 231 280 358 433
#     4  11  25  45  70 102 138 189 242 295 364 429
#
# _framework density 21.863094
#
# number of rings (size 3 to 8) (size 9 to 14) (size 15 to 20)
#    0.000    1.000    5.000    1.500    1.750    2.500 
#    0.000    0.625    0.000    0.000    0.000    0.000 
#    0.000    0.000    0.000    0.000    0.000    0.000 
#
# Total GULP energy -89188.296602 kJ/mol
# GULP energy per Si atom -5574.268538 kJ/mol
# Density = 2.181333 g / cm^3
# Si number density = 21.863094 Si / 1000 Ang^3
#
#
#
# Elastic Constant Matrix: (Units=GPa)
#
#
# Indices 1 2 3 4 5 6 
#
# 1 128.3170 34.7584 60.1031 6.1181 7.2624 -24.5982
# 2 34.7584 54.9892 39.0662 -5.8224 1.7601 -14.0229
# 3 60.1031 39.0662 131.0310 -9.4635 3.5454 -12.9929
# 4 6.1181 -5.8224 -9.4635 39.6481 -6.0499 -1.2627
# 5 7.2624 1.7601 3.5454 -6.0499 38.5642 -2.8800
# 6 -24.5982 -14.0229 -12.9929 -1.2627 -2.8800 27.6947
#
#
#
# Elastic Compliance Matrix: (Units=1/GPa)
#
#
# Indices 1 2 3 4 5 6 
#
# 1 0.012211 -0.003341 -0.004121 -0.003413 -0.001790 0.006879
# 2 -0.003341 0.026529 -0.005332 0.003566 0.001083 0.008239
# 3 -0.004121 -0.005332 0.011192 0.002542 0.000318 -0.000961
# 4 -0.003413 0.003566 0.002542 0.027653 0.004713 0.001718
# 5 -0.001790 0.001083 0.000318 0.004713 0.027088 0.002140
# 6 0.006879 0.008239 -0.000961 0.001718 0.002140 0.046240
#
#
# Mechanical properties :
#
#
# Convention : Reuss Voigt Hill
#
# Bulk Modulus (GPa) = 41.07698 64.68804 52.88251
# Shear Modulus (GPa) = 27.08339 33.20870 30.14604
#
# Velocity S-wave (km/s) = 3.52344 3.90158 3.71732
# Velocity P-wave (km/s) = 5.94827 7.06742 6.53186
#
# Compressibility (1/GPa) = 0.02434453
#
# Stress axis : x y z
#
# Youngs Moduli (GPa) = 81.89237 37.69456 89.35335
#
# Poissons Ratio (x) = 0.12592 0.36823
# Poissons Ratio (y) = 0.27357 0.47642
# Poissons Ratio (z) = 0.33749 0.20098
#
# Static dielectric constant tensor:
#      x y z
#    x 1.771230 -0.002470 -0.019160 
#    y -0.002470 1.903060 0.071860 
#    z -0.019160 0.071860 1.921480 
# 
# From -- ./inp_files/70673.got.cif
#   From: 2010.05.17/outbox.cif.g08.bks.cpg/sg2_36_cif.got.tgz:70673.got - 2010.06.03 11:33:40.
