data_PCOD9088573
_publ_section_title
;
Structure prediction by ZEFSAII (Michael W. Deem and Ramdas Pophale) SiO2 
 PCOD9088573
Probable space group: P -1
;
_chemical_formula_sum "Si O2"
_cell_formula_units_Z 16
_cell_length_a 13.361711
_cell_length_b 7.735034
_cell_length_c 12.443438
_cell_angle_alpha 46.822805
_cell_angle_beta 114.896952
_cell_angle_gamma 123.625699
_cell_volume 779.050114
_symmetry_space_group_name_H-M "P -1"
_symmetry_group_IT_number 2
_symmetry_cell_setting 'triclinic'
loop_
_space_group_symop_operation_xyz
x,y,z
-x,-y,-z
loop_
_atom_site_type_symbol
_atom_site_label
_atom_site_fract_x
_atom_site_fract_y
_atom_site_fract_z
Si Si1 0.357922 0.365934 0.498484
Si Si2 0.286282 0.353170 0.242692
Si Si3 0.082756 0.882159 0.334307
Si Si4 0.298129 0.921012 0.027440
Si Si5 0.742320 0.144243 0.194247
Si Si6 0.215385 0.718726 0.294379
Si Si7 0.454402 0.612277 0.031445
Si Si8 0.045628 0.572568 0.667174
O O1 0.500000 0.500000 0.500000
O O2 0.310822 0.244220 0.411819
O O3 0.306267 0.581969 0.406566
O O4 0.313145 0.140245 0.660367
O O5 0.315026 0.652070 0.153096
O O6 0.144727 0.191399 0.222293
O O7 0.381191 0.384174 0.178508
O O8 0.191424 0.824825 0.351987
O O9 0.058320 0.771203 0.490560
O O10 0.972780 0.698385 0.287256
O O11 0.247956 0.922599 0.124015
O O12 0.424710 0.161467 0.964344
O O13 0.220631 0.884057 0.899898
O O14 0.640146 0.261111 0.095423
O O15 0.849088 0.320321 0.245343
O O16 0.082797 0.497063 0.303967
O O17 0.500000 0.500000 0.000000
#
# Coordination Sequence:
#
# PCOD9088573 Si02
#       8
#     2   2   2   2   2   2   2   2
#     4  11  21  36  58  93 117 154 202 253 293 358
#     4  10  19  37  62  83 119 163 192 241 313 346
#     4   9  18  40  60  86 123 163 197 245 306 347
#     4  10  21  39  59  89 122 158 193 248 302 367
#     4  11  21  39  60  89 123 153 206 250 296 350
#     4   9  20  38  63  81 125 159 197 236 312 349
#     4  11  23  41  63  84 123 163 196 243 315 363
#     4   9  20  38  63  86 125 157 203 252 294 349
#
# _framework density 20.537831000000001
#
# number of rings (size 3 to 8) (size 9 to 14) (size 15 to 20)
#    0.750    1.250    1.250    4.500    0.000    1.000 
#    4.500    3.750    0.000    0.000    0.000    0.000 
#    0.000    0.000    0.000    0.000    0.000    0.000 
#
# Total GULP energy -89074.634257 kJ/mol
# GULP energy per Si atom -5567.164641 kJ/mol
# Density = 2.049109 g / cm^3
# Si number density = 20.537831 Si / 1000 Ang^3
#
#
#
# Elastic Constant Matrix: (Units=GPa)
#
#
# Indices 1 2 3 4 5 6 
#
# 1 -2.0310 -5.4590 19.0220 -1.6288 -15.6599 7.4582
# 2 -5.4590 96.1675 1.1454 4.4192 3.3016 27.1537
# 3 19.0220 1.1454 83.3568 1.3526 -15.7259 7.8303
# 4 -1.6288 4.4192 1.3526 29.8538 9.6155 -2.8473
# 5 -15.6599 3.3016 -15.7259 9.6155 25.9889 -2.5197
# 6 7.4582 27.1537 7.8303 -2.8473 -2.5197 33.8478
#
#
#
# Elastic Compliance Matrix: (Units=1/GPa)
#
#
# Indices 1 2 3 4 5 6 
#
# 1 -0.066284 -0.008075 0.006323 0.011050 -0.037455 0.017762
# 2 -0.008075 0.012856 0.001434 -0.001362 -0.006041 -0.009430
# 3 0.006323 0.001434 0.013615 -0.005263 0.013315 -0.005145
# 4 0.011050 -0.001362 -0.005263 0.038048 -0.010206 0.002316
# 5 -0.037455 -0.006041 0.013315 -0.010206 0.029611 0.011365
# 6 0.017762 -0.009430 -0.005145 0.002316 0.011365 0.035426
#
#
# Mechanical properties :
#
#
# Convention : Reuss Voigt Hill
#
# Bulk Modulus (GPa) = -24.72211 22.99001 -0.86605
# Shear Modulus (GPa) = 99.16029 28.79044 63.97536
#
# Velocity S-wave (km/s) = 6.95605 3.74816 5.58727
# Velocity P-wave (km/s) = 7.24237 5.47265 6.41879
#
# Compressibility (1/GPa) = -0.04044963
#
# Stress axis : x y z
#
# Youngs Moduli (GPa) = -15.08654 77.78666 73.45068
#
# Poissons Ratio (x) = 0.62814 -0.46443
# Poissons Ratio (y) = -0.12183 -0.10535
# Poissons Ratio (z) = 0.09539 -0.11157
#
# Static dielectric constant tensor:
#      x y z
#    x 1.759900 -0.027420 -0.041770 
#    y -0.027420 1.842340 0.020310 
#    z -0.041770 0.020310 1.761920 
# 
# From -- ./inp_files/445567.got.cif
#   From: 2010.05.17/outbox.cif.g08.bks.cpg/sg2_223_cif.got.tgz:445567.got - 2010.06.03 11:33:40.
