data_PCOD9088710
_publ_section_title
;
Structure prediction by ZEFSAII (Michael W. Deem and Ramdas Pophale) SiO2 
 PCOD9088710
Probable space group: P -1
;
_chemical_formula_sum "Si O2"
_cell_formula_units_Z 16
_cell_length_a 9.302047
_cell_length_b 15.301934
_cell_length_c 7.566171
_cell_angle_alpha 44.901524
_cell_angle_beta 71.284453
_cell_angle_gamma 79.304861
_cell_volume 718.618743
_symmetry_space_group_name_H-M "P -1"
_symmetry_group_IT_number 2
_symmetry_cell_setting 'triclinic'
loop_
_space_group_symop_operation_xyz
x,y,z
-x,-y,-z
loop_
_atom_site_type_symbol
_atom_site_label
_atom_site_fract_x
_atom_site_fract_y
_atom_site_fract_z
Si Si1 0.660239 0.915372 0.367369
Si Si2 0.833788 0.308228 0.362600
Si Si3 0.133807 0.307043 0.433606
Si Si4 0.660192 0.458441 0.917673
Si Si5 0.108652 0.975364 0.328353
Si Si6 0.104873 0.887145 0.014848
Si Si7 0.660402 0.281619 0.845338
Si Si8 0.402409 0.065631 0.225192
O O1 0.729377 0.782627 0.531304
O O2 0.654029 0.948537 0.530346
O O3 0.493760 0.942919 0.324312
O O4 0.763708 0.023269 0.073359
O O5 0.743333 0.377045 0.149013
O O6 0.844989 0.164381 0.509791
O O7 0.740497 0.317149 0.573743
O O8 0.014284 0.348751 0.269929
O O9 0.017754 0.215856 0.718867
O O10 0.218137 0.424684 0.323747
O O11 0.500000 0.500000 0.000000
O O12 0.630210 0.388657 0.842832
O O13 0.256606 0.067514 0.157915
O O14 0.000000 0.000000 0.500000
O O15 0.991968 0.008763 0.177661
O O16 0.215795 0.800681 0.987365
O O17 0.512513 0.189821 0.998393
#
# Coordination Sequence:
#
# PCOD9088710 Si02
#       8
#     2   2   2   2   2   2   2   2
#     4  10  19  37  62  95 132 178 218 277 352 404
#     4  11  26  44  71 101 141 180 233 290 339 409
#     4  11  23  43  68  97 134 179 233 283 339 411
#     4  12  28  47  72  95 136 193 239 282 342 404
#     4  12  22  38  66 108 139 180 224 280 353 421
#     4  10  21  38  69  98 136 172 219 286 348 409
#     4  10  25  47  67 104 139 181 235 283 339 416
#     4  10  22  35  64  96 143 175 214 283 346 407
#
# _framework density 22.264938999999998
#
# number of rings (size 3 to 8) (size 9 to 14) (size 15 to 20)
#    0.000    1.250    2.500    2.250    8.750    4.000 
#    0.000    3.750    0.000    0.000    0.000    0.000 
#    0.000    0.000    0.000    0.000    0.000    0.000 
#
# Total GULP energy -89138.937475 kJ/mol
# GULP energy per Si atom -5571.183592 kJ/mol
# Density = 2.221426 g / cm^3
# Si number density = 22.264939 Si / 1000 Ang^3
#
#
#
# Elastic Constant Matrix: (Units=GPa)
#
#
# Indices 1 2 3 4 5 6 
#
# 1 137.8551 49.2890 27.3418 -21.4332 -15.5911 2.6049
# 2 49.2890 142.5721 39.2174 -9.6625 -11.5759 -7.8131
# 3 27.3418 39.2174 76.9633 -14.1827 -5.4704 5.0836
# 4 -21.4332 -9.6625 -14.1827 28.0759 -1.5999 0.5158
# 5 -15.5911 -11.5759 -5.4704 -1.5999 36.2728 -6.5967
# 6 2.6049 -7.8131 5.0836 0.5158 -6.5967 34.1868
#
#
#
# Elastic Compliance Matrix: (Units=1/GPa)
#
#
# Indices 1 2 3 4 5 6 
#
# 1 0.009670 -0.002470 -0.000716 0.006377 0.003427 -0.000630
# 2 -0.002470 0.009266 -0.004059 -0.000702 0.001848 0.003277
# 3 -0.000716 -0.004059 0.016805 0.006642 0.000614 -0.003354
# 4 0.006377 -0.000702 0.006642 0.043921 0.005222 -0.001289
# 5 0.003427 0.001848 0.000614 0.005222 0.031043 0.005981
# 6 -0.000630 0.003277 -0.003354 -0.001289 0.005981 0.031720
#
#
# Mechanical properties :
#
#
# Convention : Reuss Voigt Hill
#
# Bulk Modulus (GPa) = 47.05586 65.45412 56.25499
# Shear Modulus (GPa) = 30.48787 35.80991 33.14889
#
# Velocity S-wave (km/s) = 3.70445 4.01478 3.86273
# Velocity P-wave (km/s) = 6.28312 7.13813 6.72423
#
# Compressibility (1/GPa) = 0.02125134
#
# Stress axis : x y z
#
# Youngs Moduli (GPa) = 103.41012 107.91607 59.50613
#
# Poissons Ratio (x) = 0.26657 0.04263
# Poissons Ratio (y) = 0.25544 0.24151
# Poissons Ratio (z) = 0.07408 0.43799
#
# Static dielectric constant tensor:
#      x y z
#    x 1.811710 -0.124560 -0.005170 
#    y -0.124560 0.574740 -0.353980 
#    z -0.005170 -0.353980 1.756590 
# 
# From -- ./inp_files/205065.got.cif
#   From: 2010.05.17/outbox.cif.g08.bks.cpg/sg2_103_cif.got.tgz:205065.got - 2010.06.03 11:33:40.
