data_PCOD9088364
_publ_section_title
;
Structure prediction by ZEFSAII (Michael W. Deem and Ramdas Pophale) SiO2 
 PCOD9088364
Probable space group: P -1
;
_chemical_formula_sum "Si O2"
_cell_formula_units_Z 16
_cell_length_a 5.130335
_cell_length_b 20.950952
_cell_length_c 9.695176
_cell_angle_alpha 48.912413
_cell_angle_beta 105.510002
_cell_angle_gamma 99.794087
_cell_volume 756.804052
_symmetry_space_group_name_H-M "P -1"
_symmetry_group_IT_number 2
_symmetry_cell_setting 'triclinic'
loop_
_space_group_symop_operation_xyz
x,y,z
-x,-y,-z
loop_
_atom_site_type_symbol
_atom_site_label
_atom_site_fract_x
_atom_site_fract_y
_atom_site_fract_z
Si Si1 0.819038 0.397067 0.723156
Si Si2 0.779293 0.587736 0.495525
Si Si3 0.484276 0.175748 0.519030
Si Si4 0.252075 0.781817 0.943061
Si Si5 0.806873 0.021364 0.816913
Si Si6 0.822430 0.833516 0.035166
Si Si7 0.977325 0.913460 0.534332
Si Si8 0.961540 0.742625 0.469799
O O1 0.811907 0.487524 0.668971
O O2 0.537648 0.392556 0.602877
O O3 0.060668 0.395875 0.648144
O O4 0.838485 0.315512 0.939122
O O5 0.909441 0.648078 0.542566
O O6 0.588627 0.090985 0.733376
O O7 0.315947 0.131122 0.435686
O O8 0.264975 0.229623 0.494072
O O9 0.744947 0.235145 0.459715
O O10 0.568742 0.780843 0.021321
O O11 0.079259 0.822166 0.988114
O O12 0.181519 0.842874 0.720701
O O13 0.955143 0.063043 0.647316
O O14 0.710486 0.929647 0.885165
O O15 0.000000 0.000000 0.000000
O O16 0.911876 0.800481 0.244381
O O17 0.000000 0.000000 0.500000
#
# Coordination Sequence:
#
# PCOD9088364 Si02
#       8
#     2   2   2   2   2   2   2   2
#     4  10  19  37  61 101 132 168 211 269 332 394
#     4  10  20  35  65  97 136 163 211 275 334 384
#     4  12  26  43  63  92 125 179 220 269 323 397
#     4  12  24  40  65  93 134 173 214 266 330 399
#     4  12  26  44  65  95 129 171 225 280 320 384
#     4  12  24  38  64  95 128 172 217 267 328 382
#     4  12  27  46  67  94 134 181 224 273 331 391
#     4  12  22  41  65  95 133 167 218 271 336 382
#
# _framework density 21.141535000000001
#
# number of rings (size 3 to 8) (size 9 to 14) (size 15 to 20)
#    0.000    0.500    6.250    2.250    1.750    2.000 
#    0.000    0.000    0.000    1.500    0.000    0.000 
#    0.000    0.000    0.000    0.000    0.000    0.000 
#
# Total GULP energy -89442.006946 kJ/mol
# GULP energy per Si atom -5590.125434 kJ/mol
# Density = 2.109342 g / cm^3
# Si number density = 21.141535 Si / 1000 Ang^3
#
#
#
# Elastic Constant Matrix: (Units=GPa)
#
#
# Indices 1 2 3 4 5 6 
#
# 1 115.8365 29.7605 17.9069 11.2867 4.2481 10.3000
# 2 29.7605 154.9935 33.4695 -24.9122 1.6000 17.8783
# 3 17.9069 33.4695 77.4502 -12.2311 -6.2692 2.1608
# 4 11.2867 -24.9122 -12.2311 38.1334 3.2053 0.7332
# 5 4.2481 1.6000 -6.2692 3.2053 24.8435 -0.1513
# 6 10.3000 17.8783 2.1608 0.7332 -0.1513 28.9027
#
#
#
# Elastic Compliance Matrix: (Units=1/GPa)
#
#
# Indices 1 2 3 4 5 6 
#
# 1 0.010231 -0.001983 -0.002353 -0.004903 -0.001596 -0.002128
# 2 -0.001983 0.008862 -0.002452 0.005818 -0.001630 -0.004748
# 3 -0.002353 -0.002452 0.015385 0.003674 0.003976 0.001132
# 4 -0.004903 0.005818 0.003674 0.032953 -0.002879 -0.002977
# 5 -0.001596 -0.001630 0.003976 -0.002879 0.042014 0.001573
# 6 -0.002128 -0.004748 0.001132 -0.002977 0.001573 0.038293
#
#
# Mechanical properties :
#
#
# Convention : Reuss Voigt Hill
#
# Bulk Modulus (GPa) = 47.83821 56.72823 52.28322
# Shear Modulus (GPa) = 29.71212 36.18547 32.94879
#
# Velocity S-wave (km/s) = 3.75292 4.14162 3.95205
# Velocity P-wave (km/s) = 6.43863 7.05418 6.75342
#
# Compressibility (1/GPa) = 0.02090379
#
# Stress axis : x y z
#
# Youngs Moduli (GPa) = 97.73789 112.84642 64.99666
#
# Poissons Ratio (x) = 0.22373 0.15293
# Poissons Ratio (y) = 0.19378 0.15936
# Poissons Ratio (z) = 0.22997 0.27667
#
# Static dielectric constant tensor:
#      x y z
#    x 1.799390 0.011400 -0.006380 
#    y 0.011400 1.814510 -0.007680 
#    z -0.006380 -0.007680 1.766880 
# 
# From -- ./inp_files/140522.got.cif
#   From: 2010.05.17/outbox.cif.g08.bks.cpg/sg2_71_cif.got.tgz:140522.got - 2010.06.03 11:33:40.
