data_PCOD9088357
_publ_section_title
;
Structure prediction by ZEFSAII (Michael W. Deem and Ramdas Pophale) SiO2 
 PCOD9088357
Probable space group: P -1
;
_chemical_formula_sum "Si O2"
_cell_formula_units_Z 16
_cell_length_a 5.526037
_cell_length_b 12.792312
_cell_length_c 9.531017
_cell_angle_alpha 86.231936
_cell_angle_beta 96.090147
_cell_angle_gamma 116.069632
_cell_volume 601.654506
_symmetry_space_group_name_H-M "P -1"
_symmetry_group_IT_number 2
_symmetry_cell_setting 'triclinic'
loop_
_space_group_symop_operation_xyz
x,y,z
-x,-y,-z
loop_
_atom_site_type_symbol
_atom_site_label
_atom_site_fract_x
_atom_site_fract_y
_atom_site_fract_z
Si Si1 0.105138 0.144354 0.241400
Si Si2 0.912840 0.088352 0.808493
Si Si3 0.176069 0.460222 0.116388
Si Si4 0.725624 0.265072 0.266620
Si Si5 0.655066 0.225920 0.794561
Si Si6 0.815039 0.801671 0.444959
Si Si7 0.034679 0.629735 0.453374
Si Si8 0.385254 0.318264 0.941764
O O1 0.416900 0.229093 0.205787
O O2 0.150875 0.136730 0.410996
O O3 0.861195 0.182498 0.226814
O O4 0.046192 0.025905 0.168078
O O5 0.646173 0.099976 0.833878
O O6 0.925022 0.122136 0.641406
O O7 0.126338 0.202309 0.891998
O O8 0.456656 0.570452 0.163817
O O9 0.960034 0.389938 0.225493
O O10 0.281470 0.378086 0.047389
O O11 0.000000 0.500000 0.000000
O O12 0.733793 0.281902 0.434528
O O13 0.410878 0.202268 0.675489
O O14 0.615010 0.271750 0.939337
O O15 0.892099 0.329244 0.708782
O O16 0.801164 0.672089 0.472988
O O17 0.000000 0.500000 0.500000
#
# Coordination Sequence:
#
# PCOD9088357 Si02
#       8
#     2   2   2   2   2   2   2   2
#     4  11  24  44  66 101 142 184 220 280 332 407
#     4  10  22  39  68  96 137 178 227 270 331 400
#     4  11  25  47  73  92 127 174 227 290 336 411
#     4  11  26  44  68 100 137 176 229 274 354 395
#     4  10  19  37  60  98 129 170 222 270 322 400
#     4   9  20  37  59  97 135 182 226 261 327 399
#     4  10  20  37  58  93 136 175 215 275 336 396
#     4  10  23  41  69  97 126 166 234 274 339 392
#
# _framework density 26.593333000000001
#
# number of rings (size 3 to 8) (size 9 to 14) (size 15 to 20)
#    0.000    1.750    1.250    1.875    7.000    3.000 
#    0.000    1.250    0.000    0.000    0.000    0.000 
#    0.000    0.000    0.000    0.000    0.000    0.000 
#
# Total GULP energy -89094.378202 kJ/mol
# GULP energy per Si atom -5568.398638 kJ/mol
# Density = 2.653281 g / cm^3
# Si number density = 26.593333 Si / 1000 Ang^3
#
#
#
# Elastic Constant Matrix: (Units=GPa)
#
#
# Indices 1 2 3 4 5 6 
#
# 1 109.3156 54.6659 15.7815 13.8460 5.9004 -33.6852
# 2 54.6659 125.6518 26.5560 25.4265 7.4957 -34.6568
# 3 15.7815 26.5560 68.8680 9.2590 -21.4470 -10.5446
# 4 13.8460 25.4265 9.2590 36.2101 -2.6755 -8.8937
# 5 5.9004 7.4957 -21.4470 -2.6755 53.2151 -0.8615
# 6 -33.6852 -34.6568 -10.5446 -8.8937 -0.8615 54.4877
#
#
#
# Elastic Compliance Matrix: (Units=1/GPa)
#
#
# Indices 1 2 3 4 5 6 
#
# 1 0.012961 -0.003710 -0.001008 -0.000888 -0.001280 0.005293
# 2 -0.003710 0.012873 -0.003648 -0.005891 -0.003100 0.004178
# 3 -0.001008 -0.003648 0.018976 -0.001132 0.008227 0.000674
# 4 -0.000888 -0.005891 -0.001132 0.032752 0.002133 0.000865
# 5 -0.001280 -0.003100 0.008227 0.002133 0.022786 -0.000463
# 6 0.005293 0.004178 0.000674 0.000865 -0.000463 0.024546
#
#
# Mechanical properties :
#
#
# Convention : Reuss Voigt Hill
#
# Bulk Modulus (GPa) = 35.61527 55.31580 45.46554
# Shear Modulus (GPa) = 33.11597 42.57140 37.84368
#
# Velocity S-wave (km/s) = 3.53267 4.00538 3.77643
# Velocity P-wave (km/s) = 5.48282 6.49896 6.01240
#
# Compressibility (1/GPa) = 0.02807784
#
# Stress axis : x y z
#
# Youngs Moduli (GPa) = 77.15378 77.68382 52.69907
#
# Poissons Ratio (x) = 0.28820 0.05314
# Poissons Ratio (y) = 0.28623 0.19222
# Poissons Ratio (z) = 0.07780 0.28335
#
# Static dielectric constant tensor:
#      x y z
#    x 2.370880 0.057780 -0.068340 
#    y 0.057780 2.171680 -0.096800 
#    z -0.068340 -0.096800 2.189270 
# 
# From -- ./inp_files/127410.got.cif
#   From: 2010.05.17/outbox.cif.g08.bks.cpg/sg2_64_cif.got.tgz:127410.got - 2010.06.03 11:33:40.
