data_PCOD9088943
_publ_section_title
;
Structure prediction by ZEFSAII (Michael W. Deem and Ramdas Pophale) SiO2 
 PCOD9088943
Probable space group: P -1
;
_chemical_formula_sum "Si O2"
_cell_formula_units_Z 16
_cell_length_a 7.131439
_cell_length_b 18.470842
_cell_length_c 7.499802
_cell_angle_alpha 131.572178
_cell_angle_beta 58.557546
_cell_angle_gamma 111.766251
_cell_volume 630.076193
_symmetry_space_group_name_H-M "P -1"
_symmetry_group_IT_number 2
_symmetry_cell_setting 'triclinic'
loop_
_space_group_symop_operation_xyz
x,y,z
-x,-y,-z
loop_
_atom_site_type_symbol
_atom_site_label
_atom_site_fract_x
_atom_site_fract_y
_atom_site_fract_z
Si Si1 0.514624 0.886436 0.828830
Si Si2 0.982314 0.893691 0.431399
Si Si3 0.413424 0.557786 0.967307
Si Si4 0.447970 0.890648 0.293045
Si Si5 0.769359 0.637495 0.337409
Si Si6 0.891786 0.308244 0.049004
Si Si7 0.390334 0.297237 0.125060
Si Si8 0.699856 0.298679 0.479345
O O1 0.756294 0.872283 0.608825
O O2 0.332885 0.818118 0.704781
O O3 0.488690 0.874966 0.035454
O O4 0.500000 0.000000 0.000000
O O5 0.188264 0.882964 0.445349
O O6 0.026956 0.800827 0.137125
O O7 0.000000 0.000000 0.500000
O O8 0.271818 0.644501 0.258061
O O9 0.500000 0.500000 0.000000
O O10 0.282065 0.476489 0.786033
O O11 0.614308 0.611677 0.854321
O O12 0.500000 0.000000 0.500000
O O13 0.594274 0.805005 0.153896
O O14 0.779073 0.694331 0.614327
O O15 0.545716 0.677036 0.427041
O O16 0.949914 0.648465 0.111035
O O17 0.641862 0.310127 0.100094
O O18 0.863842 0.343801 0.322776
#
# Coordination Sequence:
#
# PCOD9088943 Si02
#       8
#     2   2   2   2   2   2   2   2
#     4  12  21  38  67  90 124 171 207 251 312 373
#     4  11  20  37  63  92 122 167 214 243 306 382
#     4  10  23  38  62  91 121 161 204 259 313 369
#     4  11  24  40  61  96 127 166 206 264 312 365
#     4  10  19  39  63  84 114 163 202 252 312 367
#     4  10  19  37  64  86 118 161 208 250 312 374
#     4  10  21  41  61  86 125 159 207 254 311 376
#     4  10  20  38  59  90 123 157 202 257 306 367
#
# _framework density 25.393754000000001
#
# number of rings (size 3 to 8) (size 9 to 14) (size 15 to 20)
#    0.000    1.500    6.250    0.375    1.750    1.500 
#    0.000    2.500    0.000    0.000    0.000    0.000 
#    0.000    0.000    0.000    0.000    0.000    0.000 
#
# Total GULP energy -89302.551696 kJ/mol
# GULP energy per Si atom -5581.409481 kJ/mol
# Density = 2.533596 g / cm^3
# Si number density = 25.393754 Si / 1000 Ang^3
#
#
#
# Elastic Constant Matrix: (Units=GPa)
#
#
# Indices 1 2 3 4 5 6 
#
# 1 57.4604 7.9094 13.1027 -10.5464 -10.8308 -2.1320
# 2 7.9094 155.5939 49.3592 -5.9970 -5.1372 6.5919
# 3 13.1027 49.3592 121.6176 -11.6067 7.6931 20.2771
# 4 -10.5464 -5.9970 -11.6067 65.9211 11.3053 -8.6245
# 5 -10.8308 -5.1372 7.6931 11.3053 30.6087 -9.4715
# 6 -2.1320 6.5919 20.2771 -8.6245 -9.4715 31.4048
#
#
#
# Elastic Compliance Matrix: (Units=1/GPa)
#
#
# Indices 1 2 3 4 5 6 
#
# 1 0.020821 0.000326 -0.004091 0.001899 0.010085 0.007549
# 2 0.000326 0.007559 -0.003552 -0.000168 0.002812 0.001531
# 3 -0.004091 -0.003552 0.012426 0.001425 -0.008724 -0.009795
# 4 0.001899 -0.000168 0.001425 0.016910 -0.005247 0.002306
# 5 0.010085 0.002812 -0.008724 -0.005247 0.046508 0.018313
# 6 0.007549 0.001531 -0.009795 0.002306 0.018313 0.044514
#
#
# Mechanical properties :
#
#
# Convention : Reuss Voigt Hill
#
# Bulk Modulus (GPa) = 38.21031 52.82385 45.51708
# Shear Modulus (GPa) = 29.05355 43.20696 36.13025
#
# Velocity S-wave (km/s) = 3.38616 4.12937 3.77610
# Velocity P-wave (km/s) = 5.51071 6.60172 6.08073
#
# Compressibility (1/GPa) = 0.02617095
#
# Stress axis : x y z
#
# Youngs Moduli (GPa) = 48.02887 132.29665 80.47808
#
# Poissons Ratio (x) = -0.04308 0.32922
# Poissons Ratio (y) = -0.01564 0.28586
# Poissons Ratio (z) = 0.19648 0.46992
#
# Static dielectric constant tensor:
#      x y z
#    x 2.265490 -0.079390 0.113230 
#    y -0.079390 2.147590 0.065150 
#    z 0.113230 0.065150 2.179870 
# 
# From -- ./inp_files/224192.got.cif
#   From: 2010.05.17/outbox.cif.g08.bks.cpg/sg2_113_cif.got.tgz:224192.got - 2010.06.03 11:33:40.
