data_PCOD9088877
_publ_section_title
;
Structure prediction by ZEFSAII (Michael W. Deem and Ramdas Pophale) SiO2 
 PCOD9088877
Probable space group: P -1
;
_chemical_formula_sum "Si O2"
_cell_formula_units_Z 16
_cell_length_a 13.176403
_cell_length_b 12.149132
_cell_length_c 8.386036
_cell_angle_alpha 93.802981
_cell_angle_beta 76.619969
_cell_angle_gamma 145.682503
_cell_volume 716.987709
_symmetry_space_group_name_H-M "P -1"
_symmetry_group_IT_number 2
_symmetry_cell_setting 'triclinic'
loop_
_space_group_symop_operation_xyz
x,y,z
-x,-y,-z
loop_
_atom_site_type_symbol
_atom_site_label
_atom_site_fract_x
_atom_site_fract_y
_atom_site_fract_z
Si Si1 0.890155 0.311871 0.620459
Si Si2 0.606876 0.743924 0.579044
Si Si3 0.012053 0.185017 0.491185
Si Si4 0.372918 0.124714 0.916744
Si Si5 0.024938 0.281545 0.835225
Si Si6 0.569669 0.487723 0.713851
Si Si7 0.382234 0.713099 0.852849
Si Si8 0.470598 0.002842 0.695055
O O1 0.922447 0.227332 0.501618
O O2 0.968842 0.344031 0.766204
O O3 0.000000 0.500000 0.500000
O O4 0.678524 0.165998 0.706915
O O5 0.553028 0.604251 0.716717
O O6 0.509393 0.626540 0.438038
O O7 0.524256 0.785385 0.676971
O O8 0.835180 0.948641 0.502623
O O9 0.067491 0.237758 0.665469
O O10 0.205950 0.340085 0.341149
O O11 0.448856 0.313215 0.868097
O O12 0.404287 0.068552 0.753433
O O13 0.501831 0.188767 0.017186
O O14 0.155292 0.925958 0.028985
O O15 0.201292 0.473132 0.895513
O O16 0.339804 0.798651 0.814407
O O17 0.500000 0.000000 0.500000
#
# Coordination Sequence:
#
# PCOD9088877 Si02
#       8
#     2   2   2   2   2   2   2   2
#     4  10  19  37  63  93 126 169 213 261 311 387
#     4  11  21  44  71  93 130 171 223 264 319 379
#     4  10  20  41  66  93 129 167 220 260 321 379
#     4  12  26  44  62 100 134 164 218 267 328 384
#     4  10  23  41  65  91 134 171 211 264 325 382
#     4  11  25  40  69 100 126 172 221 269 314 387
#     4  12  22  44  65  93 132 176 206 269 327 376
#     4  12  24  41  67  93 131 171 211 266 319 384
#
# _framework density 22.315587000000001
#
# number of rings (size 3 to 8) (size 9 to 14) (size 15 to 20)
#    0.750    0.250    5.000    3.000    0.000    2.000 
#    2.250    0.625    0.000    0.000    0.000    0.000 
#    0.000    0.000    0.000    0.000    0.000    0.000 
#
# Total GULP energy -89372.017208 kJ/mol
# GULP energy per Si atom -5585.751075 kJ/mol
# Density = 2.226480 g / cm^3
# Si number density = 22.315587 Si / 1000 Ang^3
#
#
#
# Elastic Constant Matrix: (Units=GPa)
#
#
# Indices 1 2 3 4 5 6 
#
# 1 36.4216 18.3135 -3.0142 -21.5803 0.0074 -4.0252
# 2 18.3135 119.5184 24.7243 -37.7767 3.8479 15.6485
# 3 -3.0142 24.7243 54.8286 -22.1630 7.1030 3.2386
# 4 -21.5803 -37.7767 -22.1630 47.0788 -6.4489 3.4744
# 5 0.0074 3.8479 7.1030 -6.4489 23.7697 -12.0089
# 6 -4.0252 15.6485 3.2386 3.4744 -12.0089 41.1998
#
#
#
# Elastic Compliance Matrix: (Units=1/GPa)
#
#
# Indices 1 2 3 4 5 6 
#
# 1 0.045058 -0.002167 0.012837 0.025407 0.005208 0.003592
# 2 -0.002167 0.012632 -0.001706 0.008473 -0.002416 -0.006294
# 3 0.012837 -0.001706 0.027388 0.016971 -0.004876 -0.003103
# 4 0.025407 0.008473 0.016971 0.048621 0.004249 -0.004932
# 5 0.005208 -0.002416 -0.004876 0.004249 0.053712 0.017107
# 6 0.003592 -0.006294 -0.003103 -0.004932 0.017107 0.032660
#
#
# Mechanical properties :
#
#
# Convention : Reuss Voigt Hill
#
# Bulk Modulus (GPa) = 9.70802 32.31288 21.01045
# Shear Modulus (GPa) = 21.14359 33.79266 27.46813
#
# Velocity S-wave (km/s) = 3.08146 3.89563 3.51222
# Velocity P-wave (km/s) = 4.12556 5.89457 5.08755
#
# Compressibility (1/GPa) = 0.10300761
#
# Stress axis : x y z
#
# Youngs Moduli (GPa) = 22.19356 79.16501 36.51194
#
# Poissons Ratio (x) = 0.17157 -0.46872
# Poissons Ratio (y) = 0.04810 0.06227
# Poissons Ratio (z) = -0.28491 0.13502
#
# Static dielectric constant tensor:
#      x y z
#    x 1.845710 0.002040 0.063990 
#    y 0.002040 1.862920 0.020790 
#    z 0.063990 0.020790 1.890560 
# 
# From -- ./inp_files/307549.got.cif
#   From: 2010.05.17/outbox.cif.g08.bks.cpg/sg2_154_cif.got.tgz:307549.got - 2010.06.03 11:33:40.
