data_PCOD9088103
_publ_section_title
;
Structure prediction by ZEFSAII (Michael W. Deem and Ramdas Pophale) SiO2 
 PCOD9088103
Probable space group: P -1
;
_chemical_formula_sum "Si O2"
_cell_formula_units_Z 16
_cell_length_a 14.050315
_cell_length_b 17.543163
_cell_length_c 9.916523
_cell_angle_alpha 137.157799
_cell_angle_beta 30.163680
_cell_angle_gamma 127.447344
_cell_volume 832.740543
_symmetry_space_group_name_H-M "P -1"
_symmetry_group_IT_number 2
_symmetry_cell_setting 'triclinic'
loop_
_space_group_symop_operation_xyz
x,y,z
-x,-y,-z
loop_
_atom_site_type_symbol
_atom_site_label
_atom_site_fract_x
_atom_site_fract_y
_atom_site_fract_z
Si Si1 0.787099 0.206540 0.459634
Si Si2 0.045604 0.099878 0.475989
Si Si3 0.644737 0.729335 0.982823
Si Si4 0.300137 0.287171 0.430540
Si Si5 0.287963 0.768849 0.098852
Si Si6 0.847995 0.470503 0.035826
Si Si7 0.958316 0.600101 0.577126
Si Si8 0.723024 0.967533 0.153814
O O1 0.756813 0.215756 0.668576
O O2 0.942842 0.292152 0.345846
O O3 0.829808 0.075043 0.206407
O O4 0.582179 0.246884 0.696523
O O5 0.126126 0.213340 0.583551
O O6 0.853171 0.143454 0.692055
O O7 0.210127 0.055362 0.111138
O O8 0.000000 0.000000 0.500000
O O9 0.684368 0.703664 0.741201
O O10 0.743130 0.637659 0.843671
O O11 0.749740 0.844414 0.028231
O O12 0.282055 0.414260 0.670214
O O13 0.488682 0.221889 0.173664
O O14 0.248163 0.640926 0.945060
O O15 0.942648 0.437402 0.734196
O O16 0.000000 0.500000 0.000000
O O17 0.000000 0.500000 0.500000
O O18 0.500000 0.000000 0.500000
#
# Coordination Sequence:
#
# PCOD9088103 Si02
#       8
#     2   2   2   2   2   2   2   2
#     4   9  19  36  57  81 106 145 193 233 280 338
#     4  11  23  37  55  87 124 154 187 243 300 343
#     4   9  18  35  58  79 108 143 187 241 278 332
#     4  10  19  37  59  83 111 148 200 242 281 347
#     4  10  21  36  60  86 110 150 200 242 286 345
#     4  11  18  37  63  81 106 153 202 237 284 350
#     4  11  23  35  51  84 117 144 183 235 291 339
#     4   9  18  37  63  84 105 151 201 233 283 350
#
# _framework density 19.213667999999998
#
# number of rings (size 3 to 8) (size 9 to 14) (size 15 to 20)
#    0.000    2.000    2.500    3.375    0.000    4.000 
#    0.000    2.500    0.000    0.000    0.000    0.000 
#    0.000    0.000    0.000    0.000    0.000    0.000 
#
# Total GULP energy -89162.806641 kJ/mol
# GULP energy per Si atom -5572.675415 kJ/mol
# Density = 1.916994 g / cm^3
# Si number density = 19.213668 Si / 1000 Ang^3
#
#
#
# Elastic Constant Matrix: (Units=GPa)
#
#
# Indices 1 2 3 4 5 6 
#
# 1 83.3300 45.0808 26.0119 12.8974 -24.3349 4.5822
# 2 45.0808 72.4739 18.3203 16.7435 -16.1481 -7.9207
# 3 26.0119 18.3203 71.6541 17.0141 -14.1085 -6.9041
# 4 12.8974 16.7435 17.0141 26.3184 5.4906 2.1822
# 5 -24.3349 -16.1481 -14.1085 5.4906 40.7770 17.4656
# 6 4.5822 -7.9207 -6.9041 2.1822 17.4656 28.2570
#
#
#
# Elastic Compliance Matrix: (Units=1/GPa)
#
#
# Indices 1 2 3 4 5 6 
#
# 1 0.028136 -0.013128 -0.003609 -0.005553 0.020151 -0.021151
# 2 -0.013128 0.025349 0.002153 -0.011967 -0.000022 0.010698
# 3 -0.003609 0.002153 0.019428 -0.013653 0.005800 0.003405
# 4 -0.005553 -0.011967 -0.013653 0.061574 -0.022511 0.003369
# 5 0.020151 -0.000022 0.005800 -0.022511 0.056618 -0.035114
# 6 -0.021151 0.010698 0.003405 0.003369 -0.035114 0.064093
#
#
# Mechanical properties :
#
#
# Convention : Reuss Voigt Hill
#
# Bulk Modulus (GPa) = 22.86035 45.14266 34.00150
# Shear Modulus (GPa) = 16.72523 28.27347 22.49935
#
# Velocity S-wave (km/s) = 2.95360 3.84021 3.42571
# Velocity P-wave (km/s) = 4.85340 6.57336 5.77774
#
# Compressibility (1/GPa) = 0.04374387
#
# Stress axis : x y z
#
# Youngs Moduli (GPa) = 35.54114 39.44923 51.47294
#
# Poissons Ratio (x) = 0.51789 0.18578
# Poissons Ratio (y) = 0.46659 -0.11080
# Poissons Ratio (z) = 0.12828 -0.08492
#
# Static dielectric constant tensor:
#      x y z
#    x 1.677260 0.032510 -0.009030 
#    y 0.032510 1.661250 0.021540 
#    z -0.009030 0.021540 1.725450 
# 
# From -- ./inp_files/274224.got.cif
#   From: 2010.05.17/outbox.cif.g08.bks.cpg/sg2_138_cif.got.tgz:274224.got - 2010.06.03 11:33:40.
