data_PCOD9088826
_publ_section_title
;
Structure prediction by ZEFSAII (Michael W. Deem and Ramdas Pophale) SiO2 
 PCOD9088826
Probable space group: P -1
;
_chemical_formula_sum "Si O2"
_cell_formula_units_Z 16
_cell_length_a 7.821924
_cell_length_b 11.051409
_cell_length_c 11.747752
_cell_angle_alpha 81.814452
_cell_angle_beta 125.737911
_cell_angle_gamma 115.015832
_cell_volume 739.371569
_symmetry_space_group_name_H-M "P -1"
_symmetry_group_IT_number 2
_symmetry_cell_setting 'triclinic'
loop_
_space_group_symop_operation_xyz
x,y,z
-x,-y,-z
loop_
_atom_site_type_symbol
_atom_site_label
_atom_site_fract_x
_atom_site_fract_y
_atom_site_fract_z
Si Si1 0.757428 0.254013 0.253060
Si Si2 0.786257 0.593902 0.979508
Si Si3 0.075931 0.773764 0.445477
Si Si4 0.708653 0.952710 0.597129
Si Si5 0.445212 0.676427 0.490491
Si Si6 0.761994 0.876427 0.887979
Si Si7 0.253981 0.462287 0.778025
Si Si8 0.798783 0.575489 0.736818
O O1 0.852802 0.196844 0.400794
O O2 0.485784 0.154536 0.141365
O O3 0.755158 0.396483 0.271283
O O4 0.961609 0.306497 0.232514
O O5 0.801412 0.742864 0.944194
O O6 0.517791 0.488864 0.894494
O O7 0.857428 0.556121 0.891080
O O8 0.873759 0.589015 0.142211
O O9 0.078643 0.907143 0.370527
O O10 0.260998 0.720993 0.472646
O O11 0.842336 0.644280 0.345889
O O12 0.500000 0.000000 0.500000
O O13 0.641088 0.822549 0.507190
O O14 0.725394 0.904204 0.737665
O O15 0.587931 0.621701 0.636893
O O16 0.306963 0.559943 0.362583
O O17 0.000000 0.000000 0.000000
#
# Coordination Sequence:
#
# PCOD9088826 Si02
#       8
#     2   2   2   2   2   2   2   2
#     4  11  22  36  60  92 123 154 205 259 299 361
#     4  10  22  40  60  88 123 160 201 257 304 368
#     4  11  20  37  64  91 118 157 214 258 290 355
#     4  10  19  37  63  90 120 154 214 249 292 355
#     4  10  20  36  60  91 117 165 195 241 314 360
#     4  11  21  40  66  86 116 162 210 252 305 359
#     4  10  21  37  62  90 116 159 218 248 297 357
#     4  11  22  36  62  89 129 158 191 250 323 358
#
# _framework density 21.639997999999999
#
# number of rings (size 3 to 8) (size 9 to 14) (size 15 to 20)
#    0.000    1.500    5.000    1.875    3.500    0.500 
#    0.000    1.250    0.000    0.000    0.000    0.000 
#    0.000    0.000    0.000    0.000    0.000    0.000 
#
# Total GULP energy -89147.109204 kJ/mol
# GULP energy per Si atom -5571.694325 kJ/mol
# Density = 2.159074 g / cm^3
# Si number density = 21.639998 Si / 1000 Ang^3
#
#
#
# Elastic Constant Matrix: (Units=GPa)
#
#
# Indices 1 2 3 4 5 6 
#
# 1 60.2438 26.0420 30.8054 3.0815 -4.4398 22.4729
# 2 26.0420 94.0883 46.8674 0.1684 9.1858 13.9064
# 3 30.8054 46.8674 88.1497 5.2238 12.8890 4.2987
# 4 3.0815 0.1684 5.2238 38.6833 9.5044 10.5305
# 5 -4.4398 9.1858 12.8890 9.5044 31.7546 -0.9852
# 6 22.4729 13.9064 4.2987 10.5305 -0.9852 23.9163
#
#
#
# Elastic Compliance Matrix: (Units=1/GPa)
#
#
# Indices 1 2 3 4 5 6 
#
# 1 0.035665 0.000792 -0.012601 0.006506 0.006861 -0.034290
# 2 0.000792 0.016483 -0.008339 0.004743 -0.003035 -0.011043
# 3 -0.012601 -0.008339 0.020596 -0.004249 -0.005984 0.014612
# 4 0.006506 0.004743 -0.004249 0.034807 -0.009896 -0.023841
# 5 0.006861 -0.003035 -0.005984 -0.009896 0.038792 0.002348
# 6 -0.034290 -0.011043 0.014612 -0.023841 0.002348 0.088422
#
#
# Mechanical properties :
#
#
# Convention : Reuss Voigt Hill
#
# Bulk Modulus (GPa) = 30.81965 49.99015 40.40490
# Shear Modulus (GPa) = 17.48998 28.12198 22.80598
#
# Velocity S-wave (km/s) = 2.84601 3.60882 3.24988
# Velocity P-wave (km/s) = 5.00726 6.36520 5.72662
#
# Compressibility (1/GPa) = 0.03244683
#
# Stress axis : x y z
#
# Youngs Moduli (GPa) = 28.03905 60.66836 48.55255
#
# Poissons Ratio (x) = -0.04807 0.61183
# Poissons Ratio (y) = -0.02222 0.40490
# Poissons Ratio (z) = 0.35333 0.50594
#
# Static dielectric constant tensor:
#      x y z
#    x 1.903990 0.050190 0.000150 
#    y 0.050190 1.842860 0.030200 
#    z 0.000150 0.030200 1.811970 
# 
# From -- ./inp_files/390076.got.cif
#   From: 2010.05.17/outbox.cif.g08.bks.cpg/sg2_196_cif.got.tgz:390076.got - 2010.06.03 11:33:40.
