data_PCOD9088232
_publ_section_title
;
Structure prediction by ZEFSAII (Michael W. Deem and Ramdas Pophale) SiO2 
 PCOD9088232
Probable space group: P -1
;
_chemical_formula_sum "Si O2"
_cell_formula_units_Z 16
_cell_length_a 8.459761
_cell_length_b 8.149269
_cell_length_c 13.839811
_cell_angle_alpha 109.459491
_cell_angle_beta 125.523464
_cell_angle_gamma 55.285639
_cell_volume 638.316526
_symmetry_space_group_name_H-M "P -1"
_symmetry_group_IT_number 2
_symmetry_cell_setting 'triclinic'
loop_
_space_group_symop_operation_xyz
x,y,z
-x,-y,-z
loop_
_atom_site_type_symbol
_atom_site_label
_atom_site_fract_x
_atom_site_fract_y
_atom_site_fract_z
Si Si1 0.042244 0.135814 0.637973
Si Si2 0.560386 0.812671 0.718048
Si Si3 0.394916 0.235821 0.497659
Si Si4 0.284606 0.997846 0.041773
Si Si5 0.968759 0.251515 0.424692
Si Si6 0.481921 0.529349 0.266685
Si Si7 0.195806 0.281769 0.894298
Si Si8 0.721583 0.368340 0.990318
O O1 0.921028 0.265872 0.526266
O O2 0.051696 0.263829 0.754024
O O3 0.299185 0.984723 0.666148
O O4 0.958528 0.982289 0.610902
O O5 0.614815 0.732593 0.613638
O O6 0.593821 0.629274 0.760418
O O7 0.694080 0.914354 0.831045
O O8 0.154412 0.307481 0.473632
O O9 0.521373 0.328591 0.620966
O O10 0.500000 0.000000 0.500000
O O11 0.543224 0.857436 0.071467
O O12 0.179445 0.852901 0.976713
O O13 0.171242 0.175968 0.960015
O O14 0.745961 0.386794 0.312892
O O15 0.356885 0.638095 0.147466
O O16 0.152001 0.504305 0.936608
O O17 0.500000 0.500000 0.000000
#
# Coordination Sequence:
#
# PCOD9088232 Si02
#       8
#     2   2   2   2   2   2   2   2
#     4   9  19  37  61  89 122 162 197 253 313 361
#     4  10  19  37  60  83 123 158 202 244 306 358
#     4  12  23  38  59  88 121 167 206 246 302 372
#     4   9  17  31  54  89 118 153 196 257 296 345
#     4  10  22  38  59  90 127 157 202 254 307 363
#     4  11  23  39  59  94 124 157 204 260 301 363
#     4   9  17  32  57  88 121 153 202 256 301 351
#     4  10  20  31  56  94 119 151 204 258 301 350
#
# _framework density 25.065936000000001
#
# number of rings (size 3 to 8) (size 9 to 14) (size 15 to 20)
#    0.000    2.000    2.500    1.500    8.750    0.000 
#    0.000    0.000    0.000    0.750    0.000    3.500 
#    0.000    0.000    0.000    0.000    0.000    0.000 
#
# Total GULP energy -89638.983314 kJ/mol
# GULP energy per Si atom -5602.436457 kJ/mol
# Density = 2.500888 g / cm^3
# Si number density = 25.065936 Si / 1000 Ang^3
#
#
#
# Elastic Constant Matrix: (Units=GPa)
#
#
# Indices 1 2 3 4 5 6 
#
# 1 60.7898 43.1965 31.5121 6.3222 9.3192 1.1553
# 2 43.1965 103.5048 35.7433 32.2544 7.3083 28.6888
# 3 31.5121 35.7433 150.4761 36.7118 2.8437 28.2569
# 4 6.3222 32.2544 36.7118 37.5055 7.7256 4.9170
# 5 9.3192 7.3083 2.8437 7.7256 31.3387 10.7772
# 6 1.1553 28.6888 28.2569 4.9170 10.7772 49.3665
#
#
#
# Elastic Compliance Matrix: (Units=1/GPa)
#
#
# Indices 1 2 3 4 5 6 
#
# 1 0.045130 -0.030067 -0.015279 0.034378 -0.022675 0.026689
# 2 -0.030067 0.036155 0.011635 -0.037572 0.018059 -0.027167
# 3 -0.015279 0.011635 0.015297 -0.022723 0.011330 -0.015370
# 4 0.034378 -0.037572 -0.022723 0.077241 -0.029732 0.032834
# 5 -0.022675 0.018059 0.011330 -0.029732 0.049064 -0.024199
# 6 0.026689 -0.027167 -0.015370 0.032834 -0.024199 0.046230
#
#
# Mechanical properties :
#
#
# Convention : Reuss Voigt Hill
#
# Bulk Modulus (GPa) = 34.29446 59.51937 46.90691
# Shear Modulus (GPa) = 14.44004 37.26341 25.85173
#
# Velocity S-wave (km/s) = 2.40278 3.85985 3.21495
# Velocity P-wave (km/s) = 4.62700 6.60767 5.70396
#
# Compressibility (1/GPa) = 0.02915923
#
# Stress axis : x y z
#
# Youngs Moduli (GPa) = 22.15843 27.65890 65.37045
#
# Poissons Ratio (x) = 0.83163 0.99881
# Poissons Ratio (y) = 0.66624 -0.76060
# Poissons Ratio (z) = 0.33856 -0.32182
#
# Static dielectric constant tensor:
#      x y z
#    x 2.127640 -0.032890 -0.097920 
#    y -0.032890 1.967090 0.014290 
#    z -0.097920 0.014290 1.958400 
# 
# From -- ./inp_files/380066.got.cif
#   From: 2010.05.17/outbox.cif.g08.bks.cpg/sg2_191_cif.got.tgz:380066.got - 2010.06.03 11:33:40.
