data_PCOD9088907
_publ_section_title
;
Structure prediction by ZEFSAII (Michael W. Deem and Ramdas Pophale) SiO2 
 PCOD9088907
Probable space group: P -1
;
_chemical_formula_sum "Si O2"
_cell_formula_units_Z 15
_cell_length_a 8.635326
_cell_length_b 7.902405
_cell_length_c 14.695980
_cell_angle_alpha 54.836204
_cell_angle_beta 68.624483
_cell_angle_gamma 103.098320
_cell_volume 625.459182
_symmetry_space_group_name_H-M "P -1"
_symmetry_group_IT_number 2
_symmetry_cell_setting 'triclinic'
loop_
_space_group_symop_operation_xyz
x,y,z
-x,-y,-z
loop_
_atom_site_type_symbol
_atom_site_label
_atom_site_fract_x
_atom_site_fract_y
_atom_site_fract_z
Si Si1 0.533672 0.621337 0.354960
Si Si2 0.880901 0.111111 0.782708
Si Si3 0.726123 0.570413 0.935482
Si Si4 0.172305 0.451591 0.777746
Si Si5 0.906606 0.699454 0.505338
Si Si6 0.787267 0.153257 0.066758
Si Si7 0.040917 0.777951 0.652602
Si Si8 0.500000 0.000000 0.000000
O O1 0.500000 0.500000 0.500000
O O2 0.619770 0.520745 0.291769
O O3 0.316108 0.542088 0.391786
O O4 0.694942 0.922941 0.227110
O O5 0.664136 0.044832 0.875595
O O6 0.047124 0.294909 0.763191
O O7 0.949511 0.236033 0.630501
O O8 0.858277 0.847218 0.863680
O O9 0.821028 0.602241 0.804267
O O10 0.500000 0.500000 0.000000
O O11 0.749397 0.363531 0.040219
O O12 0.182414 0.707303 0.690337
O O13 0.021395 0.289878 0.943120
O O14 0.002801 0.703054 0.578699
O O15 0.884935 0.935437 0.442604
O O16 0.659338 0.037693 0.036300
#
# Coordination Sequence:
#
# PCOD9088907 Si02
#       8
#     2   2   2   2   2   2   2   1
#     4  12  25  42  64  94 135 183 216 259 327 409
#     4  10  20  36  63  93 132 164 206 276 320 391
#     4  10  19  37  63  96 130 157 216 279 332 378
#     4  10  22  42  65  91 130 170 223 265 326 388
#     4  10  22  41  64  95 137 168 217 273 336 382
#     4  10  23  39  65  94 130 167 225 272 320 390
#     4   9  22  40  66  98 126 169 220 283 325 379
#     4  10  20  36  66  98 118 166 218 274 328 366
#
# _framework density 23.982379999999999
#
# number of rings (size 3 to 8) (size 9 to 14) (size 15 to 20)
#    0.000    1.867    2.667    0.400    5.600    2.133 
#    2.400    0.667    5.867    0.000    0.000    0.000 
#    0.000    0.000    0.000    0.000    0.000    0.000 
#
# Total GULP energy -83705.789262 kJ/mol
# GULP energy per Si atom -5580.385951 kJ/mol
# Density = 2.392780 g / cm^3
# Si number density = 23.982380 Si / 1000 Ang^3
#
#
#
# Elastic Constant Matrix: (Units=GPa)
#
#
# Indices 1 2 3 4 5 6 
#
# 1 75.8350 20.8176 57.3589 15.0396 -16.8957 -24.1172
# 2 20.8176 66.9696 49.3120 7.8027 2.3589 -17.2141
# 3 57.3589 49.3120 158.3861 0.1715 0.0201 -26.9588
# 4 15.0396 7.8027 0.1715 36.2447 -17.2386 3.8064
# 5 -16.8957 2.3589 0.0201 -17.2386 38.4195 9.8152
# 6 -24.1172 -17.2141 -26.9588 3.8064 9.8152 42.2208
#
#
#
# Elastic Compliance Matrix: (Units=1/GPa)
#
#
# Indices 1 2 3 4 5 6 
#
# 1 0.024381 0.001504 -0.007652 -0.009566 0.003885 0.009614
# 2 0.001504 0.022626 -0.006075 -0.009930 -0.007436 0.008829
# 3 -0.007652 -0.006075 0.010997 0.003778 -0.001339 0.000145
# 4 -0.009566 -0.009930 0.003778 0.045253 0.020797 -0.016015
# 5 0.003885 -0.007436 -0.001339 0.020797 0.040857 -0.013041
# 6 0.009614 0.008829 0.000145 -0.016015 -0.013041 0.037344
#
#
# Mechanical properties :
#
#
# Convention : Reuss Voigt Hill
#
# Bulk Modulus (GPa) = 29.79778 61.79640 45.79709
# Shear Modulus (GPa) = 23.03206 34.95714 28.99460
#
# Velocity S-wave (km/s) = 3.10235 3.82202 3.48083
# Velocity P-wave (km/s) = 5.02838 6.73056 5.94075
#
# Compressibility (1/GPa) = 0.03355955
#
# Stress axis : x y z
#
# Youngs Moduli (GPa) = 41.01518 44.19722 90.93658
#
# Poissons Ratio (x) = -0.06647 0.69581
# Poissons Ratio (y) = -0.06169 0.55240
# Poissons Ratio (z) = 0.31383 0.26848
#
# Static dielectric constant tensor:
#      x y z
#    x 1.899690 -0.035150 0.031350 
#    y -0.035150 1.968890 -0.038620 
#    z 0.031350 -0.038620 1.918650 
# 
# From -- ./inp_files/492018.got.cif
#   From: 2010.05.17/outbox.cif.g08.bks.cpg/sg2_247_cif.got.tgz:492018.got - 2010.06.03 11:33:40.
