data_PCOD9088067
_publ_section_title
;
Structure prediction by ZEFSAII (Michael W. Deem and Ramdas Pophale) SiO2 
 PCOD9088067
Probable space group: P -1
;
_chemical_formula_sum "Si O2"
_cell_formula_units_Z 16
_cell_length_a 6.032256
_cell_length_b 5.224541
_cell_length_c 21.750707
_cell_angle_alpha 94.510742
_cell_angle_beta 116.623456
_cell_angle_gamma 83.253508
_cell_volume 608.303935
_symmetry_space_group_name_H-M "P -1"
_symmetry_group_IT_number 2
_symmetry_cell_setting 'triclinic'
loop_
_space_group_symop_operation_xyz
x,y,z
-x,-y,-z
loop_
_atom_site_type_symbol
_atom_site_label
_atom_site_fract_x
_atom_site_fract_y
_atom_site_fract_z
Si Si1 0.751209 0.136314 0.044044
Si Si2 0.217269 0.723231 0.074596
Si Si3 0.905915 0.541681 0.406568
Si Si4 0.725876 0.964444 0.164224
Si Si5 0.182688 0.564501 0.200149
Si Si6 0.641599 0.231705 0.284725
Si Si7 0.779137 0.980265 0.560013
Si Si8 0.449782 0.871629 0.342984
O O1 0.774552 0.171835 0.120698
O O2 0.763175 0.354861 0.996808
O O3 0.973121 0.918036 0.054305
O O4 0.500000 0.000000 0.000000
O O5 0.450237 0.885295 0.118734
O O6 0.224013 0.539639 0.130869
O O7 0.084694 0.768591 0.435444
O O8 0.816581 0.459691 0.324991
O O9 0.627299 0.647858 0.395895
O O10 0.063633 0.285085 0.445357
O O11 0.906456 0.702661 0.174848
O O12 0.742762 0.083852 0.234979
O O13 0.345825 0.311953 0.239587
O O14 0.323384 0.762764 0.264716
O O15 0.638881 0.062296 0.342433
O O16 0.740264 0.993333 0.629490
O O17 0.500000 0.000000 0.500000
#
# Coordination Sequence:
#
# PCOD9088067 Si02
#       8
#     2   2   2   2   2   2   2   2
#     4   8  16  30  59  87 122 181 227 286 352 412
#     4   9  16  34  57  88 128 172 231 286 348 417
#     4  11  26  49  73 105 146 187 233 293 349 420
#     4  10  19  37  58  90 130 176 224 291 355 412
#     4  10  22  36  62  93 129 173 226 284 350 416
#     4  11  23  43  67 101 138 179 234 289 351 424
#     4  12  28  48  75 108 144 189 238 286 351 423
#     4  11  25  45  70 101 139 185 232 291 352 420
#
# _framework density 26.302641000000001
#
# number of rings (size 3 to 8) (size 9 to 14) (size 15 to 20)
#    0.000    1.750    2.500    1.125    3.500    1.000 
#    2.250    0.625    0.000   25.500    0.000    0.000 
#    0.000    0.000    0.000    0.000    0.000    0.000 
#
# Total GULP energy -89369.668422 kJ/mol
# GULP energy per Si atom -5585.604276 kJ/mol
# Density = 2.624277 g / cm^3
# Si number density = 26.302641 Si / 1000 Ang^3
#
#
#
# Elastic Constant Matrix: (Units=GPa)
#
#
# Indices 1 2 3 4 5 6 
#
# 1 100.0112 42.7341 44.4043 -1.0073 14.0008 -19.6098
# 2 42.7341 124.7343 39.4610 -2.2818 6.8558 -12.7007
# 3 44.4043 39.4610 120.0620 -15.0654 14.6984 -4.9801
# 4 -1.0073 -2.2818 -15.0654 26.8517 -6.7754 8.0055
# 5 14.0008 6.8558 14.6984 -6.7754 59.1091 -9.4494
# 6 -19.6098 -12.7007 -4.9801 8.0055 -9.4494 22.4413
#
#
#
# Elastic Compliance Matrix: (Units=1/GPa)
#
#
# Indices 1 2 3 4 5 6 
#
# 1 0.016173 -0.002545 -0.005342 -0.006872 -0.000819 0.013613
# 2 -0.002545 0.009978 -0.002442 -0.001588 0.000452 0.003638
# 3 -0.005342 -0.002442 0.012023 0.007989 -0.001631 -0.006919
# 4 -0.006872 -0.001588 0.007989 0.048233 0.001912 -0.021532
# 5 -0.000819 0.000452 -0.001631 0.001912 0.018703 0.006372
# 6 0.013613 0.003638 -0.006919 -0.021532 0.006372 0.067344
#
#
# Mechanical properties :
#
#
# Convention : Reuss Voigt Hill
#
# Bulk Modulus (GPa) = 57.09548 66.44515 61.77031
# Shear Modulus (GPa) = 25.13185 36.22765 30.67975
#
# Velocity S-wave (km/s) = 3.09445 3.71528 3.41898
# Velocity P-wave (km/s) = 5.87552 6.61219 6.25471
#
# Compressibility (1/GPa) = 0.01751452
#
# Stress axis : x y z
#
# Youngs Moduli (GPa) = 61.83112 100.21922 83.17678
#
# Poissons Ratio (x) = 0.25510 0.44436
# Poissons Ratio (y) = 0.15738 0.20311
# Poissons Ratio (z) = 0.33032 0.24472
#
# Static dielectric constant tensor:
#      x y z
#    x 2.046240 0.041700 -0.029590 
#    y 0.041700 2.118850 -0.036600 
#    z -0.029590 -0.036600 2.128730 
# 
# From -- ./inp_files/603089.got.cif
#   From: 2010.05.17/outbox.cif.g08.bks.cpg/sg2_302_cif.got.tgz:603089.got - 2010.06.03 11:33:40.
