data_PCOD9088527
_publ_section_title
;
Structure prediction by ZEFSAII (Michael W. Deem and Ramdas Pophale) SiO2 
 PCOD9088527
Probable space group: P -1
;
_chemical_formula_sum "Si O2"
_cell_formula_units_Z 16
_cell_length_a 9.009484
_cell_length_b 9.529245
_cell_length_c 12.748857
_cell_angle_alpha 43.115525
_cell_angle_beta 122.129670
_cell_angle_gamma 104.962624
_cell_volume 617.315754
_symmetry_space_group_name_H-M "P -1"
_symmetry_group_IT_number 2
_symmetry_cell_setting 'triclinic'
loop_
_space_group_symop_operation_xyz
x,y,z
-x,-y,-z
loop_
_atom_site_type_symbol
_atom_site_label
_atom_site_fract_x
_atom_site_fract_y
_atom_site_fract_z
Si Si1 0.836418 0.616377 0.948167
Si Si2 0.918970 0.050495 0.822864
Si Si3 0.614200 0.144210 0.779933
Si Si4 0.434761 0.782239 0.061569
Si Si5 0.951109 0.249156 0.526388
Si Si6 0.278379 0.993722 0.691427
Si Si7 0.557275 0.196165 0.359792
Si Si8 0.228292 0.364088 0.851156
O O1 0.806920 0.539032 0.098276
O O2 0.886843 0.840426 0.870928
O O3 0.640145 0.645392 0.805509
O O4 0.000000 0.500000 0.000000
O O5 0.359678 0.733329 0.171394
O O6 0.727582 0.204468 0.694910
O O7 0.024442 0.157546 0.717960
O O8 0.405723 0.159630 0.670399
O O9 0.702010 0.889285 0.964412
O O10 0.000000 0.000000 0.000000
O O11 0.300025 0.842009 0.883183
O O12 0.601374 0.617608 0.166064
O O13 0.500000 0.000000 0.000000
O O14 0.749224 0.213331 0.469578
O O15 0.933197 0.491691 0.354549
O O16 0.074331 0.117402 0.554064
O O17 0.376642 0.864479 0.701529
O O18 0.500000 0.000000 0.500000
#
# Coordination Sequence:
#
# PCOD9088527 Si02
#       8
#     2   2   2   2   2   2   2   2
#     4  11  24  47  71  98 141 190 222 275 356 409
#     4  11  23  47  71  99 136 184 234 278 342 421
#     4   9  18  43  69  87 133 189 220 274 354 407
#     4   8  15  36  64  88 121 179 215 265 336 404
#     4  12  25  37  67 106 132 171 233 293 333 403
#     4  10  19  37  61  92 128 172 222 268 338 400
#     4  12  23  44  65  91 142 181 225 273 345 421
#     4   9  20  40  61  99 133 164 229 285 333 392
#
# _framework density 25.918664
#
# number of rings (size 3 to 8) (size 9 to 14) (size 15 to 20)
#    0.000    2.000    5.000    1.125    1.750    2.500 
#    6.750   16.250    0.000    0.000    0.000    0.000 
#    0.000    0.000    0.000    0.000    0.000    0.000 
#
# Total GULP energy -89110.941392 kJ/mol
# GULP energy per Si atom -5569.433837 kJ/mol
# Density = 2.585967 g / cm^3
# Si number density = 25.918664 Si / 1000 Ang^3
#
#
#
# Elastic Constant Matrix: (Units=GPa)
#
#
# Indices 1 2 3 4 5 6 
#
# 1 184.9416 54.9947 40.5625 -5.1675 31.0709 -56.9093
# 2 54.9947 83.1948 19.3693 10.3949 4.9097 -22.6398
# 3 40.5625 19.3693 91.2163 1.9309 17.5815 -20.3076
# 4 -5.1675 10.3949 1.9309 21.1829 -13.6521 -3.1676
# 5 31.0709 4.9097 17.5815 -13.6521 37.3717 4.5235
# 6 -56.9093 -22.6398 -20.3076 -3.1676 4.5235 63.8465
#
#
#
# Elastic Compliance Matrix: (Units=1/GPa)
#
#
# Indices 1 2 3 4 5 6 
#
# 1 0.011129 -0.004271 -0.000145 -0.000113 -0.009759 0.009045
# 2 -0.004271 0.016905 -0.000630 -0.010614 -0.002449 0.001634
# 3 -0.000145 -0.000630 0.014075 -0.006312 -0.009265 0.004468
# 4 -0.000113 -0.010614 -0.006312 0.072610 0.031528 -0.004504
# 5 -0.009759 -0.002449 -0.009265 0.031528 0.052849 -0.014694
# 6 0.009045 0.001634 0.004468 -0.004504 -0.014694 0.026543
#
#
# Mechanical properties :
#
#
# Convention : Reuss Voigt Hill
#
# Bulk Modulus (GPa) = 31.23311 65.46731 48.35021
# Shear Modulus (GPa) = 23.26933 40.77530 32.02232
#
# Velocity S-wave (km/s) = 2.99955 3.97066 3.51877
# Velocity P-wave (km/s) = 4.90643 6.80699 5.93330
#
# Compressibility (1/GPa) = 0.03201730
#
# Stress axis : x y z
#
# Youngs Moduli (GPa) = 89.85889 59.15241 71.04691
#
# Poissons Ratio (x) = 0.25266 0.01028
# Poissons Ratio (y) = 0.38381 0.04476
# Poissons Ratio (z) = 0.01300 0.03727
#
# Static dielectric constant tensor:
#      x y z
#    x 2.196710 0.124490 -0.071830 
#    y 0.124490 2.224430 0.028760 
#    z -0.071830 0.028760 2.153190 
# 
# From -- ./inp_files/498789.got.cif
#   From: 2010.05.17/outbox.cif.g08.bks.cpg/sg2_250_cif.got.tgz:498789.got - 2010.06.03 11:33:40.
