data_PCOD9088853
_publ_section_title
;
Structure prediction by ZEFSAII (Michael W. Deem and Ramdas Pophale) SiO2 
 PCOD9088853
Probable space group: P -1
;
_chemical_formula_sum "Si O2"
_cell_formula_units_Z 16
_cell_length_a 9.814247
_cell_length_b 15.356959
_cell_length_c 13.401568
_cell_angle_alpha 133.893760
_cell_angle_beta 58.678770
_cell_angle_gamma 145.610275
_cell_volume 815.307760
_symmetry_space_group_name_H-M "P -1"
_symmetry_group_IT_number 2
_symmetry_cell_setting 'triclinic'
loop_
_space_group_symop_operation_xyz
x,y,z
-x,-y,-z
loop_
_atom_site_type_symbol
_atom_site_label
_atom_site_fract_x
_atom_site_fract_y
_atom_site_fract_z
Si Si1 0.953295 0.981827 0.886269
Si Si2 0.060874 0.515735 0.105238
Si Si3 0.607786 0.835550 0.633443
Si Si4 0.248044 0.292453 0.405703
Si Si5 0.587166 0.179666 0.500169
Si Si6 0.414917 0.100851 0.727107
Si Si7 0.233438 0.890173 0.051915
Si Si8 0.088090 0.457054 0.617557
O O1 0.188716 0.056697 0.804012
O O2 0.880538 0.073800 0.950024
O O3 0.746259 0.775117 0.754909
O O4 0.000000 0.000000 0.000000
O O5 0.347403 0.699503 0.158176
O O6 0.943311 0.540247 0.250421
O O7 0.000000 0.500000 0.000000
O O8 0.950631 0.325155 0.032406
O O9 0.782173 0.825437 0.591426
O O10 0.550861 0.820279 0.528295
O O11 0.343873 0.657066 0.642830
O O12 0.718175 0.016028 0.786953
O O13 0.500000 0.500000 0.500000
O O14 0.069952 0.303539 0.482004
O O15 0.452384 0.110282 0.601833
O O16 0.860748 0.380556 0.581777
O O17 0.596139 0.045987 0.350647
O O18 0.500000 0.000000 0.000000
#
# Coordination Sequence:
#
# PCOD9088853 Si02
#       8
#     2   2   2   2   2   2   2   2
#     4  11  25  43  69  94 132 179 215 277 330 389
#     4  11  24  40  65  95 131 178 214 268 335 389
#     4  10  20  36  64  89 124 162 213 268 318 375
#     4   9  20  39  58  95 125 155 213 270 320 380
#     4  10  20  38  63  89 123 168 205 268 321 383
#     4  10  23  41  61  91 133 164 222 258 330 393
#     4  11  24  43  64  95 132 168 226 266 315 402
#     4  10  19  37  63  91 124 160 217 268 310 389
#
# _framework density 19.624492
#
# number of rings (size 3 to 8) (size 9 to 14) (size 15 to 20)
#    0.000    1.750    2.500    1.125    3.500    0.500 
#   11.250    1.250    0.000    0.000    0.000    0.000 
#    0.000    0.000    0.000    0.000    0.000    0.000 
#
# Total GULP energy -89226.727481 kJ/mol
# GULP energy per Si atom -5576.670468 kJ/mol
# Density = 1.957983 g / cm^3
# Si number density = 19.624492 Si / 1000 Ang^3
#
#
#
# Elastic Constant Matrix: (Units=GPa)
#
#
# Indices 1 2 3 4 5 6 
#
# 1 89.8406 11.1020 55.9050 -9.2221 11.6218 -5.3329
# 2 11.1020 51.5425 23.6164 16.4229 0.5654 8.6968
# 3 55.9050 23.6164 114.1712 9.8923 13.2203 -18.3400
# 4 -9.2221 16.4229 9.8923 31.4805 -4.4155 4.8446
# 5 11.6218 0.5654 13.2203 -4.4155 41.1201 -2.7125
# 6 -5.3329 8.6968 -18.3400 4.8446 -2.7125 22.0542
#
#
#
# Elastic Compliance Matrix: (Units=1/GPa)
#
#
# Indices 1 2 3 4 5 6 
#
# 1 0.018794 -0.001408 -0.010674 0.010387 -0.001154 -0.006200
# 2 -0.001408 0.028794 -0.006690 -0.011051 -0.000012 -0.014833
# 3 -0.010674 -0.006690 0.019312 -0.008833 -0.002881 0.017703
# 4 0.010387 -0.011051 -0.008833 0.045480 0.004284 -0.009940
# 5 -0.001154 -0.000012 -0.002881 0.004284 0.026005 -0.000413
# 6 -0.006200 -0.014833 0.017703 -0.009940 -0.000413 0.066547
#
#
# Mechanical properties :
#
#
# Convention : Reuss Voigt Hill
#
# Bulk Modulus (GPa) = 34.06484 48.53345 41.29915
# Shear Modulus (GPa) = 19.82076 29.92636 24.87356
#
# Velocity S-wave (km/s) = 3.18150 3.90930 3.56402
# Velocity P-wave (km/s) = 5.55805 6.72023 6.16658
#
# Compressibility (1/GPa) = 0.02935578
#
# Stress axis : x y z
#
# Youngs Moduli (GPa) = 53.20791 34.72915 51.78204
#
# Poissons Ratio (x) = 0.04891 0.55270
# Poissons Ratio (y) = 0.07494 0.34644
# Poissons Ratio (z) = 0.56792 0.23235
#
# Static dielectric constant tensor:
#      x y z
#    x 1.737430 0.040710 -0.001390 
#    y 0.040710 1.721880 0.044680 
#    z -0.001390 0.044680 1.719920 
# 
# From -- ./inp_files/274595.got.cif
#   From: 2010.05.17/outbox.cif.g08.bks.cpg/sg2_138_cif.got.tgz:274595.got - 2010.06.03 11:33:40.
