data_PCOD9088791
_publ_section_title
;
Structure prediction by ZEFSAII (Michael W. Deem and Ramdas Pophale) SiO2 
 PCOD9088791
Probable space group: P -1
;
_chemical_formula_sum "Si O2"
_cell_formula_units_Z 14
_cell_length_a 11.231611
_cell_length_b 10.313183
_cell_length_c 16.177425
_cell_angle_alpha 134.886321
_cell_angle_beta 147.655684
_cell_angle_gamma 36.608606
_cell_volume 595.633555
_symmetry_space_group_name_H-M "P -1"
_symmetry_group_IT_number 2
_symmetry_cell_setting 'triclinic'
loop_
_space_group_symop_operation_xyz
x,y,z
-x,-y,-z
loop_
_atom_site_type_symbol
_atom_site_label
_atom_site_fract_x
_atom_site_fract_y
_atom_site_fract_z
Si Si1 0.328742 0.394765 0.206289
Si Si2 0.063560 0.804556 0.548728
Si Si3 0.818350 0.228087 0.806251
Si Si4 0.305199 0.888886 0.150968
Si Si5 0.397620 0.971841 0.513634
Si Si6 0.591832 0.073853 0.948920
Si Si7 0.984023 0.738334 0.291625
O O1 0.623395 0.326475 0.321539
O O2 0.163856 0.567675 0.113734
O O3 0.363248 0.164653 0.140582
O O4 0.210394 0.531543 0.282648
O O5 0.994968 0.720010 0.388780
O O6 0.986074 0.055106 0.607927
O O7 0.879225 0.819850 0.522042
O O8 0.671860 0.250662 0.817244
O O9 0.661063 0.207665 0.628689
O O10 0.116461 0.005048 0.879922
O O11 0.390269 0.052979 0.306366
O O12 0.440545 0.808000 0.104613
O O13 0.000000 0.000000 0.000000
O O14 0.500000 0.000000 0.500000
O O15 0.304898 0.205273 0.883783
#
# Coordination Sequence:
#
# PCOD9088791 Si02
#       7
#     2   2   2   2   2   2   2
#     4  11  22  36  60  95 125 158 203 256 301 355
#     4  10  20  36  59  90 124 158 203 252 303 361
#     4  10  21  38  61  90 126 160 201 254 305 358
#     4   9  19  38  65  84 117 164 202 247 305 361
#     4  10  19  37  63  88 117 161 202 243 307 363
#     4  10  21  39  64  88 122 166 205 249 301 359
#     4  10  20  36  60  88 126 162 204 249 302 359
#
# _framework density 23.504386
#
# number of rings (size 3 to 8) (size 9 to 14) (size 15 to 20)
#    0.000    2.000    2.857    0.857    0.000    1.714 
#    2.571    2.857    6.286    2.571    0.000    0.000 
#    0.000    0.000    0.000    0.000    0.000    0.000 
#
# Total GULP energy -77934.507966 kJ/mol
# GULP energy per Si atom -5566.750569 kJ/mol
# Density = 2.345089 g / cm^3
# Si number density = 23.504386 Si / 1000 Ang^3
#
#
#
# Elastic Constant Matrix: (Units=GPa)
#
#
# Indices 1 2 3 4 5 6 
#
# 1 134.5092 35.1116 10.5861 2.8609 9.9081 -18.4822
# 2 35.1116 42.7538 3.0307 8.9064 -2.1899 -17.7670
# 3 10.5861 3.0307 84.0172 1.9650 16.4925 -0.2518
# 4 2.8609 8.9064 1.9650 21.1656 -5.1649 6.1324
# 5 9.9081 -2.1899 16.4925 -5.1649 30.0221 -4.6962
# 6 -18.4822 -17.7670 -0.2518 6.1324 -4.6962 34.7027
#
#
#
# Elastic Compliance Matrix: (Units=1/GPa)
#
#
# Indices 1 2 3 4 5 6 
#
# 1 0.009935 -0.008502 -0.000295 0.001350 -0.003469 0.000228
# 2 -0.008502 0.045474 -0.001239 -0.023150 0.006531 0.023719
# 3 -0.000295 -0.001239 0.013620 -0.002275 -0.008083 -0.001384
# 4 0.001350 -0.023150 -0.002275 0.064988 0.006902 -0.021700
# 5 -0.003469 0.006531 -0.008083 0.006902 0.041470 0.005830
# 6 0.000228 0.023719 -0.001384 -0.021700 0.005830 0.045695
#
#
# Mechanical properties :
#
#
# Convention : Reuss Voigt Hill
#
# Bulk Modulus (GPa) = 20.42606 39.85965 30.14285
# Shear Modulus (GPa) = 19.41202 31.34821 25.38012
#
# Velocity S-wave (km/s) = 2.87695 3.65597 3.28960
# Velocity P-wave (km/s) = 4.44353 5.90057 5.22311
#
# Compressibility (1/GPa) = 0.04895707
#
# Stress axis : x y z
#
# Youngs Moduli (GPa) = 100.65137 21.99062 73.42211
#
# Poissons Ratio (x) = 0.18697 0.02166
# Poissons Ratio (y) = 0.85578 0.09094
# Poissons Ratio (z) = 0.02970 0.02724
#
# Static dielectric constant tensor:
#      x y z
#    x 1.955670 0.011770 0.010310 
#    y 0.011770 1.873340 -0.028220 
#    z 0.010310 -0.028220 2.022810 
# 
# From -- ./inp_files/352916.got.cif
#   From: 2010.05.17/outbox.cif.g08.bks.cpg/sg2_177_cif.got.tgz:352916.got - 2010.06.03 11:33:40.
