data_PCOD9088837
_publ_section_title
;
Structure prediction by ZEFSAII (Michael W. Deem and Ramdas Pophale) SiO2 
 PCOD9088837
Probable space group: P -1
;
_chemical_formula_sum "Si O2"
_cell_formula_units_Z 14
_cell_length_a 8.830053
_cell_length_b 13.449923
_cell_length_c 12.919328
_cell_angle_alpha 34.587556
_cell_angle_beta 58.236766
_cell_angle_gamma 81.227161
_cell_volume 602.252907
_symmetry_space_group_name_H-M "P -1"
_symmetry_group_IT_number 2
_symmetry_cell_setting 'triclinic'
loop_
_space_group_symop_operation_xyz
x,y,z
-x,-y,-z
loop_
_atom_site_type_symbol
_atom_site_label
_atom_site_fract_x
_atom_site_fract_y
_atom_site_fract_z
Si Si1 0.887782 0.104121 0.503347
Si Si2 0.686812 0.500060 0.574522
Si Si3 0.552456 0.031062 0.310850
Si Si4 0.189103 0.792240 0.130265
Si Si5 0.712556 0.508730 0.886093
Si Si6 0.762119 0.926413 0.935707
Si Si7 0.759176 0.822654 0.430146
O O1 0.083647 0.353210 0.230017
O O2 0.698783 0.073316 0.526904
O O3 0.781878 0.992815 0.749719
O O4 0.000000 0.000000 0.500000
O O5 0.730124 0.359789 0.755410
O O6 0.660002 0.669278 0.497084
O O7 0.933648 0.652145 0.309236
O O8 0.459422 0.312846 0.762871
O O9 0.610413 0.890353 0.474610
O O10 0.663051 0.038583 0.155603
O O11 0.663425 0.278387 0.085233
O O12 0.231260 0.909339 0.125456
O O13 0.788130 0.668400 0.624358
O O14 0.500000 0.500000 0.000000
O O15 0.992136 0.964114 0.848018
#
# Coordination Sequence:
#
# PCOD9088837 Si02
#       7
#     2   2   2   2   2   2   2
#     4  11  23  41  66  96 125 172 217 259 324 385
#     4  10  19  37  63  90 131 168 208 261 314 379
#     4  12  24  43  67  97 133 163 217 267 321 385
#     4  10  21  36  67  96 124 175 214 260 323 380
#     4  11  23  44  67  89 129 172 212 263 320 376
#     4  10  21  39  66  94 131 171 216 263 316 387
#     4  10  24  41  63  98 130 167 213 266 323 379
#
# _framework density 23.246047000000001
#
# number of rings (size 3 to 8) (size 9 to 14) (size 15 to 20)
#    0.000    1.429    4.286    0.429    2.000    4.000 
#    0.000    2.143    0.000    0.000    0.000    0.000 
#    0.000    0.000    0.000    0.000    0.000    0.000 
#
# Total GULP energy -78097.080740 kJ/mol
# GULP energy per Si atom -5578.362910 kJ/mol
# Density = 2.319314 g / cm^3
# Si number density = 23.246047 Si / 1000 Ang^3
#
#
#
# Elastic Constant Matrix: (Units=GPa)
#
#
# Indices 1 2 3 4 5 6 
#
# 1 108.5772 53.6058 64.8071 -42.6685 -33.5486 -22.3538
# 2 53.6058 103.2724 58.2620 -26.9211 -9.0049 -13.1067
# 3 64.8071 58.2620 105.4173 -28.4240 -35.7615 -5.3244
# 4 -42.6685 -26.9211 -28.4240 51.1087 7.1295 13.0319
# 5 -33.5486 -9.0049 -35.7615 7.1295 59.8628 -2.2839
# 6 -22.3538 -13.1067 -5.3244 13.0319 -2.2839 30.5623
#
#
#
# Elastic Compliance Matrix: (Units=1/GPa)
#
#
# Indices 1 2 3 4 5 6 
#
# 1 0.023711 -0.003998 -0.006291 0.010322 0.008109 0.010737
# 2 -0.003998 0.016181 -0.007584 0.001096 -0.004396 0.001897
# 3 -0.006291 -0.007584 0.020295 0.002278 0.007005 -0.004766
# 4 0.010322 0.001096 0.002278 0.030662 0.003491 -0.004397
# 5 0.008109 -0.004396 0.007005 0.003491 0.024571 0.005614
# 6 0.010737 0.001897 -0.004766 -0.004397 0.005614 0.042851
#
#
# Mechanical properties :
#
#
# Convention : Reuss Voigt Hill
#
# Bulk Modulus (GPa) = 40.91689 74.51294 57.71491
# Shear Modulus (GPa) = 24.73227 37.67955 31.20591
#
# Velocity S-wave (km/s) = 3.26534 4.03041 3.66788
# Velocity P-wave (km/s) = 5.64415 7.33366 6.54366
#
# Compressibility (1/GPa) = 0.02443979
#
# Stress axis : x y z
#
# Youngs Moduli (GPa) = 42.17399 61.80195 49.27325
#
# Poissons Ratio (x) = 0.24711 0.30996
# Poissons Ratio (y) = 0.16863 0.37371
# Poissons Ratio (z) = 0.26530 0.46874
#
# Static dielectric constant tensor:
#      x y z
#    x 1.998950 0.054050 0.084500 
#    y 0.054050 1.966820 0.053580 
#    z 0.084500 0.053580 1.975340 
# 
# From -- ./inp_files/208530.got.cif
#   From: 2010.05.17/outbox.cif.g08.bks.cpg/sg2_105_cif.got.tgz:208530.got - 2010.06.03 11:33:40.
