data_PCOD9088781
_publ_section_title
;
Structure prediction by ZEFSAII (Michael W. Deem and Ramdas Pophale) SiO2 
 PCOD9088781
Probable space group: P -1
;
_chemical_formula_sum "Si O2"
_cell_formula_units_Z 16
_cell_length_a 13.980095
_cell_length_b 13.209855
_cell_length_c 7.898888
_cell_angle_alpha 41.789389
_cell_angle_beta 132.460561
_cell_angle_gamma 140.592844
_cell_volume 599.974775
_symmetry_space_group_name_H-M "P -1"
_symmetry_group_IT_number 2
_symmetry_cell_setting 'triclinic'
loop_
_space_group_symop_operation_xyz
x,y,z
-x,-y,-z
loop_
_atom_site_type_symbol
_atom_site_label
_atom_site_fract_x
_atom_site_fract_y
_atom_site_fract_z
Si Si1 0.371491 0.462627 0.531357
Si Si2 0.515936 0.750456 0.870507
Si Si3 0.956492 0.503339 0.642795
Si Si4 0.706142 0.297870 0.044439
Si Si5 0.177396 0.131348 0.503894
Si Si6 0.970020 0.153871 0.796043
Si Si7 0.661602 0.931358 0.495882
Si Si8 0.229021 0.896016 0.083061
O O1 0.500000 0.500000 0.500000
O O2 0.221003 0.298918 0.463723
O O3 0.411420 0.369497 0.847128
O O4 0.353175 0.630615 0.267657
O O5 0.362796 0.678222 0.889295
O O6 0.524952 0.784081 0.638908
O O7 0.626997 0.958244 0.814524
O O8 0.106671 0.579072 0.850002
O O9 0.913210 0.653787 0.391124
O O10 0.000000 0.500000 0.500000
O O11 0.816235 0.302684 0.767771
O O12 0.633823 0.082967 0.199855
O O13 0.265165 0.173305 0.377654
O O14 0.000000 0.000000 0.500000
O O15 0.247005 0.017723 0.796868
O O16 0.928450 0.156061 0.938341
O O17 0.809500 0.077236 0.603793
O O18 0.000000 0.000000 0.000000
#
# Coordination Sequence:
#
# PCOD9088781 Si02
#       8
#     2   2   2   2   2   2   2   2
#     4   9  20  40  63  86 120 162 196 237 297 357
#     4   9  19  38  63  85 117 161 199 236 294 357
#     4   9  18  32  55  87 116 147 191 241 294 347
#     4  10  19  37  63  87 118 157 195 245 296 350
#     4  11  21  36  59  83 114 154 196 244 296 349
#     4   9  17  32  52  76 111 149 183 232 293 348
#     4  10  21  35  57  89 114 148 201 246 290 351
#     4   9  18  34  53  79 112 150 191 233 286 351
#
# _framework density 26.667788000000002
#
# number of rings (size 3 to 8) (size 9 to 14) (size 15 to 20)
#    0.000    2.500    0.000    2.625    0.000    1.000 
#    0.000   17.500    0.000   13.500    0.000    2.625 
#    0.000    0.000    0.000    0.000    0.000    0.000 
#
# Total GULP energy -89158.719228 kJ/mol
# GULP energy per Si atom -5572.419952 kJ/mol
# Density = 2.660709 g / cm^3
# Si number density = 26.667788 Si / 1000 Ang^3
#
#
#
# Elastic Constant Matrix: (Units=GPa)
#
#
# Indices 1 2 3 4 5 6 
#
# 1 120.9323 2.3520 27.7850 -6.7557 17.9414 -10.9112
# 2 2.3520 55.4463 37.9154 -16.5552 4.6059 12.6372
# 3 27.7850 37.9154 134.7127 -31.2575 24.2073 -16.6250
# 4 -6.7557 -16.5552 -31.2575 41.9399 -3.0105 5.4987
# 5 17.9414 4.6059 24.2073 -3.0105 24.6376 -4.8251
# 6 -10.9112 12.6372 -16.6250 5.4987 -4.8251 22.3747
#
#
#
# Elastic Compliance Matrix: (Units=1/GPa)
#
#
# Indices 1 2 3 4 5 6 
#
# 1 0.009535 -0.000322 -0.000353 0.000301 -0.005867 0.003230
# 2 -0.000322 0.036251 -0.011836 0.009605 0.000037 -0.031778
# 3 -0.000353 -0.011836 0.015229 0.004018 -0.009088 0.014881
# 4 0.000301 0.009605 0.004018 0.031820 -0.004234 -0.011026
# 5 -0.005867 0.000037 -0.009088 -0.004234 0.053857 0.003020
# 6 0.003230 -0.031778 0.014881 -0.011026 0.003020 0.078635
#
#
# Mechanical properties :
#
#
# Convention : Reuss Voigt Hill
#
# Bulk Modulus (GPa) = 27.78369 49.68845 38.73607
# Shear Modulus (GPa) = 19.05872 33.99305 26.52588
#
# Velocity S-wave (km/s) = 2.67623 3.57415 3.15727
# Velocity P-wave (km/s) = 4.47110 5.97541 5.27713
#
# Compressibility (1/GPa) = 0.03599233
#
# Stress axis : x y z
#
# Youngs Moduli (GPa) = 104.87477 27.58562 65.66312
#
# Poissons Ratio (x) = 0.00887 0.02321
# Poissons Ratio (y) = 0.03374 0.77721
# Poissons Ratio (z) = 0.03707 0.32651
#
# Static dielectric constant tensor:
#      x y z
#    x 2.217320 -0.091180 0.020450 
#    y -0.091180 2.178180 0.017260 
#    z 0.020450 0.017260 2.256930 
# 
# From -- ./inp_files/312446.got.cif
#   From: 2010.05.17/outbox.cif.g08.bks.cpg/sg2_157_cif.got.tgz:312446.got - 2010.06.03 11:33:40.
