data_PCOD9088535
_publ_section_title
;
Structure prediction by ZEFSAII (Michael W. Deem and Ramdas Pophale) SiO2 
 PCOD9088535
Probable space group: P -1
;
_chemical_formula_sum "Si O2"
_cell_formula_units_Z 16
_cell_length_a 8.920022
_cell_length_b 18.917585
_cell_length_c 18.441284
_cell_angle_alpha 21.146522
_cell_angle_beta 50.899210
_cell_angle_gamma 42.781267
_cell_volume 743.851111
_symmetry_space_group_name_H-M "P -1"
_symmetry_group_IT_number 2
_symmetry_cell_setting 'triclinic'
loop_
_space_group_symop_operation_xyz
x,y,z
-x,-y,-z
loop_
_atom_site_type_symbol
_atom_site_label
_atom_site_fract_x
_atom_site_fract_y
_atom_site_fract_z
Si Si1 0.450674 0.028799 0.168295
Si Si2 0.322058 0.659285 0.577215
Si Si3 0.148572 0.357839 0.671581
Si Si4 0.724473 0.325519 0.886041
Si Si5 0.428054 0.302384 0.779481
Si Si6 0.644790 0.677466 0.935949
Si Si7 0.066475 0.854925 0.193641
Si Si8 0.026518 0.205364 0.326465
O O1 0.412997 0.178950 0.107691
O O2 0.333694 0.884967 0.355060
O O3 0.705308 0.834522 0.250385
O O4 0.357402 0.196129 0.967973
O O5 0.543844 0.465880 0.740758
O O6 0.337556 0.559930 0.587909
O O7 0.096201 0.719634 0.630251
O O8 0.325978 0.289150 0.748617
O O9 0.098463 0.604754 0.423012
O O10 0.924232 0.377049 0.757398
O O11 0.556916 0.378065 0.955162
O O12 0.864290 0.048555 0.116339
O O13 0.697896 0.180558 0.815818
O O14 0.729832 0.815197 0.729184
O O15 0.860808 0.422097 0.119568
O O16 0.000000 0.000000 0.000000
O O17 0.000000 0.000000 0.500000
#
# Coordination Sequence:
#
# PCOD9088535 Si02
#       8
#     2   2   2   2   2   2   2   2
#     4  12  21  37  62  88 127 168 205 254 308 372
#     4  11  23  37  65  93 124 162 214 266 321 363
#     4  12  28  37  63  90 137 176 209 247 314 377
#     4  11  24  38  57  93 125 170 208 261 310 370
#     4  12  24  43  56  94 133 169 215 254 305 377
#     4  10  22  36  60  95 127 153 211 273 313 371
#     4  12  23  40  61  86 124 172 216 257 300 362
#     4  10  19  37  61  94 123 155 204 277 329 358
#
# _framework density 21.509682000000002
#
# number of rings (size 3 to 8) (size 9 to 14) (size 15 to 20)
#    0.000    0.750    7.500    0.750    3.500    1.000 
#    0.000    0.000    0.000    0.750    0.000    5.250 
#    0.000    0.000    0.000    0.000    0.000    0.000 
#
# Total GULP energy -89107.256052 kJ/mol
# GULP energy per Si atom -5569.203503 kJ/mol
# Density = 2.146072 g / cm^3
# Si number density = 21.509682 Si / 1000 Ang^3
#
#
#
# Elastic Constant Matrix: (Units=GPa)
#
#
# Indices 1 2 3 4 5 6 
#
# 1 69.4674 35.0294 20.5189 -0.2893 -2.1651 -8.7560
# 2 35.0294 108.3220 25.7451 13.7287 -2.6481 -30.8918
# 3 20.5189 25.7451 123.7643 5.7373 -25.6872 -10.3517
# 4 -0.2893 13.7287 5.7373 36.9767 -5.4278 -17.3494
# 5 -2.1651 -2.6481 -25.6872 -5.4278 31.9820 6.7033
# 6 -8.7560 -30.8918 -10.3517 -17.3494 6.7033 30.4614
#
#
#
# Elastic Compliance Matrix: (Units=1/GPa)
#
#
# Indices 1 2 3 4 5 6 
#
# 1 0.017812 -0.005494 -0.001997 0.002643 -0.000507 0.000486
# 2 -0.005494 0.015453 -0.001840 0.000916 -0.003509 0.014761
# 3 -0.001997 -0.001840 0.010446 -0.000100 0.008245 -0.000762
# 4 0.002643 0.000916 -0.000100 0.037659 0.001806 0.022705
# 5 -0.000507 -0.003509 0.008245 0.001806 0.039675 -0.008604
# 6 0.000486 0.014761 -0.000762 0.022705 -0.008604 0.062504
#
#
# Mechanical properties :
#
#
# Convention : Reuss Voigt Hill
#
# Bulk Modulus (GPa) = 39.92105 51.57117 45.74611
# Shear Modulus (GPa) = 23.74604 34.56803 29.15703
#
# Velocity S-wave (km/s) = 3.32621 4.01320 3.68575
# Velocity P-wave (km/s) = 5.77507 6.74554 6.27908
#
# Compressibility (1/GPa) = 0.02504944
#
# Stress axis : x y z
#
# Youngs Moduli (GPa) = 56.14157 64.71030 95.73154
#
# Poissons Ratio (x) = 0.35552 0.19119
# Poissons Ratio (y) = 0.30845 0.17612
# Poissons Ratio (z) = 0.11212 0.11905
#
# Static dielectric constant tensor:
#      x y z
#    x 1.870550 -0.016080 -0.057710 
#    y -0.016080 1.863040 0.005920 
#    z -0.057710 0.005920 1.850750 
# 
# From -- ./inp_files/591600.got.cif
#   From: 2010.05.17/outbox.cif.g08.bks.cpg/sg2_296_cif.got.tgz:591600.got - 2010.06.03 11:33:40.
