data_PCOD9088882
_publ_section_title
;
Structure prediction by ZEFSAII (Michael W. Deem and Ramdas Pophale) SiO2 
 PCOD9088882
Probable space group: P -1
;
_chemical_formula_sum "Si O2"
_cell_formula_units_Z 16
_cell_length_a 13.233792
_cell_length_b 11.780298
_cell_length_c 9.239453
_cell_angle_alpha 66.803790
_cell_angle_beta 46.672939
_cell_angle_gamma 45.012401
_cell_volume 729.348469
_symmetry_space_group_name_H-M "P -1"
_symmetry_group_IT_number 2
_symmetry_cell_setting 'triclinic'
loop_
_space_group_symop_operation_xyz
x,y,z
-x,-y,-z
loop_
_atom_site_type_symbol
_atom_site_label
_atom_site_fract_x
_atom_site_fract_y
_atom_site_fract_z
Si Si1 0.088183 0.432412 0.783560
Si Si2 0.268806 0.239202 0.111406
Si Si3 0.247389 0.697757 0.617837
Si Si4 0.942884 0.974067 0.220224
Si Si5 0.843004 0.170167 0.652035
Si Si6 0.624313 0.065667 0.004711
Si Si7 0.375053 0.376606 0.701629
Si Si8 0.295245 0.067555 0.691102
O O1 0.287542 0.377979 0.638910
O O2 0.143276 0.263684 0.764578
O O3 0.000000 0.500000 0.000000
O O4 0.936433 0.589360 0.757038
O O5 0.363982 0.273923 0.879919
O O6 0.407333 0.166280 0.146282
O O7 0.275433 0.097930 0.109133
O O8 0.222710 0.694176 0.471910
O O9 0.250511 0.568380 0.765302
O O10 0.429908 0.672251 0.477970
O O11 0.096039 0.877183 0.731716
O O12 0.775282 0.980574 0.343187
O O13 0.081080 0.826931 0.270108
O O14 0.000000 0.000000 0.000000
O O15 0.680531 0.167618 0.843345
O O16 0.000000 0.000000 0.500000
O O17 0.688636 0.012274 0.131878
O O18 0.500000 0.000000 0.500000
#
# Coordination Sequence:
#
# PCOD9088882 Si02
#       8
#     2   2   2   2   2   2   2   2
#     4  10  21  38  65  94 123 168 222 267 319 393
#     4  10  22  35  67  94 128 163 226 277 326 375
#     4  10  22  38  64  92 128 168 218 271 322 402
#     4  11  24  37  64  94 132 173 217 267 339 401
#     4  10  22  38  63  93 128 169 227 273 325 393
#     4  11  21  40  63  99 130 173 218 284 329 394
#     4  10  19  37  63  94 122 162 218 269 330 380
#     4  12  25  43  68  94 139 178 219 274 347 405
#
# _framework density 21.937387999999999
#
# number of rings (size 3 to 8) (size 9 to 14) (size 15 to 20)
#    0.000    1.500    5.000    0.750    7.000    1.000 
#    0.000    0.625    5.500    4.500    0.000    0.000 
#    0.000    0.000    0.000    0.000    0.000    0.000 
#
# Total GULP energy -89203.211036 kJ/mol
# GULP energy per Si atom -5575.200690 kJ/mol
# Density = 2.188746 g / cm^3
# Si number density = 21.937388 Si / 1000 Ang^3
#
#
#
# Elastic Constant Matrix: (Units=GPa)
#
#
# Indices 1 2 3 4 5 6 
#
# 1 121.2342 10.8812 21.2806 -12.5868 6.2341 -22.5368
# 2 10.8812 76.4805 3.5998 -3.6032 14.5897 -8.6119
# 3 21.2806 3.5998 43.4790 -1.7749 -2.2334 -2.3433
# 4 -12.5868 -3.6032 -1.7749 17.9041 0.1492 -6.3217
# 5 6.2341 14.5897 -2.2334 0.1492 28.3496 -0.9234
# 6 -22.5368 -8.6119 -2.3433 -6.3217 -0.9234 37.8774
#
#
#
# Elastic Compliance Matrix: (Units=1/GPa)
#
#
# Indices 1 2 3 4 5 6 
#
# 1 0.012067 0.000653 -0.005190 0.011236 -0.003171 0.008805
# 2 0.000653 0.015322 -0.001558 0.005015 -0.008034 0.004417
# 3 -0.005190 -0.001558 0.025665 -0.002201 0.003907 -0.002127
# 4 0.011236 0.005015 -0.002201 0.071468 -0.004966 0.019496
# 5 -0.003171 -0.008034 0.003907 -0.004966 0.040332 -0.003317
# 6 0.008805 0.004417 -0.002127 0.019496 -0.003317 0.035686
#
#
# Mechanical properties :
#
#
# Convention : Reuss Voigt Hill
#
# Bulk Modulus (GPa) = 24.47128 34.74632 29.60880
# Shear Modulus (GPa) = 22.08953 30.52169 26.30561
#
# Velocity S-wave (km/s) = 3.17667 3.73407 3.46659
# Velocity P-wave (km/s) = 4.96329 5.87063 5.43592
#
# Compressibility (1/GPa) = 0.04086423
#
# Stress axis : x y z
#
# Youngs Moduli (GPa) = 82.86811 65.26618 38.96348
#
# Poissons Ratio (x) = -0.04263 0.20222
# Poissons Ratio (y) = -0.05413 0.06071
# Poissons Ratio (z) = 0.43009 0.10170
#
# Static dielectric constant tensor:
#      x y z
#    x 1.877610 -0.069980 -0.006580 
#    y -0.069980 1.908180 -0.022740 
#    z -0.006580 -0.022740 1.874500 
# 
# From -- ./inp_files/257942.got.cif
#   From: 2010.05.17/outbox.cif.g08.bks.cpg/sg2_129_cif.got.tgz:257942.got - 2010.06.03 11:33:40.
