data_PCOD9088927
_publ_section_title
;
Structure prediction by ZEFSAII (Michael W. Deem and Ramdas Pophale) SiO2 
 PCOD9088927
Probable space group: P -1
;
_chemical_formula_sum "Si O2"
_cell_formula_units_Z 16
_cell_length_a 8.504945
_cell_length_b 14.823236
_cell_length_c 12.918949
_cell_angle_alpha 122.577089
_cell_angle_beta 128.290173
_cell_angle_gamma 98.797346
_cell_volume 729.625929
_symmetry_space_group_name_H-M "P -1"
_symmetry_group_IT_number 2
_symmetry_cell_setting 'triclinic'
loop_
_space_group_symop_operation_xyz
x,y,z
-x,-y,-z
loop_
_atom_site_type_symbol
_atom_site_label
_atom_site_fract_x
_atom_site_fract_y
_atom_site_fract_z
Si Si1 0.842555 0.808753 0.530539
Si Si2 0.742953 0.114373 0.081489
Si Si3 0.876689 0.626156 0.016471
Si Si4 0.691471 0.549954 0.209516
Si Si5 0.736593 0.377656 0.700397
Si Si6 0.715388 0.936693 0.789457
Si Si7 0.252337 0.633692 0.765825
Si Si8 0.058097 0.113173 0.828481
O O1 0.902704 0.733733 0.431029
O O2 0.503444 0.707000 0.355355
O O3 0.972193 0.823189 0.704317
O O4 0.988887 0.976402 0.654856
O O5 0.786591 0.255803 0.160690
O O6 0.500000 0.000000 0.000000
O O7 0.642847 0.009017 0.875771
O O8 0.018097 0.798870 0.188476
O O9 0.019592 0.610414 0.154809
O O10 0.535821 0.519859 0.831773
O O11 0.878417 0.552494 0.868589
O O12 0.780839 0.462216 0.209973
O O13 0.500000 0.500000 0.000000
O O14 0.552628 0.252291 0.454650
O O15 0.850394 0.022313 0.787515
O O16 0.000000 0.000000 0.000000
O O17 0.000000 0.500000 0.500000
O O18 0.585686 0.753382 0.928337
#
# Coordination Sequence:
#
# PCOD9088927 Si02
#       8
#     2   2   2   2   2   2   2   2
#     4  10  19  37  64  80 124 162 197 257 319 354
#     4  12  22  40  62  91 127 164 200 256 320 378
#     4   9  20  40  62  84 120 162 211 251 319 365
#     4  10  22  41  60  88 126 163 213 257 308 375
#     4   9  19  39  61  83 118 161 201 256 310 363
#     4  11  21  38  61  92 121 154 209 253 304 372
#     4  11  22  41  65  90 126 171 205 253 323 376
#     4  10  21  40  63  90 118 163 208 258 306 375
#
# _framework density 21.929046
#
# number of rings (size 3 to 8) (size 9 to 14) (size 15 to 20)
#    0.000    1.750    5.000    0.000    0.000    3.000 
#   11.250    2.500    0.000    0.000    0.000    0.000 
#    0.000    0.000    0.000    0.000    0.000    0.000 
#
# Total GULP energy -89067.476728 kJ/mol
# GULP energy per Si atom -5566.717296 kJ/mol
# Density = 2.187913 g / cm^3
# Si number density = 21.929046 Si / 1000 Ang^3
#
#
#
# Elastic Constant Matrix: (Units=GPa)
#
#
# Indices 1 2 3 4 5 6 
#
# 1 59.7270 20.4944 27.3041 16.9583 -17.4671 -22.2952
# 2 20.4944 115.9665 38.0244 25.6410 -29.3464 -43.3871
# 3 27.3041 38.0244 111.7805 11.9664 -30.9013 -21.4862
# 4 16.9583 25.6410 11.9664 34.4872 -13.4758 -8.8682
# 5 -17.4671 -29.3464 -30.9013 -13.4758 54.6560 10.3815
# 6 -22.2952 -43.3871 -21.4862 -8.8682 10.3815 35.9226
#
#
#
# Elastic Compliance Matrix: (Units=1/GPa)
#
#
# Indices 1 2 3 4 5 6 
#
# 1 0.027458 0.007072 -0.002889 -0.010898 0.004478 0.019870
# 2 0.007072 0.020465 -0.001492 -0.009844 0.005375 0.024230
# 3 -0.002889 -0.001492 0.011821 0.000875 0.004733 0.002324
# 4 -0.010898 -0.009844 0.000875 0.040350 0.003414 -0.009155
# 5 0.004478 0.005375 0.004733 0.003414 0.025047 0.005707
# 6 0.019870 0.024230 0.002324 -0.009155 0.005707 0.066916
#
#
# Mechanical properties :
#
#
# Convention : Reuss Voigt Hill
#
# Bulk Modulus (GPa) = 15.35482 51.01332 33.18407
# Shear Modulus (GPa) = 23.99428 38.45656 31.22542
#
# Velocity S-wave (km/s) = 3.31142 4.19224 3.77759
# Velocity P-wave (km/s) = 4.65166 6.83715 5.84742
#
# Compressibility (1/GPa) = 0.06512615
#
# Stress axis : x y z
#
# Youngs Moduli (GPa) = 36.41936 48.86441 84.59760
#
# Poissons Ratio (x) = -0.34554 0.24437
# Poissons Ratio (y) = -0.25754 0.12618
# Poissons Ratio (z) = 0.10520 0.07288
#
# Static dielectric constant tensor:
#      x y z
#    x 1.830020 -0.123020 -0.030870 
#    y -0.123020 1.747470 0.069430 
#    z -0.030870 0.069430 1.924430 
# 
# From -- ./inp_files/226136.got.cif
#   From: 2010.05.17/outbox.cif.g08.bks.cpg/sg2_114_cif.got.tgz:226136.got - 2010.06.03 11:33:40.
