data_PCOD9088431
_publ_section_title
;
Structure prediction by ZEFSAII (Michael W. Deem and Ramdas Pophale) SiO2 
 PCOD9088431
Probable space group: P -1
;
_chemical_formula_sum "Si O2"
_cell_formula_units_Z 16
_cell_length_a 16.331709
_cell_length_b 8.404218
_cell_length_c 13.953513
_cell_angle_alpha 149.316363
_cell_angle_beta 44.264814
_cell_angle_gamma 135.266030
_cell_volume 657.686312
_symmetry_space_group_name_H-M "P -1"
_symmetry_group_IT_number 2
_symmetry_cell_setting 'triclinic'
loop_
_space_group_symop_operation_xyz
x,y,z
-x,-y,-z
loop_
_atom_site_type_symbol
_atom_site_label
_atom_site_fract_x
_atom_site_fract_y
_atom_site_fract_z
Si Si1 0.623870 0.937035 0.239649
Si Si2 0.228748 0.379609 0.815729
Si Si3 0.420034 0.143899 0.403407
Si Si4 0.127139 0.721634 0.914446
Si Si5 0.115579 0.407796 0.311329
Si Si6 0.773493 0.262576 0.442443
Si Si7 0.994077 0.617802 0.797250
Si Si8 0.388143 0.781244 0.044538
O O1 0.603023 0.568283 0.102225
O O2 0.509868 0.964355 0.287237
O O3 0.748817 0.095197 0.155402
O O4 0.653074 0.162180 0.427484
O O5 0.327043 0.234376 0.602098
O O6 0.157620 0.495631 0.851680
O O7 0.282703 0.667209 0.993960
O O8 0.177311 0.057818 0.753108
O O9 0.500000 0.500000 0.500000
O O10 0.373988 0.981081 0.255311
O O11 0.015226 0.530469 0.843059
O O12 0.093296 0.029406 0.145079
O O13 0.230028 0.576545 0.368351
O O14 0.000000 0.500000 0.500000
O O15 0.115474 0.502749 0.248558
O O16 0.888525 0.472858 0.395756
O O17 0.000000 0.000000 0.000000
O O18 0.500000 0.000000 0.000000
#
# Coordination Sequence:
#
# PCOD9088431 Si02
#       8
#     2   2   2   2   2   2   2   2
#     4  10  22  39  60  87 117 168 202 241 307 348
#     4  11  24  41  56  90 128 157 200 257 295 351
#     4  12  23  41  60  85 127 163 206 251 296 353
#     4  10  19  37  61  86 121 158 195 245 304 358
#     4   9  18  36  60  89 112 148 198 241 299 369
#     4   9  20  36  59  88 118 149 203 248 297 361
#     4   8  16  35  61  82 113 151 190 242 300 367
#     4  11  23  41  58  85 122 162 208 253 294 353
#
# _framework density 24.327707
#
# number of rings (size 3 to 8) (size 9 to 14) (size 15 to 20)
#    0.000    2.000    2.500    0.375    1.750    3.000 
#    4.500    6.250    0.000    0.000    0.000    0.000 
#    0.000    0.000    0.000    0.000    0.000    0.000 
#
# Total GULP energy -89223.227401 kJ/mol
# GULP energy per Si atom -5576.451713 kJ/mol
# Density = 2.427234 g / cm^3
# Si number density = 24.327707 Si / 1000 Ang^3
#
#
#
# Elastic Constant Matrix: (Units=GPa)
#
#
# Indices 1 2 3 4 5 6 
#
# 1 138.2203 19.2656 51.4640 -7.7825 30.9014 -26.2929
# 2 19.2656 90.9453 16.3533 -12.2152 2.8236 -6.7830
# 3 51.4640 16.3533 81.0591 -18.6405 34.8440 3.5693
# 4 -7.7825 -12.2152 -18.6405 33.3897 -1.1384 -0.8980
# 5 30.9014 2.8236 34.8440 -1.1384 60.1954 2.9173
# 6 -26.2929 -6.7830 3.5693 -0.8980 2.9173 31.8336
#
#
#
# Elastic Compliance Matrix: (Units=1/GPa)
#
#
# Indices 1 2 3 4 5 6 
#
# 1 0.012954 -0.000570 -0.007748 -0.001294 -0.002728 0.011660
# 2 -0.000570 0.012027 -0.001652 0.003429 0.000637 0.002315
# 3 -0.007748 -0.001652 0.024521 0.010730 -0.009533 -0.008324
# 4 -0.001294 0.003429 0.010730 0.036720 -0.005011 -0.000046
# 5 -0.002728 0.000637 -0.009533 -0.005011 0.023569 -0.003350
# 6 0.011660 0.002315 -0.008324 -0.000046 -0.003350 0.042776
#
#
# Mechanical properties :
#
#
# Convention : Reuss Voigt Hill
#
# Bulk Modulus (GPa) = 33.82721 53.82114 43.82417
# Shear Modulus (GPa) = 27.41820 39.95986 33.68903
#
# Velocity S-wave (km/s) = 3.36078 4.05725 3.72533
# Velocity P-wave (km/s) = 5.38468 6.64228 6.04626
#
# Compressibility (1/GPa) = 0.02956200
#
# Stress axis : x y z
#
# Youngs Moduli (GPa) = 77.19512 83.14719 40.78199
#
# Poissons Ratio (x) = 0.04743 0.31597
# Poissons Ratio (y) = 0.04404 0.06735
# Poissons Ratio (z) = 0.59809 0.13732
#
# Static dielectric constant tensor:
#      x y z
#    x 1.985100 -0.046330 0.057300 
#    y -0.046330 2.033610 -0.122150 
#    z 0.057300 -0.122150 1.925580 
# 
# From -- ./inp_files/329664.got.cif
#   From: 2010.05.17/outbox.cif.g08.bks.cpg/sg2_165_cif.got.tgz:329664.got - 2010.06.03 11:33:40.
