data_PCOD9088395
_publ_section_title
;
Structure prediction by ZEFSAII (Michael W. Deem and Ramdas Pophale) SiO2 
 PCOD9088395
Probable space group: P -1
;
_chemical_formula_sum "Si O2"
_cell_formula_units_Z 16
_cell_length_a 7.706509
_cell_length_b 6.569889
_cell_length_c 14.463340
_cell_angle_alpha 111.478801
_cell_angle_beta 78.368818
_cell_angle_gamma 105.421851
_cell_volume 652.450555
_symmetry_space_group_name_H-M "P -1"
_symmetry_group_IT_number 2
_symmetry_cell_setting 'triclinic'
loop_
_space_group_symop_operation_xyz
x,y,z
-x,-y,-z
loop_
_atom_site_type_symbol
_atom_site_label
_atom_site_fract_x
_atom_site_fract_y
_atom_site_fract_z
Si Si1 0.674638 0.100263 0.058552
Si Si2 0.432917 0.861465 0.196683
Si Si3 0.742055 0.522332 0.472570
Si Si4 0.514422 0.065684 0.402187
Si Si5 0.255809 0.386975 0.844968
Si Si6 0.895057 0.035209 0.868332
Si Si7 0.068689 0.274832 0.348830
Si Si8 0.170348 0.157834 0.640750
O O1 0.741076 0.363766 0.082495
O O2 0.592920 0.045407 0.160464
O O3 0.821839 0.989771 0.972276
O O4 0.500000 0.000000 0.000000
O O5 0.542564 0.660712 0.163578
O O6 0.251822 0.847705 0.152096
O O7 0.384205 0.944061 0.316834
O O8 0.570829 0.330852 0.433227
O O9 0.765976 0.573840 0.587610
O O10 0.768432 0.750635 0.450647
O O11 0.913017 0.416504 0.403146
O O12 0.500000 0.000000 0.500000
O O13 0.692836 0.970311 0.343830
O O14 0.194650 0.370104 0.740542
O O15 0.092239 0.199019 0.872935
O O16 0.899401 0.810105 0.771277
O O17 0.006020 0.037564 0.370579
#
# Coordination Sequence:
#
# PCOD9088395 Si02
#       8
#     2   2   2   2   2   2   2   2
#     4  10  22  42  67  95 127 167 214 262 320 379
#     4  10  23  44  65  89 135 167 203 276 315 365
#     4  10  19  37  61  83 125 171 199 259 325 361
#     4  10  22  38  57  90 124 163 218 253 310 385
#     4  10  21  42  65  92 128 166 211 257 323 382
#     4  10  22  41  65  97 125 166 220 260 310 389
#     4   9  20  37  56  92 124 154 212 261 307 384
#     4   9  19  36  61  84 118 165 202 254 316 374
#
# _framework density 24.522929999999999
#
# number of rings (size 3 to 8) (size 9 to 14) (size 15 to 20)
#    0.000    2.250    0.000    2.250    1.750    3.000 
#   13.500    5.000    0.000    0.000    0.000    0.000 
#    0.000    0.000    0.000    0.000    0.000    0.000 
#
# Total GULP energy -89173.204057 kJ/mol
# GULP energy per Si atom -5573.325254 kJ/mol
# Density = 2.446711 g / cm^3
# Si number density = 24.522930 Si / 1000 Ang^3
#
#
#
# Elastic Constant Matrix: (Units=GPa)
#
#
# Indices 1 2 3 4 5 6 
#
# 1 103.0113 12.7164 20.8027 -1.7186 4.7486 -5.4449
# 2 12.7164 45.2873 25.2931 8.4142 5.6119 -14.6374
# 3 20.8027 25.2931 101.5235 13.9324 1.1138 -14.5295
# 4 -1.7186 8.4142 13.9324 38.6345 1.0822 0.7202
# 5 4.7486 5.6119 1.1138 1.0822 33.1917 3.3955
# 6 -5.4449 -14.6374 -14.5295 0.7202 3.3955 18.5383
#
#
#
# Elastic Compliance Matrix: (Units=1/GPa)
#
#
# Indices 1 2 3 4 5 6 
#
# 1 0.010410 -0.001990 -0.001810 0.001578 -0.001166 0.000221
# 2 -0.001990 0.035413 -0.003642 -0.006752 -0.008047 0.026258
# 3 -0.001810 -0.003642 0.012626 -0.003962 -0.000101 0.006661
# 4 0.001578 -0.006752 -0.003962 0.028997 0.001054 -0.009293
# 5 -0.001166 -0.008047 -0.000101 0.001054 0.032939 -0.012849
# 6 0.000221 0.026258 0.006661 -0.009293 -0.012849 0.082676
#
#
# Mechanical properties :
#
#
# Convention : Reuss Voigt Hill
#
# Bulk Modulus (GPa) = 22.95342 40.82737 31.89040
# Shear Modulus (GPa) = 21.50858 30.80689 26.15773
#
# Velocity S-wave (km/s) = 2.96477 3.54820 3.26953
# Velocity P-wave (km/s) = 4.59348 5.78542 5.22356
#
# Compressibility (1/GPa) = 0.04356649
#
# Stress axis : x y z
#
# Youngs Moduli (GPa) = 96.05697 28.23851 79.20029
#
# Poissons Ratio (x) = 0.05619 0.14332
# Poissons Ratio (y) = 0.19114 0.28845
# Poissons Ratio (z) = 0.17382 0.10285
#
# Static dielectric constant tensor:
#      x y z
#    x 2.040310 -0.055840 -0.054040 
#    y -0.055840 1.930630 -0.005500 
#    z -0.054040 -0.005500 2.089990 
# 
# From -- ./inp_files/48893.got.cif
#   From: 2010.05.17/outbox.cif.g08.bks.cpg/sg2_25_cif.got.tgz:48893.got - 2010.06.03 11:33:40.
