data_PCOD9088153
_publ_section_title
;
Structure prediction by ZEFSAII (Michael W. Deem and Ramdas Pophale) SiO2 
 PCOD9088153
Probable space group: P -1
;
_chemical_formula_sum "Si O2"
_cell_formula_units_Z 16
_cell_length_a 15.869580
_cell_length_b 7.692290
_cell_length_c 7.331117
_cell_angle_alpha 59.207845
_cell_angle_beta 74.770113
_cell_angle_gamma 105.111680
_cell_volume 652.039649
_symmetry_space_group_name_H-M "P -1"
_symmetry_group_IT_number 2
_symmetry_cell_setting 'triclinic'
loop_
_space_group_symop_operation_xyz
x,y,z
-x,-y,-z
loop_
_atom_site_type_symbol
_atom_site_label
_atom_site_fract_x
_atom_site_fract_y
_atom_site_fract_z
Si Si1 0.712576 0.329692 0.978302
Si Si2 0.076804 0.980455 0.332669
Si Si3 0.241725 0.196660 0.420043
Si Si4 0.491351 0.066721 0.677442
Si Si5 0.850009 0.358163 0.609104
Si Si6 0.853406 0.790422 0.201908
Si Si7 0.353079 0.061165 0.201722
Si Si8 0.651101 0.534632 0.238950
O O1 0.707403 0.526710 0.748577
O O2 0.818669 0.356447 0.840258
O O3 0.624169 0.073969 0.131536
O O4 0.692698 0.403307 0.149019
O O5 0.180003 0.131814 0.300317
O O6 0.074411 0.737302 0.430292
O O7 0.079523 0.077900 0.077711
O O8 0.000000 0.000000 0.500000
O O9 0.161052 0.079651 0.686423
O O10 0.321463 0.110284 0.394707
O O11 0.551651 0.971760 0.814412
O O12 0.500000 0.000000 0.500000
O O13 0.553279 0.341059 0.496032
O O14 0.879254 0.600436 0.370312
O O15 0.743243 0.169973 0.686627
O O16 0.741460 0.670967 0.250214
O O17 0.371714 0.285935 0.955455
#
# Coordination Sequence:
#
# PCOD9088153 Si02
#       8
#     2   2   2   2   2   2   2   2
#     4   9  19  37  58  83 125 157 205 250 292 344
#     4  11  24  45  67  93 123 149 197 263 310 372
#     4   9  21  39  64  90 120 165 201 248 305 368
#     4  10  21  33  57  87 122 165 216 248 292 344
#     4  10  21  39  63  91 115 163 205 242 311 372
#     4  11  20  40  66  87 125 161 203 244 309 368
#     4  10  19  38  57  83 126 161 210 252 294 345
#     4  10  19  37  59  87 120 170 203 249 296 350
#
# _framework density 24.538385000000002
#
# number of rings (size 3 to 8) (size 9 to 14) (size 15 to 20)
#    0.000    2.000    5.000    0.000    0.000    8.000 
#    0.000    4.375    0.000    0.000    0.000    0.000 
#    0.000    0.000    0.000    0.000    0.000    0.000 
#
# Total GULP energy -89420.754449 kJ/mol
# GULP energy per Si atom -5588.797153 kJ/mol
# Density = 2.448253 g / cm^3
# Si number density = 24.538385 Si / 1000 Ang^3
#
#
#
# Elastic Constant Matrix: (Units=GPa)
#
#
# Indices 1 2 3 4 5 6 
#
# 1 66.1479 18.2196 36.3825 -5.6015 8.7598 -12.0511
# 2 18.2196 99.4060 46.9420 9.4061 0.2892 -28.0858
# 3 36.3825 46.9420 134.1868 10.5358 -0.7531 -26.4749
# 4 -5.6015 9.4061 10.5358 45.7519 -3.5420 -4.4433
# 5 8.7598 0.2892 -0.7531 -3.5420 30.6144 0.1859
# 6 -12.0511 -28.0858 -26.4749 -4.4433 0.1859 37.8465
#
#
#
# Elastic Compliance Matrix: (Units=1/GPa)
#
#
# Indices 1 2 3 4 5 6 
#
# 1 0.019452 -0.000893 -0.004744 0.003506 -0.005285 0.002651
# 2 -0.000893 0.013994 -0.002988 -0.001552 -0.000177 0.007829
# 3 -0.004744 -0.002988 0.010631 -0.001969 0.001398 0.003471
# 4 0.003506 -0.001552 -0.001969 0.023314 0.001652 0.001316
# 5 -0.005285 -0.000177 0.001398 0.001652 0.034409 -0.000811
# 6 0.002651 0.007829 0.003471 0.001316 -0.000811 0.035663
#
#
# Mechanical properties :
#
#
# Convention : Reuss Voigt Hill
#
# Bulk Modulus (GPa) = 37.27396 55.86988 46.57192
# Shear Modulus (GPa) = 30.55219 36.05566 33.30392
#
# Velocity S-wave (km/s) = 3.53239 3.83738 3.68804
# Velocity P-wave (km/s) = 5.64448 6.51550 6.09557
#
# Compressibility (1/GPa) = 0.02682838
#
# Stress axis : x y z
#
# Youngs Moduli (GPa) = 51.40776 71.46124 94.06451
#
# Poissons Ratio (x) = 0.06379 0.44623
# Poissons Ratio (y) = 0.04589 0.28105
# Poissons Ratio (z) = 0.24387 0.21351
#
# Static dielectric constant tensor:
#      x y z
#    x 1.978000 0.003600 -0.047240 
#    y 0.003600 2.033080 0.058670 
#    z -0.047240 0.058670 2.014480 
# 
# From -- ./inp_files/327079.got.cif
#   From: 2010.05.17/outbox.cif.g08.bks.cpg/sg2_164_cif.got.tgz:327079.got - 2010.06.03 11:33:40.
