data_PCOD9088020
_publ_section_title
;
Structure prediction by ZEFSAII (Michael W. Deem and Ramdas Pophale) SiO2 
 PCOD9088020
Probable space group: P -1
;
_chemical_formula_sum "Si O2"
_cell_formula_units_Z 16
_cell_length_a 8.252317
_cell_length_b 17.190858
_cell_length_c 9.020129
_cell_angle_alpha 54.040581
_cell_angle_beta 48.138800
_cell_angle_gamma 87.996477
_cell_volume 621.687275
_symmetry_space_group_name_H-M "P -1"
_symmetry_group_IT_number 2
_symmetry_cell_setting 'triclinic'
loop_
_space_group_symop_operation_xyz
x,y,z
-x,-y,-z
loop_
_atom_site_type_symbol
_atom_site_label
_atom_site_fract_x
_atom_site_fract_y
_atom_site_fract_z
Si Si1 0.811600 0.455457 0.434564
Si Si2 0.710618 0.733224 0.580797
Si Si3 0.044638 0.349344 0.289660
Si Si4 0.558506 0.875886 0.013065
Si Si5 0.264381 0.979310 0.980246
Si Si6 0.785740 0.743077 0.976684
Si Si7 0.946051 0.151410 0.010387
Si Si8 0.809163 0.324208 0.880202
O O1 0.504474 0.373604 0.659978
O O2 0.818342 0.390649 0.652450
O O3 0.020324 0.457834 0.192891
O O4 0.929990 0.585725 0.277493
O O5 0.753349 0.636930 0.722288
O O6 0.761393 0.759888 0.346483
O O7 0.980943 0.856708 0.338545
O O8 0.445059 0.708850 0.833484
O O9 0.738625 0.239771 0.637482
O O10 0.124003 0.310641 0.139305
O O11 0.510289 0.969002 0.870550
O O12 0.709076 0.833323 0.874303
O O13 0.696968 0.925245 0.034678
O O14 0.212135 0.974839 0.839592
O O15 0.011545 0.823518 0.871537
O O16 0.795159 0.208650 0.982867
#
# Coordination Sequence:
#
# PCOD9088020 Si02
#       8
#     2   2   2   2   2   2   2   2
#     4  10  22  36  60  85 111 144 196 238 269 332
#     4   9  19  36  59  79 111 149 184 229 277 328
#     4  10  19  37  58  85 110 148 191 230 274 336
#     4   9  18  38  61  83 112 146 194 231 270 331
#     4   8  18  39  59  84 113 145 187 241 266 327
#     4  11  22  37  58  84 119 150 179 232 292 328
#     4  10  22  38  55  85 121 144 182 238 280 332
#     4  11  20  37  61  84 107 152 193 231 279 331
#
# _framework density 25.736408999999998
#
# number of rings (size 3 to 8) (size 9 to 14) (size 15 to 20)
#    0.750    1.500    2.500    0.750    0.000    4.500 
#    2.250    3.750    0.000    0.000    0.000    0.000 
#    0.000    0.000    0.000    0.000    0.000    0.000 
#
# Total GULP energy -89303.498917 kJ/mol
# GULP energy per Si atom -5581.468682 kJ/mol
# Density = 2.567783 g / cm^3
# Si number density = 25.736409 Si / 1000 Ang^3
#
#
#
# Elastic Constant Matrix: (Units=GPa)
#
#
# Indices 1 2 3 4 5 6 
#
# 1 77.5120 13.7014 22.5779 3.8175 1.4792 18.2641
# 2 13.7014 132.4658 27.0903 22.2730 -3.0873 15.2887
# 3 22.5779 27.0903 49.8211 23.6629 -8.8935 -8.4445
# 4 3.8175 22.2730 23.6629 38.0852 -0.1743 -15.3912
# 5 1.4792 -3.0873 -8.8935 -0.1743 19.2216 -0.2070
# 6 18.2641 15.2887 -8.4445 -15.3912 -0.2070 40.7561
#
#
#
# Elastic Compliance Matrix: (Units=1/GPa)
#
#
# Indices 1 2 3 4 5 6 
#
# 1 0.019452 0.001895 -0.013402 0.000339 -0.007521 -0.012115
# 2 0.001895 0.010397 -0.004983 -0.006510 -0.000929 -0.008245
# 3 -0.013402 -0.004983 0.042739 -0.018177 0.019948 0.009968
# 4 0.000339 -0.006510 -0.018177 0.047993 -0.008868 0.016603
# 5 -0.007521 -0.000929 0.019948 -0.008868 0.061655 0.004817
# 6 -0.012115 -0.008245 0.009968 0.016603 0.004817 0.041418
#
#
# Mechanical properties :
#
#
# Convention : Reuss Voigt Hill
#
# Bulk Modulus (GPa) = 25.24878 42.94868 34.09873
# Shear Modulus (GPa) = 18.52966 32.70787 25.61876
#
# Velocity S-wave (km/s) = 2.68615 3.56881 3.15846
# Velocity P-wave (km/s) = 4.41048 5.80569 5.15550
#
# Compressibility (1/GPa) = 0.03960588
#
# Stress axis : x y z
#
# Youngs Moduli (GPa) = 51.40962 96.18275 23.39785
#
# Poissons Ratio (x) = -0.18226 0.31359
# Poissons Ratio (y) = -0.09742 0.11660
# Poissons Ratio (z) = 0.68901 0.47932
#
# Static dielectric constant tensor:
#      x y z
#    x 2.081100 -0.000870 0.057400 
#    y -0.000870 2.067440 -0.005720 
#    z 0.057400 -0.005720 1.997760 
# 
# From -- ./inp_files/216959.got.cif
#   From: 2010.05.17/outbox.cif.g08.bks.cpg/sg2_109_cif.got.tgz:216959.got - 2010.06.03 11:33:40.
