data_PCOD9088487
_publ_section_title
;
Structure prediction by ZEFSAII (Michael W. Deem and Ramdas Pophale) SiO2 
 PCOD9088487
Probable space group: P -1
;
_chemical_formula_sum "Si O2"
_cell_formula_units_Z 16
_cell_length_a 13.784453
_cell_length_b 9.986429
_cell_length_c 15.633365
_cell_angle_alpha 37.097517
_cell_angle_beta 116.455528
_cell_angle_gamma 134.811388
_cell_volume 886.016065
_symmetry_space_group_name_H-M "P -1"
_symmetry_group_IT_number 2
_symmetry_cell_setting 'triclinic'
loop_
_space_group_symop_operation_xyz
x,y,z
-x,-y,-z
loop_
_atom_site_type_symbol
_atom_site_label
_atom_site_fract_x
_atom_site_fract_y
_atom_site_fract_z
Si Si1 0.372843 0.888479 0.891237
Si Si2 0.347184 0.337318 0.916429
Si Si3 0.371927 0.175187 0.583426
Si Si4 0.323179 0.333217 0.110969
Si Si5 0.693671 0.183356 0.902730
Si Si6 0.128832 0.814817 0.425415
Si Si7 0.370367 0.845160 0.594971
Si Si8 0.870395 0.852720 0.589690
O O1 0.324450 0.985731 0.747374
O O2 0.543997 0.076288 0.859416
O O3 0.303804 0.558058 0.018860
O O4 0.336308 0.907649 0.963195
O O5 0.516533 0.525120 0.873023
O O6 0.317009 0.529429 0.760839
O O7 0.318386 0.321304 0.013487
O O8 0.272262 0.010985 0.024459
O O9 0.500000 0.500000 0.500000
O O10 0.253157 0.171452 0.494790
O O11 0.413614 0.043391 0.596071
O O12 0.210322 0.032617 0.266978
O O13 0.806872 0.528477 0.756515
O O14 0.242581 0.808377 0.520098
O O15 0.000000 0.500000 0.500000
O O16 0.089259 0.952156 0.409298
O O17 0.500000 0.000000 0.500000
O O18 0.000000 0.000000 0.500000
#
# Coordination Sequence:
#
# PCOD9088487 Si02
#       8
#     2   2   2   2   2   2   2   2
#     4  10  19  37  61  91 121 152 204 255 305 354
#     4  10  21  35  61  96 121 151 198 258 306 358
#     4  11  23  38  64  94 123 159 204 257 307 355
#     4  10  19  37  61  89 123 159 199 246 307 362
#     4  10  21  35  63  90 121 158 197 252 309 358
#     4  11  25  43  63  86 126 173 202 245 308 368
#     4  11  23  39  61  95 128 153 205 258 302 362
#     4  11  25  44  60  89 128 165 207 250 302 370
#
# _framework density 18.058364000000001
#
# number of rings (size 3 to 8) (size 9 to 14) (size 15 to 20)
#    0.000    1.500    5.000    0.000    3.500    1.000 
#    0.000    2.500    0.000    0.000    0.000    0.000 
#    0.000    0.000    0.000    0.000    0.000    0.000 
#
# Total GULP energy -89289.427030 kJ/mol
# GULP energy per Si atom -5580.589189 kJ/mol
# Density = 1.801726 g / cm^3
# Si number density = 18.058364 Si / 1000 Ang^3
#
#
#
# Elastic Constant Matrix: (Units=GPa)
#
#
# Indices 1 2 3 4 5 6 
#
# 1 51.8918 19.5195 13.4019 -7.7264 -4.6973 -7.7639
# 2 19.5195 89.3922 33.7398 -19.9609 -0.8672 -11.2780
# 3 13.4019 33.7398 116.6822 -11.0786 -4.3133 5.5632
# 4 -7.7264 -19.9609 -11.0786 26.2995 2.5705 2.6965
# 5 -4.6973 -0.8672 -4.3133 2.5705 20.5370 -6.0059
# 6 -7.7639 -11.2780 5.5632 2.6965 -6.0059 13.3194
#
#
#
# Elastic Compliance Matrix: (Units=1/GPa)
#
#
# Indices 1 2 3 4 5 6 
#
# 1 0.024467 -0.001460 -0.002688 0.002094 0.010046 0.018255
# 2 -0.001460 0.017114 -0.004556 0.008842 0.002704 0.014972
# 3 -0.002688 -0.004556 0.010812 0.001650 -0.002013 -0.011182
# 4 0.002094 0.008842 0.001650 0.047051 -0.005910 -0.004172
# 5 0.010046 0.002704 -0.002013 -0.005910 0.062663 0.038438
# 6 0.018255 0.014972 -0.011182 -0.004172 0.038438 0.121244
#
#
# Mechanical properties :
#
#
# Convention : Reuss Voigt Hill
#
# Bulk Modulus (GPa) = 28.58299 43.47653 36.02976
# Shear Modulus (GPa) = 16.00412 24.78482 20.39447
#
# Velocity S-wave (km/s) = 2.98022 3.70872 3.36425
# Velocity P-wave (km/s) = 5.26353 6.51670 5.92335
#
# Compressibility (1/GPa) = 0.03498584
#
# Stress axis : x y z
#
# Youngs Moduli (GPa) = 40.87199 58.43005 92.49202
#
# Poissons Ratio (x) = 0.08529 0.24864
# Poissons Ratio (y) = 0.05966 0.42135
# Poissons Ratio (z) = 0.10987 0.26618
#
# Static dielectric constant tensor:
#      x y z
#    x 1.624690 -0.020620 0.029540 
#    y -0.020620 1.624860 -0.004220 
#    z 0.029540 -0.004220 1.638900 
# 
# From -- ./inp_files/207725.got.cif
#   From: 2010.05.17/outbox.cif.g08.bks.cpg/sg2_104_cif.got.tgz:207725.got - 2010.06.03 11:33:40.
