data_PCOD9088668
_publ_section_title
;
Structure prediction by ZEFSAII (Michael W. Deem and Ramdas Pophale) SiO2 
 PCOD9088668
Probable space group: P -1
;
_chemical_formula_sum "Si O2"
_cell_formula_units_Z 16
_cell_length_a 11.788004
_cell_length_b 13.093309
_cell_length_c 13.205268
_cell_angle_alpha 39.698465
_cell_angle_beta 31.216578
_cell_angle_gamma 35.141490
_cell_volume 591.001981
_symmetry_space_group_name_H-M "P -1"
_symmetry_group_IT_number 2
_symmetry_cell_setting 'triclinic'
loop_
_space_group_symop_operation_xyz
x,y,z
-x,-y,-z
loop_
_atom_site_type_symbol
_atom_site_label
_atom_site_fract_x
_atom_site_fract_y
_atom_site_fract_z
Si Si1 0.872959 0.275602 0.401694
Si Si2 0.469369 0.136108 0.525525
Si Si3 0.648662 0.284340 0.025038
Si Si4 0.028147 0.195519 0.963960
Si Si5 0.641105 0.476727 0.600759
Si Si6 0.046070 0.956580 0.668409
Si Si7 0.726750 0.621244 0.925696
Si Si8 0.940042 0.698662 0.437952
O O1 0.678749 0.460515 0.464854
O O2 0.833560 0.220356 0.362369
O O3 0.131761 0.283491 0.201669
O O4 0.890850 0.117925 0.585248
O O5 0.444803 0.332890 0.424157
O O6 0.745866 0.013048 0.453510
O O7 0.343969 0.171572 0.481383
O O8 0.262124 0.125593 0.763919
O O9 0.799946 0.185767 0.086451
O O10 0.440030 0.270964 0.126951
O O11 0.500000 0.500000 0.000000
O O12 0.876228 0.248196 0.804422
O O13 0.093297 0.085127 0.102707
O O14 0.918268 0.410875 0.907237
O O15 0.926800 0.354651 0.515281
O O16 0.464343 0.399342 0.836230
O O17 0.000000 0.500000 0.500000
#
# Coordination Sequence:
#
# PCOD9088668 Si02
#       8
#     2   2   2   2   2   2   2   2
#     4  11  26  43  57  81 118 159 203 246 291 340
#     4  10  19  37  62  91 117 150 191 240 289 346
#     4   8  16  28  54  89 119 142 180 231 291 350
#     4  10  19  37  62  91 117 150 191 240 289 346
#     4  10  19  37  62  91 117 150 191 240 289 346
#     4  11  26  43  57  81 118 159 203 246 291 340
#     4  10  19  37  62  91 117 150 191 240 289 346
#     4   8  16  28  54  89 119 142 180 231 291 350
#
# _framework density 27.072666999999999
#
# number of rings (size 3 to 8) (size 9 to 14) (size 15 to 20)
#    0.000    2.250    2.500    0.000    3.500    3.000 
#    0.000    5.000    0.000    4.500    0.000    0.000 
#    0.000    0.000    0.000    0.000    0.000    0.000 
#
# Total GULP energy -89537.764096 kJ/mol
# GULP energy per Si atom -5596.110256 kJ/mol
# Density = 2.701105 g / cm^3
# Si number density = 27.072667 Si / 1000 Ang^3
#
#
#
# Elastic Constant Matrix: (Units=GPa)
#
#
# Indices 1 2 3 4 5 6 
#
# 1 168.4515 -34.8276 22.4957 -11.1646 -15.4813 -2.5989
# 2 -34.8276 49.2581 -26.2095 -13.6683 -16.2297 -22.7863
# 3 22.4957 -26.2095 97.9814 -4.6460 3.2466 -19.2649
# 4 -11.1646 -13.6683 -4.6460 30.2756 -0.4753 -2.2406
# 5 -15.4813 -16.2297 3.2466 -0.4753 35.4796 0.3705
# 6 -2.5989 -22.7863 -19.2649 -2.2406 0.3705 40.4543
#
#
#
# Elastic Compliance Matrix: (Units=1/GPa)
#
#
# Indices 1 2 3 4 5 6 
#
# 1 -0.005419 -0.045618 -0.018744 -0.028498 -0.021519 -0.036350
# 2 -0.045618 -0.173634 -0.065458 -0.116902 -0.093472 -0.137523
# 3 -0.018744 -0.065458 -0.012873 -0.042441 -0.037030 -0.046216
# 4 -0.028498 -0.116902 -0.042441 -0.044382 -0.061683 -0.089781
# 5 -0.021519 -0.093472 -0.037030 -0.061683 -0.020618 -0.074893
# 6 -0.036350 -0.137523 -0.046216 -0.089781 -0.074893 -0.081373
#
#
# Mechanical properties :
#
#
# Convention : Reuss Voigt Hill
#
# Bulk Modulus (GPa) = -2.21452 26.51203 12.14875
# Shear Modulus (GPa) = -21.81680 44.85739 11.52029
#
# Velocity S-wave (km/s) = -2.84185 4.07495 2.06508
# Velocity P-wave (km/s) = 3.40410 5.65283 3.19113
#
# Compressibility (1/GPa) = -0.45156528
#
# Stress axis : x y z
#
# Youngs Moduli (GPa) = -184.52613 -5.75923 -77.68460
#
# Poissons Ratio (x) = -0.26272 -1.45609
# Poissons Ratio (y) = -8.41768 -5.08509
# Poissons Ratio (z) = -3.45869 -0.37699
#
# Static dielectric constant tensor:
#      x y z
#    x 2.052250 -0.003320 0.001180 
#    y -0.003320 2.246850 -0.031750 
#    z 0.001180 -0.031750 2.099650 
# 
# From -- ./inp_files/242094.got.cif
#   From: 2010.05.17/outbox.cif.g08.bks.cpg/sg2_122_cif.got.tgz:242094.got - 2010.06.03 11:33:40.
