data_PCOD9088145
_publ_section_title
;
Structure prediction by ZEFSAII (Michael W. Deem and Ramdas Pophale) SiO2 
 PCOD9088145
Probable space group: P -1
;
_chemical_formula_sum "Si O2"
_cell_formula_units_Z 14
_cell_length_a 20.052094
_cell_length_b 22.642209
_cell_length_c 11.768533
_cell_angle_alpha 145.094498
_cell_angle_beta 20.888796
_cell_angle_gamma 156.728968
_cell_volume 724.527412
_symmetry_space_group_name_H-M "P -1"
_symmetry_group_IT_number 2
_symmetry_cell_setting 'triclinic'
loop_
_space_group_symop_operation_xyz
x,y,z
-x,-y,-z
loop_
_atom_site_type_symbol
_atom_site_label
_atom_site_fract_x
_atom_site_fract_y
_atom_site_fract_z
Si Si1 0.609804 0.258738 0.160094
Si Si2 0.737668 0.518441 0.264453
Si Si3 0.622881 0.985755 0.016524
Si Si4 0.065909 0.018848 0.791212
Si Si5 0.232017 0.902377 0.691141
Si Si6 0.064824 0.792474 0.333975
Si Si7 0.092089 0.282216 0.881786
O O1 0.780794 0.430257 0.123485
O O2 0.386084 0.178299 0.492577
O O3 0.816770 0.249431 0.842513
O O4 0.420620 0.144284 0.172892
O O5 0.414885 0.382896 0.526167
O O6 0.923186 0.621728 0.020906
O O7 0.804288 0.639482 0.435817
O O8 0.341537 0.903177 0.399290
O O9 0.693825 0.085618 0.952274
O O10 0.886123 0.114215 0.884106
O O11 0.010964 0.879190 0.616650
O O12 0.000000 0.000000 0.000000
O O13 0.871169 0.023584 0.046421
O O14 0.500000 0.000000 0.500000
O O15 0.996209 0.744871 0.889392
#
# Coordination Sequence:
#
# PCOD9088145 Si02
#       7
#     2   2   2   2   2   2   2
#     4  11  20  36  60  88 111 154 192 236 282 344
#     4  10  20  37  56  82 121 151 189 225 289 347
#     4   9  19  35  61  84 114 140 198 236 279 329
#     4  11  21  37  63  85 114 149 194 246 287 332
#     4  10  19  37  59  87 113 147 193 244 282 331
#     4  10  21  37  58  88 116 149 189 234 288 347
#     4   9  19  37  56  81 114 153 188 233 279 339
#
# _framework density 19.322941
#
# number of rings (size 3 to 8) (size 9 to 14) (size 15 to 20)
#    0.000    2.000    1.429    3.857    0.000    0.571 
#   12.857    1.429    9.429    0.000    0.000    0.000 
#    0.000    0.000    0.000    0.000    0.000    0.000 
#
# Total GULP energy -77975.166962 kJ/mol
# GULP energy per Si atom -5569.654783 kJ/mol
# Density = 1.927896 g / cm^3
# Si number density = 19.322941 Si / 1000 Ang^3
#
#
#
# Elastic Constant Matrix: (Units=GPa)
#
#
# Indices 1 2 3 4 5 6 
#
# 1 110.9353 50.6345 59.5734 16.9663 8.1377 -21.0281
# 2 50.6345 93.8167 30.0595 10.3600 14.8660 -17.9247
# 3 59.5734 30.0595 85.2072 10.5069 16.4468 -17.0131
# 4 16.9663 10.3600 10.5069 18.3052 1.4194 -7.7549
# 5 8.1377 14.8660 16.4468 1.4194 40.3056 -0.9227
# 6 -21.0281 -17.9247 -17.0131 -7.7549 -0.9227 31.8973
#
#
#
# Elastic Compliance Matrix: (Units=1/GPa)
#
#
# Indices 1 2 3 4 5 6 
#
# 1 0.018401 -0.006038 -0.010054 -0.007388 0.002913 0.001663
# 2 -0.006038 0.015438 0.000753 -0.001239 -0.004632 0.004661
# 3 -0.010054 0.000753 0.020749 -0.000587 -0.006590 0.004528
# 4 -0.007388 -0.001239 -0.000587 0.066911 0.000070 0.010390
# 5 0.002913 -0.004632 -0.006590 0.000070 0.028540 -0.003355
# 6 0.001663 0.004661 0.004528 0.010390 -0.003355 0.039910
#
#
# Mechanical properties :
#
#
# Convention : Reuss Voigt Hill
#
# Bulk Modulus (GPa) = 41.82572 63.38824 52.60698
# Shear Modulus (GPa) = 21.87248 28.08108 24.97678
#
# Velocity S-wave (km/s) = 3.36809 3.81629 3.59917
# Velocity P-wave (km/s) = 6.06778 7.23150 6.67505
#
# Compressibility (1/GPa) = 0.02390873
#
# Stress axis : x y z
#
# Youngs Moduli (GPa) = 54.34545 64.77542 48.19612
#
# Poissons Ratio (x) = 0.39110 0.48457
# Poissons Ratio (y) = 0.32812 -0.03627
# Poissons Ratio (z) = 0.54640 -0.04875
#
# Static dielectric constant tensor:
#      x y z
#    x 1.772950 -0.003360 0.013260 
#    y -0.003360 1.706060 -0.030850 
#    z 0.013260 -0.030850 1.703670 
# 
# From -- ./inp_files/155296.got.cif
#   From: 2010.05.17/outbox.cif.g08.bks.cpg/sg2_78_cif.got.tgz:155296.got - 2010.06.03 11:33:40.
