data_PCOD9088538
_publ_section_title
;
Structure prediction by ZEFSAII (Michael W. Deem and Ramdas Pophale) SiO2 
 PCOD9088538
Probable space group: P -1
;
_chemical_formula_sum "Si O2"
_cell_formula_units_Z 16
_cell_length_a 21.347464
_cell_length_b 17.380735
_cell_length_c 13.546918
_cell_angle_alpha 158.923894
_cell_angle_beta 155.461630
_cell_angle_gamma 23.326624
_cell_volume 664.607528
_symmetry_space_group_name_H-M "P -1"
_symmetry_group_IT_number 2
_symmetry_cell_setting 'triclinic'
loop_
_space_group_symop_operation_xyz
x,y,z
-x,-y,-z
loop_
_atom_site_type_symbol
_atom_site_label
_atom_site_fract_x
_atom_site_fract_y
_atom_site_fract_z
Si Si1 0.991309 0.098647 0.213659
Si Si2 0.620994 0.708178 0.713207
Si Si3 0.487976 0.358070 0.163876
Si Si4 0.881341 0.948265 0.062957
Si Si5 0.764349 0.235894 0.576108
Si Si6 0.282616 0.128928 0.777171
Si Si7 0.703762 0.480368 0.372701
Si Si8 0.444720 0.069557 0.392096
O O1 0.975604 0.913272 0.049548
O O2 0.824735 0.348311 0.296256
O O3 0.144707 0.157683 0.532898
O O4 0.000000 0.000000 0.000000
O O5 0.509109 0.564788 0.380166
O O6 0.472793 0.984057 0.833350
O O7 0.736124 0.627181 0.684743
O O8 0.724054 0.665583 0.911861
O O9 0.662035 0.245204 0.342153
O O10 0.333739 0.508880 0.199380
O O11 0.472750 0.162706 0.838742
O O12 0.746214 0.233419 0.198731
O O13 0.033775 0.863650 0.258083
O O14 0.758622 0.837265 0.781353
O O15 0.743139 0.044418 0.387513
O O16 0.536170 0.703189 0.352145
O O17 0.500000 0.000000 0.500000
#
# Coordination Sequence:
#
# PCOD9088538 Si02
#       8
#     2   2   2   2   2   2   2   2
#     4   9  20  41  62  89 124 166 208 255 314 376
#     4  10  19  37  61  94 126 160 210 262 316 367
#     4  10  20  39  64  95 129 168 206 264 321 374
#     4   9  22  45  62  95 122 171 208 263 325 362
#     4   9  19  39  66  89 129 165 209 264 319 375
#     4   9  19  34  61  92 123 164 209 254 312 380
#     4  10  23  42  65  92 124 169 210 266 316 377
#     4  12  26  43  63  94 128 168 219 257 317 389
#
# _framework density 24.074358
#
# number of rings (size 3 to 8) (size 9 to 14) (size 15 to 20)
#    0.750    1.500    1.250    0.750    0.000    7.500 
#    2.250    2.500    0.000    0.000    0.000    0.000 
#    0.000    0.000    0.000    0.000    0.000    0.000 
#
# Total GULP energy -89096.287232 kJ/mol
# GULP energy per Si atom -5568.517952 kJ/mol
# Density = 2.401956 g / cm^3
# Si number density = 24.074358 Si / 1000 Ang^3
#
#
#
# Elastic Constant Matrix: (Units=GPa)
#
#
# Indices 1 2 3 4 5 6 
#
# 1 90.6338 11.9275 45.1876 2.2695 -29.6241 -3.7769
# 2 11.9275 68.1173 27.0453 13.2532 -4.2925 18.7465
# 3 45.1876 27.0453 100.3822 11.7007 -27.0808 -9.1228
# 4 2.2695 13.2532 11.7007 34.4769 -8.9714 -0.9277
# 5 -29.6241 -4.2925 -27.0808 -8.9714 49.9229 -1.6778
# 6 -3.7769 18.7465 -9.1228 -0.9277 -1.6778 32.7124
#
#
#
# Elastic Compliance Matrix: (Units=1/GPa)
#
#
# Indices 1 2 3 4 5 6 
#
# 1 0.016162 -0.001419 -0.005135 0.003173 0.007310 0.001712
# 2 -0.001419 0.023749 -0.007635 -0.008177 -0.004962 -0.016389
# 3 -0.005135 -0.007635 0.016693 -0.000723 0.005514 0.008700
# 4 0.003173 -0.008177 -0.000723 0.034210 0.007143 0.006187
# 5 0.007310 -0.004962 0.005514 0.007143 0.028448 0.006887
# 6 0.001712 -0.016389 0.008700 0.006187 0.006887 0.043114
#
#
# Mechanical properties :
#
#
# Convention : Reuss Voigt Hill
#
# Bulk Modulus (GPa) = 35.42776 47.49489 41.46133
# Shear Modulus (GPa) = 24.97971 35.08728 30.03350
#
# Velocity S-wave (km/s) = 3.22468 3.82180 3.53587
# Velocity P-wave (km/s) = 5.34908 6.26468 5.82490
#
# Compressibility (1/GPa) = 0.02822645
#
# Stress axis : x y z
#
# Youngs Moduli (GPa) = 61.87481 42.10694 59.90550
#
# Poissons Ratio (x) = 0.05975 0.30761
# Poissons Ratio (y) = 0.08779 0.45736
# Poissons Ratio (z) = 0.31773 0.32147
#
# Static dielectric constant tensor:
#      x y z
#    x 1.995070 0.086980 0.040920 
#    y 0.086980 1.992140 0.041750 
#    z 0.040920 0.041750 1.941350 
# 
# From -- ./inp_files/544475.got.cif
#   From: 2010.05.17/outbox.cif.g08.bks.cpg/sg2_273_cif.got.tgz:544475.got - 2010.06.03 11:33:40.
