data_PCOD9088732
_publ_section_title
;
Structure prediction by ZEFSAII (Michael W. Deem and Ramdas Pophale) SiO2 
 PCOD9088732
Probable space group: P -1
;
_chemical_formula_sum "Si O2"
_cell_formula_units_Z 10
_cell_length_a 17.951059
_cell_length_b 9.598337
_cell_length_c 7.769640
_cell_angle_alpha 131.942694
_cell_angle_beta 145.277850
_cell_angle_gamma 28.385511
_cell_volume 355.028836
_symmetry_space_group_name_H-M "P -1"
_symmetry_group_IT_number 2
_symmetry_cell_setting 'triclinic'
loop_
_space_group_symop_operation_xyz
x,y,z
-x,-y,-z
loop_
_atom_site_type_symbol
_atom_site_label
_atom_site_fract_x
_atom_site_fract_y
_atom_site_fract_z
Si Si1 0.638486 0.227278 0.741253
Si Si2 0.685234 0.610724 0.160862
Si Si3 0.368456 0.201892 0.247462
Si Si4 0.911860 0.802775 0.234322
Si Si5 0.072578 0.121729 0.303076
O O1 0.420207 0.361956 0.454777
O O2 0.764704 0.998657 0.630809
O O3 0.620335 0.469502 0.886311
O O4 0.784737 0.026340 0.018860
O O5 0.493515 0.952906 0.129094
O O6 0.853391 0.475923 0.218590
O O7 0.841649 0.437047 0.481626
O O8 0.500000 0.000000 0.500000
O O9 0.146507 0.351548 0.982430
O O10 0.836985 0.982469 0.418674
O O11 0.000000 0.000000 0.000000
#
# Coordination Sequence:
#
# PCOD9088732 Si02
#       5
#     2   2   2   2   2
#     4  10  19  37  63  80 115 153 179 234 286 320
#     4   9  20  39  57  83 116 144 193 229 269 346
#     4  10  22  36  58  88 114 144 192 233 273 338
#     4   9  20  37  60  81 116 148 185 233 278 330
#     4   8  18  35  60  83 111 145 192 229 268 343
#
# _framework density 28.166725
#
# number of rings (size 3 to 8) (size 9 to 14) (size 15 to 20)
#    1.200    1.600    0.000    0.600    0.000    8.000 
#    0.000    6.000    8.800    0.000    0.000    0.000 
#    0.000    0.000    0.000    0.000    0.000    0.000 
#
# Total GULP energy -55998.576236 kJ/mol
# GULP energy per Si atom -5599.857624 kJ/mol
# Density = 2.810262 g / cm^3
# Si number density = 28.166725 Si / 1000 Ang^3
#
#
#
# Elastic Constant Matrix: (Units=GPa)
#
#
# Indices 1 2 3 4 5 6 
#
# 1 129.1121 30.2176 40.5836 4.2761 -18.0194 -2.5996
# 2 30.2176 135.9456 39.7673 -3.6379 -5.7041 -13.6611
# 3 40.5836 39.7673 142.6932 13.8590 3.2736 4.5304
# 4 4.2761 -3.6379 13.8590 41.3893 2.7944 -7.6503
# 5 -18.0194 -5.7041 3.2736 2.7944 84.9678 2.2149
# 6 -2.5996 -13.6611 4.5304 -7.6503 2.2149 33.0171
#
#
#
# Elastic Compliance Matrix: (Units=1/GPa)
#
#
# Indices 1 2 3 4 5 6 
#
# 1 0.009027 -0.001254 -0.002235 -0.000372 0.001921 0.000284
# 2 -0.001254 0.008905 -0.002524 0.002576 0.000227 0.004514
# 3 -0.002235 -0.002524 0.008803 -0.003474 -0.000785 -0.003180
# 4 -0.000372 0.002576 -0.003474 0.027098 -0.000868 0.007851
# 5 0.001921 0.000227 -0.000785 -0.000868 0.012268 -0.000671
# 6 0.000284 0.004514 -0.003180 0.007851 -0.000671 0.034478
#
#
# Mechanical properties :
#
#
# Convention : Reuss Voigt Hill
#
# Bulk Modulus (GPa) = 67.97863 69.87644 68.92754
# Shear Modulus (GPa) = 42.55003 51.68700 47.11852
#
# Velocity S-wave (km/s) = 3.89092 4.28838 4.09448
# Velocity P-wave (km/s) = 6.66127 7.02725 6.84671
#
# Compressibility (1/GPa) = 0.01471050
#
# Stress axis : x y z
#
# Youngs Moduli (GPa) = 110.77502 112.29796 113.59136
#
# Poissons Ratio (x) = 0.14077 0.25389
# Poissons Ratio (y) = 0.13886 0.28670
# Poissons Ratio (z) = 0.24759 0.28343
#
# Static dielectric constant tensor:
#      x y z
#    x 2.246890 0.007780 -0.054590 
#    y 0.007780 2.145450 -0.041400 
#    z -0.054590 -0.041400 2.209180 
# 
# From -- ./inp_files/160619.got.cif
#   From: 2010.05.17/outbox.cif.g08.bks.cpg/sg2_81_cif.got.tgz:160619.got - 2010.06.03 11:33:40.
