data_PCOD9088409
_publ_section_title
;
Structure prediction by ZEFSAII (Michael W. Deem and Ramdas Pophale) SiO2 
 PCOD9088409
Probable space group: P -1
;
_chemical_formula_sum "Si O2"
_cell_formula_units_Z 16
_cell_length_a 12.776406
_cell_length_b 8.905934
_cell_length_c 20.898444
_cell_angle_alpha 84.219475
_cell_angle_beta 27.602829
_cell_angle_gamma 65.619620
_cell_volume 780.854432
_symmetry_space_group_name_H-M "P -1"
_symmetry_group_IT_number 2
_symmetry_cell_setting 'triclinic'
loop_
_space_group_symop_operation_xyz
x,y,z
-x,-y,-z
loop_
_atom_site_type_symbol
_atom_site_label
_atom_site_fract_x
_atom_site_fract_y
_atom_site_fract_z
Si Si1 0.852417 0.568419 0.411006
Si Si2 0.185151 0.255161 0.366610
Si Si3 0.904506 0.298545 0.651530
Si Si4 0.867411 0.311782 0.330139
Si Si5 0.784541 0.457260 0.136926
Si Si6 0.309620 0.732104 0.918774
Si Si7 0.112773 0.837305 0.801943
Si Si8 0.915426 0.129107 0.448899
O O1 0.988930 0.421291 0.280455
O O2 0.483552 0.703981 0.604136
O O3 0.000192 0.420120 0.400594
O O4 0.916788 0.712091 0.384512
O O5 0.494504 0.210288 0.212385
O O6 0.007263 0.326713 0.526980
O O7 0.189957 0.083135 0.343654
O O8 0.540331 0.519158 0.845423
O O9 0.990942 0.086492 0.602810
O O10 0.500000 0.500000 0.500000
O O11 0.021472 0.150514 0.194798
O O12 0.886621 0.211966 0.390045
O O13 0.782852 0.333480 0.086399
O O14 0.912790 0.299529 0.134014
O O15 0.423720 0.680321 0.340293
O O16 0.000000 0.500000 0.000000
O O17 0.041800 0.939742 0.095469
#
# Coordination Sequence:
#
# PCOD9088409 Si02
#       8
#     2   2   2   2   2   2   2   2
#     4   9  18  36  62  84 111 160 208 238 273 357
#     4  10  19  37  61  85 116 163 202 233 285 360
#     4  11  21  35  57  90 124 152 196 240 302 354
#     4   9  18  40  64  81 112 160 216 237 275 354
#     4  12  25  37  58  97 130 146 187 257 314 342
#     4  11  24  37  59  93 122 157 194 241 305 360
#     4  11  21  41  62  85 121 158 203 245 292 353
#     4  11  22  38  62  90 119 159 201 246 288 352
#
# _framework density 20.490376000000001
#
# number of rings (size 3 to 8) (size 9 to 14) (size 15 to 20)
#    0.000    1.500    5.000    3.000    3.500    0.000 
#    0.000   10.000    0.000    0.000    0.000    0.000 
#    0.000    0.000    0.000    0.000    0.000    0.000 
#
# Total GULP energy -89165.418164 kJ/mol
# GULP energy per Si atom -5572.838635 kJ/mol
# Density = 2.044374 g / cm^3
# Si number density = 20.490376 Si / 1000 Ang^3
#
#
#
# Elastic Constant Matrix: (Units=GPa)
#
#
# Indices 1 2 3 4 5 6 
#
# 1 134.0883 50.9123 26.2572 -2.1304 16.5830 42.8613
# 2 50.9123 103.9357 32.7911 16.1202 10.6483 44.7834
# 3 26.2572 32.7911 50.3722 8.4526 8.6054 15.4251
# 4 -2.1304 16.1202 8.4526 26.9778 10.8980 1.0758
# 5 16.5830 10.6483 8.6054 10.8980 15.7700 4.2656
# 6 42.8613 44.7834 15.4251 1.0758 4.2656 44.9302
#
#
#
# Elastic Compliance Matrix: (Units=1/GPa)
#
#
# Indices 1 2 3 4 5 6 
#
# 1 0.013671 -0.002079 -0.001880 0.009866 -0.016327 -0.009011
# 2 -0.002079 0.021624 -0.006308 -0.012067 0.004101 -0.017505
# 3 -0.001880 -0.006308 0.026529 -0.001922 -0.006821 -0.000333
# 4 0.009866 -0.012067 -0.001922 0.064602 -0.047509 0.006240
# 5 -0.016327 0.004101 -0.006821 -0.047509 0.113223 0.004218
# 6 -0.009011 -0.017505 -0.000333 0.006240 0.004218 0.047865
#
#
# Mechanical properties :
#
#
# Convention : Reuss Voigt Hill
#
# Bulk Modulus (GPa) = 24.21932 56.47971 40.34952
# Shear Modulus (GPa) = 15.53707 29.43131 22.48419
#
# Velocity S-wave (km/s) = 2.75664 3.79403 3.31615
# Velocity P-wave (km/s) = 4.68803 6.84228 5.86491
#
# Compressibility (1/GPa) = 0.04128934
#
# Stress axis : x y z
#
# Youngs Moduli (GPa) = 73.14529 46.24590 37.69521
#
# Poissons Ratio (x) = 0.09612 0.07088
# Poissons Ratio (y) = 0.15203 0.23779
# Poissons Ratio (z) = 0.13753 0.29173
#
# Static dielectric constant tensor:
#      x y z
#    x 1.765300 0.046230 0.012890 
#    y 0.046230 1.823500 0.028340 
#    z 0.012890 0.028340 1.827310 
# 
# From -- ./inp_files/216479.got.cif
#   From: 2010.05.17/outbox.cif.g08.bks.cpg/sg2_109_cif.got.tgz:216479.got - 2010.06.03 11:33:40.
