data_PCOD9088055
_publ_section_title
;
Structure prediction by ZEFSAII (Michael W. Deem and Ramdas Pophale) SiO2 
 PCOD9088055
Probable space group: P -1
;
_chemical_formula_sum "Si O2"
_cell_formula_units_Z 16
_cell_length_a 22.942303
_cell_length_b 16.984423
_cell_length_c 6.356505
_cell_angle_alpha 128.965327
_cell_angle_beta 127.445297
_cell_angle_gamma 21.108482
_cell_volume 691.545453
_symmetry_space_group_name_H-M "P -1"
_symmetry_group_IT_number 2
_symmetry_cell_setting 'triclinic'
loop_
_space_group_symop_operation_xyz
x,y,z
-x,-y,-z
loop_
_atom_site_type_symbol
_atom_site_label
_atom_site_fract_x
_atom_site_fract_y
_atom_site_fract_z
Si Si1 0.107336 0.068685 0.860419
Si Si2 0.143967 0.628862 0.494882
Si Si3 0.506276 0.835512 0.150216
Si Si4 0.649031 0.497595 0.581611
Si Si5 0.084717 0.831889 0.085077
Si Si6 0.050837 0.331727 0.431044
Si Si7 0.251798 0.310785 0.359185
Si Si8 0.389595 0.832141 0.256515
O O1 0.294020 0.866266 0.965345
O O2 0.041799 0.144635 0.608776
O O3 0.016325 0.279696 0.112752
O O4 0.045408 0.052616 0.841822
O O5 0.226657 0.607437 0.488424
O O6 0.153169 0.654395 0.797801
O O7 0.237082 0.408291 0.301059
O O8 0.633676 0.769775 0.359448
O O9 0.478158 0.801486 0.241234
O O10 0.336783 0.099081 0.163438
O O11 0.565101 0.690503 0.852492
O O12 0.505558 0.634953 0.347914
O O13 0.766405 0.300865 0.681896
O O14 0.000000 0.000000 0.000000
O O15 0.000000 0.500000 0.500000
O O16 0.933330 0.468440 0.600831
O O17 0.243319 0.076540 0.456225
#
# Coordination Sequence:
#
# PCOD9088055 Si02
#       8
#     2   2   2   2   2   2   2   2
#     4   9  22  37  62  89 125 162 204 256 308 360
#     4  11  20  40  64  88 126 162 208 262 305 367
#     4  11  22  35  57  90 129 171 209 247 302 369
#     4  11  22  39  60  90 125 165 204 259 311 371
#     4  11  23  43  70  94 116 157 214 266 322 383
#     4  10  19  37  58  88 131 170 213 247 293 361
#     4  11  19  36  58  87 128 170 216 249 296 369
#     4  10  21  39  58  87 129 167 200 255 310 357
#
# _framework density 23.136585
#
# number of rings (size 3 to 8) (size 9 to 14) (size 15 to 20)
#    0.750    0.750    5.000    0.750    0.000    5.500 
#    0.000    2.500    0.000    3.750    0.000    0.000 
#    0.000    0.000    0.000    0.000    0.000    0.000 
#
# Total GULP energy -89202.758498 kJ/mol
# GULP energy per Si atom -5575.172406 kJ/mol
# Density = 2.308393 g / cm^3
# Si number density = 23.136585 Si / 1000 Ang^3
#
#
#
# Elastic Constant Matrix: (Units=GPa)
#
#
# Indices 1 2 3 4 5 6 
#
# 1 45.0375 27.1890 0.0517 -3.3191 -4.5958 0.2728
# 2 27.1890 105.2514 34.1184 -27.7635 1.5724 10.1915
# 3 0.0517 34.1184 72.8438 -17.8545 -3.8732 -4.5165
# 4 -3.3191 -27.7635 -17.8545 52.1823 1.5105 -3.0680
# 5 -4.5958 1.5724 -3.8732 1.5105 16.8596 -1.2999
# 6 0.2728 10.1915 -4.5165 -3.0680 -1.2999 42.9305
#
#
#
# Elastic Compliance Matrix: (Units=1/GPa)
#
#
# Indices 1 2 3 4 5 6 
#
# 1 0.029205 -0.010109 0.004972 -0.001951 0.010446 0.002914
# 2 -0.010109 0.016357 -0.006898 0.005638 -0.006706 -0.004345
# 3 0.004972 -0.006898 0.018251 0.002941 0.006231 0.003925
# 4 -0.001951 0.005638 0.002941 0.023149 -0.002412 0.000565
# 5 0.010446 -0.006706 0.006231 -0.002412 0.064739 0.003969
# 6 0.002914 -0.004345 0.003925 0.000565 0.003969 0.024880
#
#
# Mechanical properties :
#
#
# Convention : Reuss Voigt Hill
#
# Bulk Modulus (GPa) = 25.16160 38.42788 31.79474
# Shear Modulus (GPa) = 23.37566 33.17939 28.27752
#
# Velocity S-wave (km/s) = 3.18202 3.79101 3.49979
# Velocity P-wave (km/s) = 4.93956 5.98394 5.48666
#
# Compressibility (1/GPa) = 0.03974310
#
# Stress axis : x y z
#
# Youngs Moduli (GPa) = 34.24043 61.13770 54.79197
#
# Poissons Ratio (x) = 0.61804 -0.27243
# Poissons Ratio (y) = 0.34613 0.37795
# Poissons Ratio (z) = -0.17024 0.42172
#
# Static dielectric constant tensor:
#      x y z
#    x 1.909930 0.026880 0.055040 
#    y 0.026880 1.963020 -0.009380 
#    z 0.055040 -0.009380 1.871310 
# 
# From -- ./inp_files/124595.got.cif
#   From: 2010.05.17/outbox.cif.g08.bks.cpg/sg2_63_cif.got.tgz:124595.got - 2010.06.03 11:33:40.
