data_PCOD9088423
_publ_section_title
;
Structure prediction by ZEFSAII (Michael W. Deem and Ramdas Pophale) SiO2 
 PCOD9088423
Probable space group: P -1
;
_chemical_formula_sum "Si O2"
_cell_formula_units_Z 16
_cell_length_a 16.167284
_cell_length_b 6.375861
_cell_length_c 8.373715
_cell_angle_alpha 123.630181
_cell_angle_beta 96.852914
_cell_angle_gamma 73.787891
_cell_volume 689.444805
_symmetry_space_group_name_H-M "P -1"
_symmetry_group_IT_number 2
_symmetry_cell_setting 'triclinic'
loop_
_space_group_symop_operation_xyz
x,y,z
-x,-y,-z
loop_
_atom_site_type_symbol
_atom_site_label
_atom_site_fract_x
_atom_site_fract_y
_atom_site_fract_z
Si Si1 0.858463 0.747560 0.243390
Si Si2 0.494505 0.787210 0.277202
Si Si3 0.189758 0.025090 0.012382
Si Si4 0.561317 0.718016 0.934500
Si Si5 0.247944 0.487676 0.659528
Si Si6 0.986316 0.686963 0.805121
Si Si7 0.332391 0.187996 0.281549
Si Si8 0.079805 0.754066 0.533933
O O1 0.815635 0.826911 0.095833
O O2 0.784792 0.730159 0.344199
O O3 0.928125 0.465633 0.144240
O O4 0.909565 0.964111 0.395719
O O5 0.483532 0.511116 0.216912
O O6 0.500000 0.000000 0.500000
O O7 0.404816 0.923639 0.223031
O O8 0.568914 0.726637 0.132558
O O9 0.245535 0.728624 0.876558
O O10 0.087611 0.071955 0.044084
O O11 0.239992 0.135321 0.206514
O O12 0.641956 0.689983 0.824065
O O13 0.500000 0.000000 0.000000
O O14 0.327311 0.368906 0.512738
O O15 0.171276 0.624006 0.579828
O O16 0.937869 0.454111 0.681403
O O17 0.012418 0.762091 0.666670
#
# Coordination Sequence:
#
# PCOD9088423 Si02
#       8
#     2   2   2   2   2   2   2   2
#     4  10  22  37  58  89 116 165 222 267 310 373
#     4  10  23  43  72 104 129 162 208 253 302 378
#     4  11  24  40  60  88 127 165 209 263 318 370
#     4   9  22  44  71 103 131 162 207 247 309 375
#     4  10  23  41  57  89 127 166 212 257 315 370
#     4  10  19  37  61  86 117 162 216 272 317 367
#     4  11  24  42  64  92 133 172 197 255 315 370
#     4   9  19  37  61  85 118 161 218 267 321 369
#
# _framework density 23.207080999999999
#
# number of rings (size 3 to 8) (size 9 to 14) (size 15 to 20)
#    0.000    2.000    1.250    0.750    0.000   15.500 
#    2.250    0.000    0.000    0.000    0.000    0.000 
#    0.000    0.000    0.000    0.000    0.000    0.000 
#
# Total GULP energy -89293.425844 kJ/mol
# GULP energy per Si atom -5580.839115 kJ/mol
# Density = 2.315426 g / cm^3
# Si number density = 23.207081 Si / 1000 Ang^3
#
#
#
# Elastic Constant Matrix: (Units=GPa)
#
#
# Indices 1 2 3 4 5 6 
#
# 1 55.3540 19.8533 22.8526 -0.6748 -20.3950 5.2888
# 2 19.8533 99.8111 31.5922 20.6751 -5.3177 17.2201
# 3 22.8526 31.5922 132.8021 23.0364 -9.1786 18.3201
# 4 -0.6748 20.6751 23.0364 26.1496 3.0254 4.4096
# 5 -20.3950 -5.3177 -9.1786 3.0254 46.5237 -6.0848
# 6 5.2888 17.2201 18.3201 4.4096 -6.0848 24.8875
#
#
#
# Elastic Compliance Matrix: (Units=1/GPa)
#
#
# Indices 1 2 3 4 5 6 
#
# 1 0.024754 -0.004910 -0.003860 0.006477 0.009386 0.002125
# 2 -0.004910 0.014289 0.000186 -0.010258 -0.000777 -0.007352
# 3 -0.003860 0.000186 0.010386 -0.008513 0.000227 -0.005390
# 4 0.006477 -0.010258 -0.008513 0.054137 -0.003326 0.001583
# 5 0.009386 -0.000777 0.000227 -0.003326 0.026493 0.005443
# 6 0.002125 -0.007352 -0.005390 0.001583 0.005443 0.049834
#
#
# Mechanical properties :
#
#
# Convention : Reuss Voigt Hill
#
# Bulk Modulus (GPa) = 30.99784 48.50705 39.75244
# Shear Modulus (GPa) = 24.05984 33.75675 28.90830
#
# Velocity S-wave (km/s) = 3.22335 3.81804 3.53323
# Velocity P-wave (km/s) = 5.21913 6.35483 5.81477
#
# Compressibility (1/GPa) = 0.03226031
#
# Stress axis : x y z
#
# Youngs Moduli (GPa) = 40.39724 69.98477 96.28415
#
# Poissons Ratio (x) = 0.34366 0.37162
# Poissons Ratio (y) = 0.19837 -0.01789
# Poissons Ratio (z) = 0.15592 -0.01300
#
# Static dielectric constant tensor:
#      x y z
#    x 1.922760 -0.002800 -0.017900 
#    y -0.002800 1.873230 0.018420 
#    z -0.017900 0.018420 1.936100 
# 
# From -- ./inp_files/324244.got.cif
#   From: 2010.05.17/outbox.cif.g08.bks.cpg/sg2_163_cif.got.tgz:324244.got - 2010.06.03 11:33:40.
