data_PCOD9088234
_publ_section_title
;
Structure prediction by ZEFSAII (Michael W. Deem and Ramdas Pophale) SiO2 
 PCOD9088234
Probable space group: P -1
;
_chemical_formula_sum "Si O2"
_cell_formula_units_Z 16
_cell_length_a 9.564963
_cell_length_b 13.899749
_cell_length_c 7.205538
_cell_angle_alpha 61.744824
_cell_angle_beta 124.448023
_cell_angle_gamma 123.852613
_cell_volume 638.298574
_symmetry_space_group_name_H-M "P -1"
_symmetry_group_IT_number 2
_symmetry_cell_setting 'triclinic'
loop_
_space_group_symop_operation_xyz
x,y,z
-x,-y,-z
loop_
_atom_site_type_symbol
_atom_site_label
_atom_site_fract_x
_atom_site_fract_y
_atom_site_fract_z
Si Si1 0.503123 0.042396 0.753614
Si Si2 0.113131 0.627844 0.069643
Si Si3 0.563043 0.410966 0.736790
Si Si4 0.231523 0.361712 0.116067
Si Si5 0.793102 0.208347 0.369427
Si Si6 0.475703 0.230670 0.312932
Si Si7 0.807344 0.969000 0.984171
Si Si8 0.181157 0.217082 0.597756
O O1 0.345642 0.929840 0.635128
O O2 0.714167 0.063641 0.837810
O O3 0.465549 0.156600 0.562989
O O4 0.500000 0.000000 0.000000
O O5 0.183792 0.727548 0.871572
O O6 0.976188 0.655221 0.080747
O O7 0.301774 0.617920 0.276086
O O8 0.000000 0.500000 0.000000
O O9 0.500000 0.500000 0.500000
O O10 0.674223 0.496656 0.906802
O O11 0.380507 0.300417 0.752854
O O12 0.382762 0.324807 0.168284
O O13 0.186640 0.275635 0.346153
O O14 0.683300 0.266125 0.361790
O O15 0.000739 0.222033 0.558152
O O16 0.342562 0.132688 0.159440
O O17 0.828873 0.915281 0.250395
O O18 0.000000 0.000000 0.000000
#
# Coordination Sequence:
#
# PCOD9088234 Si02
#       8
#     2   2   2   2   2   2   2   2
#     4  11  23  39  60  84 113 155 199 240 286 348
#     4   9  18  36  59  84 112 151 194 232 281 343
#     4   9  17  33  59  86 112 145 190 239 283 336
#     4   9  20  36  59  85 114 151 195 242 285 342
#     4  10  21  39  61  85 119 156 191 241 295 342
#     4  11  22  39  57  87 121 151 190 243 297 344
#     4  11  22  37  57  83 117 155 190 238 294 345
#     4  10  19  37  60  84 111 154 198 233 284 350
#
# _framework density 25.06664
#
# number of rings (size 3 to 8) (size 9 to 14) (size 15 to 20)
#    0.000    2.000    0.000    6.000    0.000    3.000 
#    0.000   13.125    0.000    0.000    0.000    0.000 
#    0.000    0.000    0.000    0.000    0.000    0.000 
#
# Total GULP energy -89239.137005 kJ/mol
# GULP energy per Si atom -5577.446063 kJ/mol
# Density = 2.500959 g / cm^3
# Si number density = 25.066640 Si / 1000 Ang^3
#
#
#
# Elastic Constant Matrix: (Units=GPa)
#
#
# Indices 1 2 3 4 5 6 
#
# 1 174.4691 19.0050 27.9421 14.4269 61.5760 13.1059
# 2 19.0050 57.1127 -3.3817 -3.1923 21.1435 10.7559
# 3 27.9421 -3.3817 77.8848 -9.9163 20.9951 5.6157
# 4 14.4269 -3.1923 -9.9163 25.1588 0.8362 3.0913
# 5 61.5760 21.1435 20.9951 0.8362 61.8357 -2.4569
# 6 13.1059 10.7559 5.6157 3.0913 -2.4569 37.4118
#
#
#
# Elastic Compliance Matrix: (Units=1/GPa)
#
#
# Indices 1 2 3 4 5 6 
#
# 1 0.010100 0.000606 -0.001365 -0.005469 -0.009874 -0.003704
# 2 0.000606 0.023701 0.005191 0.006179 -0.010913 -0.009033
# 3 -0.001365 0.005191 0.016743 0.008828 -0.006406 -0.004678
# 4 -0.005469 0.006179 0.008828 0.047799 -0.000516 -0.005169
# 5 -0.009874 -0.010913 -0.006406 -0.000516 0.032304 0.009722
# 6 -0.003704 -0.009033 -0.004678 -0.005169 0.009722 0.032392
#
#
# Mechanical properties :
#
#
# Convention : Reuss Voigt Hill
#
# Bulk Modulus (GPa) = 16.83248 44.06640 30.44944
# Shear Modulus (GPa) = 28.73941 42.60801 35.67371
#
# Velocity S-wave (km/s) = 3.38970 4.12732 3.77657
# Velocity P-wave (km/s) = 4.69572 6.35066 5.58483
#
# Compressibility (1/GPa) = 0.05940896
#
# Stress axis : x y z
#
# Youngs Moduli (GPa) = 99.01302 42.19148 59.72803
#
# Poissons Ratio (x) = -0.02556 0.08150
# Poissons Ratio (y) = -0.05998 -0.31007
# Poissons Ratio (z) = 0.13511 -0.21903
#
# Static dielectric constant tensor:
#      x y z
#    x 2.089010 -0.035750 -0.020310 
#    y -0.035750 2.065580 0.091480 
#    z -0.020310 0.091480 2.107680 
# 
# From -- ./inp_files/200393.got.cif
#   From: 2010.05.17/outbox.cif.g08.bks.cpg/sg2_101_cif.got.tgz:200393.got - 2010.06.03 11:33:40.
