data_PCOD9088572
_publ_section_title
;
Structure prediction by ZEFSAII (Michael W. Deem and Ramdas Pophale) SiO2 
 PCOD9088572
Probable space group: P -1
;
_chemical_formula_sum "Si O2"
_cell_formula_units_Z 14
_cell_length_a 21.224453
_cell_length_b 7.613376
_cell_length_c 15.432537
_cell_angle_alpha 65.019679
_cell_angle_beta 160.747425
_cell_angle_gamma 124.116370
_cell_volume 626.069168
_symmetry_space_group_name_H-M "P -1"
_symmetry_group_IT_number 2
_symmetry_cell_setting 'triclinic'
loop_
_space_group_symop_operation_xyz
x,y,z
-x,-y,-z
loop_
_atom_site_type_symbol
_atom_site_label
_atom_site_fract_x
_atom_site_fract_y
_atom_site_fract_z
Si Si1 0.541267 0.240303 0.667782
Si Si2 0.434403 0.155621 0.822248
Si Si3 0.179132 0.590687 0.828825
Si Si4 0.255369 0.712979 0.389642
Si Si5 0.227039 0.058385 0.737159
Si Si6 0.279761 0.734696 0.612517
Si Si7 0.228334 0.417704 0.264767
O O1 0.325973 0.259181 0.406410
O O2 0.655484 0.383442 0.699060
O O3 0.465488 0.977359 0.611195
O O4 0.711372 0.359279 0.944500
O O5 0.332307 0.993860 0.638775
O O6 0.247816 0.140836 0.647407
O O7 0.500000 0.000000 0.000000
O O8 0.641992 0.405784 0.008359
O O9 0.915551 0.402744 0.540699
O O10 0.196194 0.813284 0.765440
O O11 0.199553 0.640195 0.432385
O O12 0.293040 0.544269 0.415418
O O13 0.041629 0.708440 0.071013
O O14 0.479773 0.241758 0.064809
O O15 0.000000 0.000000 0.500000
#
# Coordination Sequence:
#
# PCOD9088572 Si02
#       7
#     2   2   2   2   2   2   2
#     4  11  20  41  61  88 126 164 206 256 306 360
#     4   8  18  36  59  80 109 155 201 240 306 368
#     4  10  19  37  62  83 117 165 199 250 305 369
#     4  11  20  41  61  89 127 164 203 259 305 355
#     4  10  22  40  57  89 118 153 210 256 308 370
#     4  10  19  37  62  83 119 164 200 251 306 367
#     4  10  24  36  62  96 120 162 217 244 304 375
#
# _framework density 22.361746
#
# number of rings (size 3 to 8) (size 9 to 14) (size 15 to 20)
#    0.000    2.286    4.286    0.857    0.000    5.714 
#    5.143    0.000    0.000    0.000    0.000    0.000 
#    0.000    0.000    0.000    0.000    0.000    0.000 
#
# Total GULP energy -77968.938551 kJ/mol
# GULP energy per Si atom -5569.209896 kJ/mol
# Density = 2.231085 g / cm^3
# Si number density = 22.361746 Si / 1000 Ang^3
#
#
#
# Elastic Constant Matrix: (Units=GPa)
#
#
# Indices 1 2 3 4 5 6 
#
# 1 159.6859 9.8492 41.6698 12.0018 10.3865 15.4697
# 2 9.8492 27.7207 2.6966 11.8221 6.9449 14.8006
# 3 41.6698 2.6966 84.4446 19.9332 16.9677 2.8590
# 4 12.0018 11.8221 19.9332 21.1188 8.9459 6.7821
# 5 10.3865 6.9449 16.9677 8.9459 44.4320 14.0953
# 6 15.4697 14.8006 2.8590 6.7821 14.0953 34.1452
#
#
#
# Elastic Compliance Matrix: (Units=1/GPa)
#
#
# Indices 1 2 3 4 5 6 
#
# 1 0.007544 -0.001171 -0.003896 0.000710 0.000724 -0.003024
# 2 -0.001171 0.060822 0.007120 -0.034184 0.001336 -0.020191
# 3 -0.003896 0.007120 0.018676 -0.018343 -0.004467 0.002602
# 4 0.000710 -0.034184 -0.018343 0.085260 -0.005405 0.001328
# 5 0.000724 0.001336 -0.004467 -0.005405 0.028481 -0.011216
# 6 -0.003024 -0.020191 0.002602 0.001328 -0.011216 0.043557
#
#
# Mechanical properties :
#
#
# Convention : Reuss Voigt Hill
#
# Bulk Modulus (GPa) = 10.97114 42.25357 26.61236
# Shear Modulus (GPa) = 18.47638 34.44823 26.46231
#
# Velocity S-wave (km/s) = 2.87757 3.92918 3.44375
# Velocity P-wave (km/s) = 3.99468 6.28658 5.26681
#
# Compressibility (1/GPa) = 0.09114820
#
# Stress axis : x y z
#
# Youngs Moduli (GPa) = 132.56322 16.44151 53.54351
#
# Poissons Ratio (x) = 0.01925 0.20859
# Poissons Ratio (y) = 0.15523 -0.38122
# Poissons Ratio (z) = 0.51642 -0.11706
#
# Static dielectric constant tensor:
#      x y z
#    x 2.069650 -0.087830 0.156300 
#    y -0.087830 1.861970 -0.033370 
#    z 0.156300 -0.033370 2.054680 
# 
# From -- ./inp_files/540465.got.cif
#   From: 2010.05.17/outbox.cif.g08.bks.cpg/sg2_271_cif.got.tgz:540465.got - 2010.06.03 11:33:40.
