data_PCOD9088121
_publ_section_title
;
Structure prediction by ZEFSAII (Michael W. Deem and Ramdas Pophale) SiO2 
 PCOD9088121
Probable space group: P -1
;
_chemical_formula_sum "Si O2"
_cell_formula_units_Z 16
_cell_length_a 14.183232
_cell_length_b 12.015536
_cell_length_c 9.253455
_cell_angle_alpha 54.069739
_cell_angle_beta 102.692756
_cell_angle_gamma 131.810911
_cell_volume 912.525013
_symmetry_space_group_name_H-M "P -1"
_symmetry_group_IT_number 2
_symmetry_cell_setting 'triclinic'
loop_
_space_group_symop_operation_xyz
x,y,z
-x,-y,-z
loop_
_atom_site_type_symbol
_atom_site_label
_atom_site_fract_x
_atom_site_fract_y
_atom_site_fract_z
Si Si1 0.555755 0.368600 0.677992
Si Si2 0.317028 0.225154 0.547036
Si Si3 0.704140 0.931422 0.052915
Si Si4 0.045617 0.907052 0.164739
Si Si5 0.111037 0.521722 0.606570
Si Si6 0.993705 0.424886 0.210079
Si Si7 0.272411 0.725336 0.237998
Si Si8 0.917669 0.039877 0.521405
O O1 0.464150 0.304053 0.553950
O O2 0.661250 0.592579 0.552470
O O3 0.622463 0.286058 0.764633
O O4 0.444464 0.273178 0.839138
O O5 0.234495 0.127154 0.449680
O O6 0.243294 0.076745 0.768684
O O7 0.809631 0.993309 0.921472
O O8 0.689741 0.081462 0.928485
O O9 0.054138 0.935143 0.317780
O O10 0.943483 0.686071 0.258251
O O11 0.000000 0.000000 0.000000
O O12 0.239510 0.667488 0.440512
O O13 0.000000 0.500000 0.500000
O O14 0.107127 0.586514 0.713267
O O15 0.136567 0.570180 0.223556
O O16 0.956005 0.229321 0.338318
O O17 0.000000 0.500000 0.000000
O O18 0.000000 0.000000 0.500000
#
# Coordination Sequence:
#
# PCOD9088121 Si02
#       8
#     2   2   2   2   2   2   2   2
#     4   9  21  37  62  81 114 165 201 239 287 348
#     4   9  21  38  57  81 120 150 205 240 290 341
#     4  10  19  37  59  85 113 154 205 237 284 358
#     4  12  24  37  62  88 122 160 196 245 301 362
#     4  10  20  39  57  86 118 159 189 240 301 352
#     4  11  22  36  60  89 126 151 187 252 303 350
#     4  11  18  36  63  85 117 154 201 233 292 359
#     4  12  23  37  58  91 121 153 196 250 305 345
#
# _framework density 17.533767000000001
#
# number of rings (size 3 to 8) (size 9 to 14) (size 15 to 20)
#    0.750    0.750    5.000    2.625    3.500    0.000 
#    0.000    0.625    2.750    1.500    0.000    0.000 
#    0.000    0.000    0.000    0.000    0.000    0.000 
#
# Total GULP energy -89105.637571 kJ/mol
# GULP energy per Si atom -5569.102348 kJ/mol
# Density = 1.749386 g / cm^3
# Si number density = 17.533767 Si / 1000 Ang^3
#
#
#
# Elastic Constant Matrix: (Units=GPa)
#
#
# Indices 1 2 3 4 5 6 
#
# 1 72.7545 27.3226 43.4249 -3.4555 10.1128 -16.2190
# 2 27.3226 79.2095 54.5795 -4.2665 12.3828 -14.6458
# 3 43.4249 54.5795 115.7206 -17.4746 10.9014 -20.7447
# 4 -3.4555 -4.2665 -17.4746 28.7445 -8.7803 3.4037
# 5 10.1128 12.3828 10.9014 -8.7803 33.5296 -3.7524
# 6 -16.2190 -14.6458 -20.7447 3.4037 -3.7524 23.6750
#
#
#
# Elastic Compliance Matrix: (Units=1/GPa)
#
#
# Indices 1 2 3 4 5 6 
#
# 1 0.019565 -0.001062 -0.005601 -0.003247 -0.003674 0.007723
# 2 -0.001062 0.020218 -0.008591 -0.004373 -0.005042 0.004082
# 3 -0.005601 -0.008591 0.016672 0.008292 0.002128 0.004602
# 4 -0.003247 -0.004373 0.008292 0.042317 0.010751 -0.002044
# 5 -0.003674 -0.005042 0.002128 0.010751 0.034943 0.000222
# 6 0.007723 0.004082 0.004602 -0.002044 0.000222 0.054416
#
#
# Mechanical properties :
#
#
# Convention : Reuss Voigt Hill
#
# Bulk Modulus (GPa) = 38.53977 57.59318 48.06648
# Shear Modulus (GPa) = 21.99868 26.68031 24.33950
#
# Velocity S-wave (km/s) = 3.54594 3.90507 3.72983
# Velocity P-wave (km/s) = 6.22840 7.29733 6.78395
#
# Compressibility (1/GPa) = 0.02594722
#
# Stress axis : x y z
#
# Youngs Moduli (GPa) = 51.11246 49.46077 59.98171
#
# Poissons Ratio (x) = 0.05253 0.33593
# Poissons Ratio (y) = 0.05429 0.51530
# Poissons Ratio (z) = 0.28626 0.42491
#
# Static dielectric constant tensor:
#      x y z
#    x 1.624170 -0.001060 -0.029600 
#    y -0.001060 1.625950 -0.014230 
#    z -0.029600 -0.014230 1.622300 
# 
# From -- ./inp_files/217315.got.cif
#   From: 2010.05.17/outbox.cif.g08.bks.cpg/sg2_109_cif.got.tgz:217315.got - 2010.06.03 11:33:40.
