data_PCOD9088995
_publ_section_title
;
Structure prediction by ZEFSAII (Michael W. Deem and Ramdas Pophale) SiO2 
 PCOD9088995
Probable space group: P -1
;
_chemical_formula_sum "Si O2"
_cell_formula_units_Z 16
_cell_length_a 7.422008
_cell_length_b 8.067830
_cell_length_c 12.131894
_cell_angle_alpha 84.670930
_cell_angle_beta 107.224845
_cell_angle_gamma 82.884305
_cell_volume 682.063297
_symmetry_space_group_name_H-M "P -1"
_symmetry_group_IT_number 2
_symmetry_cell_setting 'triclinic'
loop_
_space_group_symop_operation_xyz
x,y,z
-x,-y,-z
loop_
_atom_site_type_symbol
_atom_site_label
_atom_site_fract_x
_atom_site_fract_y
_atom_site_fract_z
Si Si1 0.052243 0.834283 0.440932
Si Si2 0.510649 0.187582 0.532249
Si Si3 0.105599 0.348098 0.389422
Si Si4 0.261996 0.388772 0.037289
Si Si5 0.068328 0.583083 0.182211
Si Si6 0.994367 0.936998 0.777619
Si Si7 0.636718 0.240114 0.026532
Si Si8 0.357387 0.846898 0.205902
O O1 0.279909 0.782258 0.468384
O O2 0.972582 0.690282 0.502993
O O3 0.000000 0.000000 0.500000
O O4 0.976317 0.903834 0.303762
O O5 0.335332 0.314400 0.443080
O O6 0.499963 0.178774 0.663845
O O7 0.500000 0.000000 0.500000
O O8 0.034233 0.519488 0.301463
O O9 0.040007 0.207084 0.305693
O O10 0.154849 0.421526 0.131587
O O11 0.304773 0.574557 0.995938
O O12 0.463301 0.268214 0.079516
O O13 0.118121 0.335650 0.923650
O O14 0.230720 0.697713 0.202665
O O15 0.176135 0.876276 0.888548
O O16 0.800807 0.989738 0.809024
O O17 0.567825 0.169302 0.903462
#
# Coordination Sequence:
#
# PCOD9088995 Si02
#       8
#     2   2   2   2   2   2   2   2
#     4   9  19  35  58  93 119 156 215 258 292 376
#     4  11  20  40  62  88 126 170 206 259 318 367
#     4  11  21  39  67  88 118 178 214 248 319 379
#     4   9  20  39  62  91 126 162 209 259 312 390
#     4  10  21  40  63  89 127 170 206 255 326 367
#     4  10  19  37  64  91 125 166 201 261 317 370
#     4  10  19  38  64  94 121 164 213 258 316 376
#     4  10  22  39  61  92 134 159 206 269 306 380
#
# _framework density 23.458233
#
# number of rings (size 3 to 8) (size 9 to 14) (size 15 to 20)
#    0.000    2.000    5.000    0.375    0.000    2.500 
#    6.750    3.125    0.000    0.000    0.000    0.000 
#    0.000    0.000    0.000    0.000    0.000    0.000 
#
# Total GULP energy -89465.740905 kJ/mol
# GULP energy per Si atom -5591.608807 kJ/mol
# Density = 2.340484 g / cm^3
# Si number density = 23.458233 Si / 1000 Ang^3
#
#
#
# Elastic Constant Matrix: (Units=GPa)
#
#
# Indices 1 2 3 4 5 6 
#
# 1 55.4295 -7.3446 11.7939 -3.1633 -17.1297 -0.7305
# 2 -7.3446 51.1587 10.9116 -0.1177 1.2008 8.5682
# 3 11.7939 10.9116 91.7957 14.3848 5.1707 -0.2533
# 4 -3.1633 -0.1177 14.3848 33.4582 4.2507 -4.1220
# 5 -17.1297 1.2008 5.1707 4.2507 35.3499 3.8701
# 6 -0.7305 8.5682 -0.2533 -4.1220 3.8701 18.6420
#
#
#
# Elastic Compliance Matrix: (Units=1/GPa)
#
#
# Indices 1 2 3 4 5 6 
#
# 1 0.023406 0.004607 -0.004595 0.002290 0.011936 -0.003235
# 2 0.004607 0.022716 -0.003546 0.000299 0.003136 -0.010893
# 3 -0.004595 -0.003546 0.012956 -0.005435 -0.003473 0.001145
# 4 0.002290 0.000299 -0.005435 0.033813 -0.003046 0.007987
# 5 0.011936 0.003136 -0.003473 -0.003046 0.035841 -0.009135
# 6 -0.003235 -0.010893 0.001145 0.007987 -0.009135 0.062200
#
#
# Mechanical properties :
#
#
# Convention : Reuss Voigt Hill
#
# Bulk Modulus (GPa) = 19.22666 25.45617 22.34142
# Shear Modulus (GPa) = 23.21947 29.69155 26.45551
#
# Velocity S-wave (km/s) = 3.14956 3.56156 3.36187
# Velocity P-wave (km/s) = 4.63036 5.27145 4.96127
#
# Compressibility (1/GPa) = 0.05201111
#
# Stress axis : x y z
#
# Youngs Moduli (GPa) = 42.72433 44.02134 77.18408
#
# Poissons Ratio (x) = -0.20281 0.35465
# Poissons Ratio (y) = -0.19684 0.27368
# Poissons Ratio (z) = 0.19631 0.15609
#
# Static dielectric constant tensor:
#      x y z
#    x 1.852670 0.009970 -0.032600 
#    y 0.009970 2.029590 0.025890 
#    z -0.032600 0.025890 1.860690 
# 
# From -- ./inp_files/382058.got.cif
#   From: 2010.05.17/outbox.cif.g08.bks.cpg/sg2_192_cif.got.tgz:382058.got - 2010.06.03 11:33:40.
