data_PCOD9088197
_publ_section_title
;
Structure prediction by ZEFSAII (Michael W. Deem and Ramdas Pophale) SiO2 
 PCOD9088197
Probable space group: P -1
;
_chemical_formula_sum "Si O2"
_cell_formula_units_Z 16
_cell_length_a 8.471588
_cell_length_b 5.304886
_cell_length_c 21.437827
_cell_angle_alpha 83.444656
_cell_angle_beta 47.456902
_cell_angle_gamma 98.445489
_cell_volume 671.334845
_symmetry_space_group_name_H-M "P -1"
_symmetry_group_IT_number 2
_symmetry_cell_setting 'triclinic'
loop_
_space_group_symop_operation_xyz
x,y,z
-x,-y,-z
loop_
_atom_site_type_symbol
_atom_site_label
_atom_site_fract_x
_atom_site_fract_y
_atom_site_fract_z
Si Si1 0.837751 0.731574 0.153166
Si Si2 0.326667 0.130047 0.682483
Si Si3 0.820614 0.467732 0.995655
Si Si4 0.442713 0.193951 0.291254
Si Si5 0.654711 0.805679 0.459176
Si Si6 0.472757 0.037306 0.847091
Si Si7 0.530163 0.747737 0.033559
Si Si8 0.207264 0.381973 0.448869
O O1 0.835091 0.838349 0.220480
O O2 0.621341 0.465121 0.212378
O O3 0.060645 0.646018 0.087432
O O4 0.753478 0.914561 0.121970
O O5 0.222736 0.110247 0.642324
O O6 0.556299 0.379229 0.616544
O O7 0.420250 0.894663 0.687082
O O8 0.603433 0.243618 0.087574
O O9 0.780681 0.748242 0.985350
O O10 0.000000 0.500000 0.000000
O O11 0.396121 0.992605 0.250493
O O12 0.232275 0.240983 0.381082
O O13 0.500000 0.500000 0.500000
O O14 0.791907 0.798701 0.485513
O O15 0.500000 0.000000 0.500000
O O16 0.576469 0.251208 0.868457
O O17 0.500000 0.500000 0.000000
O O18 0.500000 0.000000 0.000000
O O19 0.000000 0.500000 0.500000
#
# Coordination Sequence:
#
# PCOD9088197 Si02
#       8
#     2   2   2   2   2   2   2   2
#     4  10  21  35  63  98 127 160 224 277 316 378
#     4   9  20  36  61  88 125 173 206 263 327 380
#     4  12  22  39  68 100 124 170 230 273 320 388
#     4  10  19  37  59  94 130 167 214 271 332 383
#     4  10  19  38  63  90 122 163 206 251 317 384
#     4  11  21  38  67  94 129 173 224 274 331 387
#     4  12  26  43  62  92 133 175 215 269 341 396
#     4  10  21  37  62  96 129 165 216 267 320 393
#
# _framework density 23.833113999999998
#
# number of rings (size 3 to 8) (size 9 to 14) (size 15 to 20)
#    0.000    1.500    5.000    0.375    0.000    0.500 
#    0.000    1.250    0.000    0.000    0.000    0.000 
#    0.000    0.000    0.000    0.000    0.000    0.000 
#
# Total GULP energy -89225.776591 kJ/mol
# GULP energy per Si atom -5576.611037 kJ/mol
# Density = 2.377887 g / cm^3
# Si number density = 23.833114 Si / 1000 Ang^3
#
#
#
# Elastic Constant Matrix: (Units=GPa)
#
#
# Indices 1 2 3 4 5 6 
#
# 1 81.5335 46.2910 53.8523 11.0980 25.6368 -19.4368
# 2 46.2910 130.9545 48.8594 23.2514 10.3633 -30.6591
# 3 53.8523 48.8594 136.3441 48.1375 32.7711 -16.0294
# 4 11.0980 23.2514 48.1375 55.1780 2.1254 1.6670
# 5 25.6368 10.3633 32.7711 2.1254 38.3663 1.1705
# 6 -19.4368 -30.6591 -16.0294 1.6670 1.1705 56.1458
#
#
#
# Elastic Compliance Matrix: (Units=1/GPa)
#
#
# Indices 1 2 3 4 5 6 
#
# 1 0.021662 -0.004578 -0.005081 0.002246 -0.009135 0.003673
# 2 -0.004578 0.011047 -0.000606 -0.003362 0.000646 0.004361
# 3 -0.005081 -0.000606 0.017255 -0.013474 -0.010539 0.003456
# 4 0.002246 -0.003362 -0.013474 0.030663 0.009402 -0.006012
# 5 -0.009135 0.000646 -0.010539 0.009402 0.040687 -0.006946
# 6 0.003673 0.004361 0.003456 -0.006012 -0.006946 0.022774
#
#
# Mechanical properties :
#
#
# Convention : Reuss Voigt Hill
#
# Bulk Modulus (GPa) = 33.97326 71.87083 52.92204
# Shear Modulus (GPa) = 28.66491 43.25997 35.96244
#
# Velocity S-wave (km/s) = 3.47181 4.26505 3.88871
# Velocity P-wave (km/s) = 5.50971 7.38075 6.51277
#
# Compressibility (1/GPa) = 0.02943492
#
# Stress axis : x y z
#
# Youngs Moduli (GPa) = 46.16415 90.51829 57.95373
#
# Poissons Ratio (x) = 0.41435 0.29446
# Poissons Ratio (y) = 0.21132 0.03514
# Poissons Ratio (z) = 0.23456 0.05488
#
# Static dielectric constant tensor:
#      x y z
#    x 2.175010 -0.061770 -0.097450 
#    y -0.061770 2.098580 0.153100 
#    z -0.097450 0.153100 2.130480 
# 
# From -- ./inp_files/585193.got.cif
#   From: 2010.05.17/outbox.cif.g08.bks.cpg/sg2_293_cif.got.tgz:585193.got - 2010.06.03 11:33:40.
