data_PCOD9088896
_publ_section_title
;
Structure prediction by ZEFSAII (Michael W. Deem and Ramdas Pophale) SiO2 
 PCOD9088896
Probable space group: P -1
;
_chemical_formula_sum "Si O2"
_cell_formula_units_Z 15
_cell_length_a 12.742007
_cell_length_b 15.701376
_cell_length_c 8.645934
_cell_angle_alpha 43.384310
_cell_angle_beta 136.325227
_cell_angle_gamma 141.854267
_cell_volume 685.355559
_symmetry_space_group_name_H-M "P -1"
_symmetry_group_IT_number 2
_symmetry_cell_setting 'triclinic'
loop_
_space_group_symop_operation_xyz
x,y,z
-x,-y,-z
loop_
_atom_site_type_symbol
_atom_site_label
_atom_site_fract_x
_atom_site_fract_y
_atom_site_fract_z
Si Si1 0.678320 0.388787 0.544832
Si Si2 0.288866 0.538167 0.008300
Si Si3 0.713323 0.235717 0.049309
Si Si4 0.353843 0.980681 0.490990
Si Si5 0.041729 0.159208 0.789929
Si Si6 0.000000 0.500000 0.500000
Si Si7 0.127601 0.339758 0.365143
Si Si8 0.401468 0.297827 0.125914
O O1 0.784972 0.530001 0.585301
O O2 0.508906 0.374176 0.295689
O O3 0.815585 0.408421 0.532156
O O4 0.627133 0.251034 0.782070
O O5 0.296305 0.659895 0.970571
O O6 0.121177 0.487016 0.783621
O O7 0.471770 0.620202 0.994893
O O8 0.249577 0.404537 0.256935
O O9 0.926025 0.299167 0.163742
O O10 0.625090 0.077642 0.246026
O O11 0.367829 0.134524 0.313154
O O12 0.500000 0.000000 0.500000
O O13 0.148308 0.853193 0.382335
O O14 0.102709 0.202947 0.618404
O O15 0.206559 0.274557 0.923050
O O16 0.000000 0.000000 0.000000
#
# Coordination Sequence:
#
# PCOD9088896 Si02
#       8
#     2   2   2   2   2   1   2   2
#     4  10  19  29  52  80 115 136 171 229 268 312
#     4  10  17  29  53  79 113 133 176 222 264 318
#     4  10  17  32  52  81 107 139 179 225 262 311
#     4  10  19  35  59  79  98 146 187 217 260 321
#     4   9  21  37  54  75 109 141 178 220 262 327
#     4  10  16  28  46  82 120 130 164 226 270 302
#     4  10  18  33  54  79 105 147 176 213 278 309
#     4  10  21  34  50  84 109 141 176 220 270 309
#
# _framework density 21.88645
#
# number of rings (size 3 to 8) (size 9 to 14) (size 15 to 20)
#    0.000    2.133    4.000    0.800    0.000    1.600 
#    0.000    0.000    0.000    0.800    3.467    0.000 
#    0.000    0.000    0.000    0.000    0.000    0.000 
#
# Total GULP energy -83530.822312 kJ/mol
# GULP energy per Si atom -5568.721487 kJ/mol
# Density = 2.183664 g / cm^3
# Si number density = 21.886450 Si / 1000 Ang^3
#
#
#
# Elastic Constant Matrix: (Units=GPa)
#
#
# Indices 1 2 3 4 5 6 
#
# 1 50.3875 27.5622 45.8154 -11.2396 -14.5074 15.1099
# 2 27.5622 72.2503 45.6986 -11.2162 -10.5768 23.0218
# 3 45.8154 45.6986 149.7877 -27.9812 -37.7193 23.5186
# 4 -11.2396 -11.2162 -27.9812 48.8130 8.5818 -1.6262
# 5 -14.5074 -10.5768 -37.7193 8.5818 29.9516 -10.5505
# 6 15.1099 23.0218 23.5186 -1.6262 -10.5505 26.5550
#
#
#
# Elastic Compliance Matrix: (Units=1/GPa)
#
#
# Indices 1 2 3 4 5 6 
#
# 1 0.031382 -0.005460 -0.005735 0.001907 0.003152 -0.006675
# 2 -0.005460 0.022757 -0.003834 0.002224 -0.005448 -0.015255
# 3 -0.005735 -0.003834 0.013125 0.003319 0.011329 -0.000333
# 4 0.001907 0.002224 0.003319 0.023657 -0.002878 -0.005648
# 5 0.003152 -0.005448 0.011329 -0.002878 0.052924 0.013746
# 6 -0.006675 -0.015255 -0.000333 -0.005648 0.013746 0.060092
#
#
# Mechanical properties :
#
#
# Convention : Reuss Voigt Hill
#
# Bulk Modulus (GPa) = 26.87700 56.73088 41.80394
# Shear Modulus (GPa) = 20.29239 31.28720 25.78980
#
# Velocity S-wave (km/s) = 3.04824 3.78501 3.43643
# Velocity P-wave (km/s) = 4.96950 6.71405 5.90654
#
# Compressibility (1/GPa) = 0.03720653
#
# Stress axis : x y z
#
# Youngs Moduli (GPa) = 31.86555 43.94182 76.18912
#
# Poissons Ratio (x) = 0.23992 0.43694
# Poissons Ratio (y) = 0.17398 0.29212
# Poissons Ratio (z) = 0.18274 0.16848
#
# Static dielectric constant tensor:
#      x y z
#    x 1.771660 -0.024070 0.014020 
#    y -0.024070 1.882860 -0.020990 
#    z 0.014020 -0.020990 1.840460 
# 
# From -- ./inp_files/212830.got.cif
#   From: 2010.05.17/outbox.cif.g08.bks.cpg/sg2_107_cif.got.tgz:212830.got - 2010.06.03 11:33:40.
