data_PCOD9088261
_publ_section_title
;
Structure prediction by ZEFSAII (Michael W. Deem and Ramdas Pophale) SiO2 
 PCOD9088261
Probable space group: P -1
;
_chemical_formula_sum "Si O2"
_cell_formula_units_Z 14
_cell_length_a 14.406640
_cell_length_b 6.515858
_cell_length_c 19.473508
_cell_angle_alpha 82.833019
_cell_angle_beta 30.709121
_cell_angle_gamma 105.547099
_cell_volume 622.293997
_symmetry_space_group_name_H-M "P -1"
_symmetry_group_IT_number 2
_symmetry_cell_setting 'triclinic'
loop_
_space_group_symop_operation_xyz
x,y,z
-x,-y,-z
loop_
_atom_site_type_symbol
_atom_site_label
_atom_site_fract_x
_atom_site_fract_y
_atom_site_fract_z
Si Si1 0.157282 0.922868 0.413839
Si Si2 0.073088 0.889966 0.199895
Si Si3 0.499336 0.564925 0.576351
Si Si4 0.012195 0.432541 0.603094
Si Si5 0.643919 0.842423 0.200023
Si Si6 0.269633 0.400780 0.966621
Si Si7 0.049939 0.476114 0.845744
O O1 0.026514 0.688917 0.570283
O O2 0.122536 0.769188 0.371583
O O3 0.470036 0.234392 0.213049
O O4 0.000000 0.000000 0.500000
O O5 0.807475 0.799476 0.393814
O O6 0.129528 0.784412 0.231269
O O7 0.007802 0.692464 0.182797
O O8 0.277106 0.238299 0.029901
O O9 0.500000 0.500000 0.500000
O O10 0.338600 0.254968 0.734030
O O11 0.346955 0.655160 0.674035
O O12 0.331113 0.640072 0.394545
O O13 0.719199 0.728370 0.102685
O O14 0.840580 0.199676 0.045190
O O15 0.012325 0.336218 0.133214
#
# Coordination Sequence:
#
# PCOD9088261 Si02
#       7
#     2   2   2   2   2   2   2
#     4  11  22  38  62  87 114 151 197 239 291 349
#     4   9  22  39  58  86 121 151 192 239 287 343
#     4   9  19  38  59  85 119 160 188 234 287 342
#     4  10  21  39  61  85 114 155 195 237 289 346
#     4  10  19  37  60  85 118 151 198 234 285 347
#     4  11  22  37  59  89 117 152 193 244 285 340
#     4  10  20  37  59  85 119 156 191 237 288 337
#
# _framework density 22.497404
#
# number of rings (size 3 to 8) (size 9 to 14) (size 15 to 20)
#    0.000    2.000    2.857    0.429    0.000    2.857 
#    0.000    1.429    0.000    0.000    0.000    0.000 
#    0.000    0.000    0.000    0.000    0.000    0.000 
#
# Total GULP energy -78208.078689 kJ/mol
# GULP energy per Si atom -5586.291335 kJ/mol
# Density = 2.244620 g / cm^3
# Si number density = 22.497404 Si / 1000 Ang^3
#
#
#
# Elastic Constant Matrix: (Units=GPa)
#
#
# Indices 1 2 3 4 5 6 
#
# 1 93.4414 33.1905 31.3215 -18.0983 34.5882 -29.7345
# 2 33.1905 86.8212 22.3605 -3.2891 11.3929 -38.3468
# 3 31.3215 22.3605 57.5693 -11.4857 26.5576 -10.4367
# 4 -18.0983 -3.2891 -11.4857 31.8699 -16.8544 -1.7035
# 5 34.5882 11.3929 26.5576 -16.8544 49.6786 -9.8373
# 6 -29.7345 -38.3468 -10.4367 -1.7035 -9.8373 34.1305
#
#
#
# Elastic Compliance Matrix: (Units=1/GPa)
#
#
# Indices 1 2 3 4 5 6 
#
# 1 0.021153 0.002212 -0.004463 0.008162 -0.006499 0.018083
# 2 0.002212 0.024962 -0.006225 0.005058 0.003592 0.029357
# 3 -0.004463 -0.006225 0.026028 0.000376 -0.010422 -0.005908
# 4 0.008162 0.005058 0.000376 0.043692 0.011419 0.018380
# 5 -0.006499 0.003592 -0.010422 0.011419 0.034399 0.005672
# 6 0.018083 0.029357 -0.005908 0.018380 0.005672 0.078783
#
#
# Mechanical properties :
#
#
# Convention : Reuss Voigt Hill
#
# Bulk Modulus (GPa) = 18.11885 45.73076 31.92481
# Shear Modulus (GPa) = 18.91319 33.19976 26.05648
#
# Velocity S-wave (km/s) = 2.90260 3.84567 3.40692
# Velocity P-wave (km/s) = 4.39371 6.33168 5.44953
#
# Compressibility (1/GPa) = 0.05519113
#
# Stress axis : x y z
#
# Youngs Moduli (GPa) = 47.27436 40.06072 38.42021
#
# Poissons Ratio (x) = -0.08860 0.17147
# Poissons Ratio (y) = -0.10456 0.23916
# Poissons Ratio (z) = 0.21098 0.24937
#
# Static dielectric constant tensor:
#      x y z
#    x 1.778470 -0.067340 0.030050 
#    y -0.067340 1.806500 0.020390 
#    z 0.030050 0.020390 1.848460 
# 
# From -- ./inp_files/32373.got.cif
#   From: 2010.05.17/outbox.cif.g08.bks.cpg/sg2_17_cif.got.tgz:32373.got - 2010.06.03 11:33:40.
