data_PCOD9088124
_publ_section_title
;
Structure prediction by ZEFSAII (Michael W. Deem and Ramdas Pophale) SiO2 
 PCOD9088124
Probable space group: P -1
;
_chemical_formula_sum "Si O2"
_cell_formula_units_Z 12
_cell_length_a 14.706648
_cell_length_b 10.233198
_cell_length_c 5.605362
_cell_angle_alpha 140.738703
_cell_angle_beta 113.247827
_cell_angle_gamma 85.101763
_cell_volume 453.981183
_symmetry_space_group_name_H-M "P -1"
_symmetry_group_IT_number 2
_symmetry_cell_setting 'triclinic'
loop_
_space_group_symop_operation_xyz
x,y,z
-x,-y,-z
loop_
_atom_site_type_symbol
_atom_site_label
_atom_site_fract_x
_atom_site_fract_y
_atom_site_fract_z
Si Si1 0.541524 0.864491 0.165861
Si Si2 0.873621 0.373070 0.714416
Si Si3 0.665207 0.214600 0.395976
Si Si4 0.092315 0.943987 0.294753
Si Si5 0.278106 0.135961 0.374499
Si Si6 0.134759 0.327960 0.239238
O O1 0.612457 0.748083 0.202352
O O2 0.500000 0.000000 0.500000
O O3 0.621554 0.055284 0.349355
O O4 0.433535 0.727995 0.718620
O O5 0.777958 0.419925 0.822694
O O6 0.875804 0.176902 0.620275
O O7 0.845102 0.427362 0.488735
O O8 0.000000 0.500000 0.000000
O O9 0.697033 0.054378 0.017258
O O10 0.972015 0.781751 0.864247
O O11 0.177742 0.014514 0.271862
O O12 0.096320 0.172370 0.742099
O O13 0.239065 0.291103 0.386862
#
# Coordination Sequence:
#
# PCOD9088124 Si02
#       6
#     2   2   2   2   2   2
#     4   9  19  33  62  86 108 153 199 233 287 339
#     4  10  20  38  58  83 120 155 186 233 290 342
#     4  10  19  37  59  85 116 151 192 239 284 342
#     4  10  20  38  55  81 119 160 190 229 284 343
#     4  11  18  35  60  85 112 152 195 238 285 336
#     4  10  21  35  56  83 120 153 192 236 279 339
#
# _framework density 26.432815999999999
#
# number of rings (size 3 to 8) (size 9 to 14) (size 15 to 20)
#    0.000    2.000    3.333    0.500    0.000    0.000 
#    3.000    2.500    0.000   14.000    0.000    0.000 
#    0.000    0.000    0.000    0.000    0.000    0.000 
#
# Total GULP energy -66915.609138 kJ/mol
# GULP energy per Si atom -5576.300762 kJ/mol
# Density = 2.637265 g / cm^3
# Si number density = 26.432816 Si / 1000 Ang^3
#
#
#
# Elastic Constant Matrix: (Units=GPa)
#
#
# Indices 1 2 3 4 5 6 
#
# 1 165.1832 77.2336 43.9920 -9.7058 44.4160 9.6744
# 2 77.2336 127.4689 36.5738 -11.9505 17.3884 -27.7232
# 3 43.9920 36.5738 55.3121 3.6007 13.8563 -15.4188
# 4 -9.7058 -11.9505 3.6007 29.5184 -10.4264 22.2114
# 5 44.4160 17.3884 13.8563 -10.4264 64.9126 -27.3515
# 6 9.6744 -27.7232 -15.4188 22.2114 -27.3515 79.0433
#
#
#
# Elastic Compliance Matrix: (Units=1/GPa)
#
#
# Indices 1 2 3 4 5 6 
#
# 1 0.016536 -0.007739 -0.009481 0.009351 -0.011237 -0.013104
# 2 -0.007739 0.014085 -0.002395 -0.000203 0.005044 0.007223
# 3 -0.009481 -0.002395 0.030740 -0.015612 0.003008 0.011745
# 4 0.009351 -0.000203 -0.015612 0.052882 -0.003014 -0.020164
# 5 -0.011237 0.005044 0.003008 -0.003014 0.026394 0.013712
# 6 -0.013104 0.007223 0.011745 -0.020164 0.013712 0.029490
#
#
# Mechanical properties :
#
#
# Convention : Reuss Voigt Hill
#
# Bulk Modulus (GPa) = 45.18632 73.72923 59.45778
# Shear Modulus (GPa) = 23.06968 47.37254 35.22111
#
# Velocity S-wave (km/s) = 2.95747 4.23802 3.65427
# Velocity P-wave (km/s) = 5.36601 7.20426 6.35198
#
# Compressibility (1/GPa) = 0.02213059
#
# Stress axis : x y z
#
# Youngs Moduli (GPa) = 60.47474 70.99673 32.53075
#
# Poissons Ratio (x) = 0.54945 0.30842
# Poissons Ratio (y) = 0.46802 0.07792
# Poissons Ratio (z) = 0.57335 0.17005
#
# Static dielectric constant tensor:
#      x y z
#    x 2.150820 0.050410 0.228130 
#    y 0.050410 2.096160 0.101580 
#    z 0.228130 0.101580 2.982570 
# 
# From -- ./inp_files/30789.got.cif
#   From: 2010.05.17/outbox.cif.g08.bks.cpg/sg2_16_cif.got.tgz:30789.got - 2010.06.03 11:33:40.
