data_PCOD9088085
_publ_section_title
;
Structure prediction by ZEFSAII (Michael W. Deem and Ramdas Pophale) SiO2 
 PCOD9088085
Probable space group: P -1
;
_chemical_formula_sum "Si O2"
_cell_formula_units_Z 14
_cell_length_a 21.333922
_cell_length_b 5.301051
_cell_length_c 7.090401
_cell_angle_alpha 60.774918
_cell_angle_beta 79.017400
_cell_angle_gamma 99.449906
_cell_volume 655.292085
_symmetry_space_group_name_H-M "P -1"
_symmetry_group_IT_number 2
_symmetry_cell_setting 'triclinic'
loop_
_space_group_symop_operation_xyz
x,y,z
-x,-y,-z
loop_
_atom_site_type_symbol
_atom_site_label
_atom_site_fract_x
_atom_site_fract_y
_atom_site_fract_z
Si Si1 0.918101 0.679126 0.502410
Si Si2 0.802472 0.213651 0.971467
Si Si3 0.634853 0.533204 0.103841
Si Si4 0.767828 0.516548 0.235559
Si Si5 0.035956 0.637865 0.733729
Si Si6 0.700409 0.150493 0.742438
Si Si7 0.572561 0.041877 0.025575
O O1 0.857549 0.436136 0.728231
O O2 0.928973 0.574394 0.322760
O O3 0.980659 0.674043 0.601883
O O4 0.915819 0.023195 0.380739
O O5 0.802706 0.358227 0.122303
O O6 0.731635 0.183532 0.921686
O O7 0.805755 0.872258 0.098428
O O8 0.691433 0.471569 0.224545
O O9 0.588738 0.243170 0.129901
O O10 0.679499 0.792004 0.838713
O O11 0.589844 0.724495 0.154539
O O12 0.755252 0.349956 0.501597
O O13 0.000000 0.500000 0.000000
O O14 0.629717 0.215186 0.777578
O O15 0.500000 0.000000 0.000000
#
# Coordination Sequence:
#
# PCOD9088085 Si02
#       7
#     2   2   2   2   2   2   2
#     4  10  22  38  58  86 117 152 187 236 278 327
#     4  11  23  38  57  86 118 145 193 234 277 337
#     4   9  19  37  53  78 111 139 183 232 280 333
#     4  11  21  37  58  81 112 152 185 232 287 335
#     4  10  21  39  61  84 118 152 191 229 279 330
#     4   9  23  35  60  78 115 146 187 234 287 330
#     4  10  19  37  59  78 111 148 182 234 287 331
#
# _framework density 21.364521
#
# number of rings (size 3 to 8) (size 9 to 14) (size 15 to 20)
#    0.857    1.143    1.429    1.714    2.000    2.286 
#    0.000    1.429    0.000    0.000    0.000    0.000 
#    0.000    0.000    0.000    0.000    0.000    0.000 
#
# Total GULP energy -78086.037824 kJ/mol
# GULP energy per Si atom -5577.574130 kJ/mol
# Density = 2.131589 g / cm^3
# Si number density = 21.364521 Si / 1000 Ang^3
#
#
#
# Elastic Constant Matrix: (Units=GPa)
#
#
# Indices 1 2 3 4 5 6 
#
# 1 47.4462 26.2567 -6.5454 3.8249 -6.8014 4.0409
# 2 26.2567 170.8133 34.3869 13.6065 1.0791 -8.5804
# 3 -6.5454 34.3869 89.2362 11.9592 -5.4699 -2.6273
# 4 3.8249 13.6065 11.9592 26.2909 -1.0501 -8.5881
# 5 -6.8014 1.0791 -5.4699 -1.0501 24.2099 -1.7039
# 6 4.0409 -8.5804 -2.6273 -8.5881 -1.7039 19.5055
#
#
#
# Elastic Compliance Matrix: (Units=1/GPa)
#
#
# Indices 1 2 3 4 5 6 
#
# 1 0.027102 -0.005201 0.005052 -0.006256 0.008063 -0.009272
# 2 -0.005201 0.007547 -0.003245 -0.000628 -0.002313 0.003482
# 3 0.005052 -0.003245 0.013821 -0.006137 0.004213 -0.002946
# 4 -0.006256 -0.000628 -0.006137 0.049247 0.000563 0.021925
# 5 0.008063 -0.002313 0.004213 0.000563 0.044794 0.002041
# 6 -0.009272 0.003482 -0.002946 0.021925 0.002041 0.064155
#
#
# Mechanical properties :
#
#
# Convention : Reuss Voigt Hill
#
# Bulk Modulus (GPa) = 23.99182 46.18801 35.08991
# Shear Modulus (GPa) = 21.99285 30.89444 26.44364
#
# Velocity S-wave (km/s) = 3.21192 3.80684 3.52196
# Velocity P-wave (km/s) = 5.00094 6.40224 5.74448
#
# Compressibility (1/GPa) = 0.04168087
#
# Stress axis : x y z
#
# Youngs Moduli (GPa) = 36.89814 132.51006 72.35369
#
# Poissons Ratio (x) = 0.68923 -0.36552
# Poissons Ratio (y) = 0.19192 0.23476
# Poissons Ratio (z) = -0.18640 0.42995
#
# Static dielectric constant tensor:
#      x y z
#    x 1.800470 -0.003860 0.000790 
#    y -0.003860 1.791490 -0.003370 
#    z 0.000790 -0.003370 1.759230 
# 
# From -- ./inp_files/11829.got.cif
#   From: 2010.05.17/outbox.cif.g08.bks.cpg/sg2_6_cif.got.tgz:11829.got - 2010.06.03 11:33:40.
