data_PCOD9088622
_publ_section_title
;
Structure prediction by ZEFSAII (Michael W. Deem and Ramdas Pophale) SiO2 
 PCOD9088622
Probable space group: P -1
;
_chemical_formula_sum "Si O2"
_cell_formula_units_Z 16
_cell_length_a 7.986987
_cell_length_b 7.127452
_cell_length_c 13.202955
_cell_angle_alpha 76.592990
_cell_angle_beta 81.518959
_cell_angle_gamma 60.650873
_cell_volume 636.772437
_symmetry_space_group_name_H-M "P -1"
_symmetry_group_IT_number 2
_symmetry_cell_setting 'triclinic'
loop_
_space_group_symop_operation_xyz
x,y,z
-x,-y,-z
loop_
_atom_site_type_symbol
_atom_site_label
_atom_site_fract_x
_atom_site_fract_y
_atom_site_fract_z
Si Si1 0.567255 0.271236 0.938676
Si Si2 0.717019 0.384949 0.574337
Si Si3 0.019158 0.619445 0.626604
Si Si4 0.885284 0.177040 0.073107
Si Si5 0.672358 0.040500 0.503099
Si Si6 0.760245 0.765044 0.923943
Si Si7 0.931753 0.037943 0.305277
Si Si8 0.273077 0.466806 0.244432
O O1 0.642380 0.395194 0.840043
O O2 0.655925 0.026541 0.915271
O O3 0.670368 0.278505 0.034396
O O4 0.350213 0.320513 0.978582
O O5 0.612495 0.272646 0.534290
O O6 0.625415 0.559920 0.650844
O O7 0.836311 0.448469 0.473509
O O8 0.868221 0.163385 0.650462
O O9 0.944755 0.461518 0.701643
O O10 0.092918 0.722712 0.693526
O O11 0.829163 0.836571 0.579090
O O12 0.895613 0.047988 0.189817
O O13 0.017610 0.295701 0.065966
O O14 0.000000 0.000000 0.000000
O O15 0.777980 0.023000 0.391459
O O16 0.500000 0.000000 0.500000
O O17 0.721280 0.701759 0.822363
#
# Coordination Sequence:
#
# PCOD9088622 Si02
#       8
#     2   2   2   2   2   2   2   2
#     4  10  24  40  62  91 123 158 207 250 295 362
#     4   9  19  35  60  87 115 156 200 244 299 362
#     4   9  19  35  60  84 117 156 194 248 292 359
#     4  10  19  37  62  88 118 157 204 247 293 357
#     4   9  19  36  60  87 119 155 198 246 302 360
#     4  10  22  42  60  85 125 158 204 252 301 347
#     4   9  17  37  57  85 117 154 203 240 298 359
#     4  12  21  36  65  87 120 157 202 241 309 361
#
# _framework density 25.126715000000001
#
# number of rings (size 3 to 8) (size 9 to 14) (size 15 to 20)
#    0.000    2.250    1.250    3.750    1.750    1.500 
#    4.500    0.625    8.250    0.000    0.000    0.000 
#    0.000    0.000    0.000    0.000    0.000    0.000 
#
# Total GULP energy -89252.351254 kJ/mol
# GULP energy per Si atom -5578.271953 kJ/mol
# Density = 2.506953 g / cm^3
# Si number density = 25.126715 Si / 1000 Ang^3
#
#
#
# Elastic Constant Matrix: (Units=GPa)
#
#
# Indices 1 2 3 4 5 6 
#
# 1 145.7648 45.6294 51.9532 -1.4931 -5.3755 29.8911
# 2 45.6294 124.9756 57.5321 14.3171 -6.3489 39.7405
# 3 51.9532 57.5321 184.6871 9.4340 1.5599 32.1737
# 4 -1.4931 14.3171 9.4340 45.2038 19.2795 -0.5095
# 5 -5.3755 -6.3489 1.5599 19.2795 24.8739 -2.3541
# 6 29.8911 39.7405 32.1737 -0.5095 -2.3541 50.9642
#
#
#
# Elastic Compliance Matrix: (Units=1/GPa)
#
#
# Indices 1 2 3 4 5 6 
#
# 1 0.008479 -0.001606 -0.001448 0.000786 0.000642 -0.002769
# 2 -0.001606 0.013265 -0.002007 -0.007406 0.008164 -0.007832
# 3 -0.001448 -0.002007 0.006814 -0.000364 -0.001154 -0.001945
# 4 0.000786 -0.007406 -0.000364 0.037588 -0.030404 0.004515
# 5 0.000642 0.008164 -0.001154 -0.030404 0.065753 -0.003280
# 6 -0.002769 -0.007832 -0.001945 0.004515 -0.003280 0.028474
#
#
# Mechanical properties :
#
#
# Convention : Reuss Voigt Hill
#
# Bulk Modulus (GPa) = 54.23985 85.07298 69.65641
# Shear Modulus (GPa) = 28.30609 44.22924 36.26767
#
# Velocity S-wave (km/s) = 3.36003 4.20008 3.80332
# Velocity P-wave (km/s) = 6.05693 7.57971 6.86070
#
# Compressibility (1/GPa) = 0.01843663
#
# Stress axis : x y z
#
# Youngs Moduli (GPa) = 117.94225 75.38450 146.75371
#
# Poissons Ratio (x) = 0.12107 0.21250
# Poissons Ratio (y) = 0.18941 0.29450
# Poissons Ratio (z) = 0.17078 0.15128
#
# Static dielectric constant tensor:
#      x y z
#    x 2.048120 -0.054530 0.037080 
#    y -0.054530 2.099090 -0.003250 
#    z 0.037080 -0.003250 1.966900 
# 
# From -- ./inp_files/379125.got.cif
#   From: 2010.05.17/outbox.cif.g08.bks.cpg/sg2_190_cif.got.tgz:379125.got - 2010.06.03 11:33:40.
