data_PCOD9088922
_publ_section_title
;
Structure prediction by ZEFSAII (Michael W. Deem and Ramdas Pophale) SiO2 
 PCOD9088922
Probable space group: P -1
;
_chemical_formula_sum "Si O2"
_cell_formula_units_Z 16
_cell_length_a 16.654673
_cell_length_b 5.205919
_cell_length_c 9.144437
_cell_angle_alpha 94.046779
_cell_angle_beta 64.441516
_cell_angle_gamma 83.930153
_cell_volume 705.264054
_symmetry_space_group_name_H-M "P -1"
_symmetry_group_IT_number 2
_symmetry_cell_setting 'triclinic'
loop_
_space_group_symop_operation_xyz
x,y,z
-x,-y,-z
loop_
_atom_site_type_symbol
_atom_site_label
_atom_site_fract_x
_atom_site_fract_y
_atom_site_fract_z
Si Si1 0.407222 0.314664 0.629292
Si Si2 0.138412 0.541836 0.466637
Si Si3 0.712488 0.800840 0.031922
Si Si4 0.313422 0.615720 0.468698
Si Si5 0.442403 0.941334 0.327183
Si Si6 0.814560 0.251743 0.868513
Si Si7 0.045706 0.149631 0.345875
Si Si8 0.431126 0.308683 0.102572
O O1 0.351690 0.559446 0.600329
O O2 0.489290 0.310667 0.678893
O O3 0.451463 0.156393 0.449504
O O4 0.336851 0.179229 0.772642
O O5 0.214280 0.545107 0.528507
O O6 0.175951 0.710480 0.312912
O O7 0.119784 0.292487 0.376552
O O8 0.040574 0.640486 0.619592
O O9 0.789453 0.542920 0.963167
O O10 0.640549 0.731504 0.967084
O O11 0.742810 0.070747 0.969188
O O12 0.338885 0.897255 0.418517
O O13 0.369061 0.455250 0.287577
O O14 0.467425 0.044802 0.155732
O O15 0.908777 0.059447 0.815431
O O16 0.000000 0.000000 0.500000
O O17 0.500000 0.500000 0.000000
#
# Coordination Sequence:
#
# PCOD9088922 Si02
#       8
#     2   2   2   2   2   2   2   2
#     4  10  25  40  60  89 124 180 220 261 319 380
#     4  10  19  37  64 100 128 165 207 266 322 389
#     4  12  25  39  65  92 130 167 217 266 327 379
#     4  11  21  40  62  91 128 164 221 261 318 387
#     4  10  23  43  62  84 128 172 223 269 317 378
#     4  11  21  39  62  94 128 160 208 267 320 383
#     4   9  19  35  63  98 132 161 201 260 333 387
#     4  11  24  37  61  92 124 165 213 275 326 374
#
# _framework density 22.686537000000001
#
# number of rings (size 3 to 8) (size 9 to 14) (size 15 to 20)
#    0.000    1.500    2.500    1.875    3.500    5.000 
#    0.000    0.000    0.000    1.500    0.000    0.000 
#    0.000    0.000    0.000    0.000    0.000    0.000 
#
# Total GULP energy -89101.835291 kJ/mol
# GULP energy per Si atom -5568.864706 kJ/mol
# Density = 2.263490 g / cm^3
# Si number density = 22.686537 Si / 1000 Ang^3
#
#
#
# Elastic Constant Matrix: (Units=GPa)
#
#
# Indices 1 2 3 4 5 6 
#
# 1 81.3170 36.0247 22.3665 -6.9141 -5.1425 5.3232
# 2 36.0247 89.4514 23.3674 -28.9121 0.1281 5.0789
# 3 22.3665 23.3674 110.0333 -23.1346 10.9644 5.9339
# 4 -6.9141 -28.9121 -23.1346 36.6026 4.1458 -16.3559
# 5 -5.1425 0.1281 10.9644 4.1458 26.5405 -4.4015
# 6 5.3232 5.0789 5.9339 -16.3559 -4.4015 22.5801
#
#
#
# Elastic Compliance Matrix: (Units=1/GPa)
#
#
# Indices 1 2 3 4 5 6 
#
# 1 0.017187 -0.008711 -0.003867 -0.009904 0.005321 -0.007213
# 2 -0.008711 0.020445 0.001634 0.021156 -0.003842 0.011601
# 3 -0.003867 0.001634 0.012279 0.010797 -0.006887 0.003796
# 4 -0.009904 0.021156 0.010797 0.069346 -0.010186 0.042984
# 5 0.005321 -0.003842 -0.006887 -0.010186 0.043585 0.002538
# 6 -0.007213 0.011601 0.003796 0.042984 0.002538 0.074011
#
#
# Mechanical properties :
#
#
# Convention : Reuss Voigt Hill
#
# Bulk Modulus (GPa) = 35.68461 49.36877 42.52669
# Shear Modulus (GPa) = 18.65107 30.41418 24.53263
#
# Velocity S-wave (km/s) = 2.87038 3.66543 3.29199
# Velocity P-wave (km/s) = 5.17194 6.30257 5.76504
#
# Compressibility (1/GPa) = 0.02802329
#
# Stress axis : x y z
#
# Youngs Moduli (GPa) = 58.18448 48.91148 81.44020
#
# Poissons Ratio (x) = 0.42605 0.31495
# Poissons Ratio (y) = 0.50682 -0.13308
# Poissons Ratio (z) = 0.22501 -0.07992
#
# Static dielectric constant tensor:
#      x y z
#    x 1.933800 -0.140550 -0.050410 
#    y -0.140550 2.129050 0.035750 
#    z -0.050410 0.035750 1.846560 
# 
# From -- ./inp_files/322448.got.cif
#   From: 2010.05.17/outbox.cif.g08.bks.cpg/sg2_162_cif.got.tgz:322448.got - 2010.06.03 11:33:40.
