data_PCOD9088287
_publ_section_title
;
Structure prediction by ZEFSAII (Michael W. Deem and Ramdas Pophale) SiO2 
 PCOD9088287
Probable space group: P -1
;
_chemical_formula_sum "Si O2"
_cell_formula_units_Z 16
_cell_length_a 23.923235
_cell_length_b 7.246257
_cell_length_c 13.678191
_cell_angle_alpha 118.590294
_cell_angle_beta 161.372578
_cell_angle_gamma 57.146673
_cell_volume 630.645349
_symmetry_space_group_name_H-M "P -1"
_symmetry_group_IT_number 2
_symmetry_cell_setting 'triclinic'
loop_
_space_group_symop_operation_xyz
x,y,z
-x,-y,-z
loop_
_atom_site_type_symbol
_atom_site_label
_atom_site_fract_x
_atom_site_fract_y
_atom_site_fract_z
Si Si1 0.876695 0.496042 0.886202
Si Si2 0.550569 0.201403 0.415249
Si Si3 0.360991 0.741499 0.695099
Si Si4 0.264770 0.362648 0.804249
Si Si5 0.152892 0.970154 0.590070
Si Si6 0.417734 0.324888 0.430774
Si Si7 0.164515 0.102217 0.318987
Si Si8 0.217662 0.842210 0.878436
O O1 0.725882 0.398870 0.558054
O O2 0.751037 0.695700 0.791101
O O3 0.000000 0.500000 0.000000
O O4 0.040983 0.351952 0.193096
O O5 0.459465 0.196514 0.366629
O O6 0.633253 0.409657 0.611143
O O7 0.701383 0.975159 0.571842
O O8 0.400369 0.281997 0.102098
O O9 0.266232 0.779609 0.653918
O O10 0.289179 0.980710 0.583616
O O11 0.582137 0.660076 0.033917
O O12 0.157571 0.621833 0.701383
O O13 0.146631 0.196867 0.580336
O O14 0.250120 0.930785 0.847933
O O15 0.945988 0.995717 0.287803
O O16 0.599732 0.245984 0.777428
O O17 0.000000 0.000000 0.000000
#
# Coordination Sequence:
#
# PCOD9088287 Si02
#       8
#     2   2   2   2   2   2   2   2
#     4  11  22  39  57  90 127 155 195 253 308 367
#     4   9  18  34  64  88 116 154 195 247 305 364
#     4  10  21  41  61  88 120 157 207 250 298 364
#     4  10  20  44  63  91 123 159 206 251 301 362
#     4  11  24  40  65  88 121 169 205 250 300 353
#     4  10  19  37  60  87 121 158 190 253 310 350
#     4   9  17  34  58  84 117 148 193 238 292 360
#     4  10  23  42  60  87 130 155 210 254 292 363
#
# _framework density 25.370837000000002
#
# number of rings (size 3 to 8) (size 9 to 14) (size 15 to 20)
#    0.000    2.000    5.000    0.750    3.500    3.500 
#    6.750    1.250    0.000    0.000    0.000    0.000 
#    0.000    0.000    0.000    0.000    0.000    0.000 
#
# Total GULP energy -89296.491164 kJ/mol
# GULP energy per Si atom -5581.030698 kJ/mol
# Density = 2.531309 g / cm^3
# Si number density = 25.370837 Si / 1000 Ang^3
#
#
#
# Elastic Constant Matrix: (Units=GPa)
#
#
# Indices 1 2 3 4 5 6 
#
# 1 188.8122 26.3560 52.1986 -22.3643 50.0688 -32.3174
# 2 26.3560 54.2044 11.4250 11.4668 3.6056 -6.8960
# 3 52.1986 11.4250 78.8199 -27.5943 21.0853 -23.0212
# 4 -22.3643 11.4668 -27.5943 28.5842 -6.3468 4.5435
# 5 50.0688 3.6056 21.0853 -6.3468 32.8812 -15.1541
# 6 -32.3174 -6.8960 -23.0212 4.5435 -15.1541 36.0468
#
#
#
# Elastic Compliance Matrix: (Units=1/GPa)
#
#
# Indices 1 2 3 4 5 6 
#
# 1 0.011005 -0.006167 0.001072 0.008630 -0.013998 0.002399
# 2 -0.006167 0.028530 -0.011288 -0.025217 0.008363 -0.000585
# 3 0.001072 -0.011288 0.029552 0.030325 -0.008815 0.010147
# 4 0.008630 -0.025217 0.030325 0.077382 -0.011303 0.007775
# 5 -0.013998 0.008363 -0.008815 -0.011303 0.058663 0.009507
# 6 0.002399 -0.000585 0.010147 0.007775 0.009507 0.039278
#
#
# Mechanical properties :
#
#
# Convention : Reuss Voigt Hill
#
# Bulk Modulus (GPa) = 27.53113 55.75507 41.64310
# Shear Modulus (GPa) = 17.28412 34.95957 26.12184
#
# Velocity S-wave (km/s) = 2.61293 3.71609 3.21222
# Velocity P-wave (km/s) = 4.46970 6.35895 5.49611
#
# Compressibility (1/GPa) = 0.03632252
#
# Stress axis : x y z
#
# Youngs Moduli (GPa) = 90.86379 35.05064 33.83896
#
# Poissons Ratio (x) = 0.21614 -0.03628
# Poissons Ratio (y) = 0.56031 0.38198
# Poissons Ratio (z) = -0.09742 0.39565
#
# Static dielectric constant tensor:
#      x y z
#    x 2.062620 0.039980 0.028760 
#    y 0.039980 2.150820 0.045880 
#    z 0.028760 0.045880 1.994400 
# 
# From -- ./inp_files/354030.got.cif
#   From: 2010.05.17/outbox.cif.g08.bks.cpg/sg2_178_cif.got.tgz:354030.got - 2010.06.03 11:33:40.
