data_PCOD9088991
_publ_section_title
;
Structure prediction by ZEFSAII (Michael W. Deem and Ramdas Pophale) SiO2 
 PCOD9088991
Probable space group: P -1
;
_chemical_formula_sum "Si O2"
_cell_formula_units_Z 12
_cell_length_a 14.021083
_cell_length_b 5.832260
_cell_length_c 22.328795
_cell_angle_alpha 125.537112
_cell_angle_beta 159.736410
_cell_angle_gamma 48.927823
_cell_volume 472.417171
_symmetry_space_group_name_H-M "P -1"
_symmetry_group_IT_number 2
_symmetry_cell_setting 'triclinic'
loop_
_space_group_symop_operation_xyz
x,y,z
-x,-y,-z
loop_
_atom_site_type_symbol
_atom_site_label
_atom_site_fract_x
_atom_site_fract_y
_atom_site_fract_z
Si Si1 0.759095 0.320650 0.727860
Si Si2 0.180008 0.631674 0.047785
Si Si3 0.142366 0.144620 0.804283
Si Si4 0.148573 0.737082 0.910299
Si Si5 0.180252 0.886090 0.493883
Si Si6 0.388610 0.985344 0.747398
O O1 0.426624 0.569686 0.565735
O O2 0.933120 0.205557 0.749703
O O3 0.823949 0.017078 0.758762
O O4 0.929531 0.496947 0.891082
O O5 0.469985 0.387349 0.215446
O O6 0.242061 0.583450 0.006483
O O7 0.000000 0.000000 0.000000
O O8 0.114567 0.474069 0.810976
O O9 0.019163 0.959405 0.657895
O O10 0.500000 0.000000 0.000000
O O11 0.391112 0.886981 0.069073
O O12 0.346905 0.040915 0.659441
O O13 0.934331 0.855963 0.388925
#
# Coordination Sequence:
#
# PCOD9088991 Si02
#       6
#     2   2   2   2   2   2
#     4  10  22  39  63  92 123 160 203 253 303 359
#     4  10  19  37  64  91 122 162 205 248 301 363
#     4  11  24  43  65  89 121 163 207 250 304 366
#     4  10  21  41  64  88 120 163 205 244 303 366
#     4  11  22  41  62  91 128 157 202 257 303 357
#     4  10  23  41  63  91 125 163 202 250 303 361
#
# _framework density 25.401275999999999
#
# number of rings (size 3 to 8) (size 9 to 14) (size 15 to 20)
#    0.000    1.667    0.000    5.500    0.000    6.000 
#    0.000   25.000    0.000    0.000    0.000    0.000 
#    0.000    0.000    0.000    0.000    0.000    0.000 
#
# Total GULP energy -66856.953366 kJ/mol
# GULP energy per Si atom -5571.412780 kJ/mol
# Density = 2.534346 g / cm^3
# Si number density = 25.401276 Si / 1000 Ang^3
#
#
#
# Elastic Constant Matrix: (Units=GPa)
#
#
# Indices 1 2 3 4 5 6 
#
# 1 117.5050 -0.3993 36.8419 -4.7323 -5.6538 -33.4216
# 2 -0.3993 88.2884 8.8106 -9.1139 0.8244 -1.4622
# 3 36.8419 8.8106 128.1817 -13.9112 4.1215 -18.9055
# 4 -4.7323 -9.1139 -13.9112 30.6748 -16.6915 -3.7980
# 5 -5.6538 0.8244 4.1215 -16.6915 45.4258 -3.0180
# 6 -33.4216 -1.4622 -18.9055 -3.7980 -3.0180 30.0818
#
#
#
# Elastic Compliance Matrix: (Units=1/GPa)
#
#
# Indices 1 2 3 4 5 6 
#
# 1 0.014092 0.001123 -0.001114 0.007040 0.005515 0.016453
# 2 0.001123 0.011892 -0.000308 0.004914 0.001920 0.002445
# 3 -0.001114 -0.000308 0.009515 0.005499 0.001394 0.005561
# 4 0.007040 0.004914 0.005499 0.051249 0.020451 0.020038
# 5 0.005515 0.001920 0.001394 0.020451 0.030902 0.012778
# 6 0.016453 0.002445 0.005561 0.020038 0.012778 0.058948
#
#
# Mechanical properties :
#
#
# Convention : Reuss Voigt Hill
#
# Bulk Modulus (GPa) = 28.65290 47.16460 37.90875
# Shear Modulus (GPa) = 26.47875 40.48462 33.48169
#
# Velocity S-wave (km/s) = 3.23215 3.99658 3.63452
# Velocity P-wave (km/s) = 5.02331 6.31704 5.70695
#
# Compressibility (1/GPa) = 0.03490048
#
# Stress axis : x y z
#
# Youngs Moduli (GPa) = 70.96269 84.08885 105.09771
#
# Poissons Ratio (x) = -0.09440 0.11709
# Poissons Ratio (y) = -0.07967 0.03236
# Poissons Ratio (z) = 0.07906 0.02589
#
# Static dielectric constant tensor:
#      x y z
#    x 2.110630 -0.035050 -0.053400 
#    y -0.035050 2.121660 0.010490 
#    z -0.053400 0.010490 2.073070 
# 
# From -- ./inp_files/23331.got.cif
#   From: 2010.05.17/outbox.cif.g08.bks.cpg/sg2_12_cif.got.tgz:23331.got - 2010.06.03 11:33:40.
