data_PCOD9088073
_publ_section_title
;
Structure prediction by ZEFSAII (Michael W. Deem and Ramdas Pophale) SiO2 
 PCOD9088073
Probable space group: P -1
;
_chemical_formula_sum "Si O2"
_cell_formula_units_Z 12
_cell_length_a 12.110960
_cell_length_b 10.398258
_cell_length_c 9.436533
_cell_angle_alpha 45.486457
_cell_angle_beta 118.101524
_cell_angle_gamma 146.699269
_cell_volume 444.758615
_symmetry_space_group_name_H-M "P -1"
_symmetry_group_IT_number 2
_symmetry_cell_setting 'triclinic'
loop_
_space_group_symop_operation_xyz
x,y,z
-x,-y,-z
loop_
_atom_site_type_symbol
_atom_site_label
_atom_site_fract_x
_atom_site_fract_y
_atom_site_fract_z
Si Si1 0.524010 0.202998 0.067420
Si Si2 0.274159 0.827629 0.462480
Si Si3 0.068557 0.267494 0.903407
Si Si4 0.408765 0.692692 0.292457
Si Si5 0.930473 0.158301 0.439313
Si Si6 0.820246 0.892760 0.291427
O O1 0.717704 0.491047 0.059768
O O2 0.326533 0.981870 0.226373
O O3 0.542382 0.011223 0.188395
O O4 0.528636 0.290946 0.842932
O O5 0.116711 0.474079 0.653388
O O6 0.194903 0.872729 0.498786
O O7 0.500000 0.000000 0.500000
O O8 0.363953 0.469758 0.539428
O O9 0.000000 0.000000 0.000000
O O10 0.889757 0.089889 0.049780
O O11 0.169128 0.499734 0.286934
O O12 0.980652 0.013630 0.634201
O O13 0.808457 0.999459 0.341178
#
# Coordination Sequence:
#
# PCOD9088073 Si02
#       6
#     2   2   2   2   2   2
#     4  10  19  37  58  92 121 150 204 250 297 351
#     4  10  23  38  60  90 128 159 197 248 308 366
#     4  11  21  38  60  84 128 165 192 247 305 368
#     4   9  18  36  68  86 117 154 204 259 286 349
#     4   9  18  38  67  89 115 163 205 249 297 352
#     4   9  18  38  63  92 112 160 212 241 296 362
#
# _framework density 26.980926
#
# number of rings (size 3 to 8) (size 9 to 14) (size 15 to 20)
#    1.000    1.333    1.667    1.000    0.000    1.333 
#    0.000    7.500    7.333    8.000    0.000    0.000 
#    0.000    0.000    0.000    0.000    0.000    0.000 
#
# Total GULP energy -67106.523961 kJ/mol
# GULP energy per Si atom -5592.210330 kJ/mol
# Density = 2.691952 g / cm^3
# Si number density = 26.980926 Si / 1000 Ang^3
#
#
#
# Elastic Constant Matrix: (Units=GPa)
#
#
# Indices 1 2 3 4 5 6 
#
# 1 121.8830 32.3104 55.1598 -2.3364 -38.0937 -17.1148
# 2 32.3104 158.8787 67.4723 -5.7731 -3.0277 -22.0813
# 3 55.1598 67.4723 243.0480 -9.3091 -22.8529 2.1729
# 4 -2.3364 -5.7731 -9.3091 53.8843 0.1972 -0.1392
# 5 -38.0937 -3.0277 -22.8529 0.1972 64.6684 2.5707
# 6 -17.1148 -22.0813 2.1729 -0.1392 2.5707 41.5757
#
#
#
# Elastic Compliance Matrix: (Units=1/GPa)
#
#
# Indices 1 2 3 4 5 6 
#
# 1 0.011766 -0.000907 -0.001882 0.000076 0.006061 0.004086
# 2 -0.000907 0.007931 -0.002115 0.000459 -0.001072 0.004017
# 3 -0.001882 -0.002115 0.005240 0.000589 0.000730 -0.002215
# 4 0.000076 0.000459 0.000589 0.018713 0.000206 0.000295
# 5 0.006061 -0.001072 0.000730 0.000206 0.019213 0.000700
# 6 0.004086 0.004017 -0.002215 0.000295 0.000700 0.027941
#
#
# Mechanical properties :
#
#
# Convention : Reuss Voigt Hill
#
# Bulk Modulus (GPa) = 66.10131 92.63274 79.36702
# Shear Modulus (GPa) = 47.32310 56.61683 51.96997
#
# Velocity S-wave (km/s) = 4.19256 4.58580 4.39358
# Velocity P-wave (km/s) = 6.92742 7.90232 7.43088
#
# Compressibility (1/GPa) = 0.01512829
#
# Stress axis : x y z
#
# Youngs Moduli (GPa) = 84.98771 126.08054 190.84992
#
# Poissons Ratio (x) = 0.11441 0.35922
# Poissons Ratio (y) = 0.07712 0.40364
# Poissons Ratio (z) = 0.15996 0.26666
#
# Static dielectric constant tensor:
#      x y z
#    x 2.227940 0.163030 0.068520 
#    y 0.163030 2.179080 0.084330 
#    z 0.068520 0.084330 2.158340 
# 
# From -- ./inp_files/230740.got.cif
#   From: 2010.05.17/outbox.cif.g08.bks.cpg/sg2_116_cif.got.tgz:230740.got - 2010.06.03 11:33:40.
