data_PCOD9088757
_publ_section_title
;
Structure prediction by ZEFSAII (Michael W. Deem and Ramdas Pophale) SiO2 
 PCOD9088757
Probable space group: P -1
;
_chemical_formula_sum "Si O2"
_cell_formula_units_Z 16
_cell_length_a 13.542245
_cell_length_b 12.658755
_cell_length_c 12.259891
_cell_angle_alpha 112.776487
_cell_angle_beta 126.680362
_cell_angle_gamma 32.899474
_cell_volume 883.371721
_symmetry_space_group_name_H-M "P -1"
_symmetry_group_IT_number 2
_symmetry_cell_setting 'triclinic'
loop_
_space_group_symop_operation_xyz
x,y,z
-x,-y,-z
loop_
_atom_site_type_symbol
_atom_site_label
_atom_site_fract_x
_atom_site_fract_y
_atom_site_fract_z
Si Si1 0.966207 0.088947 0.626657
Si Si2 0.228480 0.102518 0.854300
Si Si3 0.663214 0.325463 0.704077
Si Si4 0.816123 0.048443 0.869696
Si Si5 0.010745 0.726273 0.013727
Si Si6 0.288784 0.316305 0.944281
Si Si7 0.403412 0.411030 0.893836
Si Si8 0.671499 0.344785 0.216128
O O1 0.133580 0.892710 0.737785
O O2 0.059187 0.146125 0.704814
O O3 0.000000 0.000000 0.500000
O O4 0.730038 0.265236 0.597453
O O5 0.219604 0.237849 0.858035
O O6 0.169059 0.149753 0.962313
O O7 0.473232 0.868265 0.916837
O O8 0.431692 0.536467 0.688888
O O9 0.728441 0.155735 0.737858
O O10 0.823540 0.304253 0.843572
O O11 0.914941 0.850221 0.887213
O O12 0.619159 0.218437 0.891266
O O13 0.000000 0.000000 0.000000
O O14 0.129264 0.516089 0.989775
O O15 0.733846 0.404658 0.204962
O O16 0.306351 0.370462 0.863287
O O17 0.479817 0.428943 0.054953
#
# Coordination Sequence:
#
# PCOD9088757 Si02
#       8
#     2   2   2   2   2   2   2   2
#     4  11  22  36  52  70  98 135 173 208 241 285
#     4  10  21  34  45  72 107 131 170 197 240 304
#     4   9  18  29  47  72  99 125 161 207 246 287
#     4   9  16  25  43  73 106 128 152 199 250 303
#     4  10  16  28  46  72 103 132 155 191 253 304
#     4  11  19  30  50  73 106 136 154 197 251 307
#     4  10  17  29  50  78 106 127 156 200 256 301
#     4  10  18  31  49  77 102 125 163 201 252 299
#
# _framework density 18.112421000000001
#
# number of rings (size 3 to 8) (size 9 to 14) (size 15 to 20)
#    0.000    2.000    3.750    1.875    3.500    0.500 
#    0.000    0.000    0.000    0.750    0.000    1.750 
#    0.000    0.000    0.000    0.000    0.000    0.000 
#
# Total GULP energy -89180.146650 kJ/mol
# GULP energy per Si atom -5573.759166 kJ/mol
# Density = 1.807120 g / cm^3
# Si number density = 18.112421 Si / 1000 Ang^3
#
#
#
# Elastic Constant Matrix: (Units=GPa)
#
#
# Indices 1 2 3 4 5 6 
#
# 1 105.1790 16.5642 27.6329 12.7586 -1.0410 19.5286
# 2 16.5642 76.9457 8.6877 17.6024 2.7024 10.0016
# 3 27.6329 8.6877 40.4021 19.3963 -10.8810 -2.8297
# 4 12.7586 17.6024 19.3963 18.0473 -4.0168 -3.3517
# 5 -1.0410 2.7024 -10.8810 -4.0168 15.6316 10.2014
# 6 19.5286 10.0016 -2.8297 -3.3517 10.2014 35.4266
#
#
#
# Elastic Compliance Matrix: (Units=1/GPa)
#
#
# Indices 1 2 3 4 5 6 
#
# 1 0.013712 -0.000851 -0.010151 0.000414 -0.000763 -0.007870
# 2 -0.000851 0.020458 0.012078 -0.033498 0.001365 -0.007904
# 3 -0.010151 0.012078 0.077357 -0.081430 0.036606 -0.009881
# 4 0.000414 -0.033498 -0.081430 0.175042 -0.022744 0.025834
# 5 -0.000763 0.001365 0.036606 -0.022744 0.101956 -0.028552
# 6 -0.007870 -0.007904 -0.009881 0.025834 -0.028552 0.044674
#
#
# Mechanical properties :
#
#
# Convention : Reuss Voigt Hill
#
# Bulk Modulus (GPa) = 8.79660 36.47735 22.63698
# Shear Modulus (GPa) = 10.66239 25.13059 17.89649
#
# Velocity S-wave (km/s) = 2.42890 3.72893 3.14678
# Velocity P-wave (km/s) = 3.56837 6.22278 5.07229
#
# Compressibility (1/GPa) = 0.11368026
#
# Stress axis : x y z
#
# Youngs Moduli (GPa) = 72.92946 48.88038 12.92716
#
# Poissons Ratio (x) = 0.04158 0.13122
# Poissons Ratio (y) = 0.06203 -0.15614
# Poissons Ratio (z) = 0.74029 -0.59039
#
# Static dielectric constant tensor:
#      x y z
#    x 1.661160 -0.000700 -0.039620 
#    y -0.000700 1.668500 -0.002410 
#    z -0.039620 -0.002410 1.615410 
# 
# From -- ./inp_files/353065.got.cif
#   From: 2010.05.17/outbox.cif.g08.bks.cpg/sg2_177_cif.got.tgz:353065.got - 2010.06.03 11:33:40.
