data_PCOD9088716
_publ_section_title
;
Structure prediction by ZEFSAII (Michael W. Deem and Ramdas Pophale) SiO2 
 PCOD9088716
Probable space group: P -1
;
_chemical_formula_sum "Si O2"
_cell_formula_units_Z 14
_cell_length_a 7.034292
_cell_length_b 11.532347
_cell_length_c 9.072751
_cell_angle_alpha 98.173595
_cell_angle_beta 108.451197
_cell_angle_gamma 125.859716
_cell_volume 511.893842
_symmetry_space_group_name_H-M "P -1"
_symmetry_group_IT_number 2
_symmetry_cell_setting 'triclinic'
loop_
_space_group_symop_operation_xyz
x,y,z
-x,-y,-z
loop_
_atom_site_type_symbol
_atom_site_label
_atom_site_fract_x
_atom_site_fract_y
_atom_site_fract_z
Si Si1 0.066533 0.820888 0.381045
Si Si2 0.713501 0.182689 0.029265
Si Si3 0.645264 0.296826 0.304416
Si Si4 0.108306 0.950008 0.131424
Si Si5 0.508868 0.483724 0.172165
Si Si6 0.534046 0.856009 0.331745
Si Si7 0.602681 0.420120 0.591253
O O1 0.977808 0.879653 0.244946
O O2 0.288635 0.826849 0.352844
O O3 0.812431 0.642670 0.326433
O O4 0.218443 0.955451 0.566425
O O5 0.806602 0.290284 0.215814
O O6 0.910610 0.179137 0.982665
O O7 0.567726 0.202742 0.870889
O O8 0.500000 0.000000 0.000000
O O9 0.497491 0.344157 0.189209
O O10 0.750116 0.402606 0.496647
O O11 0.416217 0.113739 0.264880
O O12 0.000000 0.000000 0.000000
O O13 0.308423 0.490089 0.214677
O O14 0.500000 0.500000 0.000000
O O15 0.588032 0.759105 0.419811
O O16 0.500000 0.500000 0.500000
#
# Coordination Sequence:
#
# PCOD9088716 Si02
#       7
#     2   2   2   2   2   2   2
#     4  10  22  39  69  99 126 177 220 273 347 390
#     4   9  20  37  66  96 122 179 218 267 337 393
#     4  10  20  41  60  86 136 167 219 266 322 410
#     4  10  19  37  62  96 129 166 219 274 329 393
#     4  11  23  41  64  96 131 174 223 274 335 399
#     4  10  20  42  68  94 139 166 223 281 327 411
#     4  10  22  41  67  93 134 180 216 279 338 391
#
# _framework density 27.349423999999999
#
# number of rings (size 3 to 8) (size 9 to 14) (size 15 to 20)
#    0.000    2.000    1.429    1.714    2.000    1.714 
#    5.143   12.143    3.143    0.000    0.000    0.000 
#    0.000    0.000    0.000    0.000    0.000    0.000 
#
# Total GULP energy -78217.588970 kJ/mol
# GULP energy per Si atom -5586.970641 kJ/mol
# Density = 2.728718 g / cm^3
# Si number density = 27.349424 Si / 1000 Ang^3
#
#
#
# Elastic Constant Matrix: (Units=GPa)
#
#
# Indices 1 2 3 4 5 6 
#
# 1 96.1066 23.9153 38.6205 9.8135 -24.6380 -11.7418
# 2 23.9153 163.8414 60.9749 1.1027 5.8910 -5.4270
# 3 38.6205 60.9749 182.0305 8.3574 -48.1879 -15.5815
# 4 9.8135 1.1027 8.3574 70.6022 -11.8508 0.8268
# 5 -24.6380 5.8910 -48.1879 -11.8508 53.0734 0.4994
# 6 -11.7418 -5.4270 -15.5815 0.8268 0.4994 42.0421
#
#
#
# Elastic Compliance Matrix: (Units=1/GPa)
#
#
# Indices 1 2 3 4 5 6 
#
# 1 0.012934 -0.001878 -0.000282 -0.000808 0.005746 0.003213
# 2 -0.001878 0.007900 -0.003660 -0.000280 -0.005127 -0.000795
# 3 -0.000282 -0.003660 0.009334 0.000440 0.008822 0.002795
# 4 -0.000808 -0.000280 0.000440 0.014798 0.003363 -0.000430
# 5 0.005746 -0.005127 0.008822 0.003363 0.030804 0.003780
# 6 0.003213 -0.000795 0.002795 -0.000430 0.003780 0.025580
#
#
# Mechanical properties :
#
#
# Convention : Reuss Voigt Hill
#
# Bulk Modulus (GPa) = 53.97302 76.55554 65.26428
# Shear Modulus (GPa) = 41.95902 54.37472 48.16687
#
# Velocity S-wave (km/s) = 3.92111 4.46370 4.20118
# Velocity P-wave (km/s) = 6.34647 7.39044 6.88826
#
# Compressibility (1/GPa) = 0.01852778
#
# Stress axis : x y z
#
# Youngs Moduli (GPa) = 77.31702 126.58896 107.13731
#
# Poissons Ratio (x) = 0.23770 0.03020
# Poissons Ratio (y) = 0.14518 0.39213
# Poissons Ratio (z) = 0.02179 0.46333
#
# Static dielectric constant tensor:
#      x y z
#    x 2.259060 0.052920 0.060730 
#    y 0.052920 2.091030 0.023120 
#    z 0.060730 0.023120 2.190770 
# 
# From -- ./inp_files/180618.got.cif
#   From: 2010.05.17/outbox.cif.g08.bks.cpg/sg2_91_cif.got.tgz:180618.got - 2010.06.03 11:33:40.
