data_PCOD9088863
_publ_section_title
;
Structure prediction by ZEFSAII (Michael W. Deem and Ramdas Pophale) SiO2 
 PCOD9088863
Probable space group: P -1
;
_chemical_formula_sum "Si O2"
_cell_formula_units_Z 13
_cell_length_a 14.333986
_cell_length_b 11.471226
_cell_length_c 7.508643
_cell_angle_alpha 57.735949
_cell_angle_beta 151.153254
_cell_angle_gamma 119.102571
_cell_volume 503.163758
_symmetry_space_group_name_H-M "P -1"
_symmetry_group_IT_number 2
_symmetry_cell_setting 'triclinic'
loop_
_space_group_symop_operation_xyz
x,y,z
-x,-y,-z
loop_
_atom_site_type_symbol
_atom_site_label
_atom_site_fract_x
_atom_site_fract_y
_atom_site_fract_z
Si Si1 0.451289 0.301607 0.518700
Si Si2 0.727770 0.240800 0.369919
Si Si3 0.779357 0.515528 0.811143
Si Si4 0.000000 0.000000 0.500000
Si Si5 0.723484 0.524324 0.317910
Si Si6 0.028874 0.267290 0.572040
Si Si7 0.536763 0.003942 0.842795
O O1 0.576788 0.426256 0.539747
O O2 0.252711 0.353376 0.226528
O O3 0.471503 0.157866 0.568176
O O4 0.574374 0.281320 0.928792
O O5 0.783853 0.376057 0.467651
O O6 0.618341 0.113900 0.392937
O O7 0.919543 0.202933 0.613227
O O8 0.818085 0.559504 0.638838
O O9 0.915476 0.405022 0.217114
O O10 0.982427 0.850387 0.497699
O O11 0.758583 0.985447 0.172494
O O12 0.761382 0.654812 0.144807
O O13 0.500000 0.500000 0.000000
O O14 0.500000 0.000000 0.000000
#
# Coordination Sequence:
#
# PCOD9088863 Si02
#       7
#     2   2   2   1   2   2   2
#     4   9  18  37  63  87 121 160 204 255 306 356
#     4  10  20  40  59  89 124 161 200 255 308 365
#     4  10  20  38  61  91 123 159 208 259 302 367
#     4  12  20  36  66  92 118 158 222 248 302 360
#     4  12  23  37  60  92 128 162 202 256 316 369
#     4  11  24  39  64  93 120 165 214 253 302 378
#     4  10  19  37  63  92 120 162 208 257 297 371
#
# _framework density 25.836518999999999
#
# number of rings (size 3 to 8) (size 9 to 14) (size 15 to 20)
#    0.000    1.538    6.154    1.846    2.154    0.000 
#    0.000    0.769    0.000    1.846    0.000    0.000 
#    0.000    0.000    0.000    0.000    0.000    0.000 
#
# Total GULP energy -72368.449607 kJ/mol
# GULP energy per Si atom -5566.803816 kJ/mol
# Density = 2.577771 g / cm^3
# Si number density = 25.836519 Si / 1000 Ang^3
#
#
#
# Elastic Constant Matrix: (Units=GPa)
#
#
# Indices 1 2 3 4 5 6 
#
# 1 115.7893 53.8142 37.7298 -8.2886 30.4092 5.6996
# 2 53.8142 194.4134 28.1550 -2.0227 41.9055 12.3157
# 3 37.7298 28.1550 75.3872 -11.1955 40.3148 9.9534
# 4 -8.2886 -2.0227 -11.1955 40.8016 -0.2340 16.3316
# 5 30.4092 41.9055 40.3148 -0.2340 51.2947 9.6617
# 6 5.6996 12.3157 9.9534 16.3316 9.6617 34.8713
#
#
#
# Elastic Compliance Matrix: (Units=1/GPa)
#
#
# Indices 1 2 3 4 5 6 
#
# 1 0.011478 -0.002165 -0.003545 0.001269 -0.002229 -0.000076
# 2 -0.002165 0.006739 0.001739 0.000939 -0.005303 -0.001493
# 3 -0.003545 0.001739 0.026921 0.009364 -0.019155 -0.006797
# 4 0.001269 0.000939 0.009364 0.034514 -0.005351 -0.017893
# 5 -0.002229 -0.005303 -0.019155 -0.005351 0.040362 -0.000972
# 6 -0.000076 -0.001493 -0.006797 -0.017893 -0.000972 0.039806
#
#
# Mechanical properties :
#
#
# Convention : Reuss Voigt Hill
#
# Bulk Modulus (GPa) = 26.88511 69.44309 48.16410
# Shear Modulus (GPa) = 27.75307 43.11959 35.43633
#
# Velocity S-wave (km/s) = 3.28102 4.08970 3.70748
# Velocity P-wave (km/s) = 4.97815 7.01691 6.08354
#
# Compressibility (1/GPa) = 0.03719532
#
# Stress axis : x y z
#
# Youngs Moduli (GPa) = 87.12396 148.40086 37.14591
#
# Poissons Ratio (x) = 0.32131 0.13169
# Poissons Ratio (y) = 0.18864 -0.06461
# Poissons Ratio (z) = 0.30887 -0.25813
#
# Static dielectric constant tensor:
#      x y z
#    x 2.259320 0.060650 0.053170 
#    y 0.060650 2.050630 0.111450 
#    z 0.053170 0.111450 2.313470 
# 
# From -- ./inp_files/302722.got.cif
#   From: 2010.05.17/outbox.cif.g08.bks.cpg/sg2_152_cif.got.tgz:302722.got - 2010.06.03 11:33:40.
