data_PCOD9088469
_publ_section_title
;
Structure prediction by ZEFSAII (Michael W. Deem and Ramdas Pophale) SiO2 
 PCOD9088469
Probable space group: P -1
;
_chemical_formula_sum "Si O2"
_cell_formula_units_Z 16
_cell_length_a 11.537268
_cell_length_b 14.071842
_cell_length_c 8.646261
_cell_angle_alpha 97.460459
_cell_angle_beta 124.353717
_cell_angle_gamma 44.513948
_cell_volume 716.750044
_symmetry_space_group_name_H-M "P -1"
_symmetry_group_IT_number 2
_symmetry_cell_setting 'triclinic'
loop_
_space_group_symop_operation_xyz
x,y,z
-x,-y,-z
loop_
_atom_site_type_symbol
_atom_site_label
_atom_site_fract_x
_atom_site_fract_y
_atom_site_fract_z
Si Si1 0.725142 0.412648 0.060249
Si Si2 0.443255 0.347750 0.219304
Si Si3 0.238404 0.424565 0.671484
Si Si4 0.664695 0.770902 0.058520
Si Si5 0.921894 0.949702 0.060619
Si Si6 0.810072 0.891860 0.244416
Si Si7 0.616095 0.232687 0.671196
Si Si8 0.118122 0.844883 0.705227
O O1 0.803307 0.461556 0.229878
O O2 0.872530 0.242485 0.175190
O O3 0.500000 0.500000 0.000000
O O4 0.679815 0.485228 0.874582
O O5 0.535646 0.275285 0.442698
O O6 0.657153 0.245100 0.241012
O O7 0.288477 0.339624 0.050462
O O8 0.387965 0.264434 0.837943
O O9 0.391799 0.371757 0.631192
O O10 0.000000 0.500000 0.500000
O O11 0.835864 0.763052 0.236542
O O12 0.444264 0.943028 0.868443
O O13 0.844257 0.903063 0.094695
O O14 0.181531 0.798676 0.174878
O O15 0.938565 0.029654 0.214145
O O16 0.750158 0.072382 0.821101
O O17 0.963905 0.875311 0.466699
#
# Coordination Sequence:
#
# PCOD9088469 Si02
#       8
#     2   2   2   2   2   2   2   2
#     4   9  20  37  63  87 117 162 211 247 287 367
#     4  10  19  37  61  88 123 161 204 252 297 364
#     4  11  22  42  64  84 122 167 206 250 304 366
#     4  10  21  36  61  87 122 161 205 241 301 371
#     4  11  21  37  64  94 130 153 200 258 306 365
#     4  11  19  34  63  91 119 158 204 248 293 372
#     4  11  22  37  64  93 124 161 201 255 316 348
#     4  11  19  37  64  93 116 164 205 244 308 363
#
# _framework density 22.322984999999999
#
# number of rings (size 3 to 8) (size 9 to 14) (size 15 to 20)
#    0.000    1.500    3.750    3.375    0.000    0.000 
#    0.000    8.750   16.500    0.000    0.000    0.000 
#    0.000    0.000    0.000    0.000    0.000    0.000 
#
# Total GULP energy -89078.867578 kJ/mol
# GULP energy per Si atom -5567.429224 kJ/mol
# Density = 2.227218 g / cm^3
# Si number density = 22.322985 Si / 1000 Ang^3
#
#
#
# Elastic Constant Matrix: (Units=GPa)
#
#
# Indices 1 2 3 4 5 6 
#
# 1 85.8855 40.8520 44.5684 11.9222 -14.3058 16.2023
# 2 40.8520 69.8934 31.0731 4.1145 -4.0368 21.1478
# 3 44.5684 31.0731 121.3211 10.4799 -14.6908 10.0554
# 4 11.9222 4.1145 10.4799 18.7296 1.1850 5.3092
# 5 -14.3058 -4.0368 -14.6908 1.1850 50.6601 -2.6251
# 6 16.2023 21.1478 10.0554 5.3092 -2.6251 44.2667
#
#
#
# Elastic Compliance Matrix: (Units=1/GPa)
#
#
# Indices 1 2 3 4 5 6 
#
# 1 0.019842 -0.008951 -0.003700 -0.008595 0.003972 -0.000879
# 2 -0.008951 0.022564 -0.002478 0.004400 -0.001944 -0.007584
# 3 -0.003700 -0.002478 0.010718 -0.003401 0.001978 0.000629
# 4 -0.008595 0.004400 -0.003401 0.061769 -0.004812 -0.005877
# 5 0.003972 -0.001944 0.001978 -0.004812 0.021438 0.000874
# 6 -0.000879 -0.007584 0.000629 -0.005877 0.000874 0.027149
#
#
# Mechanical properties :
#
#
# Convention : Reuss Voigt Hill
#
# Bulk Modulus (GPa) = 43.73365 56.67633 50.20499
# Shear Modulus (GPa) = 24.83123 33.43840 29.13482
#
# Velocity S-wave (km/s) = 3.33883 3.87452 3.61660
# Velocity P-wave (km/s) = 5.87346 6.74242 6.32288
#
# Compressibility (1/GPa) = 0.02286569
#
# Stress axis : x y z
#
# Youngs Moduli (GPa) = 50.39881 44.31818 93.30388
#
# Poissons Ratio (x) = 0.39668 0.34524
# Poissons Ratio (y) = 0.45111 0.23120
# Poissons Ratio (z) = 0.18648 0.10982
#
# Static dielectric constant tensor:
#      x y z
#    x 1.784490 0.008150 0.019640 
#    y 0.008150 1.921140 -0.055680 
#    z 0.019640 -0.055680 1.946720 
# 
# From -- ./inp_files/267908.got.cif
#   From: 2010.05.17/outbox.cif.g08.bks.cpg/sg2_134_cif.got.tgz:267908.got - 2010.06.03 11:33:40.
