data_PCOD9088480
_publ_section_title
;
Structure prediction by ZEFSAII (Michael W. Deem and Ramdas Pophale) SiO2 
 PCOD9088480
Probable space group: P -1
;
_chemical_formula_sum "Si O2"
_cell_formula_units_Z 16
_cell_length_a 12.241822
_cell_length_b 12.867338
_cell_length_c 15.727566
_cell_angle_alpha 39.410075
_cell_angle_beta 150.014758
_cell_angle_gamma 120.673237
_cell_volume 680.140845
_symmetry_space_group_name_H-M "P -1"
_symmetry_group_IT_number 2
_symmetry_cell_setting 'triclinic'
loop_
_space_group_symop_operation_xyz
x,y,z
-x,-y,-z
loop_
_atom_site_type_symbol
_atom_site_label
_atom_site_fract_x
_atom_site_fract_y
_atom_site_fract_z
Si Si1 0.571954 0.960504 0.672709
Si Si2 0.432577 0.418031 0.088837
Si Si3 0.810546 0.208431 0.206359
Si Si4 0.489789 0.474446 0.409336
Si Si5 0.087875 0.898958 0.016154
Si Si6 0.024038 0.741129 0.368455
Si Si7 0.016571 0.247104 0.143497
Si Si8 0.282731 0.369727 0.672507
O O1 0.630349 0.747416 0.868758
O O2 0.830951 0.959459 0.853966
O O3 0.500000 0.000000 0.500000
O O4 0.317016 0.131838 0.431553
O O5 0.695999 0.302423 0.391144
O O6 0.500000 0.500000 0.000000
O O7 0.229364 0.603771 0.887766
O O8 0.915926 0.197508 0.190675
O O9 0.520443 0.259318 0.966485
O O10 0.000000 0.000000 0.500000
O O11 0.500000 0.500000 0.500000
O O12 0.600058 0.589887 0.358091
O O13 0.205768 0.532049 0.153924
O O14 0.693001 0.256922 0.680366
O O15 0.042804 0.824682 0.940282
O O16 0.130259 0.065844 0.907764
O O17 0.087772 0.573442 0.451519
O O18 0.877883 0.736039 0.358207
#
# Coordination Sequence:
#
# PCOD9088480 Si02
#       8
#     2   2   2   2   2   2   2   2
#     4  10  19  37  61  89 119 159 210 248 299 366
#     4  11  22  36  64  91 120 162 213 250 308 368
#     4  10  21  39  61  88 128 160 200 263 310 369
#     4   9  19  37  60  86 119 164 193 255 308 368
#     4  10  20  36  65  89 122 161 213 250 306 369
#     4  10  20  39  61  88 121 159 206 263 299 364
#     4   9  18  38  59  84 128 156 199 251 313 360
#     4   9  21  39  62  87 122 160 205 253 316 362
#
# _framework density 23.524539999999998
#
# number of rings (size 3 to 8) (size 9 to 14) (size 15 to 20)
#    0.000    2.250    2.500    0.750    1.750    0.500 
#    2.250   13.125    2.750    0.000    0.000    0.000 
#    0.000    0.000    0.000    0.000    0.000    0.000 
#
# Total GULP energy -89143.647610 kJ/mol
# GULP energy per Si atom -5571.477976 kJ/mol
# Density = 2.347100 g / cm^3
# Si number density = 23.524540 Si / 1000 Ang^3
#
#
#
# Elastic Constant Matrix: (Units=GPa)
#
#
# Indices 1 2 3 4 5 6 
#
# 1 114.4816 37.0488 44.2791 -10.2890 7.2657 24.7602
# 2 37.0488 74.8258 52.2996 -10.7913 11.0368 17.1505
# 3 44.2791 52.2996 206.9187 -12.7859 9.2918 17.5830
# 4 -10.2890 -10.7913 -12.7859 28.3090 6.8774 -2.1188
# 5 7.2657 11.0368 9.2918 6.8774 45.4661 -0.6117
# 6 24.7602 17.1505 17.5830 -2.1188 -0.6117 23.3804
#
#
#
# Elastic Compliance Matrix: (Units=1/GPa)
#
#
# Indices 1 2 3 4 5 6 
#
# 1 0.012544 -0.002482 -0.000902 0.002849 -0.001791 -0.010574
# 2 -0.002482 0.020711 -0.003286 0.005998 -0.004997 -0.009680
# 3 -0.000902 -0.003286 0.006044 0.001186 -0.000487 -0.001085
# 4 0.002849 0.005998 0.001186 0.040862 -0.008400 -0.004826
# 5 -0.001791 -0.004997 -0.000487 -0.008400 0.024942 0.005820
# 6 -0.010574 -0.009680 -0.001085 -0.004826 0.005820 0.061600
#
#
# Mechanical properties :
#
#
# Convention : Reuss Voigt Hill
#
# Bulk Modulus (GPa) = 38.52269 73.72013 56.12141
# Shear Modulus (GPa) = 26.49786 36.93767 31.71776
#
# Velocity S-wave (km/s) = 3.35982 3.96684 3.67588
# Velocity P-wave (km/s) = 5.60912 7.23787 6.47491
#
# Compressibility (1/GPa) = 0.02595872
#
# Stress axis : x y z
#
# Youngs Moduli (GPa) = 79.72120 48.28419 165.45936
#
# Poissons Ratio (x) = 0.11982 0.14924
# Poissons Ratio (y) = 0.19784 0.54371
# Poissons Ratio (z) = 0.07191 0.15867
#
# Static dielectric constant tensor:
#      x y z
#    x 1.975900 -0.092280 0.171810 
#    y -0.092280 2.059120 -0.148940 
#    z 0.171810 -0.148940 2.265820 
# 
# From -- ./inp_files/569947.got.cif
#   From: 2010.05.17/outbox.cif.g08.bks.cpg/sg2_285_cif.got.tgz:569947.got - 2010.06.03 11:33:40.
