data_PCOD9088159
_publ_section_title
;
Structure prediction by ZEFSAII (Michael W. Deem and Ramdas Pophale) SiO2 
 PCOD9088159
Probable space group: P -1
;
_chemical_formula_sum "Si O2"
_cell_formula_units_Z 16
_cell_length_a 15.328535
_cell_length_b 27.511773
_cell_length_c 16.814672
_cell_angle_alpha 164.661745
_cell_angle_beta 155.012173
_cell_angle_gamma 19.231516
_cell_volume 617.119540
_symmetry_space_group_name_H-M "P -1"
_symmetry_group_IT_number 2
_symmetry_cell_setting 'triclinic'
loop_
_space_group_symop_operation_xyz
x,y,z
-x,-y,-z
loop_
_atom_site_type_symbol
_atom_site_label
_atom_site_fract_x
_atom_site_fract_y
_atom_site_fract_z
Si Si1 0.816063 0.376927 0.170046
Si Si2 0.462939 0.618106 0.552591
Si Si3 0.260376 0.707065 0.202792
Si Si4 0.664804 0.084939 0.866073
Si Si5 0.050144 0.195688 0.768676
Si Si6 0.941036 0.019437 0.844727
Si Si7 0.192128 0.328817 0.956960
Si Si8 0.588566 0.999494 0.982260
O O1 0.525992 0.632781 0.349614
O O2 0.736786 0.381156 0.020663
O O3 0.819156 0.216335 0.986485
O O4 0.131940 0.239892 0.199404
O O5 0.555921 0.358100 0.204926
O O6 0.677016 0.599736 0.759500
O O7 0.421464 0.774410 0.688773
O O8 0.185902 0.783107 0.631537
O O9 0.137551 0.629651 0.041177
O O10 0.040332 0.983737 0.434315
O O11 0.438692 0.103200 0.756555
O O12 0.916340 0.936804 0.899553
O O13 0.753262 0.998671 0.712592
O O14 0.014885 0.293513 0.808012
O O15 0.353449 0.066013 0.835502
O O16 0.000000 0.500000 0.000000
O O17 0.500000 0.000000 0.000000
#
# Coordination Sequence:
#
# PCOD9088159 Si02
#       8
#     2   2   2   2   2   2   2   2
#     4  10  21  38  61  85 119 153 197 250 296 350
#     4   9  20  38  62  84 116 157 199 241 289 356
#     4  10  22  39  60  86 117 162 193 242 302 364
#     4  10  20  38  62  85 115 160 200 239 293 352
#     4  10  22  39  60  86 120 154 203 240 298 361
#     4   9  19  35  60  86 116 148 200 246 279 353
#     4  10  21  35  58  87 120 149 192 250 291 346
#     4  10  19  37  59  88 115 151 195 250 290 347
#
# _framework density 25.926905000000001
#
# number of rings (size 3 to 8) (size 9 to 14) (size 15 to 20)
#    0.000    2.250    1.250    2.250    1.750    4.500 
#    0.000    5.000    5.500   12.750    0.000    0.000 
#    0.000    0.000    0.000    0.000    0.000    0.000 
#
# Total GULP energy -89103.317528 kJ/mol
# GULP energy per Si atom -5568.957345 kJ/mol
# Density = 2.586789 g / cm^3
# Si number density = 25.926905 Si / 1000 Ang^3
#
#
#
# Elastic Constant Matrix: (Units=GPa)
#
#
# Indices 1 2 3 4 5 6 
#
# 1 219.1196 46.0653 29.4428 11.6307 32.1349 17.7912
# 2 46.0653 153.6272 0.1452 11.1603 8.5820 -18.7916
# 3 29.4428 0.1452 45.0692 14.6131 2.6432 23.9763
# 4 11.6307 11.1603 14.6131 31.8907 8.7694 6.6820
# 5 32.1349 8.5820 2.6432 8.7694 37.0011 5.8082
# 6 17.7912 -18.7916 23.9763 6.6820 5.8082 93.8410
#
#
#
# Elastic Compliance Matrix: (Units=1/GPa)
#
#
# Indices 1 2 3 4 5 6 
#
# 1 0.006143 -0.001713 -0.004116 0.001676 -0.004999 -0.000266
# 2 -0.001713 0.007437 0.001099 -0.002870 0.000093 0.001732
# 3 -0.004116 0.001099 0.032617 -0.013897 0.005331 -0.006674
# 4 0.001676 -0.002870 -0.013897 0.040653 -0.009487 0.000351
# 5 -0.004999 0.000093 0.005331 -0.009487 0.033495 -0.001793
# 6 -0.000266 0.001732 -0.006674 0.000351 -0.001793 0.012845
#
#
# Mechanical properties :
#
#
# Convention : Reuss Voigt Hill
#
# Bulk Modulus (GPa) = 27.22108 63.23583 45.22845
# Shear Modulus (GPa) = 32.27973 55.35740 43.81857
#
# Velocity S-wave (km/s) = 3.53232 4.62576 4.11552
# Velocity P-wave (km/s) = 5.21137 7.27827 6.32976
#
# Compressibility (1/GPa) = 0.03673624
#
# Stress axis : x y z
#
# Youngs Moduli (GPa) = 162.79604 134.46260 30.65884
#
# Poissons Ratio (x) = 0.23033 0.12619
# Poissons Ratio (y) = 0.27887 -0.03369
# Poissons Ratio (z) = 0.67007 -0.14774
#
# Static dielectric constant tensor:
#      x y z
#    x 3.529820 -0.444930 -0.111670 
#    y -0.444930 2.256090 0.130870 
#    z -0.111670 0.130870 2.404860 
# 
# From -- ./inp_files/467463.got.cif
#   From: 2010.05.17/outbox.cif.g08.bks.cpg/sg2_234_cif.got.tgz:467463.got - 2010.06.03 11:33:40.
