data_PCOD9088667
_publ_section_title
;
Structure prediction by ZEFSAII (Michael W. Deem and Ramdas Pophale) SiO2 
 PCOD9088667
Probable space group: P -1
;
_chemical_formula_sum "Si O2"
_cell_formula_units_Z 16
_cell_length_a 16.268853
_cell_length_b 7.021276
_cell_length_c 11.285715
_cell_angle_alpha 83.227824
_cell_angle_beta 148.266481
_cell_angle_gamma 86.479838
_cell_volume 640.242731
_symmetry_space_group_name_H-M "P -1"
_symmetry_group_IT_number 2
_symmetry_cell_setting 'triclinic'
loop_
_space_group_symop_operation_xyz
x,y,z
-x,-y,-z
loop_
_atom_site_type_symbol
_atom_site_label
_atom_site_fract_x
_atom_site_fract_y
_atom_site_fract_z
Si Si1 0.093737 0.299130 0.558465
Si Si2 0.554701 0.759215 0.079214
Si Si3 0.516564 0.599239 0.296255
Si Si4 0.767815 0.850864 0.018750
Si Si5 0.822245 0.380373 0.038336
Si Si6 0.053712 0.912614 0.202499
Si Si7 0.834952 0.452421 0.781599
Si Si8 0.419170 0.839506 0.655448
O O1 0.250579 0.328737 0.685165
O O2 0.000000 0.500000 0.500000
O O3 0.975996 0.259850 0.316500
O O4 0.165579 0.145944 0.765270
O O5 0.504075 0.673335 0.141567
O O6 0.479767 0.731183 0.863700
O O7 0.500000 0.000000 0.000000
O O8 0.669706 0.637245 0.547582
O O9 0.566325 0.354681 0.395405
O O10 0.335779 0.681168 0.116502
O O11 0.565637 0.926374 0.782016
O O12 0.796480 0.617445 0.024135
O O13 0.893353 0.930157 0.085976
O O14 0.830077 0.351033 0.909980
O O15 0.130595 0.673309 0.288795
O O16 0.226240 0.965125 0.432764
O O17 0.000000 0.000000 0.000000
O O18 0.000000 0.500000 0.000000
#
# Coordination Sequence:
#
# PCOD9088667 Si02
#       8
#     2   2   2   2   2   2   2   2
#     4   9  20  36  66  90 118 163 208 255 312 376
#     4  11  23  41  61  97 132 160 205 267 334 364
#     4  10  22  37  63  90 119 166 214 256 307 390
#     4   9  19  39  60  91 122 156 214 261 307 370
#     4  10  19  37  62  91 116 156 210 266 305 360
#     4  11  24  39  61  91 122 167 209 256 319 380
#     4  11  21  38  61  86 122 160 211 257 312 377
#     4   9  22  40  64  88 122 167 218 256 305 390
#
# _framework density 24.990523
#
# number of rings (size 3 to 8) (size 9 to 14) (size 15 to 20)
#    0.000    2.000    1.250    2.250    7.000    2.500 
#    4.500    0.625    0.000    0.000    0.000    0.000 
#    0.000    0.000    0.000    0.000    0.000    0.000 
#
# Total GULP energy -89183.103643 kJ/mol
# GULP energy per Si atom -5573.943978 kJ/mol
# Density = 2.493364 g / cm^3
# Si number density = 24.990523 Si / 1000 Ang^3
#
#
#
# Elastic Constant Matrix: (Units=GPa)
#
#
# Indices 1 2 3 4 5 6 
#
# 1 210.2140 24.2560 79.6709 8.1823 43.1718 31.1162
# 2 24.2560 61.4336 22.7604 -0.3171 6.6330 6.1506
# 3 79.6709 22.7604 195.0003 15.3583 35.1491 19.2230
# 4 8.1823 -0.3171 15.3583 22.7062 -1.6011 4.3313
# 5 43.1718 6.6330 35.1491 -1.6011 53.1998 8.7983
# 6 31.1162 6.1506 19.2230 4.3313 8.7983 38.7017
#
#
#
# Elastic Compliance Matrix: (Units=1/GPa)
#
#
# Indices 1 2 3 4 5 6 
#
# 1 0.006840 -0.001378 -0.001512 -0.001056 -0.003826 -0.003542
# 2 -0.001378 0.017506 -0.001566 0.002040 0.000226 -0.001176
# 3 -0.001512 -0.001566 0.006903 -0.004219 -0.003137 -0.000779
# 4 -0.001056 0.002040 -0.004219 0.048467 0.005520 -0.004059
# 5 -0.003826 0.000226 -0.003137 0.005520 0.024370 -0.001560
# 6 -0.003542 -0.001176 -0.000779 -0.004059 -0.001560 0.030069
#
#
# Mechanical properties :
#
#
# Convention : Reuss Voigt Hill
#
# Bulk Modulus (GPa) = 44.76792 80.00250 62.38521
# Shear Modulus (GPa) = 33.21974 45.58559 39.40267
#
# Velocity S-wave (km/s) = 3.64990 4.27560 3.97508
# Velocity P-wave (km/s) = 5.97622 7.51379 6.78867
#
# Compressibility (1/GPa) = 0.02233742
#
# Stress axis : x y z
#
# Youngs Moduli (GPa) = 146.19456 57.12367 144.86115
#
# Poissons Ratio (x) = 0.07874 0.21901
# Poissons Ratio (y) = 0.20151 0.22681
# Poissons Ratio (z) = 0.22102 0.08944
#
# Static dielectric constant tensor:
#      x y z
#    x 1.239260 0.583350 0.226130 
#    y 0.583350 1.628380 -0.222890 
#    z 0.226130 -0.222890 2.313390 
# 
# From -- ./inp_files/252906.got.cif
#   From: 2010.05.17/outbox.cif.g08.bks.cpg/sg2_127_cif.got.tgz:252906.got - 2010.06.03 11:33:40.
