data_PCOD9088546
_publ_section_title
;
Structure prediction by ZEFSAII (Michael W. Deem and Ramdas Pophale) SiO2 
 PCOD9088546
Probable space group: P -1
;
_chemical_formula_sum "Si O2"
_cell_formula_units_Z 12
_cell_length_a 18.772190
_cell_length_b 5.400450
_cell_length_c 7.818006
_cell_angle_alpha 57.804923
_cell_angle_beta 50.231627
_cell_angle_gamma 66.835484
_cell_volume 513.846365
_symmetry_space_group_name_H-M "P -1"
_symmetry_group_IT_number 2
_symmetry_cell_setting 'triclinic'
loop_
_space_group_symop_operation_xyz
x,y,z
-x,-y,-z
loop_
_atom_site_type_symbol
_atom_site_label
_atom_site_fract_x
_atom_site_fract_y
_atom_site_fract_z
Si Si1 0.235430 0.354488 0.814043
Si Si2 0.022034 0.312504 0.211016
Si Si3 0.306688 0.695796 0.896644
Si Si4 0.943529 0.859074 0.291998
Si Si5 0.444507 0.301085 0.031278
Si Si6 0.242219 0.343428 0.425583
O O1 0.275775 0.572084 0.808218
O O2 0.225717 0.474432 0.591112
O O3 0.297680 0.044719 0.808484
O O4 0.133263 0.280625 0.060527
O O5 0.975568 0.518811 0.351053
O O6 0.971327 0.021251 0.359095
O O7 0.000000 0.500000 0.000000
O O8 0.405323 0.521774 0.859007
O O9 0.238748 0.576552 0.190996
O O10 0.834787 0.880937 0.408596
O O11 0.000000 0.000000 0.000000
O O12 0.348940 0.214209 0.297421
O O13 0.500000 0.500000 0.000000
O O14 0.500000 0.000000 0.000000
#
# Coordination Sequence:
#
# PCOD9088546 Si02
#       6
#     2   2   2   2   2   2
#     4  12  22  45  67 102 138 183 218 291 321 403
#     4  10  20  34  63  90 139 173 224 267 317 385
#     4  10  27  41  69 105 134 165 246 271 334 418
#     4  10  19  37  61  96 128 179 224 262 316 415
#     4  10  23  48  71  96 137 172 221 292 337 407
#     4  10  25  43  76  91 145 183 214 279 372 362
#
# _framework density 23.353285
#
# number of rings (size 3 to 8) (size 9 to 14) (size 15 to 20)
#    1.000    0.667    3.333    2.000    2.333    5.333 
#    0.000   10.000    0.000    0.000    0.000    0.000 
#    0.000    0.000    0.000    0.000    0.000    0.000 
#
# Total GULP energy -67024.052037 kJ/mol
# GULP energy per Si atom -5585.337670 kJ/mol
# Density = 2.330013 g / cm^3
# Si number density = 23.353285 Si / 1000 Ang^3
#
#
#
# Elastic Constant Matrix: (Units=GPa)
#
#
# Indices 1 2 3 4 5 6 
#
# 1 128.5049 85.7871 22.0365 2.9232 -10.9347 28.3732
# 2 85.7871 214.6925 25.0385 -0.1417 -13.1901 16.2365
# 3 22.0365 25.0385 73.3107 8.4645 -14.2522 9.5430
# 4 2.9232 -0.1417 8.4645 31.1719 -6.5495 2.9815
# 5 -10.9347 -13.1901 -14.2522 -6.5495 45.6072 9.1703
# 6 28.3732 16.2365 9.5430 2.9815 9.1703 53.3978
#
#
#
# Elastic Compliance Matrix: (Units=1/GPa)
#
#
# Indices 1 2 3 4 5 6 
#
# 1 0.012156 -0.004169 -0.001056 0.000173 0.002498 -0.005441
# 2 -0.004169 0.006454 -0.000955 0.000785 0.000626 0.000272
# 3 -0.001056 -0.000955 0.015846 -0.003013 0.004510 -0.002586
# 4 0.000173 0.000785 -0.003013 0.034120 0.004732 -0.002510
# 5 0.002498 0.000626 0.004510 0.004732 0.026221 -0.007091
# 6 -0.005441 0.000272 -0.002586 -0.002510 -0.007091 0.023356
#
#
# Mechanical properties :
#
#
# Convention : Reuss Voigt Hill
#
# Bulk Modulus (GPa) = 45.26100 75.80357 60.53229
# Shear Modulus (GPa) = 36.26396 44.94512 40.60454
#
# Velocity S-wave (km/s) = 3.94489 4.39176 4.17431
# Velocity P-wave (km/s) = 6.33818 7.63195 7.01496
#
# Compressibility (1/GPa) = 0.02209408
#
# Stress axis : x y z
#
# Youngs Moduli (GPa) = 82.26278 154.95369 63.10904
#
# Poissons Ratio (x) = 0.64602 0.06666
# Poissons Ratio (y) = 0.34296 0.06029
# Poissons Ratio (z) = 0.08689 0.14802
#
# Static dielectric constant tensor:
#      x y z
#    x 1.947490 -0.024130 0.033180 
#    y -0.024130 1.898850 -0.026040 
#    z 0.033180 -0.026040 1.875880 
# 
# From -- ./inp_files/321141.got.cif
#   From: 2010.05.17/outbox.cif.g08.bks.cpg/sg2_161_cif.got.tgz:321141.got - 2010.06.03 11:33:40.
