data_PCOD9088335
_publ_section_title
;
Structure prediction by ZEFSAII (Michael W. Deem and Ramdas Pophale) SiO2 
 PCOD9088335
Probable space group: P -1
;
_chemical_formula_sum "Si O2"
_cell_formula_units_Z 15
_cell_length_a 8.555288
_cell_length_b 17.875433
_cell_length_c 8.825389
_cell_angle_alpha 63.417767
_cell_angle_beta 112.609685
_cell_angle_gamma 150.336240
_cell_volume 597.322780
_symmetry_space_group_name_H-M "P -1"
_symmetry_group_IT_number 2
_symmetry_cell_setting 'triclinic'
loop_
_space_group_symop_operation_xyz
x,y,z
-x,-y,-z
loop_
_atom_site_type_symbol
_atom_site_label
_atom_site_fract_x
_atom_site_fract_y
_atom_site_fract_z
Si Si1 0.300458 0.327630 0.918129
Si Si2 0.875278 0.013448 0.154116
Si Si3 0.006393 0.321442 0.588069
Si Si4 0.535186 0.777505 0.478600
Si Si5 0.500000 0.000000 0.500000
Si Si6 0.453793 0.143374 0.134393
Si Si7 0.246606 0.585728 0.835961
Si Si8 0.399453 0.612844 0.311623
O O1 0.366456 0.297424 0.821672
O O2 0.188571 0.364722 0.764588
O O3 0.624934 0.448453 0.020934
O O4 0.026005 0.167950 0.054251
O O5 0.130747 0.051345 0.160110
O O6 0.772358 0.946654 0.347221
O O7 0.600907 0.895103 0.030217
O O8 0.794833 0.310996 0.570593
O O9 0.773945 0.158100 0.570891
O O10 0.246423 0.459585 0.429769
O O11 0.498840 0.719662 0.679742
O O12 0.574539 0.719874 0.426311
O O13 0.521108 0.089880 0.308637
O O14 0.714351 0.322455 0.110770
O O15 0.896521 0.449430 0.768516
#
# Coordination Sequence:
#
# PCOD9088335 Si02
#       8
#     2   2   2   2   1   2   2   2
#     4  11  23  40  66  93 125 162 214 263 298 367
#     4  10  22  39  63  91 126 163 212 249 314 369
#     4  11  24  42  63  96 128 161 207 258 321 359
#     4  11  23  42  65  89 129 170 201 256 314 375
#     4  12  20  40  64  92 130 158 208 268 304 364
#     4  10  19  37  60  91 122 160 206 257 296 375
#     4  10  21  39  61  94 120 163 211 251 309 370
#     4  11  22  43  67  87 125 171 210 250 308 375
#
# _framework density 25.112051000000001
#
# number of rings (size 3 to 8) (size 9 to 14) (size 15 to 20)
#    0.000    1.333    4.000    4.800    0.000    2.667 
#    0.000    2.667    0.000    0.000    0.000    0.000 
#    0.000    0.000    0.000    0.000    0.000    0.000 
#
# Total GULP energy -83551.584946 kJ/mol
# GULP energy per Si atom -5570.105663 kJ/mol
# Density = 2.505489 g / cm^3
# Si number density = 25.112051 Si / 1000 Ang^3
#
#
#
# Elastic Constant Matrix: (Units=GPa)
#
#
# Indices 1 2 3 4 5 6 
#
# 1 28.8894 -12.5299 16.3323 5.9078 11.4580 11.7343
# 2 -12.5299 51.7655 -1.9599 -5.6142 6.4223 -9.3565
# 3 16.3323 -1.9599 158.9976 -0.9208 19.6413 13.6973
# 4 5.9078 -5.6142 -0.9208 43.3801 7.4993 -1.8667
# 5 11.4580 6.4223 19.6413 7.4993 49.2729 1.5538
# 6 11.7343 -9.3565 13.6973 -1.8667 1.5538 21.4556
#
#
#
# Elastic Compliance Matrix: (Units=1/GPa)
#
#
# Indices 1 2 3 4 5 6 
#
# 1 0.055832 0.009895 -0.002068 -0.005372 -0.011858 -0.024508
# 2 0.009895 0.023826 -0.000498 0.002995 -0.005852 0.005981
# 3 -0.002068 -0.000498 0.007070 0.000612 -0.002259 -0.003382
# 4 -0.005372 0.002995 0.000612 0.025041 -0.003394 0.006277
# 5 -0.011858 -0.005852 -0.002259 -0.003394 0.025130 0.003260
# 6 -0.024508 0.005981 -0.003382 0.006277 0.003260 0.065089
#
#
# Mechanical properties :
#
#
# Convention : Reuss Voigt Hill
#
# Bulk Modulus (GPa) = 9.86339 27.03752 18.45045
# Shear Modulus (GPa) = 22.61172 38.67572 30.64372
#
# Velocity S-wave (km/s) = 3.00398 3.92870 3.49704
# Velocity P-wave (km/s) = 3.99601 5.60087 4.86507
#
# Compressibility (1/GPa) = 0.10138503
#
# Stress axis : x y z
#
# Youngs Moduli (GPa) = 17.91101 41.97108 141.44929
#
# Poissons Ratio (x) = -0.41528 0.29252
# Poissons Ratio (y) = -0.17722 0.07039
# Poissons Ratio (z) = 0.03704 0.02089
#
# Static dielectric constant tensor:
#      x y z
#    x 1.969350 0.037470 0.000260 
#    y 0.037470 2.020390 -0.002970 
#    z 0.000260 -0.002970 2.059060 
# 
# From -- ./inp_files/212318.got.cif
#   From: 2010.05.17/outbox.cif.g08.bks.cpg/sg2_107_cif.got.tgz:212318.got - 2010.06.03 11:33:40.
