data_PCOD9088724
_publ_section_title
;
Structure prediction by ZEFSAII (Michael W. Deem and Ramdas Pophale) SiO2 
 PCOD9088724
Probable space group: P -1
;
_chemical_formula_sum "Si O2"
_cell_formula_units_Z 16
_cell_length_a 10.520295
_cell_length_b 11.257268
_cell_length_c 15.298890
_cell_angle_alpha 31.991259
_cell_angle_beta 62.618756
_cell_angle_gamma 84.670860
_cell_volume 660.740566
_symmetry_space_group_name_H-M "P -1"
_symmetry_group_IT_number 2
_symmetry_cell_setting 'triclinic'
loop_
_space_group_symop_operation_xyz
x,y,z
-x,-y,-z
loop_
_atom_site_type_symbol
_atom_site_label
_atom_site_fract_x
_atom_site_fract_y
_atom_site_fract_z
Si Si1 0.515555 0.284476 0.818013
Si Si2 0.555055 0.730897 0.963429
Si Si3 0.964604 0.225803 0.355415
Si Si4 0.892738 0.738959 0.347467
Si Si5 0.733717 0.435587 0.092343
Si Si6 0.954478 0.347090 0.475991
Si Si7 0.213130 0.346920 0.862336
Si Si8 0.569479 0.030711 0.617940
O O1 0.672504 0.526390 0.552496
O O2 0.324823 0.224852 0.899008
O O3 0.563349 0.401026 0.829776
O O4 0.500000 0.000000 0.000000
O O5 0.744025 0.049582 0.728339
O O6 0.472161 0.802314 0.870106
O O7 0.624795 0.555572 0.023267
O O8 0.017697 0.389505 0.329411
O O9 0.746911 0.058465 0.515290
O O10 0.084377 0.415723 0.115840
O O11 0.000000 0.000000 0.500000
O O12 0.957687 0.602511 0.349745
O O13 0.948003 0.711962 0.445244
O O14 0.003028 0.073489 0.081104
O O15 0.776855 0.532820 0.118716
O O16 0.587878 0.097287 0.325239
O O17 0.331341 0.643264 0.586121
#
# Coordination Sequence:
#
# PCOD9088724 Si02
#       8
#     2   2   2   2   2   2   2   2
#     4  11  21  38  71  91 120 163 215 253 303 373
#     4  10  20  40  61  97 124 154 215 260 300 372
#     4  11  22  38  64  93 124 157 211 254 307 373
#     4  11  20  38  67  88 128 165 200 260 317 351
#     4  11  22  41  65  91 125 165 216 254 306 372
#     4  10  19  37  62  98 120 153 210 264 298 363
#     4  11  25  44  58  97 130 161 210 256 309 383
#     4  11  25  41  62  89 135 164 200 264 318 356
#
# _framework density 24.215254000000002
#
# number of rings (size 3 to 8) (size 9 to 14) (size 15 to 20)
#    0.000    1.250    6.250    1.500    1.750    4.500 
#    0.000    3.125    0.000    0.000    0.000    0.000 
#    0.000    0.000    0.000    0.000    0.000    0.000 
#
# Total GULP energy -89455.495121 kJ/mol
# GULP energy per Si atom -5590.968445 kJ/mol
# Density = 2.416014 g / cm^3
# Si number density = 24.215254 Si / 1000 Ang^3
#
#
#
# Elastic Constant Matrix: (Units=GPa)
#
#
# Indices 1 2 3 4 5 6 
#
# 1 27.6333 10.5204 1.5951 3.4406 -5.5028 -8.7474
# 2 10.5204 87.3293 25.0724 4.4011 -6.8743 -4.6097
# 3 1.5951 25.0724 93.0370 -10.5149 -12.3015 -12.2060
# 4 3.4406 4.4011 -10.5149 43.1811 1.4757 -1.2714
# 5 -5.5028 -6.8743 -12.3015 1.4757 35.6313 -2.0006
# 6 -8.7474 -4.6097 -12.2060 -1.2714 -2.0006 30.6189
#
#
#
# Elastic Compliance Matrix: (Units=1/GPa)
#
#
# Indices 1 2 3 4 5 6 
#
# 1 0.043894 -0.004741 0.003079 -0.002133 0.007772 0.013473
# 2 -0.004741 0.013187 -0.003735 -0.001921 0.000551 -0.000902
# 3 0.003079 -0.003735 0.013510 0.003448 0.004621 0.006148
# 4 -0.002133 -0.001921 0.003448 0.024422 -0.000439 0.001461
# 5 0.007772 0.000551 0.004621 -0.000439 0.031332 0.006175
# 6 0.013473 -0.000902 0.006148 0.001461 0.006175 0.039288
#
#
# Mechanical properties :
#
#
# Convention : Reuss Voigt Hill
#
# Bulk Modulus (GPa) = 16.72353 31.37504 24.04928
# Shear Modulus (GPa) = 25.46364 33.27368 29.36866
#
# Velocity S-wave (km/s) = 3.24629 3.71088 3.48633
# Velocity P-wave (km/s) = 4.57956 5.59872 5.11459
#
# Compressibility (1/GPa) = 0.05979599
#
# Stress axis : x y z
#
# Youngs Moduli (GPa) = 22.78231 75.83201 74.02193
#
# Poissons Ratio (x) = 0.35955 -0.22793
# Poissons Ratio (y) = 0.10802 0.27647
# Poissons Ratio (z) = -0.07015 0.28323
#
# Static dielectric constant tensor:
#      x y z
#    x 2.008300 0.038750 0.032940 
#    y 0.038750 1.945160 0.013210 
#    z 0.032940 0.013210 1.968810 
# 
# From -- ./inp_files/464538.got.cif
#   From: 2010.05.17/outbox.cif.g08.bks.cpg/sg2_233_cif.got.tgz:464538.got - 2010.06.03 11:33:40.
