data_PCOD9088874
_publ_section_title
;
Structure prediction by ZEFSAII (Michael W. Deem and Ramdas Pophale) SiO2 
 PCOD9088874
Probable space group: P -1
;
_chemical_formula_sum "Si O2"
_cell_formula_units_Z 15
_cell_length_a 9.766830
_cell_length_b 10.109639
_cell_length_c 12.742841
_cell_angle_alpha 112.372353
_cell_angle_beta 131.421930
_cell_angle_gamma 52.477391
_cell_volume 747.761371
_symmetry_space_group_name_H-M "P -1"
_symmetry_group_IT_number 2
_symmetry_cell_setting 'triclinic'
loop_
_space_group_symop_operation_xyz
x,y,z
-x,-y,-z
loop_
_atom_site_type_symbol
_atom_site_label
_atom_site_fract_x
_atom_site_fract_y
_atom_site_fract_z
Si Si1 0.775888 0.373903 0.016278
Si Si2 0.000000 0.000000 0.500000
Si Si3 0.251824 0.173729 0.156705
Si Si4 0.682380 0.854949 0.273322
Si Si5 0.224897 0.300399 0.951490
Si Si6 0.701181 0.374899 0.415386
Si Si7 0.318455 0.458362 0.759766
Si Si8 0.759382 0.506274 0.700883
O O1 0.734279 0.546827 0.994754
O O2 0.772954 0.411832 0.150370
O O3 0.007321 0.221308 0.056046
O O4 0.574480 0.359831 0.879257
O O5 0.805764 0.176892 0.406955
O O6 0.158795 0.079129 0.602908
O O7 0.259143 0.316582 0.270829
O O8 0.443313 0.992850 0.228207
O O9 0.292199 0.210708 0.069225
O O10 0.681083 0.819089 0.137267
O O11 0.751447 0.677651 0.307615
O O12 0.969605 0.390453 0.839086
O O13 0.736813 0.447856 0.349855
O O14 0.782103 0.420684 0.575322
O O15 0.448790 0.463397 0.336093
#
# Coordination Sequence:
#
# PCOD9088874 Si02
#       8
#     2   1   2   2   2   2   2   2
#     4   9  20  38  63  93 123 163 206 250 302 385
#     4  12  24  44  60  92 126 156 220 254 298 366
#     4  11  20  37  63  92 128 158 204 262 305 352
#     4  11  24  40  61  95 126 161 208 258 302 374
#     4  10  19  37  63  93 122 161 207 254 309 362
#     4  11  22  40  67  86 124 168 206 257 303 364
#     4  10  22  43  63  89 128 166 202 246 323 365
#     4  10  20  37  63  95 119 160 215 249 301 371
#
# _framework density 20.059875000000002
#
# number of rings (size 3 to 8) (size 9 to 14) (size 15 to 20)
#    0.000    1.600    2.667    3.600    0.000    1.067 
#    2.400    3.333    0.000    0.000    0.000    0.000 
#    0.000    0.000    0.000    0.000    0.000    0.000 
#
# Total GULP energy -83533.312782 kJ/mol
# GULP energy per Si atom -5568.887519 kJ/mol
# Density = 2.001422 g / cm^3
# Si number density = 20.059875 Si / 1000 Ang^3
#
#
#
# Elastic Constant Matrix: (Units=GPa)
#
#
# Indices 1 2 3 4 5 6 
#
# 1 93.7370 37.0045 27.5440 -0.8585 3.4108 6.9678
# 2 37.0045 88.6098 22.6020 -7.0984 4.5887 8.6259
# 3 27.5440 22.6020 50.5700 2.5505 -3.8591 25.0184
# 4 -0.8585 -7.0984 2.5505 15.3599 9.6350 6.1212
# 5 3.4108 4.5887 -3.8591 9.6350 38.7474 -4.1897
# 6 6.9678 8.6259 25.0184 6.1212 -4.1897 35.9958
#
#
#
# Elastic Compliance Matrix: (Units=1/GPa)
#
#
# Indices 1 2 3 4 5 6 
#
# 1 0.014444 -0.004441 -0.007729 -0.000863 -0.000903 0.003682
# 2 -0.004441 0.015724 -0.004363 0.011979 -0.005156 -0.002513
# 3 -0.007729 -0.004363 0.037625 -0.001226 0.002754 -0.023080
# 4 -0.000863 0.011979 -0.001226 0.096888 -0.027890 -0.021574
# 5 -0.000903 -0.005156 0.002754 -0.027890 0.034602 0.008267
# 6 0.003682 -0.002513 -0.023080 -0.021574 0.008267 0.048343
#
#
# Mechanical properties :
#
#
# Convention : Reuss Voigt Hill
#
# Bulk Modulus (GPa) = 28.79718 45.24643 37.02180
# Shear Modulus (GPa) = 17.10755 27.73836 22.42296
#
# Velocity S-wave (km/s) = 2.92348 3.72261 3.34698
# Velocity P-wave (km/s) = 5.07764 6.40950 5.78205
#
# Compressibility (1/GPa) = 0.03472563
#
# Stress axis : x y z
#
# Youngs Moduli (GPa) = 69.23387 63.59543 26.57820
#
# Poissons Ratio (x) = 0.28244 0.20543
# Poissons Ratio (y) = 0.30748 0.11597
# Poissons Ratio (z) = 0.53512 0.27749
#
# Static dielectric constant tensor:
#      x y z
#    x 1.741100 -0.021990 0.018080 
#    y -0.021990 1.698650 0.021360 
#    z 0.018080 0.021360 1.710070 
# 
# From -- ./inp_files/180788.got.cif
#   From: 2010.05.17/outbox.cif.g08.bks.cpg/sg2_91_cif.got.tgz:180788.got - 2010.06.03 11:33:40.
