data_PCOD9088021
_publ_section_title
;
Structure prediction by ZEFSAII (Michael W. Deem and Ramdas Pophale) SiO2 
 PCOD9088021
Probable space group: P -1
;
_chemical_formula_sum "Si O2"
_cell_formula_units_Z 16
_cell_length_a 12.834074
_cell_length_b 7.321783
_cell_length_c 10.845303
_cell_angle_alpha 53.495108
_cell_angle_beta 56.473582
_cell_angle_gamma 67.728675
_cell_volume 680.950151
_symmetry_space_group_name_H-M "P -1"
_symmetry_group_IT_number 2
_symmetry_cell_setting 'triclinic'
loop_
_space_group_symop_operation_xyz
x,y,z
-x,-y,-z
loop_
_atom_site_type_symbol
_atom_site_label
_atom_site_fract_x
_atom_site_fract_y
_atom_site_fract_z
Si Si1 0.611644 0.612285 0.656823
Si Si2 0.654106 0.328777 0.222510
Si Si3 0.134791 0.373770 0.465188
Si Si4 0.378786 0.897686 0.404292
Si Si5 0.351673 0.156204 0.716290
Si Si6 0.907869 0.560730 0.923204
Si Si7 0.918016 0.791940 0.173428
Si Si8 0.142019 0.056254 0.359035
O O1 0.473808 0.529884 0.794862
O O2 0.744201 0.481482 0.655218
O O3 0.621172 0.676163 0.481367
O O4 0.614667 0.852581 0.634121
O O5 0.648634 0.265859 0.396629
O O6 0.653744 0.093274 0.241275
O O7 0.780121 0.441456 0.067180
O O8 0.129171 0.202742 0.655521
O O9 0.157002 0.250544 0.372123
O O10 0.000000 0.500000 0.500000
O O11 0.522065 0.843148 0.285482
O O12 0.265604 0.895910 0.380488
O O13 0.207858 0.216319 0.824039
O O14 0.868866 0.823935 0.814363
O O15 0.993320 0.437532 0.809217
O O16 0.000000 0.500000 0.000000
O O17 0.000000 0.000000 0.000000
O O18 0.000000 0.000000 0.500000
#
# Coordination Sequence:
#
# PCOD9088021 Si02
#       8
#     2   2   2   2   2   2   2   2
#     4   7  14  26  54  80 107 140 177 227 267 319
#     4   9  15  32  53  82 108 139 184 225 270 325
#     4  10  19  37  58  85 111 139 193 229 268 327
#     4   8  15  31  56  79 103 145 186 221 266 324
#     4   8  14  29  56  82 105 138 185 224 267 324
#     4  12  25  36  54  85 116 147 184 227 280 335
#     4  11  21  35  59  85 113 145 181 231 280 318
#     4  11  23  38  57  80 114 154 183 225 276 330
#
# _framework density 23.496576999999998
#
# number of rings (size 3 to 8) (size 9 to 14) (size 15 to 20)
#    0.000    2.500    2.500    3.000    1.750    0.000 
#    0.000    6.875    2.750    3.750    0.000    0.000 
#    0.000    0.000    0.000    0.000    0.000    0.000 
#
# Total GULP energy -89155.993836 kJ/mol
# GULP energy per Si atom -5572.249615 kJ/mol
# Density = 2.344310 g / cm^3
# Si number density = 23.496577 Si / 1000 Ang^3
#
#
#
# Elastic Constant Matrix: (Units=GPa)
#
#
# Indices 1 2 3 4 5 6 
#
# 1 225.9547 29.8628 52.4787 3.8600 -37.6472 -61.2462
# 2 29.8628 33.3731 -3.8630 7.0217 -6.2685 -8.1397
# 3 52.4787 -3.8630 59.5398 4.8419 -15.0275 -17.8918
# 4 3.8600 7.0217 4.8419 17.8458 -7.4366 -0.8791
# 5 -37.6472 -6.2685 -15.0275 -7.4366 45.5063 19.9258
# 6 -61.2462 -8.1397 -17.8918 -0.8791 19.9258 43.1041
#
#
#
# Elastic Compliance Matrix: (Units=1/GPa)
#
#
# Indices 1 2 3 4 5 6 
#
# 1 0.009377 -0.007409 -0.006013 0.003566 0.001471 0.008820
# 2 -0.007409 0.042073 0.011191 -0.018069 -0.000417 0.001887
# 3 -0.006013 0.011191 0.024904 -0.008828 0.002152 0.002731
# 4 0.003566 -0.018069 -0.008828 0.069246 0.011439 -0.005885
# 5 0.001471 -0.000417 0.002152 0.011439 0.030518 -0.010969
# 6 0.008820 0.001887 0.002731 -0.005885 -0.010969 0.042173
#
#
# Mechanical properties :
#
#
# Convention : Reuss Voigt Hill
#
# Bulk Modulus (GPa) = 13.90993 52.86940 33.38967
# Shear Modulus (GPa) = 20.26624 37.31719 28.79171
#
# Velocity S-wave (km/s) = 2.94005 3.98954 3.50431
# Velocity P-wave (km/s) = 4.17828 6.61602 5.53307
#
# Compressibility (1/GPa) = 0.07189110
#
# Stress axis : x y z
#
# Youngs Moduli (GPa) = 106.64942 23.76821 40.15484
#
# Poissons Ratio (x) = 0.17610 0.24146
# Poissons Ratio (y) = 0.79016 -0.44938
# Poissons Ratio (z) = 0.64132 -0.26600
#
# Static dielectric constant tensor:
#      x y z
#    x 1.986280 -0.048050 0.024020 
#    y -0.048050 1.984470 0.009550 
#    z 0.024020 0.009550 1.888200 
# 
# From -- ./inp_files/244153.got.cif
#   From: 2010.05.17/outbox.cif.g08.bks.cpg/sg2_123_cif.got.tgz:244153.got - 2010.06.03 11:33:40.
