data_PCOD9088235
_publ_section_title
;
Structure prediction by ZEFSAII (Michael W. Deem and Ramdas Pophale) SiO2 
 PCOD9088235
Probable space group: P -1
;
_chemical_formula_sum "Si O2"
_cell_formula_units_Z 14
_cell_length_a 11.767787
_cell_length_b 18.612172
_cell_length_c 11.319017
_cell_angle_alpha 154.025298
_cell_angle_beta 37.765256
_cell_angle_gamma 150.907214
_cell_volume 527.799376
_symmetry_space_group_name_H-M "P -1"
_symmetry_group_IT_number 2
_symmetry_cell_setting 'triclinic'
loop_
_space_group_symop_operation_xyz
x,y,z
-x,-y,-z
loop_
_atom_site_type_symbol
_atom_site_label
_atom_site_fract_x
_atom_site_fract_y
_atom_site_fract_z
Si Si1 0.586024 0.734413 0.265615
Si Si2 0.501612 0.854371 0.071203
Si Si3 0.068317 0.063664 0.246348
Si Si4 0.729050 0.175614 0.001972
Si Si5 0.207303 0.274542 0.699348
Si Si6 0.650646 0.293591 0.786855
Si Si7 0.166478 0.447066 0.618844
O O1 0.679390 0.800901 0.421003
O O2 0.394212 0.745675 0.374827
O O3 0.500000 0.500000 0.000000
O O4 0.803071 0.869296 0.196162
O O5 0.755944 0.987619 0.003282
O O6 0.329773 0.874079 0.164056
O O7 0.363386 0.608034 0.789954
O O8 0.517637 0.877331 0.231184
O O9 0.143732 0.175491 0.476792
O O10 0.121963 0.230426 0.348991
O O11 0.755053 0.389981 0.312170
O O12 0.979494 0.224285 0.882916
O O13 0.500000 0.000000 0.000000
O O14 0.365974 0.518652 0.909821
O O15 0.905389 0.378472 0.750050
#
# Coordination Sequence:
#
# PCOD9088235 Si02
#       7
#     2   2   2   2   2   2   2
#     4  10  24  38  57  82 118 159 187 233 289 345
#     4  10  20  33  62  89 114 147 188 247 277 332
#     4  12  21  36  59  92 114 145 199 237 286 333
#     4   9  18  33  55  86 115 144 186 235 283 330
#     4  10  19  37  60  84 112 152 194 235 279 339
#     4  10  19  39  59  82 119 153 192 226 289 347
#     4   9  20  34  60  87 114 149 191 242 277 336
#
# _framework density 26.525229
#
# number of rings (size 3 to 8) (size 9 to 14) (size 15 to 20)
#    0.857    1.143    1.429    3.000    0.000    1.143 
#    0.000    0.000    0.000    2.571    0.000    0.000 
#    0.000    0.000    0.000    0.000    0.000    0.000 
#
# Total GULP energy -78136.859598 kJ/mol
# GULP energy per Si atom -5581.204257 kJ/mol
# Density = 2.646486 g / cm^3
# Si number density = 26.525229 Si / 1000 Ang^3
#
#
#
# Elastic Constant Matrix: (Units=GPa)
#
#
# Indices 1 2 3 4 5 6 
#
# 1 127.9535 31.8701 21.3123 -10.1182 -19.9135 -11.7648
# 2 31.8701 140.4053 23.4491 -3.4742 -4.7259 -12.0264
# 3 21.3123 23.4491 61.0251 6.5353 -10.0970 3.8318
# 4 -10.1182 -3.4742 6.5353 36.1229 0.5582 -7.7038
# 5 -19.9135 -4.7259 -10.0970 0.5582 35.9922 15.0404
# 6 -11.7648 -12.0264 3.8318 -7.7038 15.0404 34.7043
#
#
#
# Elastic Compliance Matrix: (Units=1/GPa)
#
#
# Indices 1 2 3 4 5 6 
#
# 1 0.009637 -0.001293 -0.002874 0.003583 0.003245 0.002525
# 2 -0.001293 0.008379 -0.003691 0.002097 -0.002538 0.004438
# 3 -0.002874 -0.003691 0.021556 -0.007274 0.008177 -0.009792
# 4 0.003583 0.002097 -0.007274 0.032942 -0.005491 0.012437
# 5 0.003245 -0.002538 0.008177 -0.005491 0.039589 -0.019059
# 6 0.002525 0.004438 -0.009792 0.012437 -0.019059 0.043311
#
#
# Mechanical properties :
#
#
# Convention : Reuss Voigt Hill
#
# Bulk Modulus (GPa) = 41.92102 53.62743 47.77423
# Shear Modulus (GPa) = 27.92036 38.21403 33.06720
#
# Velocity S-wave (km/s) = 3.24789 3.79973 3.53460
# Velocity P-wave (km/s) = 5.46842 6.28586 5.89133
#
# Compressibility (1/GPa) = 0.02385438
#
# Stress axis : x y z
#
# Youngs Moduli (GPa) = 103.77005 119.34795 46.39182
#
# Poissons Ratio (x) = 0.15435 0.13333
# Poissons Ratio (y) = 0.13420 0.17124
# Poissons Ratio (z) = 0.29823 0.44053
#
# Static dielectric constant tensor:
#      x y z
#    x 2.103500 -0.010920 0.035480 
#    y -0.010920 2.038340 0.086450 
#    z 0.035480 0.086450 2.251650 
# 
# From -- ./inp_files/436036.got.cif
#   From: 2010.05.17/outbox.cif.g08.bks.cpg/sg2_219_cif.got.tgz:436036.got - 2010.06.03 11:33:40.
