data_PCOD9088132
_publ_section_title
;
Structure prediction by ZEFSAII (Michael W. Deem and Ramdas Pophale) SiO2 
 PCOD9088132
Probable space group: P -1
;
_chemical_formula_sum "Si O2"
_cell_formula_units_Z 12
_cell_length_a 13.748490
_cell_length_b 7.026224
_cell_length_c 10.050576
_cell_angle_alpha 72.017488
_cell_angle_beta 130.193440
_cell_angle_gamma 131.175159
_cell_volume 546.714102
_symmetry_space_group_name_H-M "P -1"
_symmetry_group_IT_number 2
_symmetry_cell_setting 'triclinic'
loop_
_space_group_symop_operation_xyz
x,y,z
-x,-y,-z
loop_
_atom_site_type_symbol
_atom_site_label
_atom_site_fract_x
_atom_site_fract_y
_atom_site_fract_z
Si Si1 0.673599 0.659488 0.286003
Si Si2 0.807124 0.858060 0.851991
Si Si3 0.755355 0.537381 0.113115
Si Si4 0.402497 0.986755 0.777932
Si Si5 0.556260 0.926073 0.693117
Si Si6 0.137119 0.959187 0.418547
O O1 0.700639 0.630692 0.163765
O O2 0.571010 0.382707 0.325748
O O3 0.838307 0.870513 0.470233
O O4 0.583371 0.782518 0.192563
O O5 0.732445 0.993214 0.812117
O O6 0.775810 0.840958 0.671075
O O7 0.734253 0.614742 0.933804
O O8 0.000000 0.000000 0.000000
O O9 0.663503 0.238996 0.125854
O O10 0.952569 0.716432 0.272808
O O11 0.539932 0.040953 0.787678
O O12 0.245169 0.871599 0.565994
O O13 0.500000 0.000000 0.500000
#
# Coordination Sequence:
#
# PCOD9088132 Si02
#       6
#     2   2   2   2   2   2
#     4   9  21  35  60  91 112 154 202 240 279 351
#     4  10  22  38  60  87 119 154 191 244 299 341
#     4  10  19  37  59  85 124 155 186 242 297 339
#     4   9  20  34  61  89 109 156 197 236 282 346
#     4  11  20  39  62  85 116 157 197 239 290 351
#     4   9  18  37  59  86 117 153 198 233 280 348
#
# _framework density 21.949316
#
# number of rings (size 3 to 8) (size 9 to 14) (size 15 to 20)
#    1.000    1.333    1.667    1.000    0.000    5.333 
#    0.000    5.000    0.000    8.000    0.000    0.000 
#    0.000    0.000    0.000    0.000    0.000    0.000 
#
# Total GULP energy -66907.700043 kJ/mol
# GULP energy per Si atom -5575.641670 kJ/mol
# Density = 2.189936 g / cm^3
# Si number density = 21.949316 Si / 1000 Ang^3
#
#
#
# Elastic Constant Matrix: (Units=GPa)
#
#
# Indices 1 2 3 4 5 6 
#
# 1 153.3650 55.6129 38.3605 -13.9056 4.8317 3.9397
# 2 55.6129 95.6060 30.0049 -36.4438 -9.7716 5.3353
# 3 38.3605 30.0049 93.6979 -43.2293 6.8257 9.9416
# 4 -13.9056 -36.4438 -43.2293 44.2762 9.2168 -1.1875
# 5 4.8317 -9.7716 6.8257 9.2168 45.8032 0.4670
# 6 3.9397 5.3353 9.9416 -1.1875 0.4670 36.9879
#
#
#
# Elastic Compliance Matrix: (Units=1/GPa)
#
#
# Indices 1 2 3 4 5 6 
#
# 1 0.009735 -0.007118 -0.005653 -0.008278 -0.000050 0.001244
# 2 -0.007118 0.020779 0.006196 0.020809 0.000106 -0.003238
# 3 -0.005653 0.006196 0.026378 0.030598 -0.008105 -0.006297
# 4 -0.008278 0.020809 0.030598 0.069513 -0.013154 -0.007946
# 5 -0.000050 0.000106 -0.008105 -0.013154 0.025701 0.001422
# 6 0.001244 -0.003238 -0.006297 -0.007946 0.001422 0.028790
#
#
# Mechanical properties :
#
#
# Convention : Reuss Voigt Hill
#
# Bulk Modulus (GPa) = 22.86153 65.62503 44.24328
# Shear Modulus (GPa) = 23.96634 39.99284 31.97959
#
# Velocity S-wave (km/s) = 3.30797 4.27318 3.82117
# Velocity P-wave (km/s) = 5.00284 7.36954 6.29836
#
# Compressibility (1/GPa) = 0.04374160
#
# Stress axis : x y z
#
# Youngs Moduli (GPa) = 102.72521 48.12553 37.91005
#
# Poissons Ratio (x) = 0.34257 0.21432
# Poissons Ratio (y) = 0.73122 -0.23491
# Poissons Ratio (z) = 0.58074 -0.29820
#
# Static dielectric constant tensor:
#      x y z
#    x 1.808550 0.019100 0.021850 
#    y 0.019100 1.804320 0.048880 
#    z 0.021850 0.048880 1.919130 
# 
# From -- ./inp_files/260022.got.cif
#   From: 2010.05.17/outbox.cif.g08.bks.cpg/sg2_131_cif.got.tgz:260022.got - 2010.06.03 11:33:40.
