data_PCOD9088963
_publ_section_title
;
Structure prediction by ZEFSAII (Michael W. Deem and Ramdas Pophale) SiO2 
 PCOD9088963
Probable space group: P -1
;
_chemical_formula_sum "Si O2"
_cell_formula_units_Z 14
_cell_length_a 9.351461
_cell_length_b 9.018537
_cell_length_c 7.672718
_cell_angle_alpha 59.094262
_cell_angle_beta 106.160532
_cell_angle_gamma 82.678175
_cell_volume 503.750639
_symmetry_space_group_name_H-M "P -1"
_symmetry_group_IT_number 2
_symmetry_cell_setting 'triclinic'
loop_
_space_group_symop_operation_xyz
x,y,z
-x,-y,-z
loop_
_atom_site_type_symbol
_atom_site_label
_atom_site_fract_x
_atom_site_fract_y
_atom_site_fract_z
Si Si1 0.226601 0.574502 0.800589
Si Si2 0.592656 0.080095 0.202833
Si Si3 0.685393 0.960204 0.660432
Si Si4 0.241234 0.413005 0.320450
Si Si5 0.521385 0.446254 0.783728
Si Si6 0.925160 0.794498 0.403924
Si Si7 0.047667 0.277819 0.929446
O O1 0.355446 0.546478 0.017054
O O2 0.163529 0.400570 0.882773
O O3 0.069812 0.750454 0.616011
O O4 0.340849 0.555997 0.686438
O O5 0.442875 0.014266 0.244042
O O6 0.531397 0.237513 0.944082
O O7 0.630597 0.112713 0.400175
O O8 0.768107 0.967828 0.264535
O O9 0.709545 0.772447 0.666397
O O10 0.857164 0.910024 0.829408
O O11 0.153020 0.362396 0.484860
O O12 0.103329 0.593894 0.096950
O O13 0.392273 0.468446 0.379734
O O14 0.989726 0.769943 0.246994
#
# Coordination Sequence:
#
# PCOD9088963 Si02
#       7
#     2   2   2   2   2   2   2
#     4  10  20  37  62  89 116 157 199 252 291 347
#     4  10  22  38  60  94 120 156 194 253 299 354
#     4  10  19  37  64  88 117 154 213 240 289 350
#     4  10  20  36  64  93 109 155 207 252 281 345
#     4  11  20  36  63  91 123 146 201 256 306 329
#     4  10  24  40  62  86 125 160 203 232 300 365
#     4  11  20  40  64  88 117 162 204 244 284 365
#
# _framework density 27.791526000000001
#
# number of rings (size 3 to 8) (size 9 to 14) (size 15 to 20)
#    0.000    1.714    2.857    3.000    4.000    1.143 
#    0.000    3.571    3.143    0.000    0.000    0.000 
#    0.000    0.000    0.000    0.000    0.000    0.000 
#
# Total GULP energy -78100.112016 kJ/mol
# GULP energy per Si atom -5578.579430 kJ/mol
# Density = 2.772827 g / cm^3
# Si number density = 27.791526 Si / 1000 Ang^3
#
#
#
# Elastic Constant Matrix: (Units=GPa)
#
#
# Indices 1 2 3 4 5 6 
#
# 1 148.7882 31.6693 -1.5788 -9.9200 23.4155 -26.0058
# 2 31.6693 69.4372 25.6748 1.5482 9.9306 -15.4664
# 3 -1.5788 25.6748 48.0250 -20.0564 15.4213 -2.9350
# 4 -9.9200 1.5482 -20.0564 47.8081 -6.9305 12.8743
# 5 23.4155 9.9306 15.4213 -6.9305 49.2425 -7.5626
# 6 -26.0058 -15.4664 -2.9350 12.8743 -7.5626 26.9055
#
#
#
# Elastic Compliance Matrix: (Units=1/GPa)
#
#
# Indices 1 2 3 4 5 6 
#
# 1 0.009438 -0.004845 0.005638 0.002659 -0.004212 0.004496
# 2 -0.004845 0.028467 -0.021995 -0.015354 0.004017 0.017759
# 3 0.005638 -0.021995 0.045437 0.023801 -0.011724 -0.016922
# 4 0.002659 -0.015354 0.023801 0.037504 -0.003827 -0.022681
# 5 -0.004212 0.004017 -0.011724 -0.003827 0.025550 0.005972
# 6 0.004496 0.017759 -0.016922 -0.022681 0.005972 0.062407
#
#
# Mechanical properties :
#
#
# Convention : Reuss Voigt Hill
#
# Bulk Modulus (GPa) = 24.42684 41.97568 33.20126
# Shear Modulus (GPa) = 18.87828 38.82356 28.85092
#
# Velocity S-wave (km/s) = 2.60913 3.74164 3.22548
# Velocity P-wave (km/s) = 4.22908 5.81404 5.08371
#
# Compressibility (1/GPa) = 0.04093857
#
# Stress axis : x y z
#
# Youngs Moduli (GPa) = 105.95526 35.12802 22.00831
#
# Poissons Ratio (x) = 0.17018 -0.12408
# Poissons Ratio (y) = 0.51332 0.48408
# Poissons Ratio (z) = -0.59738 0.77265
#
# Static dielectric constant tensor:
#      x y z
#    x 2.200220 0.029920 -0.101000 
#    y 0.029920 2.253120 -0.050070 
#    z -0.101000 -0.050070 2.390370 
# 
# From -- ./inp_files/175429.got.cif
#   From: 2010.05.17/outbox.cif.g08.bks.cpg/sg2_88_cif.got.tgz:175429.got - 2010.06.03 11:33:40.
