data_PCOD9088076
_publ_section_title
;
Structure prediction by ZEFSAII (Michael W. Deem and Ramdas Pophale) SiO2 
 PCOD9088076
Probable space group: P -1
;
_chemical_formula_sum "Si O2"
_cell_formula_units_Z 15
_cell_length_a 12.182314
_cell_length_b 7.623759
_cell_length_c 16.007880
_cell_angle_alpha 122.277742
_cell_angle_beta 150.099243
_cell_angle_gamma 63.823242
_cell_volume 625.768153
_symmetry_space_group_name_H-M "P -1"
_symmetry_group_IT_number 2
_symmetry_cell_setting 'triclinic'
loop_
_space_group_symop_operation_xyz
x,y,z
-x,-y,-z
loop_
_atom_site_type_symbol
_atom_site_label
_atom_site_fract_x
_atom_site_fract_y
_atom_site_fract_z
Si Si1 0.962589 0.614898 0.757731
Si Si2 0.638671 0.141736 0.512804
Si Si3 0.135505 0.574426 0.688601
Si Si4 0.500000 0.500000 0.500000
Si Si5 0.406422 0.472162 0.081560
Si Si6 0.991128 0.934747 0.073896
Si Si7 0.595560 0.296361 0.699535
Si Si8 0.153616 0.064012 0.850138
O O1 0.998190 0.513688 0.665480
O O2 0.774677 0.519611 0.667639
O O3 0.900155 0.851056 0.760239
O O4 0.204963 0.611421 0.957523
O O5 0.501503 0.264574 0.387185
O O6 0.563081 0.311919 0.581287
O O7 0.898159 0.114919 0.674295
O O8 0.526930 0.918916 0.405251
O O9 0.376875 0.485295 0.819555
O O10 0.000000 0.500000 0.500000
O O11 0.176035 0.824989 0.780431
O O12 0.464223 0.531580 0.230838
O O13 0.310672 0.235660 0.952054
O O14 0.807339 0.901464 0.015422
O O15 0.146558 0.743838 0.135549
O O16 0.000000 0.000000 0.000000
#
# Coordination Sequence:
#
# PCOD9088076 Si02
#       8
#     2   2   2   1   2   2   2   2
#     4  11  24  42  66 100 133 172 217 276 333 390
#     4  10  21  38  60  96 137 168 211 274 329 391
#     4  11  26  48  69  89 132 185 224 265 333 396
#     4  12  22  38  68  96 136 164 212 278 334 386
#     4  12  23  42  69  96 130 173 230 273 320 391
#     4  10  19  37  58  93 135 168 205 262 333 391
#     4  10  21  35  62  93 131 178 211 260 336 391
#     4  10  23  41  65  95 129 169 227 277 317 387
#
# _framework density 23.97054
#
# number of rings (size 3 to 8) (size 9 to 14) (size 15 to 20)
#    0.000    1.333    4.000    1.600    3.733    3.200 
#    0.000    0.667    2.933    0.000    0.000    0.000 
#    0.000    0.000    0.000    0.000    0.000    0.000 
#
# Total GULP energy -83525.453831 kJ/mol
# GULP energy per Si atom -5568.363589 kJ/mol
# Density = 2.391598 g / cm^3
# Si number density = 23.970540 Si / 1000 Ang^3
#
#
#
# Elastic Constant Matrix: (Units=GPa)
#
#
# Indices 1 2 3 4 5 6 
#
# 1 97.0562 9.2411 51.1662 -2.0749 7.4300 -16.3261
# 2 9.2411 92.6585 26.3844 -5.7728 9.5237 -6.3469
# 3 51.1662 26.3844 81.7526 -8.5836 11.7221 -12.6071
# 4 -2.0749 -5.7728 -8.5836 36.1406 0.6546 7.0634
# 5 7.4300 9.5237 11.7221 0.6546 49.2094 1.1354
# 6 -16.3261 -6.3469 -12.6071 7.0634 1.1354 38.1604
#
#
#
# Elastic Compliance Matrix: (Units=1/GPa)
#
#
# Indices 1 2 3 4 5 6 
#
# 1 0.016193 0.001467 -0.010117 -0.002057 -0.000389 0.004222
# 2 0.001467 0.012177 -0.004367 0.000804 -0.001574 0.001108
# 3 -0.010117 -0.004367 0.020924 0.003487 -0.002688 0.001292
# 4 -0.002057 0.000804 0.003487 0.029508 -0.000952 -0.005028
# 5 -0.000389 -0.001574 -0.002688 -0.000952 0.021379 -0.001776
# 6 0.004222 0.001108 0.001292 -0.005028 -0.001776 0.029606
#
#
# Mechanical properties :
#
#
# Convention : Reuss Voigt Hill
#
# Bulk Modulus (GPa) = 42.99259 49.45006 46.22133
# Shear Modulus (GPa) = 30.56669 37.01377 33.79023
#
# Velocity S-wave (km/s) = 3.57484 3.93381 3.75861
# Velocity P-wave (km/s) = 5.91725 6.42709 6.17743
#
# Compressibility (1/GPa) = 0.02325982
#
# Stress axis : x y z
#
# Youngs Moduli (GPa) = 61.75389 82.11971 47.79089
#
# Poissons Ratio (x) = -0.12046 0.48352
# Poissons Ratio (y) = -0.09059 0.20871
# Poissons Ratio (z) = 0.62479 0.35863
#
# Static dielectric constant tensor:
#      x y z
#    x 2.018220 0.137310 -0.016040 
#    y 0.137310 2.127070 0.056160 
#    z -0.016040 0.056160 2.008700 
# 
# From -- ./inp_files/226807.got.cif
#   From: 2010.05.17/outbox.cif.g08.bks.cpg/sg2_114_cif.got.tgz:226807.got - 2010.06.03 11:33:40.
