data_PCOD9088903
_publ_section_title
;
Structure prediction by ZEFSAII (Michael W. Deem and Ramdas Pophale) SiO2 
 PCOD9088903
Probable space group: P -1
;
_chemical_formula_sum "Si O2"
_cell_formula_units_Z 14
_cell_length_a 11.212193
_cell_length_b 6.350594
_cell_length_c 23.198700
_cell_angle_alpha 129.271585
_cell_angle_beta 26.236544
_cell_angle_gamma 122.558643
_cell_volume 563.199431
_symmetry_space_group_name_H-M "P -1"
_symmetry_group_IT_number 2
_symmetry_cell_setting 'triclinic'
loop_
_space_group_symop_operation_xyz
x,y,z
-x,-y,-z
loop_
_atom_site_type_symbol
_atom_site_label
_atom_site_fract_x
_atom_site_fract_y
_atom_site_fract_z
Si Si1 0.246939 0.700837 0.593086
Si Si2 0.580075 0.668576 0.200269
Si Si3 0.162189 0.928943 0.245314
Si Si4 0.579947 0.176052 0.050878
Si Si5 0.830686 0.474876 0.281651
Si Si6 0.966954 0.426981 0.085455
Si Si7 0.854353 0.925604 0.492658
O O1 0.028227 0.895212 0.687592
O O2 0.566308 0.697567 0.438885
O O3 0.210478 0.726267 0.682260
O O4 0.195825 0.388204 0.546407
O O5 0.424946 0.469929 0.190300
O O6 0.422972 0.890272 0.346092
O O7 0.737030 0.470035 0.144533
O O8 0.798949 0.777512 0.080296
O O9 0.034843 0.007437 0.375524
O O10 0.475025 0.981744 0.112412
O O11 0.099744 0.620690 0.206254
O O12 0.872300 0.291050 0.935207
O O13 0.500000 0.000000 0.000000
O O14 0.864264 0.378100 0.185104
O O15 0.000000 0.000000 0.500000
#
# Coordination Sequence:
#
# PCOD9088903 Si02
#       7
#     2   2   2   2   2   2   2
#     4  10  23  37  60  94 120 165 213 252 316 377
#     4   9  20  38  62  91 129 161 210 259 308 375
#     4  11  21  39  65  87 128 167 202 265 314 363
#     4  10  19  37  63  96 116 163 217 248 314 379
#     4  10  20  39  61  90 126 156 215 264 306 371
#     4   9  19  38  65  91 125 166 211 255 313 372
#     4  11  24  41  61  93 129 162 211 259 309 378
#
# _framework density 24.857980999999999
#
# number of rings (size 3 to 8) (size 9 to 14) (size 15 to 20)
#    0.857    1.143    1.429    2.143    0.000    5.714 
#    0.000    2.857    0.000    0.000    0.000    0.000 
#    0.000    0.000    0.000    0.000    0.000    0.000 
#
# Total GULP energy -78078.276043 kJ/mol
# GULP energy per Si atom -5577.019717 kJ/mol
# Density = 2.480140 g / cm^3
# Si number density = 24.857981 Si / 1000 Ang^3
#
#
#
# Elastic Constant Matrix: (Units=GPa)
#
#
# Indices 1 2 3 4 5 6 
#
# 1 130.0868 36.4110 35.0958 -9.2432 41.3414 -1.4969
# 2 36.4110 78.9933 45.1251 -11.9536 13.7350 24.5454
# 3 35.0958 45.1251 89.8907 -14.8514 46.4685 -6.2801
# 4 -9.2432 -11.9536 -14.8514 36.9598 -5.1783 11.1149
# 5 41.3414 13.7350 46.4685 -5.1783 53.3904 -14.6321
# 6 -1.4969 24.5454 -6.2801 11.1149 -14.6321 38.2821
#
#
#
# Elastic Compliance Matrix: (Units=1/GPa)
#
#
# Indices 1 2 3 4 5 6 
#
# 1 0.011822 -0.005960 0.004389 0.001102 -0.011226 0.000393
# 2 -0.005960 0.034638 -0.017448 0.011425 0.004640 -0.026848
# 3 0.004389 -0.017448 0.031779 0.002873 -0.024548 0.006355
# 4 0.001102 0.011425 0.002873 0.037273 -0.008389 -0.020840
# 5 -0.011226 0.004640 -0.024548 -0.008389 0.050722 0.014382
# 6 0.000393 -0.026848 0.006355 -0.020840 0.014382 0.055942
#
#
# Mechanical properties :
#
#
# Convention : Reuss Voigt Hill
#
# Bulk Modulus (GPa) = 24.87519 59.13716 42.00617
# Shear Modulus (GPa) = 18.27390 37.88238 28.07814
#
# Velocity S-wave (km/s) = 2.71427 3.90802 3.36451
# Velocity P-wave (km/s) = 4.45552 6.64869 5.65936
#
# Compressibility (1/GPa) = 0.04020070
#
# Stress axis : x y z
#
# Youngs Moduli (GPa) = 84.59117 28.86976 31.46739
#
# Poissons Ratio (x) = 0.17205 -0.13811
# Poissons Ratio (y) = 0.50413 0.54905
# Poissons Ratio (z) = -0.37126 0.50373
#
# Static dielectric constant tensor:
#      x y z
#    x 1.959790 -0.003380 -0.112230 
#    y -0.003380 2.067910 0.110780 
#    z -0.112230 0.110780 2.641410 
# 
# From -- ./inp_files/609023.got.cif
#   From: 2010.05.17/outbox.cif.g08.bks.cpg/sg2_305_cif.got.tgz:609023.got - 2010.06.03 11:33:40.
