data_PCOD9088911
_publ_section_title
;
Structure prediction by ZEFSAII (Michael W. Deem and Ramdas Pophale) SiO2 
 PCOD9088911
Probable space group: P -1
;
_chemical_formula_sum "Si O2"
_cell_formula_units_Z 16
_cell_length_a 10.916030
_cell_length_b 12.955050
_cell_length_c 10.224949
_cell_angle_alpha 102.309085
_cell_angle_beta 134.410863
_cell_angle_gamma 113.609668
_cell_volume 621.826973
_symmetry_space_group_name_H-M "P -1"
_symmetry_group_IT_number 2
_symmetry_cell_setting 'triclinic'
loop_
_space_group_symop_operation_xyz
x,y,z
-x,-y,-z
loop_
_atom_site_type_symbol
_atom_site_label
_atom_site_fract_x
_atom_site_fract_y
_atom_site_fract_z
Si Si1 0.883119 0.603999 0.915112
Si Si2 0.205541 0.002375 0.687537
Si Si3 0.691562 0.498258 0.259966
Si Si4 0.868510 0.243583 0.571346
Si Si5 0.018820 0.109148 0.945893
Si Si6 0.562712 0.247417 0.662835
Si Si7 0.488320 0.761835 0.800738
Si Si8 0.679580 0.710540 0.318409
O O1 0.970397 0.662585 0.148736
O O2 0.870099 0.719563 0.885439
O O3 0.157053 0.680093 0.082595
O O4 0.647883 0.395331 0.679931
O O5 0.224377 0.921126 0.572248
O O6 0.009983 0.862482 0.619979
O O7 0.000000 0.000000 0.500000
O O8 0.476101 0.164519 0.011710
O O9 0.741172 0.437123 0.391135
O O10 0.599157 0.560428 0.279645
O O11 0.934506 0.629329 0.370230
O O12 0.426694 0.348798 0.926332
O O13 0.612245 0.200322 0.365410
O O14 0.691260 0.952569 0.620637
O O15 0.236270 0.169084 0.016289
O O16 0.000000 0.000000 0.000000
O O17 0.447632 0.247994 0.706360
#
# Coordination Sequence:
#
# PCOD9088911 Si02
#       8
#     2   2   2   2   2   2   2   2
#     4  11  25  46  73  97 133 183 225 283 335 401
#     4  11  21  37  63  93 127 171 213 265 329 393
#     4  10  21  37  67  97 134 169 216 271 338 396
#     4  11  24  41  63  98 137 170 221 272 337 398
#     4  12  27  47  69  99 138 177 228 281 337 400
#     4  11  23  44  72 101 132 175 236 271 334 405
#     4  12  23  40  64  98 134 176 216 275 338 397
#     4  10  19  37  63  97 123 167 217 269 321 398
#
# _framework density 25.730630999999999
#
# number of rings (size 3 to 8) (size 9 to 14) (size 15 to 20)
#    0.000    1.000    3.750    3.375    1.750    0.500 
#    0.000    2.500    0.000    0.000    0.000    0.000 
#    0.000    0.000    0.000    0.000    0.000    0.000 
#
# Total GULP energy -89243.370588 kJ/mol
# GULP energy per Si atom -5577.710662 kJ/mol
# Density = 2.567207 g / cm^3
# Si number density = 25.730631 Si / 1000 Ang^3
#
#
#
# Elastic Constant Matrix: (Units=GPa)
#
#
# Indices 1 2 3 4 5 6 
#
# 1 90.1417 18.8802 -7.2672 3.6644 10.8846 -21.9529
# 2 18.8802 128.1411 12.3873 4.8536 -0.9250 -23.0784
# 3 -7.2672 12.3873 43.1708 8.8843 13.9074 -9.4650
# 4 3.6644 4.8536 8.8843 34.6450 -6.7149 -0.8005
# 5 10.8846 -0.9250 13.9074 -6.7149 23.6024 1.9267
# 6 -21.9529 -23.0784 -9.4650 -0.8005 1.9267 42.0325
#
#
#
# Elastic Compliance Matrix: (Units=1/GPa)
#
#
# Indices 1 2 3 4 5 6 
#
# 1 0.019009 -0.001703 0.015685 -0.009737 -0.021935 0.013345
# 2 -0.001703 0.008939 -0.003134 0.000352 0.002822 0.003190
# 3 0.015685 -0.003134 0.049904 -0.022227 -0.044663 0.019333
# 4 -0.009737 0.000352 -0.022227 0.041149 0.030165 -0.010497
# 5 -0.021935 0.002822 -0.044663 0.030165 0.089411 -0.023488
# 6 0.013345 0.003190 0.019333 -0.010497 -0.023488 0.037743
#
#
# Mechanical properties :
#
#
# Convention : Reuss Voigt Hill
#
# Bulk Modulus (GPa) = 10.04538 34.38380 22.21459
# Shear Modulus (GPa) = 19.40666 35.88621 27.64643
#
# Velocity S-wave (km/s) = 2.74929 3.73860 3.28145
# Velocity P-wave (km/s) = 3.74041 5.65935 4.79682
#
# Compressibility (1/GPa) = 0.09954827
#
# Stress axis : x y z
#
# Youngs Moduli (GPa) = 52.60580 111.86416 20.03836
#
# Poissons Ratio (x) = 0.19052 -0.31429
# Poissons Ratio (y) = 0.08959 0.06280
# Poissons Ratio (z) = -0.82510 0.35056
#
# Static dielectric constant tensor:
#      x y z
#    x 2.048670 0.047710 0.058020 
#    y 0.047710 2.335890 0.133080 
#    z 0.058020 0.133080 2.137380 
# 
# From -- ./inp_files/428478.got.cif
#   From: 2010.05.17/outbox.cif.g08.bks.cpg/sg2_215_cif.got.tgz:428478.got - 2010.06.03 11:33:40.
