data_PCOD9088247
_publ_section_title
;
Structure prediction by ZEFSAII (Michael W. Deem and Ramdas Pophale) SiO2 
 PCOD9088247
Probable space group: P -1
;
_chemical_formula_sum "Si O2"
_cell_formula_units_Z 15
_cell_length_a 11.751906
_cell_length_b 11.933861
_cell_length_c 7.911644
_cell_angle_alpha 84.106888
_cell_angle_beta 117.745445
_cell_angle_gamma 47.865857
_cell_volume 564.170567
_symmetry_space_group_name_H-M "P -1"
_symmetry_group_IT_number 2
_symmetry_cell_setting 'triclinic'
loop_
_space_group_symop_operation_xyz
x,y,z
-x,-y,-z
loop_
_atom_site_type_symbol
_atom_site_label
_atom_site_fract_x
_atom_site_fract_y
_atom_site_fract_z
Si Si1 0.485242 0.335630 0.553592
Si Si2 0.368205 0.979706 0.432806
Si Si3 0.460438 0.787526 0.014588
Si Si4 0.085503 0.476229 0.787389
Si Si5 0.897703 0.812258 0.445353
Si Si6 0.163438 0.811604 0.757364
Si Si7 0.957699 0.350305 0.921329
Si Si8 0.000000 0.000000 0.000000
O O1 0.261647 0.558996 0.307269
O O2 0.737525 0.193162 0.721194
O O3 0.460848 0.241752 0.437768
O O4 0.468173 0.298793 0.735381
O O5 0.261357 0.046046 0.529634
O O6 0.500000 0.000000 0.500000
O O7 0.169574 0.117894 0.135695
O O8 0.391432 0.715840 0.900368
O O9 0.242681 0.026616 0.824593
O O10 0.661987 0.702020 0.072259
O O11 0.942094 0.647536 0.520431
O O12 0.013304 0.405206 0.812073
O O13 0.059524 0.574632 0.921175
O O14 0.124567 0.715246 0.668863
O O15 0.000000 0.000000 0.500000
O O16 0.089634 0.886227 0.889171
#
# Coordination Sequence:
#
# PCOD9088247 Si02
#       8
#     2   2   2   2   2   2   2   1
#     4  11  22  39  62  87 126 162 200 258 307 369
#     4  11  21  38  66  89 117 161 212 251 300 374
#     4  10  22  36  58  88 121 161 198 249 315 366
#     4  10  21  38  60  86 120 154 205 255 300 373
#     4  10  19  37  60  84 118 161 207 245 303 369
#     4   9  19  35  59  90 117 165 210 250 312 366
#     4  10  22  38  60  91 115 160 206 250 308 357
#     4  10  20  38  62  90 126 164 210 254 310 374
#
# _framework density 26.587703000000001
#
# number of rings (size 3 to 8) (size 9 to 14) (size 15 to 20)
#    0.000    1.867    1.333    4.000    1.867    2.133 
#    0.000    5.333    0.000    0.000    0.000    0.000 
#    0.000    0.000    0.000    0.000    0.000    0.000 
#
# Total GULP energy -83637.122239 kJ/mol
# GULP energy per Si atom -5575.808149 kJ/mol
# Density = 2.652719 g / cm^3
# Si number density = 26.587703 Si / 1000 Ang^3
#
#
#
# Elastic Constant Matrix: (Units=GPa)
#
#
# Indices 1 2 3 4 5 6 
#
# 1 108.8974 16.8986 29.2738 -21.2137 15.7100 7.0434
# 2 16.8986 49.7933 12.7417 -2.0458 -4.7057 1.9895
# 3 29.2738 12.7417 153.3857 -15.1746 0.9848 -19.0963
# 4 -21.2137 -2.0458 -15.1746 32.7662 -7.4212 -2.7904
# 5 15.7100 -4.7057 0.9848 -7.4212 47.5910 -17.0266
# 6 7.0434 1.9895 -19.0963 -2.7904 -17.0266 36.8231
#
#
#
# Elastic Compliance Matrix: (Units=1/GPa)
#
#
# Indices 1 2 3 4 5 6 
#
# 1 0.012544 -0.003789 -0.002236 0.005087 -0.005677 -0.005594
# 2 -0.003789 0.021938 -0.001134 -0.000770 0.003508 0.000515
# 3 -0.002236 -0.001134 0.008192 0.003597 0.003367 0.006567
# 4 0.005087 -0.000770 0.003597 0.037460 0.006424 0.006743
# 5 -0.005677 0.003508 0.003367 0.006424 0.030297 0.017138
# 6 -0.005594 0.000515 0.006567 0.006743 0.017138 0.040040
#
#
# Mechanical properties :
#
#
# Convention : Reuss Voigt Hill
#
# Bulk Modulus (GPa) = 35.26489 47.76718 41.51604
# Shear Modulus (GPa) = 28.69595 40.31355 34.50475
#
# Velocity S-wave (km/s) = 3.28882 3.89813 3.60637
# Velocity P-wave (km/s) = 5.26443 6.18590 5.74368
#
# Compressibility (1/GPa) = 0.02835681
#
# Stress axis : x y z
#
# Youngs Moduli (GPa) = 79.72111 45.58242 122.06633
#
# Poissons Ratio (x) = 0.17271 0.27293
# Poissons Ratio (y) = 0.30205 0.13841
# Poissons Ratio (z) = 0.17825 0.05169
#
# Static dielectric constant tensor:
#      x y z
#    x 1.891460 -0.026930 -0.014560 
#    y -0.026930 2.097870 0.033550 
#    z -0.014560 0.033550 2.117640 
# 
# From -- ./inp_files/270048.got.cif
#   From: 2010.05.17/outbox.cif.g08.bks.cpg/sg2_136_cif.got.tgz:270048.got - 2010.06.03 11:33:40.
