data_PCOD9088435
_publ_section_title
;
Structure prediction by ZEFSAII (Michael W. Deem and Ramdas Pophale) SiO2 
 PCOD9088435
Probable space group: P -1
;
_chemical_formula_sum "Si O2"
_cell_formula_units_Z 16
_cell_length_a 5.132621
_cell_length_b 23.227265
_cell_length_c 9.391698
_cell_angle_alpha 44.416333
_cell_angle_beta 93.582991
_cell_angle_gamma 73.976899
_cell_volume 694.791817
_symmetry_space_group_name_H-M "P -1"
_symmetry_group_IT_number 2
_symmetry_cell_setting 'triclinic'
loop_
_space_group_symop_operation_xyz
x,y,z
-x,-y,-z
loop_
_atom_site_type_symbol
_atom_site_label
_atom_site_fract_x
_atom_site_fract_y
_atom_site_fract_z
Si Si1 0.176913 0.554470 0.456844
Si Si2 0.887424 0.646728 0.560171
Si Si3 0.863692 0.904332 0.155713
Si Si4 0.671289 0.288658 0.411847
Si Si5 0.979912 0.990630 0.257980
Si Si6 0.590074 0.200580 0.273543
Si Si7 0.575820 0.834916 0.065354
Si Si8 0.009989 0.242343 0.030012
O O1 0.500000 0.500000 0.500000
O O2 0.000000 0.500000 0.500000
O O3 0.116180 0.569737 0.597914
O O4 0.072724 0.655405 0.207128
O O5 0.639240 0.638555 0.660479
O O6 0.084193 0.676180 0.617893
O O7 0.674393 0.729070 0.298168
O O8 0.827977 0.938931 0.253871
O O9 0.171786 0.810503 0.324905
O O10 0.625099 0.875431 0.143659
O O11 0.864822 0.978519 0.914008
O O12 0.615676 0.257467 0.310161
O O13 0.211173 0.909640 0.504887
O O14 0.732288 0.086723 0.140960
O O15 0.259367 0.219674 0.198441
O O16 0.730745 0.232940 0.092714
O O17 0.822131 0.825489 0.975517
#
# Coordination Sequence:
#
# PCOD9088435 Si02
#       8
#     2   2   2   2   2   2   2   2
#     4  11  23  43  73  97 117 146 190 253 312 367
#     4  10  20  36  64  96 116 149 203 260 302 333
#     4   9  19  33  54  85 116 159 217 266 285 311
#     4  10  19  37  61  86 125 163 207 247 288 341
#     4  10  20  34  56  82 121 166 212 250 289 332
#     4  11  25  40  58  87 127 177 197 232 296 358
#     4  10  21  34  58  81 123 158 207 261 292 334
#     4  11  26  43  61  88 125 158 198 239 306 379
#
# _framework density 23.028478
#
# number of rings (size 3 to 8) (size 9 to 14) (size 15 to 20)
#    0.000    1.750    1.250    2.625    3.500    3.000 
#    0.000    0.000    0.000   15.000    0.000    0.000 
#    0.000    0.000    0.000    0.000    0.000    0.000 
#
# Total GULP energy -89289.937300 kJ/mol
# GULP energy per Si atom -5580.621081 kJ/mol
# Density = 2.297606 g / cm^3
# Si number density = 23.028478 Si / 1000 Ang^3
#
#
#
# Elastic Constant Matrix: (Units=GPa)
#
#
# Indices 1 2 3 4 5 6 
#
# 1 86.9975 23.5136 1.3601 -12.1454 7.7497 -9.3533
# 2 23.5136 85.3243 1.4771 -8.1408 24.3599 -8.0748
# 3 1.3601 1.4771 25.1504 -3.8122 6.9502 1.8873
# 4 -12.1454 -8.1408 -3.8122 25.5186 -3.2605 7.8860
# 5 7.7497 24.3599 6.9502 -3.2605 29.2886 -2.4039
# 6 -9.3533 -8.0748 1.8873 7.8860 -2.4039 43.8575
#
#
#
# Elastic Compliance Matrix: (Units=1/GPa)
#
#
# Indices 1 2 3 4 5 6 
#
# 1 0.013144 -0.002899 0.000227 0.004887 -0.000466 0.001356
# 2 -0.002899 0.016641 0.003168 0.002325 -0.013472 0.001153
# 3 0.000227 0.003168 0.044399 0.007135 -0.012704 -0.003258
# 4 0.004887 0.002325 0.007135 0.045437 -0.000439 -0.007031
# 5 -0.000466 -0.013472 -0.012704 -0.000439 0.048495 0.000704
# 6 0.001356 0.001153 -0.003258 -0.007031 0.000704 0.024746
#
#
# Mechanical properties :
#
#
# Convention : Reuss Voigt Hill
#
# Bulk Modulus (GPa) = 13.30186 27.79709 20.54948
# Shear Modulus (GPa) = 23.04915 31.14102 27.09509
#
# Velocity S-wave (km/s) = 3.16713 3.68133 3.43387
# Velocity P-wave (km/s) = 4.37757 5.49241 4.96637
#
# Compressibility (1/GPa) = 0.07517744
#
# Stress axis : x y z
#
# Youngs Moduli (GPa) = 76.08094 60.09202 22.52295
#
# Poissons Ratio (x) = 0.17419 -0.00511
# Poissons Ratio (y) = 0.22053 -0.07136
# Poissons Ratio (z) = -0.01727 -0.19039
#
# Static dielectric constant tensor:
#      x y z
#    x 1.898180 -0.003220 0.033100 
#    y -0.003220 1.936800 -0.005150 
#    z 0.033100 -0.005150 1.870690 
# 
# From -- ./inp_files/53074.got.cif
#   From: 2010.05.17/outbox.cif.g08.bks.cpg/sg2_27_cif.got.tgz:53074.got - 2010.06.03 11:33:40.
