data_PCOD9088768
_publ_section_title
;
Structure prediction by ZEFSAII (Michael W. Deem and Ramdas Pophale) SiO2 
 PCOD9088768
Probable space group: P -1
;
_chemical_formula_sum "Si O2"
_cell_formula_units_Z 14
_cell_length_a 26.415814
_cell_length_b 9.199791
_cell_length_c 12.946791
_cell_angle_alpha 34.244102
_cell_angle_beta 26.998366
_cell_angle_gamma 29.955412
_cell_volume 692.156571
_symmetry_space_group_name_H-M "P -1"
_symmetry_group_IT_number 2
_symmetry_cell_setting 'triclinic'
loop_
_space_group_symop_operation_xyz
x,y,z
-x,-y,-z
loop_
_atom_site_type_symbol
_atom_site_label
_atom_site_fract_x
_atom_site_fract_y
_atom_site_fract_z
Si Si1 0.577656 0.450696 0.282472
Si Si2 0.968744 0.191414 0.841540
Si Si3 0.967781 0.222895 0.332150
Si Si4 0.590012 0.700734 0.446216
Si Si5 0.204812 0.848536 0.484865
Si Si6 0.699266 0.766389 0.991466
Si Si7 0.843067 0.879462 0.125375
O O1 0.500000 0.500000 0.500000
O O2 0.482678 0.483978 0.342743
O O3 0.644307 0.649516 0.067082
O O4 0.691633 0.106546 0.267486
O O5 0.104895 0.110324 0.590751
O O6 0.853235 0.529553 0.867961
O O7 0.000000 0.000000 0.000000
O O8 0.906382 0.051819 0.962505
O O9 0.881224 0.164224 0.443242
O O10 0.884634 0.580210 0.290640
O O11 0.000000 0.000000 0.500000
O O12 0.094911 0.184683 0.064237
O O13 0.719832 0.468079 0.407585
O O14 0.628744 0.780825 0.218474
O O15 0.500000 0.000000 0.500000
O O16 0.307305 0.929619 0.206442
#
# Coordination Sequence:
#
# PCOD9088768 Si02
#       7
#     2   2   2   2   2   2   2
#     4   9  20  41  61  84 116 162 200 237 293 347
#     4  10  19  37  63  86 116 152 190 245 304 347
#     4  10  22  37  59  89 120 151 188 243 305 356
#     4  11  23  40  63  84 120 164 202 244 289 349
#     4  11  23  37  62  93 116 154 200 244 301 353
#     4  10  22  40  61  88 123 152 199 250 295 357
#     4   9  20  39  59  84 117 152 194 238 292 355
#
# _framework density 20.226635999999999
#
# number of rings (size 3 to 8) (size 9 to 14) (size 15 to 20)
#    0.000    2.000    1.429    1.286    2.000    3.429 
#    0.000    2.857    0.000    0.000    0.000    0.000 
#    0.000    0.000    0.000    0.000    0.000    0.000 
#
# Total GULP energy -78039.794486 kJ/mol
# GULP energy per Si atom -5574.271035 kJ/mol
# Density = 2.018060 g / cm^3
# Si number density = 20.226636 Si / 1000 Ang^3
#
#
#
# Elastic Constant Matrix: (Units=GPa)
#
#
# Indices 1 2 3 4 5 6 
#
# 1 85.2081 21.9380 24.5090 5.9444 4.2185 -12.9377
# 2 21.9380 57.5246 34.5075 9.8312 9.8564 3.4335
# 3 24.5090 34.5075 84.5067 -3.4813 5.0895 -6.3260
# 4 5.9444 9.8312 -3.4813 34.0472 -2.3380 1.3797
# 5 4.2185 9.8564 5.0895 -2.3380 24.6514 -1.9661
# 6 -12.9377 3.4335 -6.3260 1.3797 -1.9661 27.4770
#
#
#
# Elastic Compliance Matrix: (Units=1/GPa)
#
#
# Indices 1 2 3 4 5 6 
#
# 1 0.014668 -0.004598 -0.001921 -0.001710 0.000132 0.007134
# 2 -0.004598 0.029765 -0.011234 -0.009299 -0.010374 -0.008746
# 3 -0.001921 -0.011234 0.017400 0.005324 0.002083 0.004387
# 4 -0.001710 -0.009299 0.005324 0.033303 0.006098 0.000347
# 5 0.000132 -0.010374 0.002083 0.006098 0.045220 0.004767
# 6 0.007134 -0.008746 0.004387 0.000347 0.004767 0.042180
#
#
# Mechanical properties :
#
#
# Convention : Reuss Voigt Hill
#
# Bulk Modulus (GPa) = 37.98225 43.23875 40.61050
# Shear Modulus (GPa) = 22.04416 26.98743 24.51580
#
# Velocity S-wave (km/s) = 3.30488 3.65670 3.48524
# Velocity P-wave (km/s) = 5.77772 6.26516 6.02637
#
# Compressibility (1/GPa) = 0.02632809
#
# Stress axis : x y z
#
# Youngs Moduli (GPa) = 68.17428 33.59662 57.47134
#
# Poissons Ratio (x) = 0.15447 0.11040
# Poissons Ratio (y) = 0.31345 0.64562
# Poissons Ratio (z) = 0.13096 0.37741
#
# Static dielectric constant tensor:
#      x y z
#    x 1.719430 0.015380 -0.034090 
#    y 0.015380 1.735570 0.031570 
#    z -0.034090 0.031570 1.753270 
# 
# From -- ./inp_files/71804.got.cif
#   From: 2010.05.17/outbox.cif.g08.bks.cpg/sg2_36_cif.got.tgz:71804.got - 2010.06.03 11:33:40.
