data_PCOD9088805
_publ_section_title
;
Structure prediction by ZEFSAII (Michael W. Deem and Ramdas Pophale) SiO2 
 PCOD9088805
Probable space group: P -1
;
_chemical_formula_sum "Si O2"
_cell_formula_units_Z 12
_cell_length_a 8.529458
_cell_length_b 9.203719
_cell_length_c 15.187236
_cell_angle_alpha 139.519852
_cell_angle_beta 122.888765
_cell_angle_gamma 45.539388
_cell_volume 552.281703
_symmetry_space_group_name_H-M "P -1"
_symmetry_group_IT_number 2
_symmetry_cell_setting 'triclinic'
loop_
_space_group_symop_operation_xyz
x,y,z
-x,-y,-z
loop_
_atom_site_type_symbol
_atom_site_label
_atom_site_fract_x
_atom_site_fract_y
_atom_site_fract_z
Si Si1 0.643519 0.129107 0.617724
Si Si2 0.015476 0.467290 0.813651
Si Si3 0.601518 0.484458 0.119030
Si Si4 0.716334 0.011913 0.055808
Si Si5 0.765271 0.288230 0.556668
Si Si6 0.136802 0.918587 0.685438
O O1 0.560230 0.320203 0.764821
O O2 0.627016 0.272499 0.586499
O O3 0.500000 0.000000 0.500000
O O4 0.905252 0.932778 0.621799
O O5 0.212833 0.446898 0.809232
O O6 0.830511 0.495042 0.702148
O O7 0.087068 0.206871 0.772774
O O8 0.915155 0.718024 0.961498
O O9 0.691773 0.194629 0.050970
O O10 0.500000 0.500000 0.000000
O O11 0.762554 0.129047 0.209990
O O12 0.500000 0.000000 0.000000
O O13 0.708271 0.283825 0.435886
O O14 0.000000 0.000000 0.500000
#
# Coordination Sequence:
#
# PCOD9088805 Si02
#       6
#     2   2   2   2   2   2
#     4  10  19  37  63  89 116 155 196 238 293 353
#     4  10  20  39  60  85 119 155 192 242 293 350
#     4  12  24  39  58  86 120 158 198 245 295 348
#     4  12  24  39  59  88 119 157 201 243 291 349
#     4   8  17  35  59  85 114 150 189 235 288 344
#     4  10  20  39  63  89 119 155 194 243 293 346
#
# _framework density 21.728043
#
# number of rings (size 3 to 8) (size 9 to 14) (size 15 to 20)
#    0.000    2.000    0.000    8.000    0.000    0.000 
#    0.000    8.333    0.000    0.000    0.000    0.000 
#    0.000    0.000    0.000    0.000    0.000    0.000 
#
# Total GULP energy -67059.742219 kJ/mol
# GULP energy per Si atom -5588.311852 kJ/mol
# Density = 2.167859 g / cm^3
# Si number density = 21.728043 Si / 1000 Ang^3
#
#
#
# Elastic Constant Matrix: (Units=GPa)
#
#
# Indices 1 2 3 4 5 6 
#
# 1 151.8711 31.3502 56.8226 -11.9990 1.3446 10.2449
# 2 31.3502 79.2043 36.1750 -22.8808 0.4858 21.0224
# 3 56.8226 36.1750 137.3474 -31.3301 -18.1391 8.1266
# 4 -11.9990 -22.8808 -31.3301 43.2671 -0.9170 -11.9712
# 5 1.3446 0.4858 -18.1391 -0.9170 57.7635 4.4865
# 6 10.2449 21.0224 8.1266 -11.9712 4.4865 25.5242
#
#
#
# Elastic Compliance Matrix: (Units=1/GPa)
#
#
# Indices 1 2 3 4 5 6 
#
# 1 0.008177 -0.001812 -0.003316 -0.001452 -0.001145 -0.001213
# 2 -0.001812 0.018952 -0.002521 0.004362 0.000096 -0.012051
# 3 -0.003316 -0.002521 0.011133 0.006520 0.003519 0.002302
# 4 -0.001452 0.004362 0.006520 0.032498 0.001796 0.009840
# 5 -0.001145 0.000096 0.003519 0.001796 0.018719 -0.003188
# 6 -0.001213 -0.012051 0.002302 0.009840 -0.003188 0.054033
#
#
# Mechanical properties :
#
#
# Convention : Reuss Voigt Hill
#
# Bulk Modulus (GPa) = 43.54949 68.56871 56.05910
# Shear Modulus (GPa) = 30.03625 41.58263 35.80944
#
# Velocity S-wave (km/s) = 3.72206 4.37942 4.06405
# Velocity P-wave (km/s) = 6.20952 7.56298 6.91942
#
# Compressibility (1/GPa) = 0.02296238
#
# Stress axis : x y z
#
# Youngs Moduli (GPa) = 122.29978 52.76357 89.82683
#
# Poissons Ratio (x) = 0.09562 0.29788
# Poissons Ratio (y) = 0.22164 0.22647
# Poissons Ratio (z) = 0.40556 0.13303
#
# Static dielectric constant tensor:
#      x y z
#    x 1.798190 -0.020790 0.005120 
#    y -0.020790 1.923790 0.022950 
#    z 0.005120 0.022950 1.887190 
# 
# From -- ./inp_files/247995.got.cif
#   From: 2010.05.17/outbox.cif.g08.bks.cpg/sg2_124_cif.got.tgz:247995.got - 2010.06.03 11:33:40.
