data_PCOD9088000
_publ_section_title
;
Structure prediction by ZEFSAII (Michael W. Deem and Ramdas Pophale) SiO2 
 PCOD9088000
Probable space group: P -1
;
_chemical_formula_sum "Si O2"
_cell_formula_units_Z 16
_cell_length_a 21.976146
_cell_length_b 15.797567
_cell_length_c 9.617943
_cell_angle_alpha 61.929355
_cell_angle_beta 61.481561
_cell_angle_gamma 16.599940
_cell_volume 837.052859
_symmetry_space_group_name_H-M "P -1"
_symmetry_group_IT_number 2
_symmetry_cell_setting 'triclinic'
loop_
_space_group_symop_operation_xyz
x,y,z
-x,-y,-z
loop_
_atom_site_type_symbol
_atom_site_label
_atom_site_fract_x
_atom_site_fract_y
_atom_site_fract_z
Si Si1 0.671204 0.295290 0.854894
Si Si2 0.497501 0.215526 0.982254
Si Si3 0.902580 0.820710 0.816532
Si Si4 0.401148 0.128719 0.855138
Si Si5 0.844168 0.245516 0.862296
Si Si6 0.987066 0.160128 0.510125
Si Si7 0.399684 0.338713 0.674901
Si Si8 0.567571 0.498545 0.523853
O O1 0.807177 0.207005 0.825965
O O2 0.535682 0.504699 0.708223
O O3 0.814680 0.017187 0.867281
O O4 0.500000 0.500000 0.000000
O O5 0.372621 0.372413 0.847572
O O6 0.724925 0.969975 0.894218
O O7 0.365039 0.449284 0.058769
O O8 0.533030 0.062182 0.122756
O O9 0.141908 0.475136 0.865013
O O10 0.925926 0.848697 0.623902
O O11 0.485253 0.120440 0.710122
O O12 0.500000 0.000000 0.000000
O O13 0.920801 0.230834 0.687775
O O14 0.000000 0.000000 0.000000
O O15 0.798362 0.392096 0.424396
O O16 0.177161 0.836013 0.524198
O O17 0.524001 0.275598 0.569165
O O18 0.500000 0.500000 0.500000
#
# Coordination Sequence:
#
# PCOD9088000 Si02
#       8
#     2   2   2   2   2   2   2   2
#     4  11  23  39  56  92 125 156 192 250 317 354
#     4  11  22  40  60  92 118 160 208 249 302 359
#     4  10  21  39  65  85 123 155 206 246 299 364
#     4   9  21  36  63  88 115 159 207 255 291 346
#     4  12  26  37  59  91 130 158 195 252 311 364
#     4  10  22  37  57  87 117 163 193 247 303 353
#     4  10  19  37  58  82 116 154 206 247 288 349
#     4  11  22  35  60  86 122 161 202 243 301 368
#
# _framework density 19.114682999999999
#
# number of rings (size 3 to 8) (size 9 to 14) (size 15 to 20)
#    0.000    1.500    2.500    3.000   12.250    0.000 
#    0.000    2.500    0.000    0.000    0.000   12.250 
#    0.000    0.000    0.000    0.000    0.000    0.000 
#
# Total GULP energy -89068.779540 kJ/mol
# GULP energy per Si atom -5566.798721 kJ/mol
# Density = 1.907118 g / cm^3
# Si number density = 19.114683 Si / 1000 Ang^3
#
#
#
# Elastic Constant Matrix: (Units=GPa)
#
#
# Indices 1 2 3 4 5 6 
#
# 1 118.7862 19.2495 38.6285 -19.0813 -13.3521 3.4734
# 2 19.2495 63.8526 34.9755 -15.8030 -4.1896 0.1622
# 3 38.6285 34.9755 122.1724 -2.3912 5.5025 -5.0835
# 4 -19.0813 -15.8030 -2.3912 29.7752 3.2121 -5.2615
# 5 -13.3521 -4.1896 5.5025 3.2121 29.0577 -3.8550
# 6 3.4734 0.1622 -5.0835 -5.2615 -3.8550 24.0645
#
#
#
# Elastic Compliance Matrix: (Units=1/GPa)
#
#
# Indices 1 2 3 4 5 6 
#
# 1 0.011224 0.000734 -0.003870 0.006681 0.005239 -0.000143
# 2 0.000734 0.022045 -0.006420 0.011524 0.003656 0.001495
# 3 -0.003870 -0.006420 0.011411 -0.004269 -0.004206 0.001405
# 4 0.006681 0.011524 -0.004269 0.044900 0.001656 0.008139
# 5 0.005239 0.003656 -0.004206 0.001656 0.038609 0.004878
# 6 -0.000143 0.001495 0.001405 0.008139 0.004878 0.044423
#
#
# Mechanical properties :
#
#
# Convention : Reuss Voigt Hill
#
# Bulk Modulus (GPa) = 39.11178 54.50201 46.80689
# Shear Modulus (GPa) = 24.96914 30.70999 27.83956
#
# Velocity S-wave (km/s) = 3.61817 4.01261 3.82049
# Velocity P-wave (km/s) = 6.16125 7.07412 6.63340
#
# Compressibility (1/GPa) = 0.02556775
#
# Stress axis : x y z
#
# Youngs Moduli (GPa) = 89.09145 45.36255 87.63451
#
# Poissons Ratio (x) = -0.03328 0.33915
# Poissons Ratio (y) = -0.06537 0.56260
# Poissons Ratio (z) = 0.34479 0.29122
#
# Static dielectric constant tensor:
#      x y z
#    x 1.757430 -0.043960 -0.043320 
#    y -0.043960 1.678470 -0.019710 
#    z -0.043320 -0.019710 1.714640 
# 
# From -- ./inp_files/240275.got.cif
#   From: 2010.05.17/outbox.cif.g08.bks.cpg/sg2_121_cif.got.tgz:240275.got - 2010.06.03 11:33:40.
