data_PCOD9088798
_publ_section_title
;
Structure prediction by ZEFSAII (Michael W. Deem and Ramdas Pophale) SiO2 
 PCOD9088798
Probable space group: P -1
;
_chemical_formula_sum "Si O2"
_cell_formula_units_Z 16
_cell_length_a 19.699285
_cell_length_b 8.926303
_cell_length_c 11.515545
_cell_angle_alpha 50.275915
_cell_angle_beta 153.265621
_cell_angle_gamma 136.018366
_cell_volume 632.525602
_symmetry_space_group_name_H-M "P -1"
_symmetry_group_IT_number 2
_symmetry_cell_setting 'triclinic'
loop_
_space_group_symop_operation_xyz
x,y,z
-x,-y,-z
loop_
_atom_site_type_symbol
_atom_site_label
_atom_site_fract_x
_atom_site_fract_y
_atom_site_fract_z
Si Si1 0.847722 0.622617 0.956107
Si Si2 0.135826 0.690563 0.691603
Si Si3 0.432951 0.745982 0.379611
Si Si4 0.156702 0.723104 0.147065
Si Si5 0.779134 0.888069 0.528718
Si Si6 0.647129 0.129518 0.394062
Si Si7 0.790027 0.829697 0.984411
Si Si8 0.410231 0.616936 0.014148
O O1 0.651182 0.469032 0.716535
O O2 0.874316 0.768292 0.807907
O O3 0.883437 0.776472 0.046060
O O4 0.899088 0.429479 0.174461
O O5 0.000000 0.500000 0.500000
O O6 0.139850 0.921841 0.542229
O O7 0.317786 0.712006 0.916923
O O8 0.310241 0.722872 0.308563
O O9 0.616179 0.799178 0.675436
O O10 0.471117 0.959935 0.259923
O O11 0.214993 0.759735 0.351499
O O12 0.132843 0.932101 0.965974
O O13 0.000000 0.500000 0.000000
O O14 0.604262 0.701377 0.303713
O O15 0.720976 0.007627 0.480639
O O16 0.605899 0.295513 0.177446
O O17 0.716639 0.634278 0.057393
#
# Coordination Sequence:
#
# PCOD9088798 Si02
#       8
#     2   2   2   2   2   2   2   2
#     4  11  20  37  69  94 124 159 206 265 317 355
#     4  10  23  35  50  92 139 165 198 245 311 383
#     4  11  20  37  63  92 117 156 207 259 310 368
#     4  11  25  42  57  82 127 172 210 243 302 386
#     4  11  19  37  66  98 123 157 208 264 319 366
#     4  10  19  37  63  88 123 158 201 256 320 355
#     4  10  19  39  64  92 118 152 208 262 308 364
#     4  10  20  36  65  94 122 154 204 269 315 364
#
# _framework density 25.29542
#
# number of rings (size 3 to 8) (size 9 to 14) (size 15 to 20)
#    0.000    1.500    3.750    5.625    0.000    2.500 
#    4.500    3.125    0.000    0.000    0.000    0.000 
#    0.000    0.000    0.000    0.000    0.000    0.000 
#
# Total GULP energy -89316.453686 kJ/mol
# GULP energy per Si atom -5582.278355 kJ/mol
# Density = 2.523785 g / cm^3
# Si number density = 25.295420 Si / 1000 Ang^3
#
#
#
# Elastic Constant Matrix: (Units=GPa)
#
#
# Indices 1 2 3 4 5 6 
#
# 1 50.0996 41.3461 20.3598 -9.1676 1.4501 18.8988
# 2 41.3461 193.3916 54.3959 -5.5087 -15.8895 31.0156
# 3 20.3598 54.3959 101.0339 -16.5328 -13.9107 19.5165
# 4 -9.1676 -5.5087 -16.5328 54.6438 12.0577 -9.5029
# 5 1.4501 -15.8895 -13.9107 12.0577 22.8165 -4.6647
# 6 18.8988 31.0156 19.5165 -9.5029 -4.6647 48.3902
#
#
#
# Elastic Compliance Matrix: (Units=1/GPa)
#
#
# Indices 1 2 3 4 5 6 
#
# 1 0.029099 -0.005145 -0.002422 0.004786 -0.010910 -0.007202
# 2 -0.005145 0.007578 -0.002367 -0.002233 0.004962 -0.001853
# 3 -0.002422 -0.002367 0.013037 0.001840 0.005084 -0.001943
# 4 0.004786 -0.002233 0.001840 0.022485 -0.012199 0.002060
# 5 -0.010910 0.004962 0.005084 -0.012199 0.057978 0.002223
# 6 -0.007202 -0.001853 -0.001943 0.002060 0.002223 0.026068
#
#
# Mechanical properties :
#
#
# Convention : Reuss Voigt Hill
#
# Bulk Modulus (GPa) = 33.50611 64.08099 48.79355
# Shear Modulus (GPa) = 26.87296 40.39830 33.63563
#
# Velocity S-wave (km/s) = 3.26293 4.00066 3.65048
# Velocity P-wave (km/s) = 5.24121 6.83582 6.09092
#
# Compressibility (1/GPa) = 0.02984530
#
# Stress axis : x y z
#
# Youngs Moduli (GPa) = 34.36572 131.96093 76.70700
#
# Poissons Ratio (x) = 0.67895 0.18576
# Poissons Ratio (y) = 0.17681 0.18159
# Poissons Ratio (z) = 0.08322 0.31240
#
# Static dielectric constant tensor:
#      x y z
#    x 2.023320 0.063690 0.008260 
#    y 0.063690 2.233680 -0.093370 
#    z 0.008260 -0.093370 2.091830 
# 
# From -- ./inp_files/469873.got.cif
#   From: 2010.05.17/outbox.cif.g08.bks.cpg/sg2_235_cif.got.tgz:469873.got - 2010.06.03 11:33:40.
