data_PCOD9088050
_publ_section_title
;
Structure prediction by ZEFSAII (Michael W. Deem and Ramdas Pophale) SiO2 
 PCOD9088050
Probable space group: P -1
;
_chemical_formula_sum "Si O2"
_cell_formula_units_Z 14
_cell_length_a 21.810586
_cell_length_b 15.510228
_cell_length_c 5.186587
_cell_angle_alpha 121.145620
_cell_angle_beta 52.933625
_cell_angle_gamma 157.396728
_cell_volume 533.677532
_symmetry_space_group_name_H-M "P -1"
_symmetry_group_IT_number 2
_symmetry_cell_setting 'triclinic'
loop_
_space_group_symop_operation_xyz
x,y,z
-x,-y,-z
loop_
_atom_site_type_symbol
_atom_site_label
_atom_site_fract_x
_atom_site_fract_y
_atom_site_fract_z
Si Si1 0.657581 0.402516 0.665190
Si Si2 0.649153 0.643509 0.646445
Si Si3 0.871983 0.469238 0.018737
Si Si4 0.458046 0.015882 0.881706
Si Si5 0.930619 0.238546 0.532059
Si Si6 0.431983 0.256669 0.280707
Si Si7 0.995067 0.899088 0.670543
O O1 0.741910 0.412279 0.302552
O O2 0.804229 0.659031 0.675235
O O3 0.587045 0.261333 0.888260
O O4 0.484831 0.267427 0.888631
O O5 0.593710 0.472941 0.390278
O O6 0.639887 0.717197 0.559456
O O7 0.500000 0.500000 0.000000
O O8 0.848412 0.897010 0.611285
O O9 0.750613 0.228542 0.969207
O O10 0.010501 0.641116 0.162554
O O11 0.961477 0.586744 0.700872
O O12 0.500000 0.000000 0.500000
O O13 0.500000 0.000000 0.000000
O O14 0.985377 0.185489 0.361362
O O15 0.729219 0.994194 0.593787
O O16 0.000000 0.000000 0.000000
#
# Coordination Sequence:
#
# PCOD9088050 Si02
#       7
#     2   2   2   2   2   2   2
#     4  10  21  38  62  93 120 162 209 259 304 373
#     4  10  22  38  59  81 126 171 205 254 311 364
#     4  10  21  42  64  91 120 163 208 255 311 364
#     4  10  20  39  65  93 126 158 202 261 317 362
#     4  10  23  39  63  88 126 165 202 253 313 369
#     4  10  22  40  55  90 126 164 210 255 311 368
#     4  10  19  37  58  88 121 158 209 252 303 364
#
# _framework density 26.233067999999999
#
# number of rings (size 3 to 8) (size 9 to 14) (size 15 to 20)
#    0.000    2.000    1.429    2.571    6.000    1.143 
#    5.143    5.000    0.000    0.000    0.000    0.000 
#    0.000    0.000    0.000    0.000    0.000    0.000 
#
# Total GULP energy -78049.140991 kJ/mol
# GULP energy per Si atom -5574.938642 kJ/mol
# Density = 2.617336 g / cm^3
# Si number density = 26.233068 Si / 1000 Ang^3
#
#
#
# Elastic Constant Matrix: (Units=GPa)
#
#
# Indices 1 2 3 4 5 6 
#
# 1 56.0379 33.9154 11.9549 5.9720 20.7556 -17.1822
# 2 33.9154 199.8754 34.7783 -31.4106 15.5677 -28.2651
# 3 11.9549 34.7783 80.5742 -30.2795 14.2279 -8.4980
# 4 5.9720 -31.4106 -30.2795 61.0920 -7.2260 -3.3220
# 5 20.7556 15.5677 14.2279 -7.2260 44.1037 -1.3549
# 6 -17.1822 -28.2651 -8.4980 -3.3220 -1.3549 48.1021
#
#
#
# Elastic Compliance Matrix: (Units=1/GPa)
#
#
# Indices 1 2 3 4 5 6 
#
# 1 0.027580 -0.003465 -0.002303 -0.006667 -0.011903 0.006613
# 2 -0.003465 0.006664 -0.000763 0.003561 0.000194 0.002795
# 3 -0.002303 -0.000763 0.016771 0.007944 -0.002689 0.002165
# 4 -0.006667 0.003561 0.007944 0.023324 0.003225 0.002816
# 5 -0.011903 0.000194 -0.002689 0.003225 0.029493 -0.003559
# 6 0.006613 0.002795 0.002165 0.002816 -0.003559 0.025270
#
#
# Mechanical properties :
#
#
# Convention : Reuss Voigt Hill
#
# Bulk Modulus (GPa) = 26.34849 55.30942 40.82896
# Shear Modulus (GPa) = 32.29678 47.71548 40.00613
#
# Velocity S-wave (km/s) = 3.51258 4.26949 3.90940
# Velocity P-wave (km/s) = 5.14944 6.74050 5.99796
#
# Compressibility (1/GPa) = 0.03795284
#
# Stress axis : x y z
#
# Youngs Moduli (GPa) = 36.25808 150.06973 59.62788
#
# Poissons Ratio (x) = 0.51993 0.13731
# Poissons Ratio (y) = 0.12562 0.04552
# Poissons Ratio (z) = 0.08349 0.11455
#
# Static dielectric constant tensor:
#      x y z
#    x 2.254070 0.028810 -0.107770 
#    y 0.028810 2.159500 0.056190 
#    z -0.107770 0.056190 2.087060 
# 
# From -- ./inp_files/57022.got.cif
#   From: 2010.05.17/outbox.cif.g08.bks.cpg/sg2_29_cif.got.tgz:57022.got - 2010.06.03 11:33:40.
