data_PCOD9088984
_publ_section_title
;
Structure prediction by ZEFSAII (Michael W. Deem and Ramdas Pophale) SiO2 
 PCOD9088984
Probable space group: P -1
;
_chemical_formula_sum "Si O2"
_cell_formula_units_Z 14
_cell_length_a 7.788801
_cell_length_b 10.926199
_cell_length_c 19.897019
_cell_angle_alpha 23.630772
_cell_angle_beta 111.938156
_cell_angle_gamma 114.366120
_cell_volume 618.234030
_symmetry_space_group_name_H-M "P -1"
_symmetry_group_IT_number 2
_symmetry_cell_setting 'triclinic'
loop_
_space_group_symop_operation_xyz
x,y,z
-x,-y,-z
loop_
_atom_site_type_symbol
_atom_site_label
_atom_site_fract_x
_atom_site_fract_y
_atom_site_fract_z
Si Si1 0.344472 0.124652 0.960342
Si Si2 0.983818 0.758868 0.692808
Si Si3 0.941618 0.381113 0.624376
Si Si4 0.180800 0.676574 0.633190
Si Si5 0.652357 0.770715 0.440404
Si Si6 0.462193 0.147507 0.761618
Si Si7 0.902005 0.142668 0.057806
O O1 0.344929 0.494769 0.771327
O O2 0.157176 0.975724 0.967093
O O3 0.500000 0.000000 0.000000
O O4 0.378826 0.997713 0.102754
O O5 0.021816 0.608689 0.702597
O O6 0.186229 0.982454 0.624629
O O7 0.817373 0.956227 0.561673
O O8 0.941879 0.510154 0.870800
O O9 0.765155 0.521963 0.549551
O O10 0.000000 0.500000 0.500000
O O11 0.104118 0.531013 0.624667
O O12 0.927257 0.013740 0.813875
O O13 0.506324 0.526769 0.586216
O O14 0.566693 0.916093 0.290258
O O15 0.268681 0.992239 0.848923
#
# Coordination Sequence:
#
# PCOD9088984 Si02
#       7
#     2   2   2   2   2   2   2
#     4   9  20  37  62  86 122 163 208 248 298 375
#     4  10  22  39  63  95 124 157 201 268 311 356
#     4  10  19  37  64  91 116 162 215 252 294 365
#     4   9  21  38  61  91 125 158 207 254 314 359
#     4  10  22  39  64  85 127 163 202 252 312 370
#     4  10  21  39  60  88 121 167 205 246 305 378
#     4  10  21  37  65  91 120 155 214 259 299 360
#
# _framework density 22.645146
#
# number of rings (size 3 to 8) (size 9 to 14) (size 15 to 20)
#    0.000    2.286    1.429    0.000    8.000    1.714 
#    0.000    3.571   12.571    0.000    0.000    0.000 
#    0.000    0.000    0.000    0.000    0.000    0.000 
#
# Total GULP energy -77990.422159 kJ/mol
# GULP energy per Si atom -5570.744440 kJ/mol
# Density = 2.259360 g / cm^3
# Si number density = 22.645146 Si / 1000 Ang^3
#
#
#
# Elastic Constant Matrix: (Units=GPa)
#
#
# Indices 1 2 3 4 5 6 
#
# 1 50.9705 13.6890 52.9490 -1.6978 -4.5497 -10.8963
# 2 13.6890 79.0201 42.7098 27.5749 -4.9147 4.6537
# 3 52.9490 42.7098 194.0769 22.6620 3.1096 -11.0228
# 4 -1.6978 27.5749 22.6620 38.7105 6.2809 5.3061
# 5 -4.5497 -4.9147 3.1096 6.2809 50.1812 -2.3747
# 6 -10.8963 4.6537 -11.0228 5.3061 -2.3747 23.8519
#
#
#
# Elastic Compliance Matrix: (Units=1/GPa)
#
#
# Indices 1 2 3 4 5 6 
#
# 1 0.031753 -0.004106 -0.008062 0.007221 0.002557 0.010229
# 2 -0.004106 0.019235 -0.001851 -0.012842 0.003077 -0.003321
# 3 -0.008062 -0.001851 0.008307 -0.003936 -0.000873 0.001306
# 4 0.007221 -0.012842 -0.003936 0.039222 -0.005519 -0.005289
# 5 0.002557 0.003077 -0.000873 -0.005519 0.021372 0.003520
# 6 0.010229 -0.003321 0.001306 -0.005289 0.003520 0.049377
#
#
# Mechanical properties :
#
#
# Convention : Reuss Voigt Hill
#
# Bulk Modulus (GPa) = 31.99384 60.30703 46.15043
# Shear Modulus (GPa) = 24.07034 36.86337 30.46685
#
# Velocity S-wave (km/s) = 3.26381 4.03907 3.67195
# Velocity P-wave (km/s) = 5.32562 6.95997 6.19691
#
# Compressibility (1/GPa) = 0.03125602
#
# Stress axis : x y z
#
# Youngs Moduli (GPa) = 31.49319 51.98795 120.37583
#
# Poissons Ratio (x) = 0.21347 0.97053
# Poissons Ratio (y) = 0.12931 0.22283
# Poissons Ratio (z) = 0.25391 0.09624
#
# Static dielectric constant tensor:
#      x y z
#    x 1.953540 0.009140 0.023100 
#    y 0.009140 1.892840 -0.048720 
#    z 0.023100 -0.048720 2.015560 
# 
# From -- ./inp_files/281972.got.cif
#   From: 2010.05.17/outbox.cif.g08.bks.cpg/sg2_141_cif.got.tgz:281972.got - 2010.06.03 11:33:40.
