data_PCOD9088306
_publ_section_title
;
Structure prediction by ZEFSAII (Michael W. Deem and Ramdas Pophale) SiO2 
 PCOD9088306
Probable space group: P -1
;
_chemical_formula_sum "Si O2"
_cell_formula_units_Z 14
_cell_length_a 15.377359
_cell_length_b 9.413602
_cell_length_c 8.013441
_cell_angle_alpha 63.510011
_cell_angle_beta 139.854614
_cell_angle_gamma 127.487074
_cell_volume 593.022145
_symmetry_space_group_name_H-M "P -1"
_symmetry_group_IT_number 2
_symmetry_cell_setting 'triclinic'
loop_
_space_group_symop_operation_xyz
x,y,z
-x,-y,-z
loop_
_atom_site_type_symbol
_atom_site_label
_atom_site_fract_x
_atom_site_fract_y
_atom_site_fract_z
Si Si1 0.324017 0.582827 0.278056
Si Si2 0.497887 0.332871 0.175548
Si Si3 0.886207 0.490993 0.486115
Si Si4 0.590372 0.033307 0.793947
Si Si5 0.744755 0.657895 0.976881
Si Si6 0.948038 0.137239 0.266280
Si Si7 0.992066 0.718685 0.078958
O O1 0.370311 0.591584 0.532809
O O2 0.406842 0.785980 0.227804
O O3 0.139917 0.484699 0.049278
O O4 0.348246 0.443950 0.269453
O O5 0.490110 0.167444 0.146001
O O6 0.500000 0.500000 0.000000
O O7 0.341028 0.252825 0.098213
O O8 0.751655 0.506143 0.184010
O O9 0.000000 0.500000 0.500000
O O10 0.957498 0.671311 0.604989
O O11 0.865640 0.314484 0.647015
O O12 0.500000 0.000000 0.500000
O O13 0.770007 0.087199 0.038503
O O14 0.915104 0.771347 0.093113
O O15 0.987534 0.165358 0.113525
O O16 0.000000 0.000000 0.500000
#
# Coordination Sequence:
#
# PCOD9088306 Si02
#       7
#     2   2   2   2   2   2   2
#     4   9  20  40  62  83 122 162 203 246 305 366
#     4  11  23  37  62  89 121 162 206 251 305 364
#     4  10  19  37  60  88 117 158 201 244 303 366
#     4  10  22  39  57  88 122 158 202 250 298 365
#     4   9  20  37  62  91 119 159 206 251 303 364
#     4  12  23  37  64  94 125 156 207 262 305 363
#     4   9  21  37  65  84 120 162 201 242 318 359
#
# _framework density 23.607887000000002
#
# number of rings (size 3 to 8) (size 9 to 14) (size 15 to 20)
#    0.857    1.143    1.429    1.714    4.000    1.143 
#    0.000    7.143    0.000    6.857    0.000    0.000 
#    0.000    0.000    0.000    0.000    0.000    0.000 
#
# Total GULP energy -77962.843344 kJ/mol
# GULP energy per Si atom -5568.774525 kJ/mol
# Density = 2.355415 g / cm^3
# Si number density = 23.607887 Si / 1000 Ang^3
#
#
#
# Elastic Constant Matrix: (Units=GPa)
#
#
# Indices 1 2 3 4 5 6 
#
# 1 57.4530 4.9606 15.6060 -10.9885 3.6231 0.6955
# 2 4.9606 83.5913 -12.0427 -15.9766 -24.1639 -4.9782
# 3 15.6060 -12.0427 77.3060 -18.6903 6.7522 16.2987
# 4 -10.9885 -15.9766 -18.6903 38.5059 2.9339 -4.2936
# 5 3.6231 -24.1639 6.7522 2.9339 30.9494 -3.1808
# 6 0.6955 -4.9782 16.2987 -4.2936 -3.1808 24.2101
#
#
#
# Elastic Compliance Matrix: (Units=1/GPa)
#
#
# Indices 1 2 3 4 5 6 
#
# 1 0.019329 -0.001743 -0.003381 0.003563 -0.003060 0.001592
# 2 -0.001743 0.018234 0.002870 0.007992 0.013578 0.005069
# 3 -0.003381 0.002870 0.018653 0.008327 -0.003336 -0.010832
# 4 0.003563 0.007992 0.008327 0.034515 0.000959 0.002182
# 5 -0.003060 0.013578 -0.003336 0.000959 0.045059 0.011215
# 6 0.001592 0.005069 -0.010832 0.002182 0.011215 0.051455
#
#
# Mechanical properties :
#
#
# Convention : Reuss Voigt Hill
#
# Bulk Modulus (GPa) = 19.33871 26.15534 22.74703
# Shear Modulus (GPa) = 23.92467 32.72149 28.32308
#
# Velocity S-wave (km/s) = 3.18688 3.72700 3.46747
# Velocity P-wave (km/s) = 4.66380 5.44277 5.06827
#
# Compressibility (1/GPa) = 0.05170975
#
# Stress axis : x y z
#
# Youngs Moduli (GPa) = 51.73460 54.84226 53.60955
#
# Poissons Ratio (x) = 0.09559 0.18123
# Poissons Ratio (y) = 0.09017 -0.15386
# Poissons Ratio (z) = 0.17490 -0.15740
#
# Static dielectric constant tensor:
#      x y z
#    x 2.038080 0.033770 0.059250 
#    y 0.033770 1.891440 -0.012380 
#    z 0.059250 -0.012380 1.966260 
# 
# From -- ./inp_files/327376.got.cif
#   From: 2010.05.17/outbox.cif.g08.bks.cpg/sg2_164_cif.got.tgz:327376.got - 2010.06.03 11:33:40.
