data_PCOD9088515
_publ_section_title
;
Structure prediction by ZEFSAII (Michael W. Deem and Ramdas Pophale) SiO2 
 PCOD9088515
Probable space group: P -1
;
_chemical_formula_sum "Si O2"
_cell_formula_units_Z 16
_cell_length_a 8.651704
_cell_length_b 11.396875
_cell_length_c 11.089067
_cell_angle_alpha 60.902845
_cell_angle_beta 62.814639
_cell_angle_gamma 98.995727
_cell_volume 742.280581
_symmetry_space_group_name_H-M "P -1"
_symmetry_group_IT_number 2
_symmetry_cell_setting 'triclinic'
loop_
_space_group_symop_operation_xyz
x,y,z
-x,-y,-z
loop_
_atom_site_type_symbol
_atom_site_label
_atom_site_fract_x
_atom_site_fract_y
_atom_site_fract_z
Si Si1 0.794049 0.771042 0.451085
Si Si2 0.129089 0.861849 0.476364
Si Si3 0.759294 0.655088 0.848136
Si Si4 0.139136 0.602373 0.009966
Si Si5 0.505634 0.590906 0.212776
Si Si6 0.165017 0.354711 0.740231
Si Si7 0.207559 0.619121 0.430297
Si Si8 0.568217 0.821851 0.679480
O O1 0.664649 0.588313 0.622993
O O2 0.869565 0.767042 0.292320
O O3 0.642052 0.832348 0.509909
O O4 0.981288 0.866704 0.424569
O O5 0.190451 0.747605 0.447302
O O6 0.986197 0.787823 0.680530
O O7 0.312959 0.019438 0.372091
O O8 0.786039 0.504553 0.892913
O O9 0.637869 0.709424 0.777020
O O10 0.640163 0.627179 0.028476
O O11 0.020768 0.659495 0.109705
O O12 0.333970 0.742861 0.814336
O O13 0.000000 0.500000 0.000000
O O14 0.665820 0.635280 0.238351
O O15 0.379255 0.677979 0.238607
O O16 0.248382 0.519307 0.563424
O O17 0.000000 0.500000 0.500000
#
# Coordination Sequence:
#
# PCOD9088515 Si02
#       8
#     2   2   2   2   2   2   2   2
#     4  10  19  37  61  91 125 162 206 257 319 370
#     4  11  23  41  64  94 130 166 208 272 321 372
#     4  11  22  39  66  95 124 165 217 260 310 381
#     4  12  23  40  67  98 128 161 221 264 309 379
#     4  11  22  37  64  97 124 164 216 267 314 365
#     4  11  22  37  64  94 130 162 212 270 312 368
#     4  11  21  37  66  97 124 163 217 261 311 377
#     4  11  25  41  65  94 130 166 211 266 329 369
#
# _framework density 21.55519
#
# number of rings (size 3 to 8) (size 9 to 14) (size 15 to 20)
#    0.000    1.000    6.250    3.375    3.500    0.000 
#    0.000    4.375    5.500    3.750    0.000    0.000 
#    0.000    0.000    0.000    0.000    0.000    0.000 
#
# Total GULP energy -89250.414920 kJ/mol
# GULP energy per Si atom -5578.150933 kJ/mol
# Density = 2.150613 g / cm^3
# Si number density = 21.555190 Si / 1000 Ang^3
#
#
#
# Elastic Constant Matrix: (Units=GPa)
#
#
# Indices 1 2 3 4 5 6 
#
# 1 61.7719 45.5357 52.4257 10.5590 -29.8280 -0.1902
# 2 45.5357 149.4249 82.0205 31.2006 -34.6693 10.7945
# 3 52.4257 82.0205 104.9284 37.3072 -47.2360 9.4960
# 4 10.5590 31.2006 37.3072 42.4110 -6.4324 -12.5010
# 5 -29.8280 -34.6693 -47.2360 -6.4324 41.0635 2.5533
# 6 -0.1902 10.7945 9.4960 -12.5010 2.5533 27.6073
#
#
#
# Elastic Compliance Matrix: (Units=1/GPa)
#
#
# Indices 1 2 3 4 5 6 
#
# 1 0.037762 -0.003640 -0.038158 0.033685 -0.016223 0.031562
# 2 -0.003640 0.012293 -0.002606 -0.007504 0.004040 -0.007707
# 3 -0.038158 -0.002606 0.139544 -0.127637 0.117816 -0.115935
# 4 0.033685 -0.007504 -0.127637 0.153324 -0.112563 0.126907
# 5 -0.016223 0.004040 0.117816 -0.112563 0.140475 -0.106179
# 6 0.031562 -0.007707 -0.115935 0.126907 -0.106179 0.146616
#
#
# Mechanical properties :
#
#
# Convention : Reuss Voigt Hill
#
# Bulk Modulus (GPa) = 9.92166 75.12100 42.52133
# Shear Modulus (GPa) = 6.64522 31.29258 18.96890
#
# Velocity S-wave (km/s) = 1.75772 3.81431 2.96972
# Velocity P-wave (km/s) = 2.95505 7.37053 5.61503
#
# Compressibility (1/GPa) = 0.10078956
#
# Stress axis : x y z
#
# Youngs Moduli (GPa) = 26.48149 81.34528 7.16621
#
# Poissons Ratio (x) = 0.29610 0.27345
# Poissons Ratio (y) = 0.09639 0.01868
# Poissons Ratio (z) = 1.01049 0.21202
#
# Static dielectric constant tensor:
#      x y z
#    x 1.889840 -0.034550 -0.019480 
#    y -0.034550 1.832690 0.072720 
#    z -0.019480 0.072720 1.878990 
# 
# From -- ./inp_files/389715.got.cif
#   From: 2010.05.17/outbox.cif.g08.bks.cpg/sg2_195_cif.got.tgz:389715.got - 2010.06.03 11:33:40.
