data_PCOD9088238
_publ_section_title
;
Structure prediction by ZEFSAII (Michael W. Deem and Ramdas Pophale) SiO2 
 PCOD9088238
Probable space group: P -1
;
_chemical_formula_sum "Si O2"
_cell_formula_units_Z 12
_cell_length_a 10.856598
_cell_length_b 7.489918
_cell_length_c 13.655232
_cell_angle_alpha 43.400455
_cell_angle_beta 48.887176
_cell_angle_gamma 80.364674
_cell_volume 460.032005
_symmetry_space_group_name_H-M "P -1"
_symmetry_group_IT_number 2
_symmetry_cell_setting 'triclinic'
loop_
_space_group_symop_operation_xyz
x,y,z
-x,-y,-z
loop_
_atom_site_type_symbol
_atom_site_label
_atom_site_fract_x
_atom_site_fract_y
_atom_site_fract_z
Si Si1 0.810787 0.721187 0.118704
Si Si2 0.054826 0.682225 0.795281
Si Si3 0.613285 0.414147 0.142018
Si Si4 0.353106 0.669280 0.149031
Si Si5 0.172523 0.296164 0.569490
Si Si6 0.451483 0.101518 0.748573
O O1 0.887856 0.528003 0.205064
O O2 0.652627 0.496755 0.203934
O O3 0.695757 0.792318 0.227662
O O4 0.981782 0.047862 0.838475
O O5 0.217093 0.052800 0.594662
O O6 0.000000 0.500000 0.000000
O O7 0.849067 0.633275 0.890451
O O8 0.479067 0.521853 0.127668
O O9 0.525758 0.052563 0.297928
O O10 0.162874 0.442962 0.412025
O O11 0.500000 0.000000 0.000000
O O12 0.332100 0.796762 0.007868
O O13 0.347042 0.605272 0.417681
#
# Coordination Sequence:
#
# PCOD9088238 Si02
#       6
#     2   2   2   2   2   2
#     4  10  21  43  58  82 121 148 191 234 283 339
#     4   8  19  39  59  82 114 153 188 233 282 335
#     4  10  19  39  60  82 118 149 188 238 281 331
#     4  10  19  37  60  84 115 152 187 232 286 338
#     4   9  19  38  60  83 114 156 186 230 288 334
#     4  11  22  37  60  88 114 152 186 239 281 335
#
# _framework density 26.085142000000001
#
# number of rings (size 3 to 8) (size 9 to 14) (size 15 to 20)
#    0.000    2.667    3.333    0.500    0.000    2.000 
#   12.000   10.833    0.000    0.000    0.000    0.000 
#    0.000    0.000    0.000    0.000    0.000    0.000 
#
# Total GULP energy -66951.828194 kJ/mol
# GULP energy per Si atom -5579.319016 kJ/mol
# Density = 2.602577 g / cm^3
# Si number density = 26.085142 Si / 1000 Ang^3
#
#
#
# Elastic Constant Matrix: (Units=GPa)
#
#
# Indices 1 2 3 4 5 6 
#
# 1 68.1258 44.4941 20.9960 4.1945 -6.1936 -16.8977
# 2 44.4941 194.4958 32.8087 -27.5108 -8.2204 -16.7598
# 3 20.9960 32.8087 160.2606 -1.2493 -5.1561 8.2123
# 4 4.1945 -27.5108 -1.2493 38.3383 10.1529 -7.5767
# 5 -6.1936 -8.2204 -5.1561 10.1529 39.1481 -1.0740
# 6 -16.8977 -16.7598 8.2123 -7.5767 -1.0740 63.7416
#
#
#
# Elastic Compliance Matrix: (Units=1/GPa)
#
#
# Indices 1 2 3 4 5 6 
#
# 1 0.019790 -0.004573 -0.001775 -0.005714 0.003519 0.003653
# 2 -0.004573 0.007336 -0.000963 0.006281 -0.000896 0.001572
# 3 -0.001775 -0.000963 0.006768 -0.000756 0.000558 -0.001676
# 4 -0.005714 0.006281 -0.000756 0.034253 -0.008454 0.004163
# 5 0.003519 -0.000896 0.000558 -0.008454 0.028181 0.000095
# 6 0.003653 0.001572 -0.001676 0.004163 0.000095 0.017782
#
#
# Mechanical properties :
#
#
# Convention : Reuss Voigt Hill
#
# Bulk Modulus (GPa) = 51.88933 68.83109 60.36021
# Shear Modulus (GPa) = 36.99421 49.88449 43.43935
#
# Velocity S-wave (km/s) = 3.77000 4.37781 4.08522
# Velocity P-wave (km/s) = 6.23586 7.21097 6.74107
#
# Compressibility (1/GPa) = 0.01927179
#
# Stress axis : x y z
#
# Youngs Moduli (GPa) = 50.53044 136.31184 147.76402
#
# Poissons Ratio (x) = 0.62330 0.26230
# Poissons Ratio (y) = 0.23106 0.14233
# Poissons Ratio (z) = 0.08970 0.13130
#
# Static dielectric constant tensor:
#      x y z
#    x 2.076400 -0.082070 -0.027160 
#    y -0.082070 2.241740 0.122310 
#    z -0.027160 0.122310 2.239200 
# 
# From -- ./inp_files/512626.got.cif
#   From: 2010.05.17/outbox.cif.g08.bks.cpg/sg2_257_cif.got.tgz:512626.got - 2010.06.03 11:33:40.
