data_PCOD9088102
_publ_section_title
;
Structure prediction by ZEFSAII (Michael W. Deem and Ramdas Pophale) SiO2 
 PCOD9088102
Probable space group: P -1
;
_chemical_formula_sum "Si O2"
_cell_formula_units_Z 16
_cell_length_a 9.420122
_cell_length_b 5.063272
_cell_length_c 21.179104
_cell_angle_alpha 78.477250
_cell_angle_beta 45.540465
_cell_angle_gamma 69.589122
_cell_volume 674.240312
_symmetry_space_group_name_H-M "P -1"
_symmetry_group_IT_number 2
_symmetry_cell_setting 'triclinic'
loop_
_space_group_symop_operation_xyz
x,y,z
-x,-y,-z
loop_
_atom_site_type_symbol
_atom_site_label
_atom_site_fract_x
_atom_site_fract_y
_atom_site_fract_z
Si Si1 0.977386 0.720504 0.552812
Si Si2 0.379503 0.519429 0.307514
Si Si3 0.296225 0.132113 0.627826
Si Si4 0.909736 0.446957 0.802074
Si Si5 0.196280 0.665208 0.887377
Si Si6 0.921246 0.295997 0.943230
Si Si7 0.424377 0.501768 0.441930
Si Si8 0.121665 0.937463 0.271816
O O1 0.763991 0.688691 0.647885
O O2 0.000000 0.500000 0.500000
O O3 0.185257 0.602167 0.535147
O O4 0.000000 0.000000 0.500000
O O5 0.599825 0.369887 0.214870
O O6 0.409200 0.588803 0.367959
O O7 0.260880 0.806530 0.294060
O O8 0.151458 0.244487 0.729806
O O9 0.431879 0.346575 0.573292
O O10 0.108997 0.098208 0.643265
O O11 0.468065 0.830857 0.583611
O O12 0.843993 0.454479 0.894448
O O13 0.793211 0.278950 0.802306
O O14 0.897443 0.748142 0.760498
O O15 0.103644 0.415855 0.907137
O O16 0.020560 0.963113 0.915668
O O17 0.234699 0.656834 0.951207
#
# Coordination Sequence:
#
# PCOD9088102 Si02
#       8
#     2   2   2   2   2   2   2   2
#     4  10  23  40  58  90 125 153 198 258 310 356
#     4  11  24  42  62  93 123 162 197 257 308 361
#     4  10  19  38  59  89 113 157 211 238 290 363
#     4  10  19  37  59  82 124 166 193 239 299 359
#     4  10  22  36  64  92 123 149 205 251 310 339
#     4  10  20  39  59  96 120 153 199 264 284 353
#     4  11  20  37  66  87 109 157 213 249 294 352
#     4  10  23  37  59  88 129 161 200 241 305 363
#
# _framework density 23.730412000000001
#
# number of rings (size 3 to 8) (size 9 to 14) (size 15 to 20)
#    0.750    1.000    1.250    3.750    0.000    6.000 
#    0.000    2.500    0.000    0.000    0.000    0.000 
#    0.000    0.000    0.000    0.000    0.000    0.000 
#
# Total GULP energy -89365.467526 kJ/mol
# GULP energy per Si atom -5585.341720 kJ/mol
# Density = 2.367640 g / cm^3
# Si number density = 23.730412 Si / 1000 Ang^3
#
#
#
# Elastic Constant Matrix: (Units=GPa)
#
#
# Indices 1 2 3 4 5 6 
#
# 1 72.5238 33.6588 1.7529 0.3513 20.3168 -2.9919
# 2 33.6588 151.6767 14.1018 -14.0097 17.1843 15.2422
# 3 1.7529 14.1018 78.0768 -6.1438 9.7934 1.7763
# 4 0.3513 -14.0097 -6.1438 19.1118 -17.2042 5.4633
# 5 20.3168 17.1843 9.7934 -17.2042 25.1745 -1.1835
# 6 -2.9919 15.2422 1.7763 5.4633 -1.1835 36.1598
#
#
#
# Elastic Compliance Matrix: (Units=1/GPa)
#
#
# Indices 1 2 3 4 5 6 
#
# 1 0.058547 -0.013834 0.006431 -0.134796 -0.131185 0.026432
# 2 -0.013834 0.010994 -0.002206 0.036836 0.029209 -0.010280
# 3 0.006431 -0.002206 0.014259 -0.015769 -0.019890 0.002493
# 4 -0.134796 0.036836 -0.015769 0.461635 0.401376 -0.082517
# 5 -0.131185 0.029209 -0.019890 0.401376 0.404419 -0.069596
# 6 0.026432 -0.010280 0.002493 -0.082517 -0.069596 0.044242
#
#
# Mechanical properties :
#
#
# Convention : Reuss Voigt Hill
#
# Bulk Modulus (GPa) = 15.48452 44.58937 30.03694
# Shear Modulus (GPa) = 4.83164 32.94014 18.88589
#
# Velocity S-wave (km/s) = 1.42845 3.72976 2.82415
# Velocity P-wave (km/s) = 3.04302 6.11383 4.82902
#
# Compressibility (1/GPa) = 0.06458064
#
# Stress axis : x y z
#
# Youngs Moduli (GPa) = 17.08026 90.95566 70.12961
#
# Poissons Ratio (x) = 1.25831 -0.45098
# Poissons Ratio (y) = 0.23629 0.15473
# Poissons Ratio (z) = -0.10984 0.20068
#
# Static dielectric constant tensor:
#      x y z
#    x 1.916700 -0.036020 0.050250 
#    y -0.036020 1.916580 -0.017290 
#    z 0.050250 -0.017290 1.976650 
# 
# From -- ./inp_files/609056.got.cif
#   From: 2010.05.17/outbox.cif.g08.bks.cpg/sg2_305_cif.got.tgz:609056.got - 2010.06.03 11:33:40.
