data_PCOD9088842
_publ_section_title
;
Structure prediction by ZEFSAII (Michael W. Deem and Ramdas Pophale) SiO2 
 PCOD9088842
Probable space group: P -1
;
_chemical_formula_sum "Si O2"
_cell_formula_units_Z 13
_cell_length_a 9.149948
_cell_length_b 7.875085
_cell_length_c 9.926209
_cell_angle_alpha 63.278076
_cell_angle_beta 66.502047
_cell_angle_gamma 109.380568
_cell_volume 457.827658
_symmetry_space_group_name_H-M "P -1"
_symmetry_group_IT_number 2
_symmetry_cell_setting 'triclinic'
loop_
_space_group_symop_operation_xyz
x,y,z
-x,-y,-z
loop_
_atom_site_type_symbol
_atom_site_label
_atom_site_fract_x
_atom_site_fract_y
_atom_site_fract_z
Si Si1 0.583824 0.349680 0.547120
Si Si2 0.449860 0.242224 0.935927
Si Si3 0.175420 0.949434 0.746475
Si Si4 0.093751 0.857120 0.528683
Si Si5 0.433006 0.681964 0.842730
Si Si6 0.000000 0.500000 0.000000
Si Si7 0.000429 0.247322 0.690662
O O1 0.500000 0.500000 0.500000
O O2 0.543682 0.275388 0.744783
O O3 0.823490 0.503707 0.387361
O O4 0.582662 0.882917 0.396510
O O5 0.421553 0.449128 0.892720
O O6 0.586724 0.299672 0.995370
O O7 0.236154 0.970755 0.116372
O O8 0.059670 0.757236 0.730177
O O9 0.064539 0.750138 0.972318
O O10 0.101251 0.109444 0.710124
O O11 0.002429 0.695520 0.487537
O O12 0.337268 0.072672 0.356210
O O13 0.000000 0.000000 0.500000
O O14 0.244768 0.633397 0.855737
#
# Coordination Sequence:
#
# PCOD9088842 Si02
#       7
#     2   2   2   2   2   1   2
#     4  10  21  35  59  96 121 151 201 268 309 343
#     4  10  19  37  63  91 117 154 215 257 298 354
#     4  10  21  37  55  89 126 159 195 250 310 367
#     4   9  18  36  64  88 114 152 212 261 291 345
#     4  10  21  36  62  93 119 164 203 252 303 362
#     4  12  24  38  56  90 136 164 194 238 316 384
#     4   9  18  35  62  90 112 152 205 262 302 339
#
# _framework density 28.394966
#
# number of rings (size 3 to 8) (size 9 to 14) (size 15 to 20)
#    0.000    2.154    1.538    2.769    4.308    3.077 
#    2.769    0.769    0.000    1.846    0.000    0.000 
#    0.000    0.000    0.000    0.000    0.000    0.000 
#
# Total GULP energy -72551.435747 kJ/mol
# GULP energy per Si atom -5580.879673 kJ/mol
# Density = 2.833034 g / cm^3
# Si number density = 28.394966 Si / 1000 Ang^3
#
#
#
# Elastic Constant Matrix: (Units=GPa)
#
#
# Indices 1 2 3 4 5 6 
#
# 1 178.0397 41.3148 22.5247 -18.2806 -18.9369 24.6574
# 2 41.3148 123.2082 31.0158 -14.7827 -0.5947 33.4533
# 3 22.5247 31.0158 106.9583 7.6813 -25.5469 39.5205
# 4 -18.2806 -14.7827 7.6813 50.7850 12.2611 -8.9493
# 5 -18.9369 -0.5947 -25.5469 12.2611 28.8638 -13.9881
# 6 24.6574 33.4533 39.5205 -8.9493 -13.9881 53.6398
#
#
#
# Elastic Compliance Matrix: (Units=1/GPa)
#
#
# Indices 1 2 3 4 5 6 
#
# 1 0.006643 -0.001972 0.000453 0.000612 0.003963 -0.001022
# 2 -0.001972 0.011504 -0.003218 0.004180 -0.008277 -0.005359
# 3 0.000453 -0.003218 0.017688 -0.008689 0.015374 -0.008674
# 4 0.000612 0.004180 -0.008689 0.027183 -0.016998 0.003617
# 5 0.003963 -0.008277 0.015374 -0.016998 0.060275 0.004895
# 6 -0.001022 -0.005359 -0.008674 0.003617 0.004895 0.030726
#
#
# Mechanical properties :
#
#
# Convention : Reuss Voigt Hill
#
# Bulk Modulus (GPa) = 37.93204 66.43520 52.18362
# Shear Modulus (GPa) = 29.02264 47.54780 38.28522
#
# Velocity S-wave (km/s) = 3.20051 4.09652 3.67592
# Velocity P-wave (km/s) = 5.20052 6.76927 6.03607
#
# Compressibility (1/GPa) = 0.02636294
#
# Stress axis : x y z
#
# Youngs Moduli (GPa) = 150.53808 86.92653 56.53450
#
# Poissons Ratio (x) = 0.17138 -0.02563
# Poissons Ratio (y) = 0.29679 0.18192
# Poissons Ratio (z) = -0.06823 0.27972
#
# Static dielectric constant tensor:
#      x y z
#    x 2.370450 -0.708030 -0.571280 
#    y -0.708030 3.301200 0.735410 
#    z -0.571280 0.735410 2.331190 
# 
# From -- ./inp_files/384097.got.cif
#   From: 2010.05.17/outbox.cif.g08.bks.cpg/sg2_193_cif.got.tgz:384097.got - 2010.06.03 11:33:40.
