data_PCOD9088454
_publ_section_title
;
Structure prediction by ZEFSAII (Michael W. Deem and Ramdas Pophale) SiO2 
 PCOD9088454
Probable space group: P -1
;
_chemical_formula_sum "Si O2"
_cell_formula_units_Z 13
_cell_length_a 6.739338
_cell_length_b 15.319997
_cell_length_c 9.262628
_cell_angle_alpha 141.660803
_cell_angle_beta 106.200022
_cell_angle_gamma 55.463847
_cell_volume 462.285255
_symmetry_space_group_name_H-M "P -1"
_symmetry_group_IT_number 2
_symmetry_cell_setting 'triclinic'
loop_
_space_group_symop_operation_xyz
x,y,z
-x,-y,-z
loop_
_atom_site_type_symbol
_atom_site_label
_atom_site_fract_x
_atom_site_fract_y
_atom_site_fract_z
Si Si1 0.293430 0.742068 0.147107
Si Si2 0.751204 0.687801 0.349514
Si Si3 0.000000 0.500000 0.500000
Si Si4 0.956769 0.867379 0.498957
Si Si5 0.657976 0.851856 0.028956
Si Si6 0.690169 0.577749 0.814189
Si Si7 0.399360 0.829102 0.688253
O O1 0.534231 0.687571 0.226744
O O2 0.093674 0.753896 0.233919
O O3 0.156920 0.936923 0.314543
O O4 0.444684 0.605621 0.871909
O O5 0.750129 0.848803 0.503957
O O6 0.689145 0.678257 0.495970
O O7 0.048020 0.542692 0.204003
O O8 0.083809 0.311283 0.202202
O O9 0.227675 0.480149 0.408952
O O10 0.181979 0.804226 0.581245
O O11 0.633317 0.768429 0.056755
O O12 0.427430 0.887532 0.924850
O O13 0.662563 0.016355 0.231643
#
# Coordination Sequence:
#
# PCOD9088454 Si02
#       7
#     2   2   1   2   2   2   2
#     4  10  22  39  58  85 121 154 196 240 289 340
#     4  11  20  38  62  86 119 154 192 241 294 345
#     4   8  18  36  62  86 114 152 200 228 294 354
#     4  10  23  38  58  92 116 151 200 240 283 352
#     4   9  18  36  63  86 112 155 191 237 293 340
#     4  10  19  37  61  88 115 156 195 235 295 348
#     4  10  19  38  64  86 117 153 193 242 289 343
#
# _framework density 28.121167
#
# number of rings (size 3 to 8) (size 9 to 14) (size 15 to 20)
#    0.923    1.231    1.538    1.846    0.000    3.077 
#    0.000   12.308    0.000    0.000    0.000    0.000 
#    0.000    0.000    0.000    0.000    0.000    0.000 
#
# Total GULP energy -72439.433271 kJ/mol
# GULP energy per Si atom -5572.264098 kJ/mol
# Density = 2.805716 g / cm^3
# Si number density = 28.121167 Si / 1000 Ang^3
#
#
#
# Elastic Constant Matrix: (Units=GPa)
#
#
# Indices 1 2 3 4 5 6 
#
# 1 131.4086 18.1650 31.9372 -23.8275 -17.2013 -11.4276
# 2 18.1650 57.5623 2.7584 -3.8372 4.7052 -0.8813
# 3 31.9372 2.7584 81.6950 -3.2411 -34.0796 -1.1325
# 4 -23.8275 -3.8372 -3.2411 55.6267 9.3778 1.5757
# 5 -17.2013 4.7052 -34.0796 9.3778 46.7471 3.5233
# 6 -11.4276 -0.8813 -1.1325 1.5757 3.5233 37.0399
#
#
#
# Elastic Compliance Matrix: (Units=1/GPa)
#
#
# Indices 1 2 3 4 5 6 
#
# 1 0.009743 -0.002673 -0.003330 0.003636 0.000498 0.002638
# 2 -0.002673 0.018633 -0.001160 0.000723 -0.003843 -0.000082
# 3 -0.003330 -0.001160 0.019059 -0.002614 0.013434 -0.001639
# 4 0.003636 0.000723 -0.002614 0.020213 -0.004745 0.000651
# 5 0.000498 -0.003843 0.013434 -0.004745 0.032892 -0.002454
# 6 0.002638 -0.000082 -0.001639 0.000651 -0.002454 0.027966
#
#
# Mechanical properties :
#
#
# Convention : Reuss Voigt Hill
#
# Bulk Modulus (GPa) = 30.20311 41.82078 36.01195
# Shear Modulus (GPa) = 32.49555 42.40311 37.44933
#
# Velocity S-wave (km/s) = 3.40303 3.88734 3.65322
# Velocity P-wave (km/s) = 5.11903 5.92052 5.53430
#
# Compressibility (1/GPa) = 0.03310917
#
# Stress axis : x y z
#
# Youngs Moduli (GPa) = 102.64273 53.66926 52.46814
#
# Poissons Ratio (x) = 0.14345 0.17471
# Poissons Ratio (y) = 0.27435 0.06086
# Poissons Ratio (z) = 0.34178 0.06226
#
# Static dielectric constant tensor:
#      x y z
#    x 2.082760 0.102470 0.047230 
#    y 0.102470 1.884580 0.003900 
#    z 0.047230 0.003900 2.427270 
# 
# From -- ./inp_files/368760.got.cif
#   From: 2010.05.17/outbox.cif.g08.bks.cpg/sg2_185_cif.got.tgz:368760.got - 2010.06.03 11:33:40.
