data_PCOD9088160
_publ_section_title
;
Structure prediction by ZEFSAII (Michael W. Deem and Ramdas Pophale) SiO2 
 PCOD9088160
Probable space group: P -1
;
_chemical_formula_sum "Si O2"
_cell_formula_units_Z 12
_cell_length_a 29.342242
_cell_length_b 12.404305
_cell_length_c 8.587641
_cell_angle_alpha 35.590177
_cell_angle_beta 36.039131
_cell_angle_gamma 18.970960
_cell_volume 578.272114
_symmetry_space_group_name_H-M "P -1"
_symmetry_group_IT_number 2
_symmetry_cell_setting 'triclinic'
loop_
_space_group_symop_operation_xyz
x,y,z
-x,-y,-z
loop_
_atom_site_type_symbol
_atom_site_label
_atom_site_fract_x
_atom_site_fract_y
_atom_site_fract_z
Si Si1 0.226895 0.778035 0.864801
Si Si2 0.546040 0.807764 0.816371
Si Si3 0.757407 0.553305 0.012752
Si Si4 0.187982 0.588886 0.620102
Si Si5 0.015143 0.271676 0.145038
Si Si6 0.384719 0.802055 0.339310
O O1 0.166767 0.733919 0.978406
O O2 0.293207 0.808178 0.541310
O O3 0.350561 0.441785 0.028918
O O4 0.111685 0.091407 0.934354
O O5 0.647448 0.697810 0.540528
O O6 0.405327 0.199142 0.802425
O O7 0.475632 0.749411 0.032746
O O8 0.824446 0.430290 0.141845
O O9 0.723833 0.827155 0.723445
O O10 0.129788 0.538583 0.733565
O O11 0.097341 0.954783 0.396984
O O12 0.000000 0.500000 0.000000
O O13 0.500000 0.500000 0.500000
#
# Coordination Sequence:
#
# PCOD9088160 Si02
#       6
#     2   2   2   2   2   2
#     4  10  19  37  59  88 115 156 195 229 293 344
#     4   8  18  36  58  85 122 149 182 230 290 353
#     4  10  20  34  62  93 119 147 185 246 292 342
#     4  10  21  41  59  87 116 153 198 235 293 343
#     4  10  24  43  61  77 113 162 203 241 282 341
#     4   8  18  32  53  86 122 148 181 223 284 345
#
# _framework density 20.751476
#
# number of rings (size 3 to 8) (size 9 to 14) (size 15 to 20)
#    1.000    1.667    0.000    1.000    0.000    6.000 
#    6.000    2.500    0.000    0.000    0.000    0.000 
#    0.000    0.000    0.000    0.000    0.000    0.000 
#
# Total GULP energy -66809.011547 kJ/mol
# GULP energy per Si atom -5567.417629 kJ/mol
# Density = 2.070425 g / cm^3
# Si number density = 20.751476 Si / 1000 Ang^3
#
#
#
# Elastic Constant Matrix: (Units=GPa)
#
#
# Indices 1 2 3 4 5 6 
#
# 1 75.2298 45.6050 40.3816 -18.2175 -14.1379 24.5204
# 2 45.6050 84.2606 31.8814 -1.3158 -12.3468 10.2544
# 3 40.3816 31.8814 83.7487 -14.8329 -15.2598 6.5799
# 4 -18.2175 -1.3158 -14.8329 19.3034 7.4261 -16.2137
# 5 -14.1379 -12.3468 -15.2598 7.4261 26.9846 -1.9281
# 6 24.5204 10.2544 6.5799 -16.2137 -1.9281 30.0486
#
#
#
# Elastic Compliance Matrix: (Units=1/GPa)
#
#
# Indices 1 2 3 4 5 6 
#
# 1 0.033036 -0.012562 -0.007473 0.010624 0.003333 -0.015089
# 2 -0.012562 0.022128 -0.004665 -0.023915 0.006862 -0.008743
# 3 -0.007473 -0.004665 0.019762 0.018917 0.000894 0.013627
# 4 0.010624 -0.023915 0.018917 0.147762 -0.030116 0.073147
# 5 0.003333 0.006862 0.000894 -0.030116 0.049427 -0.018336
# 6 -0.015089 -0.008743 0.013627 0.073147 -0.018336 0.083884
#
#
# Mechanical properties :
#
#
# Convention : Reuss Voigt Hill
#
# Bulk Modulus (GPa) = 39.17491 53.21945 46.19718
# Shear Modulus (GPa) = 12.07995 23.62537 17.85266
#
# Velocity S-wave (km/s) = 2.41534 3.37781 2.93628
# Velocity P-wave (km/s) = 5.16697 6.39645 5.81430
#
# Compressibility (1/GPa) = 0.02552654
#
# Stress axis : x y z
#
# Youngs Moduli (GPa) = 30.26971 45.19113 50.60187
#
# Poissons Ratio (x) = 0.56771 0.37813
# Poissons Ratio (y) = 0.38026 0.23605
# Poissons Ratio (z) = 0.22620 0.21081
#
# Static dielectric constant tensor:
#      x y z
#    x 1.736940 -0.017520 0.006320 
#    y -0.017520 1.789630 0.030650 
#    z 0.006320 0.030650 1.800870 
# 
# From -- ./inp_files/260816.got.cif
#   From: 2010.05.17/outbox.cif.g08.bks.cpg/sg2_131_cif.got.tgz:260816.got - 2010.06.03 11:33:40.
