data_PCOD9088381
_publ_section_title
;
Structure prediction by ZEFSAII (Michael W. Deem and Ramdas Pophale) SiO2 
 PCOD9088381
Probable space group: P -1
;
_chemical_formula_sum "Si O2"
_cell_formula_units_Z 16
_cell_length_a 18.760047
_cell_length_b 14.617017
_cell_length_c 8.080260
_cell_angle_alpha 58.556347
_cell_angle_beta 124.847554
_cell_angle_gamma 158.947412
_cell_volume 652.708583
_symmetry_space_group_name_H-M "P -1"
_symmetry_group_IT_number 2
_symmetry_cell_setting 'triclinic'
loop_
_space_group_symop_operation_xyz
x,y,z
-x,-y,-z
loop_
_atom_site_type_symbol
_atom_site_label
_atom_site_fract_x
_atom_site_fract_y
_atom_site_fract_z
Si Si1 0.079550 0.747667 0.237363
Si Si2 0.842274 0.284100 0.286115
Si Si3 0.899201 0.583582 0.659380
Si Si4 0.951783 0.849279 0.700011
Si Si5 0.710500 0.449534 0.182792
Si Si6 0.526993 0.019585 0.719681
Si Si7 0.767389 0.733957 0.869559
Si Si8 0.660011 0.773515 0.912813
O O1 0.086126 0.696842 0.470460
O O2 0.994231 0.555302 0.193969
O O3 0.898887 0.632939 0.133394
O O4 0.296262 0.049308 0.204022
O O5 0.630209 0.096449 0.252266
O O6 0.884787 0.236723 0.256566
O O7 0.903818 0.686718 0.693532
O O8 0.800005 0.521924 0.415364
O O9 0.743189 0.315961 0.761597
O O10 0.777373 0.701609 0.728877
O O11 0.000000 0.000000 0.500000
O O12 0.156236 0.054474 0.882467
O O13 0.528273 0.166211 0.155855
O O14 0.657213 0.514278 0.032563
O O15 0.500000 0.000000 0.500000
O O16 0.694016 0.772439 0.766803
O O17 0.000000 0.000000 0.000000
O O18 0.500000 0.500000 0.000000
#
# Coordination Sequence:
#
# PCOD9088381 Si02
#       8
#     2   2   2   2   2   2   2   2
#     4   9  16  33  58  85 116 151 207 246 298 357
#     4   9  19  32  59  90 120 161 194 259 308 360
#     4  10  20  36  58  90 125 161 200 256 315 373
#     4  11  24  41  63  88 122 163 206 257 325 372
#     4   9  16  33  63  83 115 159 213 245 291 370
#     4   9  18  32  57  93 119 158 209 249 298 374
#     4  10  19  37  61  82 111 165 206 249 299 368
#     4  11  24  40  63  92 120 161 212 261 307 376
#
# _framework density 24.513238000000001
#
# number of rings (size 3 to 8) (size 9 to 14) (size 15 to 20)
#    0.000    2.250    2.500    3.750    1.750    4.000 
#    2.250    1.875    0.000    0.000    0.000    0.000 
#    0.000    0.000    0.000    0.000    0.000    0.000 
#
# Total GULP energy -89114.757633 kJ/mol
# GULP energy per Si atom -5569.672352 kJ/mol
# Density = 2.445744 g / cm^3
# Si number density = 24.513238 Si / 1000 Ang^3
#
#
#
# Elastic Constant Matrix: (Units=GPa)
#
#
# Indices 1 2 3 4 5 6 
#
# 1 143.4089 32.4301 17.3050 0.5731 -11.0234 -32.9238
# 2 32.4301 130.5150 47.3661 -33.1155 -12.6684 -22.1177
# 3 17.3050 47.3661 60.2558 -10.1419 -0.3591 -18.7547
# 4 0.5731 -33.1155 -10.1419 38.4907 -7.0677 0.5822
# 5 -11.0234 -12.6684 -0.3591 -7.0677 27.7601 -2.0316
# 6 -32.9238 -22.1177 -18.7547 0.5822 -2.0316 24.3194
#
#
#
# Elastic Compliance Matrix: (Units=1/GPa)
#
#
# Indices 1 2 3 4 5 6 
#
# 1 0.011167 0.000489 0.002294 0.001772 0.006443 0.017827
# 2 0.000489 0.017186 -0.007605 0.014911 0.012549 0.011118
# 3 0.002294 -0.007605 0.027277 0.000185 -0.000905 0.017145
# 4 0.001772 0.014911 0.000185 0.042153 0.019466 0.016719
# 5 0.006443 0.012549 -0.000905 0.019466 0.050952 0.023227
# 6 0.017827 0.011118 0.017145 0.016719 0.023227 0.090127
#
#
# Mechanical properties :
#
#
# Convention : Reuss Voigt Hill
#
# Bulk Modulus (GPa) = 21.74583 58.70912 40.22748
# Shear Modulus (GPa) = 18.95128 33.91928 26.43528
#
# Velocity S-wave (km/s) = 2.78349 3.72386 3.28748
# Velocity P-wave (km/s) = 4.38415 6.51855 5.55483
#
# Compressibility (1/GPa) = 0.04598583
#
# Stress axis : x y z
#
# Youngs Moduli (GPa) = 89.55304 58.18716 36.66059
#
# Poissons Ratio (x) = -0.02844 -0.08410
# Poissons Ratio (y) = -0.04378 0.27880
# Poissons Ratio (z) = -0.20544 0.44251
#
# Static dielectric constant tensor:
#      x y z
#    x 2.351480 0.201720 -0.022190 
#    y 0.201720 2.030360 0.004370 
#    z -0.022190 0.004370 1.947140 
# 
# From -- ./inp_files/347544.got.cif
#   From: 2010.05.17/outbox.cif.g08.bks.cpg/sg2_174_cif.got.tgz:347544.got - 2010.06.03 11:33:40.
