data_PCOD9088682
_publ_section_title
;
Structure prediction by ZEFSAII (Michael W. Deem and Ramdas Pophale) SiO2 
 PCOD9088682
Probable space group: P -1
;
_chemical_formula_sum "Si O2"
_cell_formula_units_Z 16
_cell_length_a 12.369726
_cell_length_b 9.158249
_cell_length_c 15.039120
_cell_angle_alpha 34.963511
_cell_angle_beta 52.704804
_cell_angle_gamma 69.256244
_cell_volume 737.835374
_symmetry_space_group_name_H-M "P -1"
_symmetry_group_IT_number 2
_symmetry_cell_setting 'triclinic'
loop_
_space_group_symop_operation_xyz
x,y,z
-x,-y,-z
loop_
_atom_site_type_symbol
_atom_site_label
_atom_site_fract_x
_atom_site_fract_y
_atom_site_fract_z
Si Si1 0.089084 0.122014 0.303084
Si Si2 0.734968 0.461527 0.416583
Si Si3 0.179064 0.800478 0.669215
Si Si4 0.646200 0.429959 0.972151
Si Si5 0.557571 0.829642 0.340636
Si Si6 0.569346 0.310828 0.333651
Si Si7 0.134573 0.613723 0.440967
Si Si8 0.665433 0.552244 0.707775
O O1 0.230209 0.346656 0.152202
O O2 0.987049 0.232043 0.235973
O O3 0.131634 0.897858 0.337898
O O4 0.000000 0.000000 0.500000
O O5 0.792054 0.320131 0.379451
O O6 0.682203 0.719363 0.298703
O O7 0.578642 0.239094 0.623558
O O8 0.850743 0.533551 0.400887
O O9 0.261976 0.652012 0.766632
O O10 0.255377 0.124110 0.481249
O O11 0.690002 0.419565 0.853001
O O12 0.500000 0.500000 0.000000
O O13 0.614379 0.141667 0.175215
O O14 0.491212 0.680370 0.540319
O O15 0.497997 0.474986 0.222939
O O16 0.500000 0.000000 0.500000
O O17 0.266790 0.579849 0.336487
O O18 0.000000 0.500000 0.500000
#
# Coordination Sequence:
#
# PCOD9088682 Si02
#       8
#     2   2   2   2   2   2   2   2
#     4  12  22  40  66  95 131 177 217 256 322 400
#     4  10  20  38  66  89 122 170 218 255 313 391
#     4  10  19  37  62  92 118 169 219 251 305 394
#     4  12  24  42  66  97 132 171 217 267 321 382
#     4  10  21  39  64  93 125 167 221 264 312 382
#     4   9  18  34  63  92 119 162 214 258 315 377
#     4  12  21  35  64  97 128 165 218 268 312 380
#     4  11  21  38  65  97 129 163 215 269 323 375
#
# _framework density 21.685054000000001
#
# number of rings (size 3 to 8) (size 9 to 14) (size 15 to 20)
#    0.000    1.250    5.000    3.000    0.000    0.000 
#    0.000    3.125    8.250    7.500    0.000    0.000 
#    0.000    0.000    0.000    0.000    0.000    0.000 
#
# Total GULP energy -89205.985150 kJ/mol
# GULP energy per Si atom -5575.374072 kJ/mol
# Density = 2.163570 g / cm^3
# Si number density = 21.685054 Si / 1000 Ang^3
#
#
#
# Elastic Constant Matrix: (Units=GPa)
#
#
# Indices 1 2 3 4 5 6 
#
# 1 168.4934 24.1522 26.1061 -12.9189 -13.5644 -2.4690
# 2 24.1522 130.3079 18.5140 -11.7134 5.4958 -9.6556
# 3 26.1061 18.5140 50.6014 -15.4437 -11.9115 2.8007
# 4 -12.9189 -11.7134 -15.4437 20.1527 5.9321 1.7253
# 5 -13.5644 5.4958 -11.9115 5.9321 20.3579 -0.8640
# 6 -2.4690 -9.6556 2.8007 1.7253 -0.8640 47.2251
#
#
#
# Elastic Compliance Matrix: (Units=1/GPa)
#
#
# Indices 1 2 3 4 5 6 
#
# 1 0.006744 -0.000969 -0.001997 0.001253 0.003233 0.000286
# 2 -0.000969 0.009022 -0.003130 0.003829 -0.005955 0.001731
# 3 -0.001997 -0.003130 0.030012 0.016582 0.012120 -0.002908
# 4 0.001253 0.003829 0.016582 0.068734 -0.010645 -0.002841
# 5 0.003233 -0.005955 0.012120 -0.010645 0.063067 -0.000224
# 6 0.000286 0.001731 -0.002908 -0.002841 -0.000224 0.021816
#
#
# Mechanical properties :
#
#
# Convention : Reuss Voigt Hill
#
# Bulk Modulus (GPa) = 29.77375 54.10524 41.93949
# Shear Modulus (GPa) = 22.44345 36.25584 29.34964
#
# Velocity S-wave (km/s) = 3.22059 4.09336 3.68292
# Velocity P-wave (km/s) = 5.25257 6.88080 6.12107
#
# Compressibility (1/GPa) = 0.03358663
#
# Stress axis : x y z
#
# Youngs Moduli (GPa) = 148.28397 110.84070 33.31950
#
# Poissons Ratio (x) = 0.10737 0.06654
# Poissons Ratio (y) = 0.14364 0.10429
# Poissons Ratio (z) = 0.29612 0.34695
#
# Static dielectric constant tensor:
#      x y z
#    x 1.870840 0.026920 0.027550 
#    y 0.026920 1.836330 0.056740 
#    z 0.027550 0.056740 1.829560 
# 
# From -- ./inp_files/513920.got.cif
#   From: 2010.05.17/outbox.cif.g08.bks.cpg/sg2_257_cif.got.tgz:513920.got - 2010.06.03 11:33:40.
