data_PCOD9088119
_publ_section_title
;
Structure prediction by ZEFSAII (Michael W. Deem and Ramdas Pophale) SiO2 
 PCOD9088119
Probable space group: P -1
;
_chemical_formula_sum "Si O2"
_cell_formula_units_Z 14
_cell_length_a 5.770825
_cell_length_b 12.550737
_cell_length_c 13.294223
_cell_angle_alpha 146.360940
_cell_angle_beta 79.817202
_cell_angle_gamma 110.340249
_cell_volume 488.241212
_symmetry_space_group_name_H-M "P -1"
_symmetry_group_IT_number 2
_symmetry_cell_setting 'triclinic'
loop_
_space_group_symop_operation_xyz
x,y,z
-x,-y,-z
loop_
_atom_site_type_symbol
_atom_site_label
_atom_site_fract_x
_atom_site_fract_y
_atom_site_fract_z
Si Si1 0.394044 0.152877 0.571366
Si Si2 0.086320 0.593118 0.358261
Si Si3 0.971026 0.739332 0.683491
Si Si4 0.795013 0.779519 0.975324
Si Si5 0.152075 0.892201 0.214057
Si Si6 0.267895 0.518229 0.886959
Si Si7 0.502675 0.839971 0.785293
O O1 0.339800 0.331772 0.777475
O O2 0.620788 0.273423 0.572268
O O3 0.500000 0.000000 0.500000
O O4 0.165468 0.028833 0.417274
O O5 0.964493 0.692783 0.527635
O O6 0.961960 0.578534 0.247990
O O7 0.071904 0.359660 0.200382
O O8 0.681421 0.717138 0.712098
O O9 0.221548 0.683551 0.650377
O O10 0.112736 0.987808 0.884212
O O11 0.500687 0.652519 0.903191
O O12 0.894302 0.802533 0.100982
O O13 0.352033 0.022850 0.214969
O O14 0.216661 0.695290 0.092220
O O15 0.500000 0.000000 0.000000
#
# Coordination Sequence:
#
# PCOD9088119 Si02
#       7
#     2   2   2   2   2   2   2
#     4  11  23  38  60  90 121 157 209 259 313 376
#     4  10  21  36  63  90 119 169 205 256 312 376
#     4  11  21  40  64  92 129 168 210 260 317 371
#     4   9  19  34  62  88 117 165 209 249 310 375
#     4  10  20  39  60  85 121 165 203 254 317 368
#     4  10  19  37  59  84 120 160 207 253 309 378
#     4  11  22  38  67  98 125 167 214 260 316 377
#
# _framework density 28.674353
#
# number of rings (size 3 to 8) (size 9 to 14) (size 15 to 20)
#    0.000    1.714    2.857    2.143    2.000    1.143 
#    0.000    6.429    0.000   30.000    0.000    0.000 
#    0.000    0.000    0.000    0.000    0.000    0.000 
#
# Total GULP energy -78406.158802 kJ/mol
# GULP energy per Si atom -5600.439914 kJ/mol
# Density = 2.860909 g / cm^3
# Si number density = 28.674353 Si / 1000 Ang^3
#
#
#
# Elastic Constant Matrix: (Units=GPa)
#
#
# Indices 1 2 3 4 5 6 
#
# 1 120.2292 29.8630 22.1452 -12.3991 -0.0741 -25.2417
# 2 29.8630 77.6503 8.1442 9.2062 -7.0370 -1.1015
# 3 22.1452 8.1442 94.7975 -16.1494 -16.3176 -1.4140
# 4 -12.3991 9.2062 -16.1494 43.4763 -11.4580 -14.1550
# 5 -0.0741 -7.0370 -16.3176 -11.4580 61.2950 11.3308
# 6 -25.2417 -1.1015 -1.4140 -14.1550 11.3308 58.1410
#
#
#
# Elastic Compliance Matrix: (Units=1/GPa)
#
#
# Indices 1 2 3 4 5 6 
#
# 1 0.011835 -0.005093 -0.001430 0.005793 -0.001094 0.006630
# 2 -0.005093 0.015714 -0.001070 -0.006082 0.001046 -0.003624
# 3 -0.001430 -0.001070 0.012693 0.005738 0.004285 0.000230
# 4 0.005793 -0.006082 0.005738 0.032510 0.005167 0.009447
# 5 -0.001094 0.001046 0.004285 0.005167 0.019059 -0.002807
# 6 0.006630 -0.003624 0.000230 0.009447 -0.002807 0.022862
#
#
# Mechanical properties :
#
#
# Convention : Reuss Voigt Hill
#
# Bulk Modulus (GPa) = 39.91183 45.88688 42.89935
# Shear Modulus (GPa) = 36.17679 48.08409 42.13044
#
# Velocity S-wave (km/s) = 3.55581 4.09944 3.83727
# Velocity P-wave (km/s) = 5.55046 6.20038 5.88440
#
# Compressibility (1/GPa) = 0.02505523
#
# Stress axis : x y z
#
# Youngs Moduli (GPa) = 84.49792 63.63848 78.78290
#
# Poissons Ratio (x) = 0.32413 0.11262
# Poissons Ratio (y) = 0.43038 0.08432
# Poissons Ratio (z) = 0.12079 0.06811
#
# Static dielectric constant tensor:
#      x y z
#    x 2.287130 -0.075520 -0.058280 
#    y -0.075520 2.339370 0.043340 
#    z -0.058280 0.043340 2.153860 
# 
# From -- ./inp_files/36394.got.cif
#   From: 2010.05.17/outbox.cif.g08.bks.cpg/sg2_19_cif.got.tgz:36394.got - 2010.06.03 11:33:40.
