data_PCOD9088921
_publ_section_title
;
Structure prediction by ZEFSAII (Michael W. Deem and Ramdas Pophale) SiO2 
 PCOD9088921
Probable space group: P -1
;
_chemical_formula_sum "Si O2"
_cell_formula_units_Z 14
_cell_length_a 11.805675
_cell_length_b 12.099794
_cell_length_c 6.505590
_cell_angle_alpha 65.047893
_cell_angle_beta 128.226348
_cell_angle_gamma 124.815150
_cell_volume 595.956169
_symmetry_space_group_name_H-M "P -1"
_symmetry_group_IT_number 2
_symmetry_cell_setting 'triclinic'
loop_
_space_group_symop_operation_xyz
x,y,z
-x,-y,-z
loop_
_atom_site_type_symbol
_atom_site_label
_atom_site_fract_x
_atom_site_fract_y
_atom_site_fract_z
Si Si1 0.424962 0.068187 0.612216
Si Si2 0.785198 0.865585 0.932426
Si Si3 0.234291 0.329165 0.580772
Si Si4 0.689526 0.194897 0.500551
Si Si5 0.175613 0.577719 0.230635
Si Si6 0.009429 0.905149 0.765284
Si Si7 0.459990 0.724332 0.103236
O O1 0.374804 0.168266 0.345683
O O2 0.587293 0.100761 0.648777
O O3 0.451269 0.122322 0.828119
O O4 0.294752 0.914420 0.551252
O O5 0.903008 0.895381 0.850711
O O6 0.793043 0.750330 0.172879
O O7 0.821211 0.995260 0.018893
O O8 0.233115 0.473197 0.481690
O O9 0.082914 0.241333 0.329721
O O10 0.404653 0.331942 0.697971
O O11 0.825913 0.315623 0.683362
O O12 0.605307 0.263596 0.203234
O O13 0.309241 0.649167 0.145878
O O14 0.000000 0.500000 0.000000
O O15 0.000000 0.000000 0.500000
#
# Coordination Sequence:
#
# PCOD9088921 Si02
#       7
#     2   2   2   2   2   2   2
#     4  10  20  39  67 100 129 164 218 276 335 394
#     4  10  19  37  63  99 133 169 215 273 335 382
#     4  11  22  41  69  97 132 171 227 276 321 397
#     4  10  23  42  65  95 133 173 213 276 332 398
#     4  11  28  47  62  95 135 181 225 267 338 402
#     4   9  20  36  58  99 133 169 207 267 328 385
#     4  11  22  44  69 100 125 174 229 277 330 386
#
# _framework density 23.491658000000001
#
# number of rings (size 3 to 8) (size 9 to 14) (size 15 to 20)
#    0.000    1.714    2.857    0.857    2.000    2.286 
#    7.714    0.000    0.000    0.000    0.000    0.000 
#    0.000    0.000    0.000    0.000    0.000    0.000 
#
# Total GULP energy -77960.480082 kJ/mol
# GULP energy per Si atom -5568.605720 kJ/mol
# Density = 2.343819 g / cm^3
# Si number density = 23.491658 Si / 1000 Ang^3
#
#
#
# Elastic Constant Matrix: (Units=GPa)
#
#
# Indices 1 2 3 4 5 6 
#
# 1 68.5460 30.9829 35.7136 -19.1792 -14.8781 9.0866
# 2 30.9829 110.4017 43.5191 17.5224 -2.4437 -2.6881
# 3 35.7136 43.5191 120.1062 9.6453 -7.0443 2.3401
# 4 -19.1792 17.5224 9.6453 40.6671 -10.1803 -3.7069
# 5 -14.8781 -2.4437 -7.0443 -10.1803 24.0431 -8.1467
# 6 9.0866 -2.6881 2.3401 -3.7069 -8.1467 18.8469
#
#
#
# Elastic Compliance Matrix: (Units=1/GPa)
#
#
# Indices 1 2 3 4 5 6 
#
# 1 0.047600 -0.015330 -0.009498 0.042775 0.044474 0.003681
# 2 -0.015330 0.016161 -0.000769 -0.018059 -0.015935 -0.000649
# 3 -0.009498 -0.000769 0.011769 -0.008790 -0.006790 -0.001656
# 4 0.042775 -0.018059 -0.008790 0.070563 0.057582 0.016662
# 5 0.044474 -0.015935 -0.006790 0.057582 0.100726 0.031993
# 6 0.003681 -0.000649 -0.001656 0.016662 0.031993 0.068504
#
#
# Mechanical properties :
#
#
# Convention : Reuss Voigt Hill
#
# Bulk Modulus (GPa) = 41.09053 57.72056 49.40555
# Shear Modulus (GPa) = 13.34660 29.30063 21.32361
#
# Velocity S-wave (km/s) = 2.38616 3.53551 3.01609
# Velocity P-wave (km/s) = 5.01210 6.42577 5.76245
#
# Compressibility (1/GPa) = 0.02433651
#
# Stress axis : x y z
#
# Youngs Moduli (GPa) = 21.00837 61.87837 84.97087
#
# Poissons Ratio (x) = 0.94856 0.80704
# Poissons Ratio (y) = 0.32205 0.06536
# Poissons Ratio (z) = 0.19953 0.04760
#
# Static dielectric constant tensor:
#      x y z
#    x 1.961080 0.042540 0.046180 
#    y 0.042540 1.987870 0.043200 
#    z 0.046180 0.043200 1.873800 
# 
# From -- ./inp_files/69463.got.cif
#   From: 2010.05.17/outbox.cif.g08.bks.cpg/sg2_35_cif.got.tgz:69463.got - 2010.06.03 11:33:40.
