data_PCOD9088570
_publ_section_title
;
Structure prediction by ZEFSAII (Michael W. Deem and Ramdas Pophale) SiO2 
 PCOD9088570
Probable space group: P -1
;
_chemical_formula_sum "Si O2"
_cell_formula_units_Z 14
_cell_length_a 11.833041
_cell_length_b 12.788302
_cell_length_c 7.358016
_cell_angle_alpha 36.714954
_cell_angle_beta 72.155998
_cell_angle_gamma 59.346268
_cell_volume 561.203389
_symmetry_space_group_name_H-M "P -1"
_symmetry_group_IT_number 2
_symmetry_cell_setting 'triclinic'
loop_
_space_group_symop_operation_xyz
x,y,z
-x,-y,-z
loop_
_atom_site_type_symbol
_atom_site_label
_atom_site_fract_x
_atom_site_fract_y
_atom_site_fract_z
Si Si1 0.052904 0.435904 0.363610
Si Si2 0.713382 0.156925 0.631336
Si Si3 0.729398 0.835473 0.592588
Si Si4 0.557737 0.257705 0.202501
Si Si5 0.937138 0.853991 0.746951
Si Si6 0.771206 0.489689 0.311061
Si Si7 0.568983 0.630987 0.534815
O O1 0.193907 0.252648 0.509018
O O2 0.000000 0.500000 0.500000
O O3 0.927907 0.424717 0.344892
O O4 0.053996 0.632878 0.013504
O O5 0.671589 0.227640 0.342234
O O6 0.568354 0.193374 0.724591
O O7 0.834095 0.938612 0.850941
O O8 0.000000 0.000000 0.500000
O O9 0.846005 0.854561 0.625260
O O10 0.608777 0.054673 0.353762
O O11 0.708315 0.673474 0.946300
O O12 0.436623 0.305633 0.338844
O O13 0.543525 0.437908 0.834515
O O14 0.245995 0.696935 0.486775
O O15 0.694673 0.570437 0.428326
#
# Coordination Sequence:
#
# PCOD9088570 Si02
#       7
#     2   2   2   2   2   2   2
#     4  11  25  41  55  86 120 147 194 251 292 336
#     4   9  18  35  59  88 115 152 190 232 277 348
#     4  10  21  39  57  85 115 151 193 238 290 343
#     4   8  19  38  60  84 122 148 189 236 280 340
#     4  10  19  37  62  83 110 156 194 232 287 348
#     4  11  21  36  63  84 118 156 191 237 287 342
#     4   9  19  37  60  89 122 147 195 230 285 338
#
# _framework density 24.946394999999999
#
# number of rings (size 3 to 8) (size 9 to 14) (size 15 to 20)
#    0.857    1.429    0.000    3.857    0.000    5.143 
#    0.000    2.857    0.000    0.000    0.000    0.000 
#    0.000    0.000    0.000    0.000    0.000    0.000 
#
# Total GULP energy -78176.672228 kJ/mol
# GULP energy per Si atom -5584.048016 kJ/mol
# Density = 2.488962 g / cm^3
# Si number density = 24.946395 Si / 1000 Ang^3
#
#
#
# Elastic Constant Matrix: (Units=GPa)
#
#
# Indices 1 2 3 4 5 6 
#
# 1 75.5172 20.9158 5.0450 4.8557 -11.1991 -2.1280
# 2 20.9158 240.3321 47.6949 1.3205 -9.5437 -2.4784
# 3 5.0450 47.6949 34.9713 19.6691 2.4957 -2.7603
# 4 4.8557 1.3205 19.6691 37.5224 -3.3820 1.4004
# 5 -11.1991 -9.5437 2.4957 -3.3820 16.8569 8.9388
# 6 -2.1280 -2.4784 -2.7603 1.4004 8.9388 29.6520
#
#
#
# Elastic Compliance Matrix: (Units=1/GPa)
#
#
# Indices 1 2 3 4 5 6 
#
# 1 0.015226 -0.000052 -0.004087 0.001434 0.012664 -0.003177
# 2 -0.000052 0.008220 -0.018537 0.010740 0.012307 -0.005260
# 3 -0.004087 -0.018537 0.088051 -0.050243 -0.048747 0.023422
# 4 0.001434 0.010740 -0.050243 0.056172 0.034635 -0.016770
# 5 0.012664 0.012307 -0.048747 0.034635 0.108453 -0.036930
# 6 -0.003177 -0.005260 0.023422 -0.016770 -0.036930 0.047162
#
#
# Mechanical properties :
#
#
# Convention : Reuss Voigt Hill
#
# Bulk Modulus (GPa) = 15.11806 55.34802 35.23304
# Shear Modulus (GPa) = 12.79809 35.28391 24.04100
#
# Velocity S-wave (km/s) = 2.26746 3.76492 3.10773
# Velocity P-wave (km/s) = 3.59563 6.41361 5.19918
#
# Compressibility (1/GPa) = 0.06614604
#
# Stress axis : x y z
#
# Youngs Moduli (GPa) = 65.67862 121.66079 11.35702
#
# Poissons Ratio (x) = 0.00630 0.04641
# Poissons Ratio (y) = 0.00340 0.21052
# Poissons Ratio (z) = 0.26842 2.25518
#
# Static dielectric constant tensor:
#      x y z
#    x 2.010460 -0.000780 0.031520 
#    y -0.000780 2.006360 0.022430 
#    z 0.031520 0.022430 1.980980 
# 
# From -- ./inp_files/336153.got.cif
#   From: 2010.05.17/outbox.cif.g08.bks.cpg/sg2_169_cif.got.tgz:336153.got - 2010.06.03 11:33:40.
