data_PCOD9088087
_publ_section_title
;
Structure prediction by ZEFSAII (Michael W. Deem and Ramdas Pophale) SiO2 
 PCOD9088087
Probable space group: P -1
;
_chemical_formula_sum "Si O2"
_cell_formula_units_Z 14
_cell_length_a 6.497964
_cell_length_b 18.051215
_cell_length_c 14.408830
_cell_angle_alpha 30.229715
_cell_angle_beta 120.745295
_cell_angle_gamma 103.098169
_cell_volume 634.570731
_symmetry_space_group_name_H-M "P -1"
_symmetry_group_IT_number 2
_symmetry_cell_setting 'triclinic'
loop_
_space_group_symop_operation_xyz
x,y,z
-x,-y,-z
loop_
_atom_site_type_symbol
_atom_site_label
_atom_site_fract_x
_atom_site_fract_y
_atom_site_fract_z
Si Si1 0.684975 0.664745 0.626237
Si Si2 0.255472 0.501223 0.997004
Si Si3 0.542404 0.160609 0.346959
Si Si4 0.197567 0.980980 0.253745
Si Si5 0.365727 0.748109 0.132505
Si Si6 0.558427 0.760682 0.962523
Si Si7 0.159587 0.474782 0.392133
O O1 0.679538 0.533076 0.842317
O O2 0.396262 0.834760 0.387901
O O3 0.751652 0.609733 0.596198
O O4 0.960708 0.660787 0.733500
O O5 0.274766 0.329997 0.141115
O O6 0.500000 0.500000 0.000000
O O7 0.754650 0.107282 0.538403
O O8 0.601042 0.202234 0.212431
O O9 0.500000 0.000000 0.500000
O O10 0.320487 0.109426 0.145640
O O11 0.870715 0.085354 0.051168
O O12 0.258464 0.614137 0.264075
O O13 0.666018 0.663530 0.339905
O O14 0.388715 0.779385 0.995517
O O15 0.831404 0.574568 0.222953
#
# Coordination Sequence:
#
# PCOD9088087 Si02
#       7
#     2   2   2   2   2   2   2
#     4  10  21  38  59  79 124 151 182 244 299 333
#     4  10  21  36  58  90 117 151 197 234 291 361
#     4   9  18  35  58  84 116 149 188 236 296 342
#     4   9  21  37  53  85 118 150 184 239 293 343
#     4  10  22  37  57  85 114 149 205 236 273 345
#     4  10  19  37  59  79 113 152 196 238 285 337
#     4  10  21  38  59  83 112 155 193 242 288 330
#
# _framework density 22.062156999999999
#
# number of rings (size 3 to 8) (size 9 to 14) (size 15 to 20)
#    0.000    2.286    1.429    0.429    2.000    3.429 
#    0.000    0.714    0.000    0.000    0.000    0.000 
#    0.000    0.000    0.000    0.000    0.000    0.000 
#
# Total GULP energy -78083.451454 kJ/mol
# GULP energy per Si atom -5577.389390 kJ/mol
# Density = 2.201194 g / cm^3
# Si number density = 22.062157 Si / 1000 Ang^3
#
#
#
# Elastic Constant Matrix: (Units=GPa)
#
#
# Indices 1 2 3 4 5 6 
#
# 1 75.8687 -5.7915 20.4155 -8.6339 11.5784 -21.4218
# 2 -5.7915 47.4480 12.8739 -12.6716 7.5716 -23.0373
# 3 20.4155 12.8739 89.3867 -14.7031 19.9327 -13.1066
# 4 -8.6339 -12.6716 -14.7031 27.6761 -14.5134 4.0408
# 5 11.5784 7.5716 19.9327 -14.5134 29.3001 -3.4781
# 6 -21.4218 -23.0373 -13.1066 4.0408 -3.4781 29.1425
#
#
#
# Elastic Compliance Matrix: (Units=1/GPa)
#
#
# Indices 1 2 3 4 5 6 
#
# 1 0.029760 0.028241 -0.001235 0.011563 -0.007607 0.041134
# 2 0.028241 0.065454 -0.000113 0.024766 -0.007646 0.068104
# 3 -0.001235 -0.000113 0.014157 0.002646 -0.007313 0.004131
# 4 0.011563 0.024766 0.002646 0.059212 0.019334 0.023365
# 5 -0.007607 -0.007646 -0.007313 0.019334 0.052315 -0.011362
# 6 0.041134 0.068104 0.004131 0.023365 -0.011362 0.115649
#
#
# Mechanical properties :
#
#
# Convention : Reuss Voigt Hill
#
# Bulk Modulus (GPa) = 6.12897 29.74436 17.93666
# Shear Modulus (GPa) = 14.83038 29.57076 22.20057
#
# Velocity S-wave (km/s) = 2.59551 3.66504 3.17562
# Velocity P-wave (km/s) = 3.43021 5.60547 4.64692
#
# Compressibility (1/GPa) = 0.16315956
#
# Stress axis : x y z
#
# Youngs Moduli (GPa) = 33.60216 15.27791 70.63501
#
# Poissons Ratio (x) = -0.43147 0.08721
# Poissons Ratio (y) = -0.94897 0.00795
# Poissons Ratio (z) = 0.04149 0.00172
#
# Static dielectric constant tensor:
#      x y z
#    x 1.811930 0.048310 -0.010860 
#    y 0.048310 1.834560 -0.024990 
#    z -0.010860 -0.024990 1.872770 
# 
# From -- ./inp_files/37532.got.cif
#   From: 2010.05.17/outbox.cif.g08.bks.cpg/sg2_19_cif.got.tgz:37532.got - 2010.06.03 11:33:40.
