data_PCOD9088883
_publ_section_title
;
Structure prediction by ZEFSAII (Michael W. Deem and Ramdas Pophale) SiO2 
 PCOD9088883
Probable space group: P -1
;
_chemical_formula_sum "Si O2"
_cell_formula_units_Z 16
_cell_length_a 8.641685
_cell_length_b 11.246883
_cell_length_c 13.923599
_cell_angle_alpha 38.914621
_cell_angle_beta 113.210621
_cell_angle_gamma 96.923794
_cell_volume 739.559882
_symmetry_space_group_name_H-M "P -1"
_symmetry_group_IT_number 2
_symmetry_cell_setting 'triclinic'
loop_
_space_group_symop_operation_xyz
x,y,z
-x,-y,-z
loop_
_atom_site_type_symbol
_atom_site_label
_atom_site_fract_x
_atom_site_fract_y
_atom_site_fract_z
Si Si1 0.985472 0.317767 0.677268
Si Si2 0.631146 0.844037 0.418487
Si Si3 0.491319 0.825275 0.676273
Si Si4 0.292156 0.616762 0.847433
Si Si5 0.032719 0.504149 0.228409
Si Si6 0.598887 0.421483 0.472908
Si Si7 0.831568 0.439552 0.964038
Si Si8 0.643122 0.832009 0.197809
O O1 0.168507 0.153266 0.800036
O O2 0.000000 0.500000 0.500000
O O3 0.978819 0.387358 0.741417
O O4 0.800923 0.284960 0.627896
O O5 0.830316 0.723211 0.580887
O O6 0.514647 0.708650 0.513993
O O7 0.633301 0.845601 0.302460
O O8 0.535295 0.065701 0.294815
O O9 0.317615 0.754544 0.680000
O O10 0.663189 0.638785 0.811989
O O11 0.500000 0.000000 0.500000
O O12 0.160831 0.500216 0.850149
O O13 0.500000 0.500000 0.000000
O O14 0.202401 0.707321 0.870821
O O15 0.124242 0.608160 0.106164
O O16 0.500000 0.500000 0.500000
O O17 0.614490 0.618226 0.300538
O O18 0.000000 0.500000 0.000000
O O19 0.500000 0.000000 0.000000
#
# Coordination Sequence:
#
# PCOD9088883 Si02
#       8
#     2   2   2   2   2   2   2   2
#     4  10  19  37  63  94 123 165 215 258 312 387
#     4  11  22  40  61  91 125 171 215 251 318 384
#     4  11  22  39  61  93 127 159 213 266 305 381
#     4   9  22  41  61  92 127 162 211 261 323 377
#     4  11  19  38  69  88 123 175 213 255 320 380
#     4   9  18  39  63  84 125 164 209 254 309 385
#     4   9  20  41  61  88 124 163 207 263 318 377
#     4  10  22  40  62  93 130 158 212 276 309 366
#
# _framework density 21.63449
#
# number of rings (size 3 to 8) (size 9 to 14) (size 15 to 20)
#    0.000    2.000    5.000    0.000    0.000    5.500 
#    2.250    2.500    5.500    0.000    0.000    0.000 
#    0.000    0.000    0.000    0.000    0.000    0.000 
#
# Total GULP energy -89088.584613 kJ/mol
# GULP energy per Si atom -5568.036538 kJ/mol
# Density = 2.158525 g / cm^3
# Si number density = 21.634490 Si / 1000 Ang^3
#
#
#
# Elastic Constant Matrix: (Units=GPa)
#
#
# Indices 1 2 3 4 5 6 
#
# 1 166.1682 25.4883 42.4376 11.3110 0.1300 -5.0370
# 2 25.4883 54.4247 0.9392 8.4560 4.0557 -8.9968
# 3 42.4376 0.9392 67.5757 16.4305 7.4151 0.8050
# 4 11.3110 8.4560 16.4305 25.8152 -1.5432 -6.3968
# 5 0.1300 4.0557 7.4151 -1.5432 44.0304 12.9959
# 6 -5.0370 -8.9968 0.8050 -6.3968 12.9959 36.5121
#
#
#
# Elastic Compliance Matrix: (Units=1/GPa)
#
#
# Indices 1 2 3 4 5 6 
#
# 1 0.007897 -0.003902 -0.005365 0.001315 0.001279 0.000021
# 2 -0.003902 0.022490 0.004386 -0.007424 -0.004607 0.005246
# 3 -0.005365 0.004386 0.021869 -0.013505 -0.004251 -0.000995
# 4 0.001315 -0.007424 -0.013505 0.050988 0.002797 0.006587
# 5 0.001279 -0.004607 -0.004251 0.002797 0.026881 -0.009943
# 6 0.000021 0.005246 -0.000995 0.006587 -0.009943 0.033399
#
#
# Mechanical properties :
#
#
# Convention : Reuss Voigt Hill
#
# Bulk Modulus (GPa) = 23.53341 47.32208 35.42775
# Shear Modulus (GPa) = 26.67397 35.89177 31.28287
#
# Velocity S-wave (km/s) = 3.51513 4.07751 3.80672
# Velocity P-wave (km/s) = 5.23223 6.63996 5.97768
#
# Compressibility (1/GPa) = 0.04249278
#
# Stress axis : x y z
#
# Youngs Moduli (GPa) = 126.63217 44.46495 45.72773
#
# Poissons Ratio (x) = 0.17349 0.24534
# Poissons Ratio (y) = 0.49409 -0.20056
# Poissons Ratio (z) = 0.67942 -0.19502
#
# Static dielectric constant tensor:
#      x y z
#    x 1.818970 -0.003360 -0.058740 
#    y -0.003360 1.846920 -0.021820 
#    z -0.058740 -0.021820 1.893270 
# 
# From -- ./inp_files/499921.got.cif
#   From: 2010.05.17/outbox.cif.g08.bks.cpg/sg2_250_cif.got.tgz:499921.got - 2010.06.03 11:33:40.
