data_PCOD9088809
_publ_section_title
;
Structure prediction by ZEFSAII (Michael W. Deem and Ramdas Pophale) SiO2 
 PCOD9088809
Probable space group: P -1
;
_chemical_formula_sum "Si O2"
_cell_formula_units_Z 16
_cell_length_a 9.399371
_cell_length_b 10.834700
_cell_length_c 11.476669
_cell_angle_alpha 124.252996
_cell_angle_beta 82.129877
_cell_angle_gamma 123.232382
_cell_volume 782.803917
_symmetry_space_group_name_H-M "P -1"
_symmetry_group_IT_number 2
_symmetry_cell_setting 'triclinic'
loop_
_space_group_symop_operation_xyz
x,y,z
-x,-y,-z
loop_
_atom_site_type_symbol
_atom_site_label
_atom_site_fract_x
_atom_site_fract_y
_atom_site_fract_z
Si Si1 0.697239 0.077793 0.980174
Si Si2 0.398014 0.060596 0.696052
Si Si3 0.239263 0.746536 0.358519
Si Si4 0.966057 0.309565 0.869017
Si Si5 0.811652 0.823154 0.886463
Si Si6 0.230160 0.735553 0.699871
Si Si7 0.700503 0.675054 0.069814
Si Si8 0.843416 0.555367 0.599771
O O1 0.802071 0.160506 0.890887
O O2 0.705552 0.907323 0.914440
O O3 0.800704 0.241107 0.150715
O O4 0.500000 0.000000 0.000000
O O5 0.599016 0.208639 0.717436
O O6 0.304819 0.157506 0.794768
O O7 0.308959 0.924309 0.524436
O O8 0.381134 0.930689 0.733619
O O9 0.090079 0.718417 0.274605
O O10 0.193099 0.581452 0.361615
O O11 0.143958 0.322653 0.882020
O O12 0.000000 0.500000 0.000000
O O13 0.802493 0.698695 0.717622
O O14 0.746896 0.701492 0.943198
O O15 0.000000 0.000000 0.000000
O O16 0.249816 0.576569 0.571573
O O17 0.052556 0.679768 0.624459
O O18 0.500000 0.500000 0.000000
#
# Coordination Sequence:
#
# PCOD9088809 Si02
#       8
#     2   2   2   2   2   2   2   2
#     4  12  25  40  64  92 124 164 203 258 312 364
#     4  10  20  39  64  89 118 164 208 249 303 373
#     4  10  22  40  62  89 126 161 203 251 310 368
#     4  12  25  40  60  90 130 161 204 260 312 364
#     4  12  21  41  63  92 121 157 215 253 304 369
#     4  10  19  37  63  89 118 153 207 246 304 363
#     4  12  24  38  65  93 123 164 209 258 307 367
#     4  10  20  37  65  90 115 159 202 255 298 364
#
# _framework density 20.439347000000001
#
# number of rings (size 3 to 8) (size 9 to 14) (size 15 to 20)
#    0.000    1.000    3.750    3.750    1.750    0.500 
#    0.000    0.625    2.750    0.000    0.000    0.000 
#    0.000    0.000    0.000    0.000    0.000    0.000 
#
# Total GULP energy -89239.276717 kJ/mol
# GULP energy per Si atom -5577.454795 kJ/mol
# Density = 2.039283 g / cm^3
# Si number density = 20.439347 Si / 1000 Ang^3
#
#
#
# Elastic Constant Matrix: (Units=GPa)
#
#
# Indices 1 2 3 4 5 6 
#
# 1 105.0184 9.2596 28.8948 17.8437 -20.6603 -0.5261
# 2 9.2596 56.2940 -3.9202 5.3325 9.2658 17.8419
# 3 28.8948 -3.9202 110.1536 12.0869 -26.8726 -18.1919
# 4 17.8437 5.3325 12.0869 31.0263 -7.1630 -3.2548
# 5 -20.6603 9.2658 -26.8726 -7.1630 36.0451 2.3786
# 6 -0.5261 17.8419 -18.1919 -3.2548 2.3786 30.8935
#
#
#
# Elastic Compliance Matrix: (Units=1/GPa)
#
#
# Indices 1 2 3 4 5 6 
#
# 1 0.012014 -0.002530 -0.001379 -0.004655 0.005589 -0.000067
# 2 -0.002530 0.025378 -0.002993 -0.005824 -0.010288 -0.016283
# 3 -0.001379 -0.002993 0.013029 -0.000796 0.008967 0.008603
# 4 -0.004655 -0.005824 -0.000796 0.038137 0.005391 0.006418
# 5 0.005589 -0.010288 0.008967 0.005391 0.040770 0.008746
# 6 -0.000067 -0.016283 0.008603 0.006418 0.008746 0.046841
#
#
# Mechanical properties :
#
#
# Convention : Reuss Voigt Hill
#
# Bulk Modulus (GPa) = 27.30931 37.77047 32.53989
# Shear Modulus (GPa) = 24.73066 35.40845 30.06955
#
# Velocity S-wave (km/s) = 3.48221 4.16669 3.83973
# Velocity P-wave (km/s) = 5.43672 6.45506 5.96765
#
# Compressibility (1/GPa) = 0.03661755
#
# Stress axis : x y z
#
# Youngs Moduli (GPa) = 83.23301 39.40489 76.75204
#
# Poissons Ratio (x) = 0.09970 0.10580
# Poissons Ratio (y) = 0.21058 0.22973
# Poissons Ratio (z) = 0.11474 0.11795
#
# Static dielectric constant tensor:
#      x y z
#    x 1.734520 0.014980 0.045360 
#    y 0.014980 1.756400 0.003890 
#    z 0.045360 0.003890 1.779230 
# 
# From -- ./inp_files/245667.got.cif
#   From: 2010.05.17/outbox.cif.g08.bks.cpg/sg2_123_cif.got.tgz:245667.got - 2010.06.03 11:33:40.
