data_PCOD9088654
_publ_section_title
;
Structure prediction by ZEFSAII (Michael W. Deem and Ramdas Pophale) SiO2 
 PCOD9088654
Probable space group: P -1
;
_chemical_formula_sum "Si O2"
_cell_formula_units_Z 16
_cell_length_a 10.404939
_cell_length_b 12.161048
_cell_length_c 8.092731
_cell_angle_alpha 130.783303
_cell_angle_beta 71.815621
_cell_angle_gamma 97.822181
_cell_volume 733.369861
_symmetry_space_group_name_H-M "P -1"
_symmetry_group_IT_number 2
_symmetry_cell_setting 'triclinic'
loop_
_space_group_symop_operation_xyz
x,y,z
-x,-y,-z
loop_
_atom_site_type_symbol
_atom_site_label
_atom_site_fract_x
_atom_site_fract_y
_atom_site_fract_z
Si Si1 0.090976 0.124331 0.378247
Si Si2 0.871207 0.936044 0.315431
Si Si3 0.385178 0.915540 0.548638
Si Si4 0.628394 0.912117 0.943157
Si Si5 0.533271 0.597204 0.239505
Si Si6 0.802534 0.624115 0.992049
Si Si7 0.059286 0.456026 0.614147
Si Si8 0.654970 0.570797 0.657274
O O1 0.085012 0.118952 0.573667
O O2 0.243843 0.084171 0.223076
O O3 0.050077 0.285059 0.482891
O O4 0.993409 0.004350 0.242588
O O5 0.820037 0.792697 0.115769
O O6 0.747752 0.063885 0.492846
O O7 0.449864 0.753855 0.401532
O O8 0.500000 0.000000 0.500000
O O9 0.345113 0.000632 0.815974
O O10 0.608888 0.741564 0.812579
O O11 0.500000 0.000000 0.000000
O O12 0.694839 0.613046 0.173694
O O13 0.472225 0.523205 0.352089
O O14 0.500000 0.500000 0.000000
O O15 0.731351 0.565493 0.800275
O O16 0.953738 0.544117 0.867070
O O17 0.220224 0.479839 0.566605
O O18 0.000000 0.500000 0.500000
#
# Coordination Sequence:
#
# PCOD9088654 Si02
#       8
#     2   2   2   2   2   2   2   2
#     4  10  25  42  61  95 128 171 210 271 321 376
#     4  11  23  41  64  92 132 161 222 264 320 383
#     4  12  22  39  67  96 121 174 214 263 324 385
#     4  11  23  43  67  92 130 167 213 271 327 380
#     4  10  21  35  60  97 121 156 220 258 313 381
#     4  10  19  37  62  90 120 164 208 261 308 383
#     4   9  20  38  62  84 124 167 206 254 326 376
#     4   9  19  40  58  94 121 163 208 259 322 379
#
# _framework density 21.817095999999999
#
# number of rings (size 3 to 8) (size 9 to 14) (size 15 to 20)
#    0.000    1.750    2.500    1.500    5.250    2.000 
#    2.250    0.625    0.000    0.000    0.000    0.000 
#    0.000    0.000    0.000    0.000    0.000    0.000 
#
# Total GULP energy -89338.729893 kJ/mol
# GULP energy per Si atom -5583.670618 kJ/mol
# Density = 2.176744 g / cm^3
# Si number density = 21.817096 Si / 1000 Ang^3
#
#
#
# Elastic Constant Matrix: (Units=GPa)
#
#
# Indices 1 2 3 4 5 6 
#
# 1 69.1313 64.3239 32.7289 5.3538 -38.5648 11.7334
# 2 64.3239 161.6512 54.5864 5.2917 -38.8487 21.0696
# 3 32.7289 54.5864 77.4584 23.8561 -37.7328 5.2160
# 4 5.3538 5.2917 23.8561 19.5502 -6.6459 1.4208
# 5 -38.5648 -38.8487 -37.7328 -6.6459 44.3645 -9.4605
# 6 11.7334 21.0696 5.2160 1.4208 -9.4605 46.2601
#
#
#
# Elastic Compliance Matrix: (Units=1/GPa)
#
#
# Indices 1 2 3 4 5 6 
#
# 1 0.036694 -0.010176 0.007757 -0.007063 0.028638 0.000526
# 2 -0.010176 0.012367 -0.010144 0.010073 -0.005863 -0.003416
# 3 0.007757 -0.010144 0.044930 -0.044193 0.030561 0.005194
# 4 -0.007063 0.010073 -0.044193 0.097378 -0.021424 -0.005186
# 5 0.028638 -0.005863 0.030561 -0.021424 0.066406 0.006199
# 6 0.000526 -0.003416 0.005194 -0.005186 0.006199 0.023881
#
#
# Mechanical properties :
#
#
# Convention : Reuss Voigt Hill
#
# Bulk Modulus (GPa) = 14.52113 67.94660 41.23386
# Shear Modulus (GPa) = 15.16359 32.47506 23.81933
#
# Velocity S-wave (km/s) = 2.63921 3.86231 3.30778
# Velocity P-wave (km/s) = 3.99469 7.14852 5.79046
#
# Compressibility (1/GPa) = 0.06886517
#
# Stress axis : x y z
#
# Youngs Moduli (GPa) = 27.25212 80.85894 22.25704
#
# Poissons Ratio (x) = 0.82279 -0.17264
# Poissons Ratio (y) = 0.27731 0.22578
# Poissons Ratio (z) = -0.21139 0.82026
#
# Static dielectric constant tensor:
#      x y z
#    x 1.906630 -0.001040 0.028060 
#    y -0.001040 1.789850 -0.032020 
#    z 0.028060 -0.032020 1.819300 
# 
# From -- ./inp_files/260532.got.cif
#   From: 2010.05.17/outbox.cif.g08.bks.cpg/sg2_131_cif.got.tgz:260532.got - 2010.06.03 11:33:40.
