data_PCOD9088849
_publ_section_title
;
Structure prediction by ZEFSAII (Michael W. Deem and Ramdas Pophale) SiO2 
 PCOD9088849
Probable space group: P -1
;
_chemical_formula_sum "Si O2"
_cell_formula_units_Z 14
_cell_length_a 18.809913
_cell_length_b 7.118089
_cell_length_c 11.411710
_cell_angle_alpha 44.452901
_cell_angle_beta 146.660646
_cell_angle_gamma 114.971570
_cell_volume 524.422811
_symmetry_space_group_name_H-M "P -1"
_symmetry_group_IT_number 2
_symmetry_cell_setting 'triclinic'
loop_
_space_group_symop_operation_xyz
x,y,z
-x,-y,-z
loop_
_atom_site_type_symbol
_atom_site_label
_atom_site_fract_x
_atom_site_fract_y
_atom_site_fract_z
Si Si1 0.028189 0.133864 0.101333
Si Si2 0.391056 0.378191 0.972502
Si Si3 0.434566 0.785525 0.053920
Si Si4 0.745397 0.310816 0.743900
Si Si5 0.174845 0.831189 0.816851
Si Si6 0.297031 0.939314 0.433592
Si Si7 0.862073 0.446943 0.324364
O O1 0.167302 0.173093 0.231108
O O2 0.087816 0.878778 0.397968
O O3 0.000000 0.000000 0.000000
O O4 0.872917 0.377147 0.828329
O O5 0.403964 0.604536 0.986941
O O6 0.544813 0.085710 0.312998
O O7 0.334557 0.597049 0.685212
O O8 0.263438 0.319489 0.871179
O O9 0.577082 0.541281 0.421780
O O10 0.287368 0.932100 0.862870
O O11 0.500000 0.000000 0.000000
O O12 0.743214 0.070091 0.752515
O O13 0.791849 0.219718 0.979651
O O14 0.196994 0.553142 0.886437
O O15 0.000000 0.000000 0.500000
O O16 0.000000 0.500000 0.500000
#
# Coordination Sequence:
#
# PCOD9088849 Si02
#       7
#     2   2   2   2   2   2   2
#     4   9  17  33  58  84 119 158 200 244 313 363
#     4   8  16  34  60  84 121 159 200 251 317 359
#     4  10  22  41  66  92 120 161 216 261 310 373
#     4  10  19  37  63  91 122 168 202 256 317 375
#     4  11  22  42  64  89 131 171 201 253 325 376
#     4   8  15  31  58  86 112 154 200 244 304 365
#     4  10  20  37  60  88 120 164 212 253 302 371
#
# _framework density 26.696016
#
# number of rings (size 3 to 8) (size 9 to 14) (size 15 to 20)
#    0.000    2.571    1.429    0.429    0.000    0.000 
#   15.429    6.429    0.000   14.571    0.000    0.000 
#    0.000    0.000    0.000    0.000    0.000    0.000 
#
# Total GULP energy -78165.232025 kJ/mol
# GULP energy per Si atom -5583.230859 kJ/mol
# Density = 2.663525 g / cm^3
# Si number density = 26.696016 Si / 1000 Ang^3
#
#
#
# Elastic Constant Matrix: (Units=GPa)
#
#
# Indices 1 2 3 4 5 6 
#
# 1 207.6064 52.4808 73.7021 25.5708 22.8391 2.3757
# 2 52.4808 78.1088 30.4570 8.9542 1.1311 -10.2868
# 3 73.7021 30.4570 165.7569 34.1437 8.5874 10.5899
# 4 25.5708 8.9542 34.1437 14.9175 6.5293 6.7470
# 5 22.8391 1.1311 8.5874 6.5293 84.2025 21.6014
# 6 2.3757 -10.2868 10.5899 6.7470 21.6014 40.2994
#
#
#
# Elastic Compliance Matrix: (Units=1/GPa)
#
#
# Indices 1 2 3 4 5 6 
#
# 1 0.007112 -0.003352 -0.000896 -0.007979 -0.001449 0.001073
# 2 -0.003352 0.016698 -0.001030 -0.004325 -0.000318 0.005625
# 3 -0.000896 -0.001030 0.011778 -0.025411 0.000907 0.000463
# 4 -0.007979 -0.004325 -0.025411 0.150579 -0.002256 -0.017957
# 5 -0.001449 -0.000318 0.000907 -0.002256 0.014283 -0.007513
# 6 0.001073 0.005625 0.000463 -0.017957 -0.007513 0.033098
#
#
# Mechanical properties :
#
#
# Convention : Reuss Voigt Hill
#
# Bulk Modulus (GPa) = 39.94904 84.97244 62.46074
# Shear Modulus (GPa) = 19.80598 47.53934 33.67266
#
# Velocity S-wave (km/s) = 2.72675 4.22449 3.55538
# Velocity P-wave (km/s) = 4.99104 7.46283 6.34840
#
# Compressibility (1/GPa) = 0.02503189
#
# Stress axis : x y z
#
# Youngs Moduli (GPa) = 140.60031 59.88880 84.90124
#
# Poissons Ratio (x) = 0.20076 0.07611
# Poissons Ratio (y) = 0.47132 0.08741
# Poissons Ratio (z) = 0.12604 0.06166
#
# Static dielectric constant tensor:
#      x y z
#    x 2.174850 0.012120 0.075360 
#    y 0.012120 2.228580 -0.040270 
#    z 0.075360 -0.040270 2.160640 
# 
# From -- ./inp_files/461928.got.cif
#   From: 2010.05.17/outbox.cif.g08.bks.cpg/sg2_231_cif.got.tgz:461928.got - 2010.06.03 11:33:40.
