data_PCOD9088778
_publ_section_title
;
Structure prediction by ZEFSAII (Michael W. Deem and Ramdas Pophale) SiO2 
 PCOD9088778
Probable space group: P -1
;
_chemical_formula_sum "Si O2"
_cell_formula_units_Z 16
_cell_length_a 22.166189
_cell_length_b 26.935945
_cell_length_c 16.525049
_cell_angle_alpha 17.184451
_cell_angle_beta 25.535949
_cell_angle_gamma 15.520144
_cell_volume 759.034803
_symmetry_space_group_name_H-M "P -1"
_symmetry_group_IT_number 2
_symmetry_cell_setting 'triclinic'
loop_
_space_group_symop_operation_xyz
x,y,z
-x,-y,-z
loop_
_atom_site_type_symbol
_atom_site_label
_atom_site_fract_x
_atom_site_fract_y
_atom_site_fract_z
Si Si1 0.936811 0.948083 0.233961
Si Si2 0.012810 0.713710 0.958117
Si Si3 0.781185 0.818656 0.239227
Si Si4 0.014148 0.070645 0.110952
Si Si5 0.889430 0.585106 0.185597
Si Si6 0.432927 0.878952 0.355048
Si Si7 0.468442 0.266936 0.352550
Si Si8 0.212429 0.820795 0.623408
O O1 0.024447 0.673837 0.547034
O O2 0.034722 0.937586 0.214103
O O3 0.659675 0.191389 0.193325
O O4 0.000000 0.000000 0.000000
O O5 0.219559 0.623468 0.889138
O O6 0.877644 0.975395 0.657383
O O7 0.848854 0.809569 0.080421
O O8 0.063312 0.512573 0.149580
O O9 0.571546 0.887170 0.387731
O O10 0.000000 0.500000 0.500000
O O11 0.784281 0.985392 0.029058
O O12 0.965973 0.018011 0.335304
O O13 0.776914 0.403889 0.866005
O O14 0.659168 0.768534 0.231482
O O15 0.794241 0.798586 0.898275
O O16 0.441244 0.827436 0.518321
O O17 0.429409 0.712928 0.564362
#
# Coordination Sequence:
#
# PCOD9088778 Si02
#       8
#     2   2   2   2   2   2   2   2
#     4  12  26  38  56  85 125 155 190 249 297 343
#     4   9  17  35  57  89 116 146 192 243 284 342
#     4   9  19  35  64  85 112 151 204 240 282 346
#     4  10  21  39  62  87 116 157 197 239 290 351
#     4  10  22  37  59  88 119 150 192 243 295 342
#     4  10  19  37  63  87 110 154 200 238 286 352
#     4  11  21  39  61  85 114 157 202 238 291 350
#     4   9  18  32  61  89 113 147 196 237 286 343
#
# _framework density 21.079402999999999
#
# number of rings (size 3 to 8) (size 9 to 14) (size 15 to 20)
#    0.000    2.000    2.500    1.125    3.500    0.500 
#    0.000    1.875    0.000    0.750    0.000    0.000 
#    0.000    0.000    0.000    0.000    0.000    0.000 
#
# Total GULP energy -89247.297099 kJ/mol
# GULP energy per Si atom -5577.956069 kJ/mol
# Density = 2.103143 g / cm^3
# Si number density = 21.079403 Si / 1000 Ang^3
#
#
#
# Elastic Constant Matrix: (Units=GPa)
#
#
# Indices 1 2 3 4 5 6 
#
# 1 160.5397 33.7416 68.1652 13.5934 -29.1156 2.4703
# 2 33.7416 21.9944 25.2643 16.1531 1.1155 5.8776
# 3 68.1652 25.2643 108.8585 14.4912 -10.8945 11.0824
# 4 13.5934 16.1531 14.4912 37.3095 6.6453 -4.9890
# 5 -29.1156 1.1155 -10.8945 6.6453 47.4143 8.9447
# 6 2.4703 5.8776 11.0824 -4.9890 8.9447 24.5735
#
#
#
# Elastic Compliance Matrix: (Units=1/GPa)
#
#
# Indices 1 2 3 4 5 6 
#
# 1 0.012647 -0.020313 -0.003726 0.005144 0.005880 0.004172
# 2 -0.020313 0.133116 -0.008162 -0.051105 -0.003687 -0.035150
# 3 -0.003726 -0.008162 0.014488 -0.001928 0.002545 -0.005525
# 4 0.005144 -0.051105 -0.001928 0.052839 -0.008465 0.026384
# 5 0.005880 -0.003687 0.002545 -0.008465 0.029039 -0.013146
# 6 0.004172 -0.035150 -0.005525 0.026384 -0.013146 0.061315
#
#
# Mechanical properties :
#
#
# Convention : Reuss Voigt Hill
#
# Bulk Modulus (GPa) = 10.43311 60.63720 35.53516
# Shear Modulus (GPa) = 12.50638 32.80753 22.65696
#
# Velocity S-wave (km/s) = 2.43841 3.94938 3.28203
# Velocity P-wave (km/s) = 3.58999 7.04452 5.59077
#
# Compressibility (1/GPa) = 0.09584865
#
# Stress axis : x y z
#
# Youngs Moduli (GPa) = 79.07067 7.51223 69.02478
#
# Poissons Ratio (x) = 0.15259 0.25719
# Poissons Ratio (y) = 1.60614 0.56339
# Poissons Ratio (z) = 0.29462 0.06132
#
# Static dielectric constant tensor:
#      x y z
#    x 1.800110 -0.019560 -0.035060 
#    y -0.019560 1.759040 0.015050 
#    z -0.035060 0.015050 1.795500 
# 
# From -- ./inp_files/541741.got.cif
#   From: 2010.05.17/outbox.cif.g08.bks.cpg/sg2_271_cif.got.tgz:541741.got - 2010.06.03 11:33:40.
