data_PCOD9088775
_publ_section_title
;
Structure prediction by ZEFSAII (Michael W. Deem and Ramdas Pophale) SiO2 
 PCOD9088775
Probable space group: P -1
;
_chemical_formula_sum "Si O2"
_cell_formula_units_Z 16
_cell_length_a 8.733077
_cell_length_b 21.569993
_cell_length_c 7.697492
_cell_angle_alpha 132.675230
_cell_angle_beta 51.503846
_cell_angle_gamma 146.329638
_cell_volume 584.947821
_symmetry_space_group_name_H-M "P -1"
_symmetry_group_IT_number 2
_symmetry_cell_setting 'triclinic'
loop_
_space_group_symop_operation_xyz
x,y,z
-x,-y,-z
loop_
_atom_site_type_symbol
_atom_site_label
_atom_site_fract_x
_atom_site_fract_y
_atom_site_fract_z
Si Si1 0.412913 0.600529 0.328028
Si Si2 0.532489 0.216130 0.502930
Si Si3 0.944668 0.593533 0.075726
Si Si4 0.042531 0.773166 0.132903
Si Si5 0.822833 0.764392 0.953694
Si Si6 0.431039 0.033121 0.437262
Si Si7 0.079127 0.008852 0.160947
Si Si8 0.327205 0.549131 0.680011
O O1 0.290491 0.656423 0.478338
O O2 0.302989 0.506483 0.073995
O O3 0.750027 0.714095 0.314161
O O4 0.330902 0.538962 0.454053
O O5 0.369390 0.230565 0.780324
O O6 0.625224 0.163106 0.451878
O O7 0.347140 0.121121 0.294839
O O8 0.808533 0.559284 0.296571
O O9 0.148841 0.577834 0.898955
O O10 0.118871 0.722277 0.111285
O O11 0.939770 0.727058 0.922962
O O12 0.287544 0.915055 0.204420
O O13 0.054657 0.900560 0.985308
O O14 0.631448 0.668558 0.759435
O O15 0.500000 0.000000 0.500000
O O16 0.165657 0.012491 0.617458
O O17 0.000000 0.000000 0.000000
#
# Coordination Sequence:
#
# PCOD9088775 Si02
#       8
#     2   2   2   2   2   2   2   2
#     4  11  22  42  68  90 122 164 215 254 302 369
#     4  10  19  40  64  87 123 162 208 248 303 377
#     4  11  25  42  63  92 129 160 204 263 313 361
#     4  11  22  42  62  89 128 165 203 254 312 365
#     4  10  19  37  63  86 121 163 204 244 306 375
#     4  11  23  39  62  92 125 164 200 253 317 366
#     4  11  20  37  63  91 118 162 211 249 300 378
#     4  11  24  41  66  94 118 166 212 253 313 369
#
# _framework density 27.352865999999999
#
# number of rings (size 3 to 8) (size 9 to 14) (size 15 to 20)
#    0.000    1.250    6.250    2.250    3.500    0.500 
#    0.000    1.875    0.000    0.000    0.000    0.000 
#    0.000    0.000    0.000    0.000    0.000    0.000 
#
# Total GULP energy -89397.839132 kJ/mol
# GULP energy per Si atom -5587.364946 kJ/mol
# Density = 2.729061 g / cm^3
# Si number density = 27.352866 Si / 1000 Ang^3
#
#
#
# Elastic Constant Matrix: (Units=GPa)
#
#
# Indices 1 2 3 4 5 6 
#
# 1 161.2638 38.2219 48.2184 6.9150 15.7271 -48.9178
# 2 38.2219 87.2655 48.6928 1.1250 14.0135 -28.1886
# 3 48.2184 48.6928 101.2527 1.3805 7.2528 -19.7145
# 4 6.9150 1.1250 1.3805 23.9714 -11.5736 2.1305
# 5 15.7271 14.0135 7.2528 -11.5736 53.2042 -1.0242
# 6 -48.9178 -28.1886 -19.7145 2.1305 -1.0242 62.1785
#
#
#
# Elastic Compliance Matrix: (Units=1/GPa)
#
#
# Indices 1 2 3 4 5 6 
#
# 1 0.009698 0.000348 -0.003125 -0.004924 -0.003471 0.006908
# 2 0.000348 0.018165 -0.007325 -0.003245 -0.004475 0.006224
# 3 -0.003125 -0.007325 0.014567 0.001027 0.001068 -0.001178
# 4 -0.004924 -0.003245 0.001027 0.050053 0.012933 -0.006521
# 5 -0.003471 -0.004475 0.001068 0.012933 0.023582 -0.004475
# 6 0.006908 0.006224 -0.001178 -0.006521 -0.004475 0.024116
#
#
# Mechanical properties :
#
#
# Convention : Reuss Voigt Hill
#
# Bulk Modulus (GPa) = 44.99038 68.89426 56.94232
# Shear Modulus (GPa) = 29.79874 42.18076 35.98975
#
# Velocity S-wave (km/s) = 3.30422 3.93121 3.63127
# Velocity P-wave (km/s) = 5.57144 6.77110 6.20035
#
# Compressibility (1/GPa) = 0.02222697
#
# Stress axis : x y z
#
# Youngs Moduli (GPa) = 103.11373 55.05168 68.64770
#
# Poissons Ratio (x) = -0.01918 0.21453
# Poissons Ratio (y) = -0.03592 0.50283
# Poissons Ratio (z) = 0.32224 0.40324
#
# Static dielectric constant tensor:
#      x y z
#    x 2.188160 0.038480 -0.100500 
#    y 0.038480 1.898360 0.329040 
#    z -0.100500 0.329040 1.676840 
# 
# From -- ./inp_files/225001.got.cif
#   From: 2010.05.17/outbox.cif.g08.bks.cpg/sg2_113_cif.got.tgz:225001.got - 2010.06.03 11:33:40.
