data_PCOD9088680
_publ_section_title
;
Structure prediction by ZEFSAII (Michael W. Deem and Ramdas Pophale) SiO2 
 PCOD9088680
Probable space group: P -1
;
_chemical_formula_sum "Si O2"
_cell_formula_units_Z 15
_cell_length_a 9.311528
_cell_length_b 11.997041
_cell_length_c 7.661919
_cell_angle_alpha 49.839245
_cell_angle_beta 100.593983
_cell_angle_gamma 121.193103
_cell_volume 544.592323
_symmetry_space_group_name_H-M "P -1"
_symmetry_group_IT_number 2
_symmetry_cell_setting 'triclinic'
loop_
_space_group_symop_operation_xyz
x,y,z
-x,-y,-z
loop_
_atom_site_type_symbol
_atom_site_label
_atom_site_fract_x
_atom_site_fract_y
_atom_site_fract_z
Si Si1 0.429566 0.111364 0.465201
Si Si2 0.811413 0.080073 0.050274
Si Si3 0.000000 0.500000 0.500000
Si Si4 0.639992 0.451285 0.384243
Si Si5 0.235030 0.687363 0.000386
Si Si6 0.912861 0.966051 0.702809
Si Si7 0.985155 0.315299 0.359552
Si Si8 0.418107 0.250634 0.878791
O O1 0.325658 0.016308 0.721121
O O2 0.570886 0.307128 0.359105
O O3 0.500000 0.000000 0.500000
O O4 0.285815 0.110024 0.309162
O O5 0.732543 0.944101 0.012636
O O6 0.000570 0.119285 0.089533
O O7 0.827295 0.266749 0.875571
O O8 0.830066 0.526225 0.428210
O O9 0.917330 0.375015 0.438701
O O10 0.508105 0.344074 0.621182
O O11 0.622779 0.615491 0.177875
O O12 0.434798 0.765962 0.978626
O O13 0.158150 0.485285 0.164972
O O14 0.143028 0.732066 0.784641
O O15 0.998170 0.160938 0.587070
O O16 0.000000 0.000000 0.500000
#
# Coordination Sequence:
#
# PCOD9088680 Si02
#       8
#     2   2   1   2   2   2   2   2
#     4  10  20  34  57  91 123 156 204 252 305 354
#     4  10  21  37  65  89 121 161 209 256 302 358
#     4  12  22  42  62  92 124 162 206 252 306 378
#     4  10  22  36  65  88 122 163 209 254 301 365
#     4  11  22  38  62  95 125 161 204 261 309 364
#     4  10  19  37  62  92 116 162 216 253 282 379
#     4  11  23  37  64  93 123 162 209 252 313 362
#     4  10  21  39  60  94 118 161 210 255 300 367
#
# _framework density 27.543541000000001
#
# number of rings (size 3 to 8) (size 9 to 14) (size 15 to 20)
#    0.000    1.600    4.000    2.000    5.600    0.000 
#    0.000    0.667    2.933    1.600    0.000    0.000 
#    0.000    0.000    0.000    0.000    0.000    0.000 
#
# Total GULP energy -83770.147826 kJ/mol
# GULP energy per Si atom -5584.676522 kJ/mol
# Density = 2.748085 g / cm^3
# Si number density = 27.543541 Si / 1000 Ang^3
#
#
#
# Elastic Constant Matrix: (Units=GPa)
#
#
# Indices 1 2 3 4 5 6 
#
# 1 183.1919 88.2731 34.6745 -17.8276 39.4743 19.2213
# 2 88.2731 222.2403 37.1828 -2.9793 29.3412 -0.0332
# 3 34.6745 37.1828 105.3127 -12.4241 26.0831 -7.2777
# 4 -17.8276 -2.9793 -12.4241 41.2253 -6.2265 10.1372
# 5 39.4743 29.3412 26.0831 -6.2265 54.6343 2.9979
# 6 19.2213 -0.0332 -7.2777 10.1372 2.9979 45.4395
#
#
#
# Elastic Compliance Matrix: (Units=1/GPa)
#
#
# Indices 1 2 3 4 5 6 
#
# 1 0.008531 -0.002723 -0.000798 0.003767 -0.003653 -0.004338
# 2 -0.002723 0.005856 -0.001024 -0.001549 -0.000942 0.001400
# 3 -0.000798 -0.001024 0.011547 0.001912 -0.004280 0.002042
# 4 0.003767 -0.001549 0.001912 0.028365 0.000851 -0.007672
# 5 -0.003653 -0.000942 -0.004280 0.000851 0.023638 -0.000890
# 6 -0.004338 0.001400 0.002042 -0.007672 -0.000890 0.025941
#
#
# Mechanical properties :
#
#
# Convention : Reuss Voigt Hill
#
# Bulk Modulus (GPa) = 59.36747 92.33396 75.85072
# Shear Modulus (GPa) = 42.16513 51.63413 46.89963
#
# Velocity S-wave (km/s) = 3.91686 4.33440 4.13091
# Velocity P-wave (km/s) = 6.48510 7.65801 7.09583
#
# Compressibility (1/GPa) = 0.01684424
#
# Stress axis : x y z
#
# Youngs Moduli (GPa) = 117.22525 170.75818 86.60599
#
# Poissons Ratio (x) = 0.46492 0.06912
# Poissons Ratio (y) = 0.31916 0.08867
# Poissons Ratio (z) = 0.09355 0.17483
#
# Static dielectric constant tensor:
#      x y z
#    x 2.083230 0.016110 -0.197500 
#    y 0.016110 1.972550 0.145700 
#    z -0.197500 0.145700 2.081570 
# 
# From -- ./inp_files/185120.got.cif
#   From: 2010.05.17/outbox.cif.g08.bks.cpg/sg2_93_cif.got.tgz:185120.got - 2010.06.03 11:33:40.
