data_PCOD9088728
_publ_section_title
;
Structure prediction by ZEFSAII (Michael W. Deem and Ramdas Pophale) SiO2 
 PCOD9088728
Probable space group: P -1
;
_chemical_formula_sum "Si O2"
_cell_formula_units_Z 16
_cell_length_a 13.688977
_cell_length_b 8.349227
_cell_length_c 11.420688
_cell_angle_alpha 51.838585
_cell_angle_beta 42.363435
_cell_angle_gamma 44.740630
_cell_volume 607.083684
_symmetry_space_group_name_H-M "P -1"
_symmetry_group_IT_number 2
_symmetry_cell_setting 'triclinic'
loop_
_space_group_symop_operation_xyz
x,y,z
-x,-y,-z
loop_
_atom_site_type_symbol
_atom_site_label
_atom_site_fract_x
_atom_site_fract_y
_atom_site_fract_z
Si Si1 0.719428 0.517402 0.006958
Si Si2 0.231835 0.765682 0.128787
Si Si3 0.151625 0.622524 0.713032
Si Si4 0.678281 0.843297 0.514821
Si Si5 0.220118 0.066603 0.197723
Si Si6 0.114892 0.072771 0.545267
Si Si7 0.525930 0.633292 0.607685
Si Si8 0.102876 0.225430 0.879478
O O1 0.695635 0.450287 0.925872
O O2 0.694088 0.774154 0.932603
O O3 0.911393 0.351588 0.952462
O O4 0.596565 0.468609 0.217650
O O5 0.078663 0.770468 0.333856
O O6 0.309165 0.855247 0.122705
O O7 0.163615 0.980158 0.998425
O O8 0.311607 0.530928 0.532124
O O9 0.148135 0.384719 0.854290
O O10 0.969108 0.769078 0.752847
O O11 0.158100 0.831528 0.683061
O O12 0.793161 0.796468 0.543774
O O13 0.583576 0.695869 0.651331
O O14 0.793822 0.799776 0.318214
O O15 0.553459 0.117424 0.498978
O O16 0.180106 0.002740 0.388796
#
# Coordination Sequence:
#
# PCOD9088728 Si02
#       8
#     2   2   2   2   2   2   2   2
#     4  11  21  39  64  95 124 165 206 259 312 358
#     4  11  20  37  67  94 123 155 204 273 300 355
#     4   9  21  39  62  91 127 160 195 259 313 370
#     4  10  20  38  64  90 126 159 201 253 309 382
#     4  10  25  43  63  92 122 166 223 249 292 367
#     4  11  22  42  64  88 121 170 214 253 296 362
#     4  10  21  38  60  95 128 154 200 253 328 375
#     4  10  19  37  62  99 119 156 210 255 316 363
#
# _framework density 26.355508
#
# number of rings (size 3 to 8) (size 9 to 14) (size 15 to 20)
#    0.000    1.750    2.500    2.625    0.000    6.500 
#    6.750    1.250    0.000    0.000    0.000    0.000 
#    0.000    0.000    0.000    0.000    0.000    0.000 
#
# Total GULP energy -89473.656251 kJ/mol
# GULP energy per Si atom -5592.103516 kJ/mol
# Density = 2.629552 g / cm^3
# Si number density = 26.355508 Si / 1000 Ang^3
#
#
#
# Elastic Constant Matrix: (Units=GPa)
#
#
# Indices 1 2 3 4 5 6 
#
# 1 64.1519 25.5267 46.3006 0.6936 -15.7911 24.0505
# 2 25.5267 113.9719 48.0264 1.7076 -21.1660 17.6037
# 3 46.3006 48.0264 117.3854 0.7070 -19.8032 11.6698
# 4 0.6936 1.7076 0.7070 34.4032 12.4841 -4.5283
# 5 -15.7911 -21.1660 -19.8032 12.4841 51.1701 -2.5589
# 6 24.0505 17.6037 11.6698 -4.5283 -2.5589 34.7062
#
#
#
# Elastic Compliance Matrix: (Units=1/GPa)
#
#
# Indices 1 2 3 4 5 6 
#
# 1 0.030903 0.001460 -0.009714 -0.005463 0.006758 -0.019103
# 2 0.001460 0.011894 -0.004156 -0.002794 0.004158 -0.005705
# 3 -0.009714 -0.004156 0.013738 0.000432 0.000711 0.004329
# 4 -0.005463 -0.002794 0.000432 0.034308 -0.010607 0.008752
# 5 0.006758 0.004158 0.000711 -0.010607 0.025886 -0.006507
# 6 -0.019103 -0.005705 0.004329 0.008752 -0.006507 0.044151
#
#
# Mechanical properties :
#
#
# Convention : Reuss Voigt Hill
#
# Bulk Modulus (GPa) = 31.53321 59.46852 45.50086
# Shear Modulus (GPa) = 25.47486 35.76627 30.62057
#
# Velocity S-wave (km/s) = 3.11237 3.68784 3.41226
# Velocity P-wave (km/s) = 4.99062 6.38330 5.72943
#
# Compressibility (1/GPa) = 0.03171260
#
# Stress axis : x y z
#
# Youngs Moduli (GPa) = 32.35982 84.07709 72.79114
#
# Poissons Ratio (x) = -0.12271 0.70709
# Poissons Ratio (y) = -0.04723 0.30255
# Poissons Ratio (z) = 0.31434 0.34946
#
# Static dielectric constant tensor:
#      x y z
#    x 2.144440 0.010640 0.028370 
#    y 0.010640 2.074580 -0.026500 
#    z 0.028370 -0.026500 2.009140 
# 
# From -- ./inp_files/446747.got.cif
#   From: 2010.05.17/outbox.cif.g08.bks.cpg/sg2_224_cif.got.tgz:446747.got - 2010.06.03 11:33:40.
