data_PCOD9088080
_publ_section_title
;
Structure prediction by ZEFSAII (Michael W. Deem and Ramdas Pophale) SiO2 
 PCOD9088080
Probable space group: P -1
;
_chemical_formula_sum "Si O2"
_cell_formula_units_Z 16
_cell_length_a 4.954840
_cell_length_b 25.215599
_cell_length_c 6.031480
_cell_angle_alpha 50.110322
_cell_angle_beta 89.022356
_cell_angle_gamma 90.416006
_cell_volume 577.951745
_symmetry_space_group_name_H-M "P -1"
_symmetry_group_IT_number 2
_symmetry_cell_setting 'triclinic'
loop_
_space_group_symop_operation_xyz
x,y,z
-x,-y,-z
loop_
_atom_site_type_symbol
_atom_site_label
_atom_site_fract_x
_atom_site_fract_y
_atom_site_fract_z
Si Si1 0.954932 0.094673 0.696860
Si Si2 0.099119 0.364042 0.817895
Si Si3 0.458560 0.608010 0.646498
Si Si4 0.189523 0.773142 0.841299
Si Si5 0.727519 0.512801 0.274168
Si Si6 0.061681 0.157977 0.967088
Si Si7 0.417753 0.269284 0.409817
Si Si8 0.422218 0.057730 0.522070
O O1 0.940402 0.104990 0.930440
O O2 0.192395 0.045517 0.746409
O O3 0.687572 0.077854 0.605381
O O4 0.024645 0.175541 0.407604
O O5 0.313652 0.374612 0.588490
O O6 0.047237 0.436564 0.750289
O O7 0.868601 0.308317 0.905783
O O8 0.242008 0.319275 0.127290
O O9 0.227736 0.560347 0.655569
O O10 0.393052 0.677776 0.590928
O O11 0.592819 0.558891 0.960384
O O12 0.184571 0.808316 0.986653
O O13 0.418122 0.775318 0.647508
O O14 0.500000 0.500000 0.500000
O O15 0.234895 0.222276 0.696927
O O16 0.269729 0.114165 0.225129
O O17 0.500000 0.000000 0.500000
#
# Coordination Sequence:
#
# PCOD9088080 Si02
#       8
#     2   2   2   2   2   2   2   2
#     4  11  25  46  75 110 151 198 249 303 374 450
#     4  10  19  37  58  94 133 175 239 298 360 442
#     4   9  17  33  60  88 128 183 228 297 377 422
#     4  11  24  39  65 102 139 183 238 303 358 441
#     4   8  16  31  57  87 126 178 230 294 366 434
#     4  11  25  47  73 107 152 196 240 308 376 433
#     4  11  22  39  65  96 138 184 242 297 373 442
#     4  11  27  50  77 114 152 194 253 308 363 451
#
# _framework density 27.683969000000001
#
# number of rings (size 3 to 8) (size 9 to 14) (size 15 to 20)
#    0.000    1.750    2.500    1.125    1.750    6.000 
#    0.000    0.625    0.000   27.750    0.000    0.000 
#    0.000    0.000    0.000    0.000    0.000    0.000 
#
# Total GULP energy -89564.511944 kJ/mol
# GULP energy per Si atom -5597.781996 kJ/mol
# Density = 2.762096 g / cm^3
# Si number density = 27.683969 Si / 1000 Ang^3
#
#
#
# Elastic Constant Matrix: (Units=GPa)
#
#
# Indices 1 2 3 4 5 6 
#
# 1 111.8897 92.3030 16.3390 22.0645 3.3663 6.9386
# 2 92.3030 247.9192 28.3842 29.6543 2.0945 -0.4332
# 3 16.3390 28.3842 117.8773 6.9525 0.0566 1.8460
# 4 22.0645 29.6543 6.9525 48.2882 -4.0436 11.0225
# 5 3.3663 2.0945 0.0566 -4.0436 35.4434 8.0361
# 6 6.9386 -0.4332 1.8460 11.0225 8.0361 54.7849
#
#
#
# Elastic Compliance Matrix: (Units=1/GPa)
#
#
# Indices 1 2 3 4 5 6 
#
# 1 0.013515 -0.004580 -0.000569 -0.003169 -0.001165 -0.000920
# 2 -0.004580 0.006041 -0.000731 -0.001786 -0.000366 0.001065
# 3 -0.000569 -0.000731 0.008771 -0.000519 0.000054 -0.000133
# 4 -0.003169 -0.001786 -0.000519 0.024900 0.004440 -0.005256
# 5 -0.001165 -0.000366 0.000054 0.004440 0.030021 -0.005154
# 6 -0.000920 0.001065 -0.000133 -0.005256 -0.005154 0.020196
#
#
# Mechanical properties :
#
#
# Convention : Reuss Voigt Hill
#
# Bulk Modulus (GPa) = 60.35554 83.52650 71.94102
# Shear Modulus (GPa) = 41.41611 50.41396 45.91503
#
# Velocity S-wave (km/s) = 3.87205 4.27201 4.07694
# Velocity P-wave (km/s) = 6.46833 7.38717 6.94297
#
# Compressibility (1/GPa) = 0.01656849
#
# Stress axis : x y z
#
# Youngs Moduli (GPa) = 73.99025 165.54021 114.01299
#
# Poissons Ratio (x) = 0.75809 0.06485
# Poissons Ratio (y) = 0.33884 0.08334
# Poissons Ratio (z) = 0.04208 0.12101
#
# Static dielectric constant tensor:
#      x y z
#    x 2.156450 0.074960 0.031380 
#    y 0.074960 2.235120 0.011280 
#    z 0.031380 0.011280 2.269330 
# 
# From -- ./inp_files/12787.got.cif
#   From: 2010.05.17/outbox.cif.g08.bks.cpg/sg2_7_cif.got.tgz:12787.got - 2010.06.03 11:33:40.
