data_PCOD9088461
_publ_section_title
;
Structure prediction by ZEFSAII (Michael W. Deem and Ramdas Pophale) SiO2 
 PCOD9088461
Probable space group: P -1
;
_chemical_formula_sum "Si O2"
_cell_formula_units_Z 15
_cell_length_a 10.673811
_cell_length_b 8.813831
_cell_length_c 7.370844
_cell_angle_alpha 64.050114
_cell_angle_beta 109.613085
_cell_angle_gamma 108.613933
_cell_volume 575.057283
_symmetry_space_group_name_H-M "P -1"
_symmetry_group_IT_number 2
_symmetry_cell_setting 'triclinic'
loop_
_space_group_symop_operation_xyz
x,y,z
-x,-y,-z
loop_
_atom_site_type_symbol
_atom_site_label
_atom_site_fract_x
_atom_site_fract_y
_atom_site_fract_z
Si Si1 0.968754 0.221693 0.216576
Si Si2 0.529167 0.547841 0.779577
Si Si3 0.189284 0.027574 0.417633
Si Si4 0.359933 0.792429 0.423007
Si Si5 0.883317 0.541073 0.545099
Si Si6 0.500000 0.000000 0.000000
Si Si7 0.687875 0.758340 0.305744
Si Si8 0.310857 0.719091 0.060247
O O1 0.895262 0.109663 0.410042
O O2 0.053807 0.389968 0.268339
O O3 0.842419 0.259431 0.022765
O O4 0.073074 0.118661 0.226593
O O5 0.478800 0.724398 0.620184
O O6 0.427183 0.412495 0.675188
O O7 0.666893 0.474856 0.847722
O O8 0.500000 0.500000 0.000000
O O9 0.286898 0.936705 0.392285
O O10 0.277165 0.173520 0.511126
O O11 0.237351 0.626259 0.419705
O O12 0.406584 0.828387 0.215249
O O13 0.822569 0.695073 0.343846
O O14 0.000000 0.500000 0.500000
O O15 0.632623 0.899357 0.095635
O O16 0.398489 0.847019 0.891586
#
# Coordination Sequence:
#
# PCOD9088461 Si02
#       8
#     2   2   2   2   2   1   2   2
#     4  10  20  36  62  85 120 166 197 248 298 365
#     4  10  22  40  65  87 118 162 204 246 305 369
#     4  10  19  37  61  88 120 156 207 243 302 359
#     4  11  23  38  61  92 125 156 202 257 302 351
#     4  10  20  36  60  88 119 157 202 245 301 363
#     4  10  20  38  60  80 116 160 198 238 310 348
#     4   9  20  35  61  86 115 152 204 250 285 364
#     4  11  23  39  62  88 125 156 205 258 299 359
#
# _framework density 26.084358999999999
#
# number of rings (size 3 to 8) (size 9 to 14) (size 15 to 20)
#    0.000    1.867    2.667    1.200    3.733    1.067 
#    0.000    2.667   17.600    0.000    0.000    0.000 
#    0.000    0.000    0.000    0.000    0.000    0.000 
#
# Total GULP energy -83623.789724 kJ/mol
# GULP energy per Si atom -5574.919315 kJ/mol
# Density = 2.602499 g / cm^3
# Si number density = 26.084359 Si / 1000 Ang^3
#
#
#
# Elastic Constant Matrix: (Units=GPa)
#
#
# Indices 1 2 3 4 5 6 
#
# 1 123.2616 76.8891 57.6257 -20.0443 23.8656 -26.5334
# 2 76.8891 169.0408 57.4100 -22.2645 19.2957 -48.2954
# 3 57.6257 57.4100 118.0927 -43.4326 34.1616 -36.4280
# 4 -20.0443 -22.2645 -43.4326 45.0993 -14.6572 24.8337
# 5 23.8656 19.2957 34.1616 -14.6572 49.1063 -11.8154
# 6 -26.5334 -48.2954 -36.4280 24.8337 -11.8154 81.8187
#
#
#
# Elastic Compliance Matrix: (Units=1/GPa)
#
#
# Indices 1 2 3 4 5 6 
#
# 1 0.012976 -0.004517 -0.003877 -0.000738 -0.002119 -0.000266
# 2 -0.004517 0.009434 -0.001644 -0.000873 0.000255 0.003674
# 3 -0.003877 -0.001644 0.017570 0.011841 -0.005882 0.001152
# 4 -0.000738 -0.000873 0.011841 0.036994 0.001960 -0.006429
# 5 -0.002119 0.000255 -0.005882 0.001960 0.025970 0.000000
# 6 -0.000266 0.003674 0.001152 -0.006429 0.000000 0.016769
#
#
# Mechanical properties :
#
#
# Convention : Reuss Voigt Hill
#
# Bulk Modulus (GPa) = 50.23773 88.24940 69.24357
# Shear Modulus (GPa) = 34.14770 49.76954 41.95862
#
# Velocity S-wave (km/s) = 3.62211 4.37283 4.01505
# Velocity P-wave (km/s) = 6.06584 7.70722 6.93526
#
# Compressibility (1/GPa) = 0.01990536
#
# Stress axis : x y z
#
# Youngs Moduli (GPa) = 77.06755 105.99892 56.91391
#
# Poissons Ratio (x) = 0.47878 0.22063
# Poissons Ratio (y) = 0.34810 0.09356
# Poissons Ratio (z) = 0.29876 0.17426
#
# Static dielectric constant tensor:
#      x y z
#    x 2.351630 0.149820 -0.382670 
#    y 0.149820 2.153830 -0.132880 
#    z -0.382670 -0.132880 2.557000 
# 
# From -- ./inp_files/239303.got.cif
#   From: 2010.05.17/outbox.cif.g08.bks.cpg/sg2_120_cif.got.tgz:239303.got - 2010.06.03 11:33:40.
