data_PCOD9088891
_publ_section_title
;
Structure prediction by ZEFSAII (Michael W. Deem and Ramdas Pophale) SiO2 
 PCOD9088891
Probable space group: P -1
;
_chemical_formula_sum "Si O2"
_cell_formula_units_Z 16
_cell_length_a 12.104347
_cell_length_b 5.921368
_cell_length_c 19.342124
_cell_angle_alpha 87.277809
_cell_angle_beta 26.474025
_cell_angle_gamma 89.276365
_cell_volume 615.927148
_symmetry_space_group_name_H-M "P -1"
_symmetry_group_IT_number 2
_symmetry_cell_setting 'triclinic'
loop_
_space_group_symop_operation_xyz
x,y,z
-x,-y,-z
loop_
_atom_site_type_symbol
_atom_site_label
_atom_site_fract_x
_atom_site_fract_y
_atom_site_fract_z
Si Si1 0.357932 0.656572 0.336746
Si Si2 0.878490 0.247800 0.053598
Si Si3 0.263075 0.886231 0.517069
Si Si4 0.025900 0.756648 0.405831
Si Si5 0.132405 0.903762 0.090427
Si Si6 0.458373 0.310461 0.909245
Si Si7 0.682747 0.213311 0.305240
Si Si8 0.031167 0.517042 0.754886
O O1 0.430710 0.776330 0.365361
O O2 0.170027 0.808201 0.396545
O O3 0.562840 0.640895 0.162565
O O4 0.196083 0.427221 0.448755
O O5 0.667644 0.244430 0.230814
O O6 0.000000 0.500000 0.000000
O O7 0.827119 0.231621 0.001021
O O8 0.000000 0.000000 0.000000
O O9 0.132503 0.679043 0.635279
O O10 0.439806 0.056912 0.460574
O O11 0.067267 0.034132 0.586033
O O12 0.249932 0.638951 0.241219
O O13 0.016090 0.750786 0.219022
O O14 0.927569 0.080370 0.185728
O O15 0.387351 0.043691 0.963058
O O16 0.247550 0.422679 0.068252
O O17 0.756277 0.437264 0.304842
#
# Coordination Sequence:
#
# PCOD9088891 Si02
#       8
#     2   2   2   2   2   2   2   2
#     4   9  21  43  66  94 121 160 215 268 330 382
#     4  10  19  37  63  94 132 173 229 284 338 402
#     4  12  24  40  66  92 125 173 218 259 327 401
#     4   9  22  44  67  91 127 157 215 276 325 388
#     4  10  21  39  61  91 132 168 213 269 326 400
#     4   9  21  41  65  91 125 162 210 270 330 385
#     4  10  23  40  58  93 131 169 214 269 329 396
#     4  11  24  40  62  94 130 172 210 260 330 399
#
# _framework density 25.977096
#
# number of rings (size 3 to 8) (size 9 to 14) (size 15 to 20)
#    0.750    1.250    1.250    1.500    0.000    8.000 
#    0.000    1.250    0.000    0.000    0.000    0.000 
#    0.000    0.000    0.000    0.000    0.000    0.000 
#
# Total GULP energy -89318.381796 kJ/mol
# GULP energy per Si atom -5582.398862 kJ/mol
# Density = 2.591797 g / cm^3
# Si number density = 25.977096 Si / 1000 Ang^3
#
#
#
# Elastic Constant Matrix: (Units=GPa)
#
#
# Indices 1 2 3 4 5 6 
#
# 1 64.4268 10.6998 21.2452 -4.2597 9.7795 -14.1986
# 2 10.6998 78.1137 40.1040 -31.0226 0.9305 -10.3026
# 3 21.2452 40.1040 115.6024 -20.3599 10.1606 -6.7819
# 4 -4.2597 -31.0226 -20.3599 56.2220 -3.8493 7.1607
# 5 9.7795 0.9305 10.1606 -3.8493 36.6966 -0.5947
# 6 -14.1986 -10.3026 -6.7819 7.1607 -0.5947 35.0251
#
#
#
# Elastic Compliance Matrix: (Units=1/GPa)
#
#
# Indices 1 2 3 4 5 6 
#
# 1 0.018598 -0.000673 -0.002594 -0.001081 -0.004221 0.006988
# 2 -0.000673 0.019201 -0.005060 0.008508 0.002029 0.002691
# 3 -0.002594 -0.005060 0.011215 0.001001 -0.002191 -0.000610
# 4 -0.001081 0.008508 0.001001 0.023224 0.002192 -0.002453
# 5 -0.004221 0.002029 -0.002191 0.002192 0.029136 -0.001492
# 6 0.006988 0.002691 -0.000610 -0.002453 -0.001492 0.032533
#
#
# Mechanical properties :
#
#
# Convention : Reuss Voigt Hill
#
# Bulk Modulus (GPa) = 30.90062 44.69343 37.79703
# Shear Modulus (GPa) = 30.98886 37.99502 34.49194
#
# Velocity S-wave (km/s) = 3.45763 3.82859 3.64783
# Velocity P-wave (km/s) = 5.27839 6.06518 5.68541
#
# Compressibility (1/GPa) = 0.03236181
#
# Stress axis : x y z
#
# Youngs Moduli (GPa) = 53.76925 52.07983 89.16401
#
# Poissons Ratio (x) = 0.03505 0.23127
# Poissons Ratio (y) = 0.03619 0.45113
# Poissons Ratio (z) = 0.13946 0.26350
#
# Static dielectric constant tensor:
#      x y z
#    x 2.097050 0.012790 0.054950 
#    y 0.012790 2.108520 0.037360 
#    z 0.054950 0.037360 2.038180 
# 
# From -- ./inp_files/611242.got.cif
#   From: 2010.05.17/outbox.cif.g08.bks.cpg/sg2_306_cif.got.tgz:611242.got - 2010.06.03 11:33:40.
