data_PCOD9088359
_publ_section_title
;
Structure prediction by ZEFSAII (Michael W. Deem and Ramdas Pophale) SiO2 
 PCOD9088359
Probable space group: P -1
;
_chemical_formula_sum "Si O2"
_cell_formula_units_Z 16
_cell_length_a 18.089103
_cell_length_b 14.901625
_cell_length_c 12.210691
_cell_angle_alpha 128.381991
_cell_angle_beta 129.081402
_cell_angle_gamma 17.645884
_cell_volume 771.666963
_symmetry_space_group_name_H-M "P -1"
_symmetry_group_IT_number 2
_symmetry_cell_setting 'triclinic'
loop_
_space_group_symop_operation_xyz
x,y,z
-x,-y,-z
loop_
_atom_site_type_symbol
_atom_site_label
_atom_site_fract_x
_atom_site_fract_y
_atom_site_fract_z
Si Si1 0.169251 0.128234 0.646593
Si Si2 0.150548 0.842237 0.138111
Si Si3 0.003208 0.215035 0.975257
Si Si4 0.588504 0.286876 0.856581
Si Si5 0.196120 0.323522 0.948717
Si Si6 0.827351 0.358750 0.374254
Si Si7 0.652427 0.456463 0.516400
Si Si8 0.151746 0.976842 0.708851
O O1 0.171521 0.257499 0.778728
O O2 0.115527 0.126285 0.711333
O O3 0.979401 0.303063 0.505470
O O4 0.424980 0.784084 0.590931
O O5 0.345119 0.724772 0.203619
O O6 0.195315 0.663280 0.084153
O O7 0.995073 0.073585 0.263462
O O8 0.000000 0.000000 0.000000
O O9 0.180454 0.974716 0.860171
O O10 0.890782 0.456277 0.008611
O O11 0.180407 0.023854 0.100870
O O12 0.395528 0.400236 0.737652
O O13 0.500000 0.500000 0.000000
O O14 0.000000 0.500000 0.000000
O O15 0.500000 0.000000 0.000000
O O16 0.737053 0.417023 0.451328
O O17 0.885520 0.209713 0.628230
O O18 0.639298 0.335588 0.386624
#
# Coordination Sequence:
#
# PCOD9088359 Si02
#       8
#     2   2   2   2   2   2   2   2
#     4  11  24  40  67  94 141 188 229 292 358 419
#     4  10  20  38  63  99 136 174 225 288 360 415
#     4  11  22  42  69 104 137 185 244 289 359 427
#     4  11  21  39  66 103 142 178 227 296 364 432
#     4  12  28  52  74 102 146 198 250 299 346 432
#     4  11  21  39  63  97 139 174 222 288 362 424
#     4  10  20  36  61  94 136 175 215 286 363 428
#     4  10  19  37  60  98 132 168 229 284 359 422
#
# _framework density 20.734332999999999
#
# number of rings (size 3 to 8) (size 9 to 14) (size 15 to 20)
#    0.000    1.250    5.000    1.875    1.750    1.000 
#    9.000    0.625    0.000    6.750    0.000    0.000 
#    0.000    0.000    0.000    0.000    0.000    0.000 
#
# Total GULP energy -89083.101062 kJ/mol
# GULP energy per Si atom -5567.693816 kJ/mol
# Density = 2.068714 g / cm^3
# Si number density = 20.734333 Si / 1000 Ang^3
#
#
#
# Elastic Constant Matrix: (Units=GPa)
#
#
# Indices 1 2 3 4 5 6 
#
# 1 99.9692 45.5195 34.7602 10.9797 3.1310 12.0711
# 2 45.5195 101.3970 46.0139 -0.2920 7.7243 1.4415
# 3 34.7602 46.0139 119.9061 2.2858 16.7430 -4.3144
# 4 10.9797 -0.2920 2.2858 33.7141 1.4322 5.2733
# 5 3.1310 7.7243 16.7430 1.4322 32.3196 2.6723
# 6 12.0711 1.4415 -4.3144 5.2733 2.6723 30.3114
#
#
#
# Elastic Compliance Matrix: (Units=1/GPa)
#
#
# Indices 1 2 3 4 5 6 
#
# 1 0.014303 -0.005381 -0.002447 -0.003787 0.001773 -0.005286
# 2 -0.005381 0.014030 -0.003689 0.002062 -0.001069 0.000686
# 3 -0.002447 -0.003689 0.011283 -0.000296 -0.004982 0.003247
# 4 -0.003787 0.002062 -0.000296 0.031609 -0.001039 -0.004039
# 5 0.001773 -0.001069 -0.004982 -0.001039 0.033997 -0.004181
# 6 -0.005286 0.000686 0.003247 -0.004039 -0.004181 0.036597
#
#
# Mechanical properties :
#
#
# Convention : Reuss Voigt Hill
#
# Bulk Modulus (GPa) = 60.31078 63.76218 62.03648
# Shear Modulus (GPa) = 29.34620 32.26758 30.80689
#
# Velocity S-wave (km/s) = 3.76619 3.94920 3.85878
# Velocity P-wave (km/s) = 6.93273 7.18426 7.05962
#
# Compressibility (1/GPa) = 0.01658078
#
# Stress axis : x y z
#
# Youngs Moduli (GPa) = 69.91612 71.27661 88.62877
#
# Poissons Ratio (x) = 0.38356 0.21686
# Poissons Ratio (y) = 0.37624 0.32698
# Poissons Ratio (z) = 0.17107 0.26296
#
# Static dielectric constant tensor:
#      x y z
#    x 1.810630 -0.109500 0.011440 
#    y -0.109500 1.840110 -0.046780 
#    z 0.011440 -0.046780 1.779830 
# 
# From -- ./inp_files/465885.got.cif
#   From: 2010.05.17/outbox.cif.g08.bks.cpg/sg2_233_cif.got.tgz:465885.got - 2010.06.03 11:33:40.
