data_PCOD9088571
_publ_section_title
;
Structure prediction by ZEFSAII (Michael W. Deem and Ramdas Pophale) SiO2 
 PCOD9088571
Probable space group: P -1
;
_chemical_formula_sum "Si O2"
_cell_formula_units_Z 14
_cell_length_a 12.320395
_cell_length_b 13.603815
_cell_length_c 22.789719
_cell_angle_alpha 21.904232
_cell_angle_beta 148.871143
_cell_angle_gamma 138.418095
_cell_volume 715.195102
_symmetry_space_group_name_H-M "P -1"
_symmetry_group_IT_number 2
_symmetry_cell_setting 'triclinic'
loop_
_space_group_symop_operation_xyz
x,y,z
-x,-y,-z
loop_
_atom_site_type_symbol
_atom_site_label
_atom_site_fract_x
_atom_site_fract_y
_atom_site_fract_z
Si Si1 0.491890 0.453932 0.434450
Si Si2 0.748040 0.414609 0.992240
Si Si3 0.305809 0.430696 0.815586
Si Si4 0.143638 0.232400 0.602764
Si Si5 0.257655 0.133635 0.836972
Si Si6 0.744836 0.074793 0.853296
Si Si7 0.191055 0.559088 0.131661
O O1 0.681754 0.610598 0.425496
O O2 0.600476 0.181627 0.670249
O O3 0.317462 0.664264 0.276742
O O4 0.377321 0.415572 0.341892
O O5 0.964080 0.483828 0.077893
O O6 0.778516 0.089915 0.190032
O O7 0.523888 0.535518 0.854670
O O8 0.739941 0.492847 0.875922
O O9 0.280785 0.306485 0.808328
O O10 0.084814 0.656935 0.595497
O O11 0.315934 0.184520 0.001564
O O12 0.131962 0.278162 0.642328
O O13 0.500000 0.000000 0.000000
O O14 0.159969 0.881021 0.948856
O O15 0.000000 0.000000 0.000000
#
# Coordination Sequence:
#
# PCOD9088571 Si02
#       7
#     2   2   2   2   2   2   2
#     4  11  20  37  60  84 111 143 196 238 276 327
#     4  10  21  38  57  84 123 149 179 222 289 351
#     4  12  20  36  58  83 115 148 187 238 279 332
#     4  11  20  34  59  87 110 147 186 230 289 338
#     4  11  17  34  59  86 111 141 186 235 287 331
#     4  11  22  35  58  87 109 146 192 245 279 313
#     4  10  19  37  62  83 116 154 177 229 288 339
#
# _framework density 19.575077
#
# number of rings (size 3 to 8) (size 9 to 14) (size 15 to 20)
#    0.000    1.143    8.571    0.429    0.000    0.000 
#    0.000   10.000    0.000    1.714    0.000    0.000 
#    0.000    0.000    0.000    0.000    0.000    0.000 
#
# Total GULP energy -78174.820949 kJ/mol
# GULP energy per Si atom -5583.915782 kJ/mol
# Density = 1.953052 g / cm^3
# Si number density = 19.575077 Si / 1000 Ang^3
#
#
#
# Elastic Constant Matrix: (Units=GPa)
#
#
# Indices 1 2 3 4 5 6 
#
# 1 59.5823 26.2360 50.0127 19.3078 -8.2845 24.5461
# 2 26.2360 83.8344 26.4764 27.9385 1.8393 33.8692
# 3 50.0127 26.4764 128.0938 36.9379 -15.1246 14.9268
# 4 19.3078 27.9385 36.9379 24.2173 2.6891 10.0015
# 5 -8.2845 1.8393 -15.1246 2.6891 32.0895 2.3629
# 6 24.5461 33.8692 14.9268 10.0015 2.3629 28.0572
#
#
#
# Elastic Compliance Matrix: (Units=1/GPa)
#
#
# Indices 1 2 3 4 5 6 
#
# 1 0.044008 0.014368 -0.006077 -0.025403 0.013091 -0.044659
# 2 0.014368 0.043761 0.009261 -0.056401 0.014078 -0.051404
# 3 -0.006077 0.009261 0.020710 -0.036705 0.011086 -0.004731
# 4 -0.025403 -0.056401 -0.036705 0.164363 -0.038410 0.054479
# 5 0.013091 0.014078 0.011086 -0.038410 0.043973 -0.024355
# 6 -0.044659 -0.051404 -0.004731 0.054479 -0.024355 0.121912
#
#
# Mechanical properties :
#
#
# Convention : Reuss Voigt Hill
#
# Bulk Modulus (GPa) = 6.96462 52.99560 29.98011
# Shear Modulus (GPa) = 11.07460 28.12514 19.59987
#
# Velocity S-wave (km/s) = 2.38113 3.79460 3.16771
# Velocity P-wave (km/s) = 3.33547 6.80665 5.35984
#
# Compressibility (1/GPa) = 0.14358292
#
# Stress axis : x y z
#
# Youngs Moduli (GPa) = 22.72299 22.85128 48.28636
#
# Poissons Ratio (x) = -0.32832 0.29344
# Poissons Ratio (y) = -0.32647 -0.44720
# Poissons Ratio (z) = 0.13809 -0.21163
#
# Static dielectric constant tensor:
#      x y z
#    x 1.717340 0.002510 0.003140 
#    y 0.002510 1.676400 0.021970 
#    z 0.003140 0.021970 1.716990 
# 
# From -- ./inp_files/253890.got.cif
#   From: 2010.05.17/outbox.cif.g08.bks.cpg/sg2_127_cif.got.tgz:253890.got - 2010.06.03 11:33:40.
