data_PCOD9088937
_publ_section_title
;
Structure prediction by ZEFSAII (Michael W. Deem and Ramdas Pophale) SiO2 
 PCOD9088937
Probable space group: P -1
;
_chemical_formula_sum "Si O2"
_cell_formula_units_Z 14
_cell_length_a 12.994083
_cell_length_b 10.224306
_cell_length_c 7.169043
_cell_angle_alpha 133.671409
_cell_angle_beta 103.112250
_cell_angle_gamma 93.011167
_cell_volume 640.691036
_symmetry_space_group_name_H-M "P -1"
_symmetry_group_IT_number 2
_symmetry_cell_setting 'triclinic'
loop_
_space_group_symop_operation_xyz
x,y,z
-x,-y,-z
loop_
_atom_site_type_symbol
_atom_site_label
_atom_site_fract_x
_atom_site_fract_y
_atom_site_fract_z
Si Si1 0.793756 0.258214 0.557785
Si Si2 0.967723 0.777840 0.305803
Si Si3 0.797822 0.614684 0.763296
Si Si4 0.637413 0.931781 0.374547
Si Si5 0.437504 0.432411 0.214849
Si Si6 0.769836 0.704076 0.437806
Si Si7 0.362913 0.672992 0.143118
O O1 0.777375 0.387467 0.506822
O O2 0.751255 0.355601 0.811293
O O3 0.919417 0.265752 0.640902
O O4 0.711248 0.046990 0.344422
O O5 0.879090 0.723385 0.381406
O O6 0.907405 0.682213 0.998841
O O7 0.000000 0.000000 0.500000
O O8 0.692476 0.636694 0.853659
O O9 0.804538 0.730688 0.692081
O O10 0.546076 0.748922 0.067486
O O11 0.710858 0.845906 0.457839
O O12 0.607705 0.101079 0.640346
O O13 0.500000 0.500000 0.500000
O O14 0.446236 0.608391 0.253044
O O15 0.678941 0.495228 0.187546
#
# Coordination Sequence:
#
# PCOD9088937 Si02
#       7
#     2   2   2   2   2   2   2
#     4   9  18  36  59  77 114 158 186 224 287 331
#     4  12  19  37  58  80 119 159 189 229 285 338
#     4  11  23  38  56  89 115 147 198 240 282 339
#     4   9  17  40  59  79 119 154 181 240 282 334
#     4  10  19  37  64  85 110 153 190 234 293 342
#     4  11  21  37  59  83 122 149 190 241 279 333
#     4   8  18  38  56  80 115 152 184 232 288 329
#
# _framework density 21.851406999999998
#
# number of rings (size 3 to 8) (size 9 to 14) (size 15 to 20)
#    0.857    1.143    5.714    0.429    0.000    1.714 
#    5.143    2.857    0.000    1.714    0.000    0.000 
#    0.000    0.000    0.000    0.000    0.000    0.000 
#
# Total GULP energy -77987.789105 kJ/mol
# GULP energy per Si atom -5570.556365 kJ/mol
# Density = 2.180167 g / cm^3
# Si number density = 21.851407 Si / 1000 Ang^3
#
#
#
# Elastic Constant Matrix: (Units=GPa)
#
#
# Indices 1 2 3 4 5 6 
#
# 1 55.8983 14.0333 0.6095 16.6327 -1.0046 -5.7284
# 2 14.0333 118.0196 39.3931 15.6186 -3.5377 -11.8085
# 3 0.6095 39.3931 43.6222 13.9942 -9.0014 -13.9317
# 4 16.6327 15.6186 13.9942 39.4658 4.7068 -6.5388
# 5 -1.0046 -3.5377 -9.0014 4.7068 19.3836 9.7841
# 6 -5.7284 -11.8085 -13.9317 -6.5388 9.7841 38.3391
#
#
#
# Elastic Compliance Matrix: (Units=1/GPa)
#
#
# Indices 1 2 3 4 5 6 
#
# 1 0.022424 -0.003622 0.008522 -0.011510 0.006374 0.001742
# 2 -0.003622 0.012902 -0.012946 0.001531 -0.004254 0.000075
# 3 0.008522 -0.012946 0.045750 -0.016104 0.020202 0.006008
# 4 -0.011510 0.001531 -0.016104 0.038319 -0.019301 0.004361
# 5 0.006374 -0.004254 0.020202 -0.019301 0.072716 -0.014866
# 6 0.001742 0.000075 0.006008 0.004361 -0.014866 0.033087
#
#
# Mechanical properties :
#
#
# Convention : Reuss Voigt Hill
#
# Bulk Modulus (GPa) = 15.38842 36.17912 25.78377
# Shear Modulus (GPa) = 19.01491 30.33797 24.67644
#
# Velocity S-wave (km/s) = 2.95310 3.73013 3.36413
# Velocity P-wave (km/s) = 4.32265 5.92830 5.18797
#
# Compressibility (1/GPa) = 0.06498391
#
# Stress axis : x y z
#
# Youngs Moduli (GPa) = 44.59492 77.50477 21.85804
#
# Poissons Ratio (x) = 0.28074 -0.18627
# Poissons Ratio (y) = 0.16153 0.28297
# Poissons Ratio (z) = -0.38004 1.00337
#
# Static dielectric constant tensor:
#      x y z
#    x 1.857710 0.034280 -0.034520 
#    y 0.034280 1.840640 0.063220 
#    z -0.034520 0.063220 1.840090 
# 
# From -- ./inp_files/91206.got.cif
#   From: 2010.05.17/outbox.cif.g08.bks.cpg/sg2_46_cif.got.tgz:91206.got - 2010.06.03 11:33:40.
