data_PCOD9088154
_publ_section_title
;
Structure prediction by ZEFSAII (Michael W. Deem and Ramdas Pophale) SiO2 
 PCOD9088154
Probable space group: P -1
;
_chemical_formula_sum "Si O2"
_cell_formula_units_Z 16
_cell_length_a 9.957272
_cell_length_b 9.071572
_cell_length_c 20.457781
_cell_angle_alpha 29.012548
_cell_angle_beta 56.305446
_cell_angle_gamma 53.576102
_cell_volume 718.162814
_symmetry_space_group_name_H-M "P -1"
_symmetry_group_IT_number 2
_symmetry_cell_setting 'triclinic'
loop_
_space_group_symop_operation_xyz
x,y,z
-x,-y,-z
loop_
_atom_site_type_symbol
_atom_site_label
_atom_site_fract_x
_atom_site_fract_y
_atom_site_fract_z
Si Si1 0.213750 0.205843 0.118969
Si Si2 0.745213 0.093828 0.362471
Si Si3 0.568047 0.119079 0.002348
Si Si4 0.502966 0.274954 0.469008
Si Si5 0.728449 0.187805 0.628121
Si Si6 0.715922 0.690662 0.720942
Si Si7 0.986397 0.746593 0.546875
Si Si8 0.122092 0.362574 0.935647
O O1 0.078741 0.512235 0.067172
O O2 0.201670 0.907783 0.280994
O O3 0.413332 0.173463 0.073676
O O4 0.155598 0.211953 0.057091
O O5 0.589111 0.305675 0.364906
O O6 0.814158 0.318081 0.209461
O O7 0.666421 0.830953 0.455476
O O8 0.883334 0.928229 0.442559
O O9 0.605528 0.452311 0.851467
O O10 0.500000 0.000000 0.000000
O O11 0.752853 0.873082 0.056936
O O12 0.458097 0.596943 0.395736
O O13 0.622573 0.988386 0.586562
O O14 0.829960 0.377933 0.483578
O O15 0.744549 0.856381 0.716142
O O16 0.885363 0.538039 0.693105
O O17 0.000000 0.000000 0.500000
#
# Coordination Sequence:
#
# PCOD9088154 Si02
#       8
#     2   2   2   2   2   2   2   2
#     4  10  21  36  60  89 120 157 208 248 297 364
#     4  10  19  37  59  87 124 152 201 248 302 370
#     4  10  21  40  63  85 120 165 204 253 309 352
#     4  10  21  35  62  93 116 159 199 251 313 362
#     4  11  21  39  60  89 124 157 201 252 305 367
#     4  10  22  41  60  86 124 159 201 250 307 372
#     4   9  20  38  60  82 121 157 190 246 307 360
#     4  10  20  38  60  86 122 161 200 255 301 352
#
# _framework density 22.279070999999998
#
# number of rings (size 3 to 8) (size 9 to 14) (size 15 to 20)
#    0.000    2.000    1.250    2.625    0.000    6.000 
#    9.000    0.625    0.000    0.000    0.000    0.000 
#    0.000    0.000    0.000    0.000    0.000    0.000 
#
# Total GULP energy -89165.591320 kJ/mol
# GULP energy per Si atom -5572.849457 kJ/mol
# Density = 2.222836 g / cm^3
# Si number density = 22.279071 Si / 1000 Ang^3
#
#
#
# Elastic Constant Matrix: (Units=GPa)
#
#
# Indices 1 2 3 4 5 6 
#
# 1 55.2568 20.6216 8.3922 6.2746 -2.0666 -6.1009
# 2 20.6216 125.6143 33.9053 15.8470 -11.7061 -40.9564
# 3 8.3922 33.9053 78.0624 20.5182 -13.1765 -4.3343
# 4 6.2746 15.8470 20.5182 24.4601 -10.1152 1.7575
# 5 -2.0666 -11.7061 -13.1765 -10.1152 25.1544 6.6657
# 6 -6.1009 -40.9564 -4.3343 1.7575 6.6657 38.0228
#
#
#
# Elastic Compliance Matrix: (Units=1/GPa)
#
#
# Indices 1 2 3 4 5 6 
#
# 1 0.019549 -0.002544 -0.000178 -0.003872 -0.001442 0.000808
# 2 -0.002544 0.015845 -0.003826 -0.008853 -0.002944 0.017148
# 3 -0.000178 -0.003826 0.017817 -0.010658 0.003862 -0.002304
# 4 -0.003872 -0.008853 -0.010658 0.066836 0.021695 -0.018265
# 5 -0.001442 -0.002944 0.003862 0.021695 0.052503 -0.013169
# 6 0.000808 0.017148 -0.002304 -0.018265 -0.013169 0.047791
#
#
# Mechanical properties :
#
#
# Convention : Reuss Voigt Hill
#
# Bulk Modulus (GPa) = 24.92834 42.75243 33.84038
# Shear Modulus (GPa) = 20.25866 30.59509 25.42687
#
# Velocity S-wave (km/s) = 3.01875 3.70978 3.38196
# Velocity P-wave (km/s) = 4.83362 6.13034 5.52019
#
# Compressibility (1/GPa) = 0.04011498
#
# Stress axis : x y z
#
# Youngs Moduli (GPa) = 51.15466 63.11141 56.12700
#
# Poissons Ratio (x) = 0.16053 0.00997
# Poissons Ratio (y) = 0.13012 0.21477
# Poissons Ratio (z) = 0.00908 0.24149
#
# Static dielectric constant tensor:
#      x y z
#    x 1.863260 -0.065400 -0.001200 
#    y -0.065400 1.903770 0.002650 
#    z -0.001200 0.002650 1.822350 
# 
# From -- ./inp_files/177960.got.cif
#   From: 2010.05.17/outbox.cif.g08.bks.cpg/sg2_89_cif.got.tgz:177960.got - 2010.06.03 11:33:40.
