data_PCOD9088838
_publ_section_title
;
Structure prediction by ZEFSAII (Michael W. Deem and Ramdas Pophale) SiO2 
 PCOD9088838
Probable space group: P -1
;
_chemical_formula_sum "Si O2"
_cell_formula_units_Z 16
_cell_length_a 7.119048
_cell_length_b 22.999017
_cell_length_c 12.827054
_cell_angle_alpha 24.422947
_cell_angle_beta 71.917142
_cell_angle_gamma 86.028387
_cell_volume 693.270958
_symmetry_space_group_name_H-M "P -1"
_symmetry_group_IT_number 2
_symmetry_cell_setting 'triclinic'
loop_
_space_group_symop_operation_xyz
x,y,z
-x,-y,-z
loop_
_atom_site_type_symbol
_atom_site_label
_atom_site_fract_x
_atom_site_fract_y
_atom_site_fract_z
Si Si1 0.588130 0.774033 0.033119
Si Si2 0.613269 0.251721 0.487953
Si Si3 0.391725 0.106651 0.380915
Si Si4 0.178380 0.394742 0.662447
Si Si5 0.124271 0.568317 0.198053
Si Si6 0.149995 0.179885 0.732542
Si Si7 0.911303 0.585268 0.760775
Si Si8 0.321102 0.953520 0.857820
O O1 0.390029 0.583164 0.347360
O O2 0.747283 0.738833 0.137826
O O3 0.710705 0.866873 0.751066
O O4 0.461227 0.862721 0.957083
O O5 0.403584 0.215370 0.662555
O O6 0.835542 0.265978 0.482611
O O7 0.486699 0.108737 0.654285
O O8 0.750181 0.437036 0.110529
O O9 0.500000 0.000000 0.500000
O O10 0.270666 0.019852 0.651378
O O11 0.600089 0.291908 0.077953
O O12 0.083289 0.431722 0.514531
O O13 0.000303 0.344955 0.870723
O O14 0.044923 0.498273 0.210699
O O15 0.221518 0.328788 0.396292
O O16 0.938033 0.165596 0.857063
O O17 0.000000 0.000000 0.000000
#
# Coordination Sequence:
#
# PCOD9088838 Si02
#       8
#     2   2   2   2   2   2   2   2
#     4   9  18  36  63  97 130 167 218 270 326 400
#     4  10  23  43  69  95 131 174 226 274 326 396
#     4   9  18  35  63  88 127 174 212 262 330 390
#     4   9  19  36  60  97 132 161 219 270 328 401
#     4  10  19  37  63  90 131 177 207 271 337 389
#     4  10  23  42  65  94 131 170 224 278 325 384
#     4  11  22  43  68  95 132 173 222 273 331 394
#     4  10  19  39  67  94 135 181 212 272 340 382
#
# _framework density 23.079001000000002
#
# number of rings (size 3 to 8) (size 9 to 14) (size 15 to 20)
#    0.000    2.250    1.250    1.125    0.000    3.000 
#   11.250    5.000    2.750    0.000    0.000    0.000 
#    0.000    0.000    0.000    0.000    0.000    0.000 
#
# Total GULP energy -89187.598068 kJ/mol
# GULP energy per Si atom -5574.224879 kJ/mol
# Density = 2.302647 g / cm^3
# Si number density = 23.079001 Si / 1000 Ang^3
#
#
#
# Elastic Constant Matrix: (Units=GPa)
#
#
# Indices 1 2 3 4 5 6 
#
# 1 90.1606 35.3427 29.2875 5.6088 -15.4269 -11.4558
# 2 35.3427 78.9959 27.5122 -8.4436 -10.5022 -1.3238
# 3 29.2875 27.5122 69.5313 0.3120 4.2161 -11.3838
# 4 5.6088 -8.4436 0.3120 34.0467 4.9619 -0.3453
# 5 -15.4269 -10.5022 4.2161 4.9619 37.2304 -10.9592
# 6 -11.4558 -1.3238 -11.3838 -0.3453 -10.9592 28.0485
#
#
#
# Elastic Compliance Matrix: (Units=1/GPa)
#
#
# Indices 1 2 3 4 5 6 
#
# 1 0.017877 -0.005626 -0.004398 -0.005624 0.009710 0.008976
# 2 -0.005626 0.017730 -0.005239 0.005088 0.001749 -0.002842
# 3 -0.004398 -0.005239 0.019237 -0.000089 -0.004261 0.004098
# 4 -0.005624 0.005088 -0.000089 0.032458 -0.006452 -0.004214
# 5 0.009710 0.001749 -0.004261 -0.006452 0.037716 0.016976
# 6 0.008976 -0.002842 0.004098 -0.004214 0.016976 0.047429
#
#
# Mechanical properties :
#
#
# Convention : Reuss Voigt Hill
#
# Bulk Modulus (GPa) = 41.12403 46.99696 44.06050
# Shear Modulus (GPa) = 23.68765 29.63482 26.66123
#
# Velocity S-wave (km/s) = 3.20718 3.58727 3.40253
# Velocity P-wave (km/s) = 5.61891 6.12909 5.87953
#
# Compressibility (1/GPa) = 0.02431668
#
# Stress axis : x y z
#
# Youngs Moduli (GPa) = 55.93690 56.40277 51.98222
#
# Poissons Ratio (x) = 0.31735 0.22861
# Poissons Ratio (y) = 0.31472 0.27236
# Poissons Ratio (z) = 0.24600 0.29552
#
# Static dielectric constant tensor:
#      x y z
#    x 1.890250 0.004420 -0.002060 
#    y 0.004420 1.968770 0.035900 
#    z -0.002060 0.035900 1.898910 
# 
# From -- ./inp_files/210589.got.cif
#   From: 2010.05.17/outbox.cif.g08.bks.cpg/sg2_106_cif.got.tgz:210589.got - 2010.06.03 11:33:40.
