data_PCOD9088419
_publ_section_title
;
Structure prediction by ZEFSAII (Michael W. Deem and Ramdas Pophale) SiO2 
 PCOD9088419
Probable space group: P -1
;
_chemical_formula_sum "Si O2"
_cell_formula_units_Z 12
_cell_length_a 10.334274
_cell_length_b 8.260661
_cell_length_c 7.751470
_cell_angle_alpha 61.779347
_cell_angle_beta 121.993001
_cell_angle_gamma 86.997139
_cell_volume 452.060659
_symmetry_space_group_name_H-M "P -1"
_symmetry_group_IT_number 2
_symmetry_cell_setting 'triclinic'
loop_
_space_group_symop_operation_xyz
x,y,z
-x,-y,-z
loop_
_atom_site_type_symbol
_atom_site_label
_atom_site_fract_x
_atom_site_fract_y
_atom_site_fract_z
Si Si1 0.846264 0.452902 0.991082
Si Si2 0.577496 0.161332 0.011098
Si Si3 0.857946 0.125039 0.699584
Si Si4 0.730831 0.519808 0.522552
Si Si5 0.123837 0.139719 0.497023
Si Si6 0.496773 0.793378 0.662023
O O1 0.770815 0.401644 0.791445
O O2 0.685510 0.634200 0.856788
O O3 0.000000 0.500000 0.000000
O O4 0.930848 0.290094 0.280500
O O5 0.548599 0.213748 0.166868
O O6 0.776919 0.028382 0.205902
O O7 0.460621 0.363627 0.729892
O O8 0.500000 0.000000 0.000000
O O9 0.855298 0.349515 0.568010
O O10 0.658241 0.206783 0.559508
O O11 0.868839 0.977676 0.620027
O O12 0.000000 0.000000 0.000000
O O13 0.784103 0.707307 0.500359
O O14 0.500000 0.000000 0.500000
#
# Coordination Sequence:
#
# PCOD9088419 Si02
#       6
#     2   2   2   2   2   2
#     4  10  19  37  61  85 126 164 204 262 303 362
#     4   9  19  39  63  93 125 168 206 263 320 377
#     4  11  22  38  65  95 123 168 216 260 314 379
#     4  10  20  37  67  90 124 166 209 260 326 362
#     4   9  19  36  60  86 125 161 200 258 310 364
#     4  11  23  37  64  97 126 167 219 256 312 386
#
# _framework density 26.545110999999999
#
# number of rings (size 3 to 8) (size 9 to 14) (size 15 to 20)
#    0.000    2.000    1.667    5.000    2.333    3.333 
#    0.000    7.500    3.667    2.000    0.000    0.000 
#    0.000    0.000    0.000    0.000    0.000    0.000 
#
# Total GULP energy -66855.777545 kJ/mol
# GULP energy per Si atom -5571.314795 kJ/mol
# Density = 2.648469 g / cm^3
# Si number density = 26.545111 Si / 1000 Ang^3
#
#
#
# Elastic Constant Matrix: (Units=GPa)
#
#
# Indices 1 2 3 4 5 6 
#
# 1 68.1516 28.6374 43.6727 1.3098 20.5039 4.6388
# 2 28.6374 156.5228 79.1967 -13.5676 13.6088 -6.1231
# 3 43.6727 79.1967 340.2775 -31.1365 43.2802 -12.1923
# 4 1.3098 -13.5676 -31.1365 59.7557 -10.1498 13.4835
# 5 20.5039 13.6088 43.2802 -10.1498 35.1841 2.1586
# 6 4.6388 -6.1231 -12.1923 13.4835 2.1586 40.4823
#
#
#
# Elastic Compliance Matrix: (Units=1/GPa)
#
#
# Indices 1 2 3 4 5 6 
#
# 1 0.019491 -0.002518 -0.000965 -0.002870 -0.009939 -0.001419
# 2 -0.002518 0.007627 -0.001399 0.000990 0.000483 0.000665
# 3 -0.000965 -0.001399 0.003962 0.000946 -0.003556 0.000967
# 4 -0.002870 0.000990 0.000946 0.019986 0.006274 -0.006228
# 5 -0.009939 0.000483 -0.003556 0.006274 0.040464 -0.004106
# 6 -0.001419 0.000665 0.000967 -0.006228 -0.004106 0.027550
#
#
# Mechanical properties :
#
#
# Convention : Reuss Voigt Hill
#
# Bulk Modulus (GPa) = 46.91198 96.44062 71.67630
# Shear Modulus (GPa) = 36.77831 54.64742 45.71287
#
# Velocity S-wave (km/s) = 3.72627 4.54217 4.15430
# Velocity P-wave (km/s) = 6.01867 7.99488 7.07610
#
# Compressibility (1/GPa) = 0.02131652
#
# Stress axis : x y z
#
# Youngs Moduli (GPa) = 51.30445 131.10857 252.41440
#
# Poissons Ratio (x) = 0.33015 0.24355
# Poissons Ratio (y) = 0.12919 0.35313
# Poissons Ratio (z) = 0.04950 0.18342
#
# Static dielectric constant tensor:
#      x y z
#    x 2.276280 0.015100 0.005370 
#    y 0.015100 2.497290 0.050280 
#    z 0.005370 0.050280 2.082280 
# 
# From -- ./inp_files/155660.got.cif
#   From: 2010.05.17/outbox.cif.g08.bks.cpg/sg2_78_cif.got.tgz:155660.got - 2010.06.03 11:33:40.
