data_PCOD9088566
_publ_section_title
;
Structure prediction by ZEFSAII (Michael W. Deem and Ramdas Pophale) SiO2 
 PCOD9088566
Probable space group: P -1
;
_chemical_formula_sum "Si O2"
_cell_formula_units_Z 16
_cell_length_a 9.035200
_cell_length_b 13.400107
_cell_length_c 8.461241
_cell_angle_alpha 51.176886
_cell_angle_beta 111.924445
_cell_angle_gamma 127.491752
_cell_volume 633.200903
_symmetry_space_group_name_H-M "P -1"
_symmetry_group_IT_number 2
_symmetry_cell_setting 'triclinic'
loop_
_space_group_symop_operation_xyz
x,y,z
-x,-y,-z
loop_
_atom_site_type_symbol
_atom_site_label
_atom_site_fract_x
_atom_site_fract_y
_atom_site_fract_z
Si Si1 0.535235 0.659694 0.974480
Si Si2 0.077446 0.908314 0.216784
Si Si3 0.474547 0.081232 0.081874
Si Si4 0.560976 0.285924 0.627864
Si Si5 0.203808 0.616217 0.691723
Si Si6 0.292325 0.920270 0.570812
Si Si7 0.851323 0.584007 0.586321
Si Si8 0.679316 0.651569 0.718766
O O1 0.543397 0.790435 0.951389
O O2 0.333651 0.581253 0.882379
O O3 0.684164 0.704964 0.847396
O O4 0.507367 0.515770 0.196239
O O5 0.161311 0.962163 0.377452
O O6 0.926640 0.729944 0.356251
O O7 0.264258 0.943043 0.162333
O O8 0.000000 0.000000 0.000000
O O9 0.643217 0.065838 0.237024
O O10 0.530092 0.154088 0.860529
O O11 0.693813 0.322708 0.493386
O O12 0.652372 0.440720 0.607507
O O13 0.364904 0.247614 0.512441
O O14 0.207174 0.750541 0.654024
O O15 0.983924 0.513129 0.691389
O O16 0.500000 0.000000 0.500000
O O17 0.834472 0.635597 0.704896
#
# Coordination Sequence:
#
# PCOD9088566 Si02
#       8
#     2   2   2   2   2   2   2   2
#     4   9  19  36  56  83 110 155 192 234 279 347
#     4  10  21  35  57  84 117 151 189 239 293 338
#     4  10  19  37  62  82 111 157 197 233 284 349
#     4  11  21  35  60  88 116 152 196 232 286 350
#     4   9  20  36  56  86 120 148 190 243 286 338
#     4   8  17  37  58  80 110 154 195 229 280 346
#     4  11  21  36  57  85 120 147 189 240 294 335
#     4  10  20  34  56  84 115 149 194 232 284 348
#
# _framework density 25.268440999999999
#
# number of rings (size 3 to 8) (size 9 to 14) (size 15 to 20)
#    0.000    2.250    1.250    1.500    1.750    0.500 
#    2.250    6.250    0.000    6.000    0.000    0.000 
#    0.000    0.000    0.000    0.000    0.000    0.000 
#
# Total GULP energy -89153.661934 kJ/mol
# GULP energy per Si atom -5572.103871 kJ/mol
# Density = 2.521093 g / cm^3
# Si number density = 25.268441 Si / 1000 Ang^3
#
#
#
# Elastic Constant Matrix: (Units=GPa)
#
#
# Indices 1 2 3 4 5 6 
#
# 1 110.5358 7.9387 23.8160 15.7681 -16.7452 -3.3390
# 2 7.9387 59.7993 22.3650 -6.3832 -2.4088 -8.1021
# 3 23.8160 22.3650 154.4949 8.3756 3.9723 7.4981
# 4 15.7681 -6.3832 8.3756 40.5715 -1.1359 1.7793
# 5 -16.7452 -2.4088 3.9723 -1.1359 52.2655 1.3439
# 6 -3.3390 -8.1021 7.4981 1.7793 1.3439 26.2621
#
#
#
# Elastic Compliance Matrix: (Units=1/GPa)
#
#
# Indices 1 2 3 4 5 6 
#
# 1 0.010532 -0.000935 -0.001437 -0.003919 0.003315 0.001557
# 2 -0.000935 0.019356 -0.003197 0.003806 0.000752 0.006469
# 3 -0.001437 -0.003197 0.007412 -0.001369 -0.001120 -0.003135
# 4 -0.003919 0.003806 -0.001369 0.027075 -0.000369 -0.000749
# 5 0.003315 0.000752 -0.001120 -0.000369 0.020308 -0.000041
# 6 0.001557 0.006469 -0.003135 -0.000749 -0.000041 0.041219
#
#
# Mechanical properties :
#
#
# Convention : Reuss Voigt Hill
#
# Bulk Modulus (GPa) = 38.22338 48.11882 43.17110
# Shear Modulus (GPa) = 34.30292 41.86718 38.08505
#
# Velocity S-wave (km/s) = 3.68848 4.07491 3.88650
# Velocity P-wave (km/s) = 5.77058 6.42062 6.10426
#
# Compressibility (1/GPa) = 0.02616200
#
# Stress axis : x y z
#
# Youngs Moduli (GPa) = 94.95059 51.66458 134.91270
#
# Poissons Ratio (x) = 0.04830 0.19380
# Poissons Ratio (y) = 0.08876 0.43138
# Poissons Ratio (z) = 0.13640 0.16520
#
# Static dielectric constant tensor:
#      x y z
#    x 2.223940 0.131880 0.064110 
#    y 0.131880 2.161980 0.068300 
#    z 0.064110 0.068300 2.123670 
# 
# From -- ./inp_files/214499.got.cif
#   From: 2010.05.17/outbox.cif.g08.bks.cpg/sg2_108_cif.got.tgz:214499.got - 2010.06.03 11:33:40.
