data_PCOD9088503
_publ_section_title
;
Structure prediction by ZEFSAII (Michael W. Deem and Ramdas Pophale) SiO2 
 PCOD9088503
Probable space group: P -1
;
_chemical_formula_sum "Si O2"
_cell_formula_units_Z 14
_cell_length_a 8.351412
_cell_length_b 11.628895
_cell_length_c 7.405047
_cell_angle_alpha 93.556095
_cell_angle_beta 119.492224
_cell_angle_gamma 66.885386
_cell_volume 567.932597
_symmetry_space_group_name_H-M "P -1"
_symmetry_group_IT_number 2
_symmetry_cell_setting 'triclinic'
loop_
_space_group_symop_operation_xyz
x,y,z
-x,-y,-z
loop_
_atom_site_type_symbol
_atom_site_label
_atom_site_fract_x
_atom_site_fract_y
_atom_site_fract_z
Si Si1 0.433761 0.160554 0.884860
Si Si2 0.876879 0.430320 0.526572
Si Si3 0.487113 0.602049 0.161191
Si Si4 0.788145 0.203133 0.474863
Si Si5 0.099336 0.606650 0.044388
Si Si6 0.177448 0.024890 0.785188
Si Si7 0.673381 0.687754 0.802197
O O1 0.440188 0.288253 0.830811
O O2 0.274698 0.105613 0.731829
O O3 0.372066 0.203563 0.062995
O O4 0.654361 0.045892 0.978335
O O5 0.641517 0.525992 0.396594
O O6 0.860521 0.303916 0.433504
O O7 0.945063 0.391798 0.766115
O O8 0.000000 0.500000 0.500000
O O9 0.254162 0.665827 0.092380
O O10 0.500000 0.500000 0.000000
O O11 0.550289 0.272315 0.400802
O O12 0.950577 0.123730 0.709418
O O13 0.816303 0.094477 0.335348
O O14 0.240748 0.455536 0.082293
O O15 0.887053 0.667768 0.825664
#
# Coordination Sequence:
#
# PCOD9088503 Si02
#       7
#     2   2   2   2   2   2   2
#     4  10  19  38  63  93 119 167 211 261 300 377
#     4  12  25  38  63  99 129 157 206 258 323 383
#     4  12  22  39  63  94 132 162 207 253 321 380
#     4  10  19  37  61  90 122 165 208 263 303 370
#     4  11  23  39  59  95 133 170 193 254 327 378
#     4   9  19  35  63  91 116 163 226 249 308 355
#     4  10  20  37  60  87 126 165 202 248 318 370
#
# _framework density 24.650812999999999
#
# number of rings (size 3 to 8) (size 9 to 14) (size 15 to 20)
#    0.000    1.429    2.857    3.857    2.000    0.000 
#    0.000    0.000    0.000   15.429    0.000    0.000 
#    0.000    0.000    0.000    0.000    0.000    0.000 
#
# Total GULP energy -77961.194475 kJ/mol
# GULP energy per Si atom -5568.656748 kJ/mol
# Density = 2.459471 g / cm^3
# Si number density = 24.650813 Si / 1000 Ang^3
#
#
#
# Elastic Constant Matrix: (Units=GPa)
#
#
# Indices 1 2 3 4 5 6 
#
# 1 123.3206 59.5465 44.4621 3.4123 37.3021 4.1656
# 2 59.5465 170.7407 36.1394 2.2098 21.5914 14.1079
# 3 44.4621 36.1394 70.8237 -18.9379 35.2701 -16.2076
# 4 3.4123 2.2098 -18.9379 50.2567 -18.7818 29.4660
# 5 37.3021 21.5914 35.2701 -18.7818 43.7312 -10.6125
# 6 4.1656 14.1079 -16.2076 29.4660 -10.6125 54.4335
#
#
#
# Elastic Compliance Matrix: (Units=1/GPa)
#
#
# Indices 1 2 3 4 5 6 
#
# 1 0.014098 -0.002660 -0.004205 -0.005926 -0.009956 -0.000375
# 2 -0.002660 0.007574 -0.002908 0.000591 0.000434 -0.002861
# 3 -0.004205 -0.002908 0.027434 0.002137 -0.014930 0.005177
# 4 -0.005926 0.000591 0.002137 0.035614 0.014573 -0.015501
# 5 -0.009956 0.000434 -0.014930 0.014573 0.048925 -0.002146
# 6 -0.000375 -0.002861 0.005177 -0.015501 -0.002146 0.028655
#
#
# Mechanical properties :
#
#
# Convention : Reuss Voigt Hill
#
# Bulk Modulus (GPa) = 33.82911 71.68677 52.75794
# Shear Modulus (GPa) = 26.08275 44.66675 35.37475
#
# Velocity S-wave (km/s) = 3.25636 4.26135 3.79229
# Velocity P-wave (km/s) = 5.28125 7.30453 6.37369
#
# Compressibility (1/GPa) = 0.02956034
#
# Stress axis : x y z
#
# Youngs Moduli (GPa) = 70.93388 132.03632 36.45088
#
# Poissons Ratio (x) = 0.35119 0.15328
# Poissons Ratio (y) = 0.18867 0.10598
# Poissons Ratio (z) = 0.29829 0.38391
#
# Static dielectric constant tensor:
#      x y z
#    x 2.053970 0.021470 0.056130 
#    y 0.021470 1.997500 0.026100 
#    z 0.056130 0.026100 2.097960 
# 
# From -- ./inp_files/180660.got.cif
#   From: 2010.05.17/outbox.cif.g08.bks.cpg/sg2_91_cif.got.tgz:180660.got - 2010.06.03 11:33:40.
