data_PCOD9088257
_publ_section_title
;
Structure prediction by ZEFSAII (Michael W. Deem and Ramdas Pophale) SiO2 
 PCOD9088257
Probable space group: P -1
;
_chemical_formula_sum "Si O2"
_cell_formula_units_Z 12
_cell_length_a 7.032291
_cell_length_b 18.379079
_cell_length_c 9.785998
_cell_angle_alpha 37.222505
_cell_angle_beta 82.710270
_cell_angle_gamma 109.930401
_cell_volume 513.357648
_symmetry_space_group_name_H-M "P -1"
_symmetry_group_IT_number 2
_symmetry_cell_setting 'triclinic'
loop_
_space_group_symop_operation_xyz
x,y,z
-x,-y,-z
loop_
_atom_site_type_symbol
_atom_site_label
_atom_site_fract_x
_atom_site_fract_y
_atom_site_fract_z
Si Si1 0.702607 0.405375 0.225749
Si Si2 0.021070 0.223013 0.349493
Si Si3 0.966913 0.128833 0.807248
Si Si4 0.857986 0.780020 0.940309
Si Si5 0.423050 0.065908 0.631177
Si Si6 0.486004 0.622963 0.445099
O O1 0.481269 0.233458 0.409342
O O2 0.653215 0.351187 0.471019
O O3 0.000000 0.500000 0.000000
O O4 0.734460 0.562664 0.985097
O O5 0.964993 0.160335 0.602858
O O6 0.721107 0.144174 0.447470
O O7 0.114833 0.179167 0.283539
O O8 0.244167 0.303117 0.603574
O O9 0.697834 0.040354 0.054833
O O10 0.000000 0.000000 0.000000
O O11 0.629123 0.740976 0.117679
O O12 0.737324 0.586413 0.250581
O O13 0.166726 0.931205 0.752273
#
# Coordination Sequence:
#
# PCOD9088257 Si02
#       6
#     2   2   2   2   2   2
#     4   9  18  33  58  85 115 146 187 233 280 337
#     4  10  21  36  59  89 112 150 196 229 284 343
#     4  11  21  36  61  83 114 152 195 242 274 328
#     4   9  19  33  60  84 117 150 182 235 291 342
#     4  10  19  37  60  85 117 149 183 237 291 338
#     4   9  18  36  55  84 116 150 183 233 294 327
#
# _framework density 23.375516000000001
#
# number of rings (size 3 to 8) (size 9 to 14) (size 15 to 20)
#    0.000    2.333    1.667    1.000    0.000    2.667 
#    0.000    3.333    7.333    1.000    0.000    0.000 
#    0.000    0.000    0.000    0.000    0.000    0.000 
#
# Total GULP energy -66945.631882 kJ/mol
# GULP energy per Si atom -5578.802657 kJ/mol
# Density = 2.332231 g / cm^3
# Si number density = 23.375516 Si / 1000 Ang^3
#
#
#
# Elastic Constant Matrix: (Units=GPa)
#
#
# Indices 1 2 3 4 5 6 
#
# 1 28.6341 28.2650 27.9157 2.5673 -17.0068 -2.0990
# 2 28.2650 187.9821 77.1738 5.9736 -4.8311 2.9107
# 3 27.9157 77.1738 121.5819 6.8422 -24.4053 8.6223
# 4 2.5673 5.9736 6.8422 75.6572 -3.6790 -14.4376
# 5 -17.0068 -4.8311 -24.4053 -3.6790 37.2853 8.8674
# 6 -2.0990 2.9107 8.6223 -14.4376 8.8674 26.7560
#
#
#
# Elastic Compliance Matrix: (Units=1/GPa)
#
#
# Indices 1 2 3 4 5 6 
#
# 1 0.059893 -0.006357 -0.004944 -0.000104 0.023450 -0.000845
# 2 -0.006357 0.008146 -0.005004 0.000168 -0.005621 0.002181
# 3 -0.004944 -0.005004 0.015036 -0.002029 0.008808 -0.008703
# 4 -0.000104 0.000168 -0.002029 0.015097 -0.002118 0.009476
# 5 0.023450 -0.005621 0.008808 -0.002118 0.046362 -0.016895
# 6 -0.000845 0.002181 -0.008703 0.009476 -0.016895 0.050588
#
#
# Mechanical properties :
#
#
# Convention : Reuss Voigt Hill
#
# Bulk Modulus (GPa) = 19.81529 67.21191 43.51360
# Shear Modulus (GPa) = 20.44547 41.59594 31.02071
#
# Velocity S-wave (km/s) = 2.96066 4.22295 3.64684
# Velocity P-wave (km/s) = 4.49252 7.25212 6.03225
#
# Compressibility (1/GPa) = 0.05046609
#
# Stress axis : x y z
#
# Youngs Moduli (GPa) = 16.69634 122.75824 66.50923
#
# Poissons Ratio (x) = 0.78036 0.32882
# Poissons Ratio (y) = 0.10614 0.33279
# Poissons Ratio (z) = 0.08255 0.61424
#
# Static dielectric constant tensor:
#      x y z
#    x 1.898370 -0.050490 0.012230 
#    y -0.050490 1.953490 0.025550 
#    z 0.012230 0.025550 1.962790 
# 
# From -- ./inp_files/152215.got.cif
#   From: 2010.05.17/outbox.cif.g08.bks.cpg/sg2_77_cif.got.tgz:152215.got - 2010.06.03 11:33:40.
