data_PCOD9088157
_publ_section_title
;
Structure prediction by ZEFSAII (Michael W. Deem and Ramdas Pophale) SiO2 
 PCOD9088157
Probable space group: P -1
;
_chemical_formula_sum "Si O2"
_cell_formula_units_Z 16
_cell_length_a 11.410244
_cell_length_b 8.918413
_cell_length_c 14.482499
_cell_angle_alpha 105.161761
_cell_angle_beta 56.788142
_cell_angle_gamma 140.208684
_cell_volume 753.381759
_symmetry_space_group_name_H-M "P -1"
_symmetry_group_IT_number 2
_symmetry_cell_setting 'triclinic'
loop_
_space_group_symop_operation_xyz
x,y,z
-x,-y,-z
loop_
_atom_site_type_symbol
_atom_site_label
_atom_site_fract_x
_atom_site_fract_y
_atom_site_fract_z
Si Si1 0.897261 0.667071 0.529716
Si Si2 0.102893 0.556413 0.346207
Si Si3 0.672824 0.740146 0.868478
Si Si4 0.008179 0.453135 0.163961
Si Si5 0.553690 0.113973 0.255354
Si Si6 0.837081 0.746486 0.973622
Si Si7 0.701641 0.807286 0.655089
Si Si8 0.315843 0.917336 0.000780
O O1 0.924793 0.626705 0.615530
O O2 0.698059 0.620773 0.602246
O O3 0.909377 0.515939 0.443781
O O4 0.104638 0.944179 0.447244
O O5 0.129468 0.561887 0.227015
O O6 0.326876 0.830943 0.330089
O O7 0.826634 0.765327 0.870125
O O8 0.754709 0.856040 0.749957
O O9 0.657688 0.878376 0.962632
O O10 0.421491 0.462200 0.919121
O O11 0.749259 0.246382 0.262307
O O12 0.077804 0.355552 0.066838
O O13 0.084553 0.661250 0.101154
O O14 0.503342 0.253063 0.283531
O O15 0.643622 0.114311 0.122378
O O16 0.000000 0.000000 0.000000
O O17 0.500000 0.000000 0.000000
#
# Coordination Sequence:
#
# PCOD9088157 Si02
#       8
#     2   2   2   2   2   2   2   2
#     4   9  20  37  64  83 111 151 200 258 297 345
#     4  10  20  41  61  85 113 155 202 245 302 350
#     4  11  22  39  63  86 122 161 194 242 291 351
#     4  12  23  38  62  90 122 161 198 240 296 358
#     4  11  22  36  59  89 124 156 194 240 291 359
#     4  11  24  39  57  91 128 157 193 234 290 358
#     4  10  19  37  59  88 113 151 200 246 301 343
#     4  12  19  38  61  89 123 159 195 235 284 354
#
# _framework density 21.237573000000001
#
# number of rings (size 3 to 8) (size 9 to 14) (size 15 to 20)
#    0.000    1.250    3.750    2.625    0.000    4.000 
#    0.000    6.250    0.000    3.000    0.000    0.000 
#    0.000    0.000    0.000    0.000    0.000    0.000 
#
# Total GULP energy -89251.907220 kJ/mol
# GULP energy per Si atom -5578.244201 kJ/mol
# Density = 2.118924 g / cm^3
# Si number density = 21.237573 Si / 1000 Ang^3
#
#
#
# Elastic Constant Matrix: (Units=GPa)
#
#
# Indices 1 2 3 4 5 6 
#
# 1 86.8081 37.3260 12.5184 -12.9891 -3.1638 -9.9399
# 2 37.3260 92.2311 23.1636 -4.0897 -6.7169 -2.3616
# 3 12.5184 23.1636 73.9579 -9.8160 9.0589 -8.8913
# 4 -12.9891 -4.0897 -9.8160 16.1006 -11.0123 -3.1704
# 5 -3.1638 -6.7169 9.0589 -11.0123 29.6987 -2.8103
# 6 -9.9399 -2.3616 -8.8913 -3.1704 -2.8103 36.3786
#
#
#
# Elastic Compliance Matrix: (Units=1/GPa)
#
#
# Indices 1 2 3 4 5 6 
#
# 1 0.018327 -0.005977 0.001474 0.021770 0.008939 0.007568
# 2 -0.005977 0.014442 -0.004364 -0.002080 0.003028 -0.001710
# 3 0.001474 -0.004364 0.016790 0.010112 -0.001732 0.004971
# 4 0.021770 -0.002080 0.010112 0.121004 0.045749 0.022365
# 5 0.008939 0.003028 -0.001732 0.045749 0.053781 0.010358
# 6 0.007568 -0.001710 0.004971 0.022365 0.010358 0.033410
#
#
# Mechanical properties :
#
#
# Convention : Reuss Voigt Hill
#
# Bulk Modulus (GPa) = 31.42142 44.33478 37.87810
# Shear Modulus (GPa) = 17.47673 28.43484 22.95578
#
# Velocity S-wave (km/s) = 2.87176 3.66306 3.29128
# Velocity P-wave (km/s) = 5.08167 6.22990 5.68485
#
# Compressibility (1/GPa) = 0.03182542
#
# Stress axis : x y z
#
# Youngs Moduli (GPa) = 54.56450 69.24394 59.55852
#
# Poissons Ratio (x) = 0.41387 -0.08780
# Poissons Ratio (y) = 0.32613 0.25991
# Poissons Ratio (z) = -0.08044 0.30217
#
# Static dielectric constant tensor:
#      x y z
#    x 1.839070 -0.037010 -0.032030 
#    y -0.037010 1.865990 -0.027760 
#    z -0.032030 -0.027760 1.813710 
# 
# From -- ./inp_files/283081.got.cif
#   From: 2010.05.17/outbox.cif.g08.bks.cpg/sg2_142_cif.got.tgz:283081.got - 2010.06.03 11:33:40.
