data_PCOD9088731
_publ_section_title
;
Structure prediction by ZEFSAII (Michael W. Deem and Ramdas Pophale) SiO2 
 PCOD9088731
Probable space group: P -1
;
_chemical_formula_sum "Si O2"
_cell_formula_units_Z 16
_cell_length_a 11.521880
_cell_length_b 15.515781
_cell_length_c 5.518556
_cell_angle_alpha 97.975304
_cell_angle_beta 48.464005
_cell_angle_gamma 71.823928
_cell_volume 613.221290
_symmetry_space_group_name_H-M "P -1"
_symmetry_group_IT_number 2
_symmetry_cell_setting 'triclinic'
loop_
_space_group_symop_operation_xyz
x,y,z
-x,-y,-z
loop_
_atom_site_type_symbol
_atom_site_label
_atom_site_fract_x
_atom_site_fract_y
_atom_site_fract_z
Si Si1 0.741342 0.352611 0.665077
Si Si2 0.923579 0.678015 0.534541
Si Si3 0.374001 0.484991 0.486005
Si Si4 0.598286 0.128186 0.185030
Si Si5 0.778042 0.652707 0.233345
Si Si6 0.200733 0.980915 0.660592
Si Si7 0.233970 0.089012 0.277876
Si Si8 0.151955 0.846192 0.362541
O O1 0.758193 0.408810 0.434269
O O2 0.816036 0.232197 0.506255
O O3 0.867808 0.353036 0.707790
O O4 0.525970 0.407649 0.046368
O O5 0.894672 0.633651 0.310900
O O6 0.799203 0.803709 0.719840
O O7 0.866234 0.646254 0.847136
O O8 0.500000 0.500000 0.500000
O O9 0.284888 0.427916 0.702362
O O10 0.396782 0.228942 0.456279
O O11 0.652407 0.085953 0.371398
O O12 0.718036 0.192276 0.062553
O O13 0.591377 0.023552 0.070897
O O14 0.251635 0.908182 0.318511
O O15 0.189271 0.081937 0.619143
O O16 0.000000 0.000000 0.000000
O O17 0.060889 0.089298 0.384419
#
# Coordination Sequence:
#
# PCOD9088731 Si02
#       8
#     2   2   2   2   2   2   2   2
#     4  10  25  48  77 107 144 190 247 309 372 445
#     4  11  30  51  73 108 156 200 242 293 375 450
#     4  11  27  48  82 113 139 184 249 315 377 441
#     4  11  22  37  64 101 142 196 238 305 349 424
#     4  12  30  50  73 109 154 198 242 303 374 442
#     4  11  19  32  64 100 144 186 245 308 359 415
#     4  10  22  40  63 100 143 193 249 292 358 431
#     4  10  19  37  63 102 138 181 244 306 361 417
#
# _framework density 26.091723999999999
#
# number of rings (size 3 to 8) (size 9 to 14) (size 15 to 20)
#    0.000    1.250    3.750    0.750   12.250    2.000 
#    0.000    0.000    0.000    0.000    0.000    0.000 
#    0.000    0.000    0.000    0.000    0.000    0.000 
#
# Total GULP energy -89235.179909 kJ/mol
# GULP energy per Si atom -5577.198744 kJ/mol
# Density = 2.603234 g / cm^3
# Si number density = 26.091724 Si / 1000 Ang^3
#
#
#
# Elastic Constant Matrix: (Units=GPa)
#
#
# Indices 1 2 3 4 5 6 
#
# 1 138.1222 62.4137 20.6192 -19.2343 11.2095 -6.2889
# 2 62.4137 201.9079 44.5951 -39.8599 5.2302 -20.6506
# 3 20.6192 44.5951 91.6612 -25.6955 -10.7400 -7.6731
# 4 -19.2343 -39.8599 -25.6955 43.1635 -7.2068 -4.0957
# 5 11.2095 5.2302 -10.7400 -7.2068 29.9597 -4.8951
# 6 -6.2889 -20.6506 -7.6731 -4.0957 -4.8951 44.8378
#
#
#
# Elastic Compliance Matrix: (Units=1/GPa)
#
#
# Indices 1 2 3 4 5 6 
#
# 1 0.008768 -0.002308 -0.001091 0.000565 -0.003185 -0.000316
# 2 -0.002308 0.007344 -0.001037 0.005662 0.001147 0.003523
# 3 -0.001091 -0.001037 0.015877 0.009946 0.009329 0.004013
# 4 0.000565 0.005662 0.009946 0.037602 0.012920 0.009234
# 5 -0.003185 0.001147 0.009329 0.012920 0.042038 0.007448
# 6 -0.000316 0.003523 0.004013 0.009234 0.007448 0.026224
#
#
# Mechanical properties :
#
#
# Convention : Reuss Voigt Hill
#
# Bulk Modulus (GPa) = 43.25730 76.32746 59.79238
# Shear Modulus (GPa) = 32.37679 43.86308 38.11994
#
# Velocity S-wave (km/s) = 3.52644 4.10458 3.82645
# Velocity P-wave (km/s) = 5.76159 7.19587 6.51830
#
# Compressibility (1/GPa) = 0.02311749
#
# Stress axis : x y z
#
# Youngs Moduli (GPa) = 114.04587 136.17402 62.98393
#
# Poissons Ratio (x) = 0.31426 0.06870
# Poissons Ratio (y) = 0.26320 0.06532
# Poissons Ratio (z) = 0.12440 0.14124
#
# Static dielectric constant tensor:
#      x y z
#    x 2.151660 0.128930 0.124970 
#    y 0.128930 2.057580 0.068970 
#    z 0.124970 0.068970 2.274570 
# 
# From -- ./inp_files/77730.got.cif
#   From: 2010.05.17/outbox.cif.g08.bks.cpg/sg2_39_cif.got.tgz:77730.got - 2010.06.03 11:33:40.
