data_PCOD9088363
_publ_section_title
;
Structure prediction by ZEFSAII (Michael W. Deem and Ramdas Pophale) SiO2 
 PCOD9088363
Probable space group: P -1
;
_chemical_formula_sum "Si O2"
_cell_formula_units_Z 16
_cell_length_a 30.294633
_cell_length_b 8.850866
_cell_length_c 8.767222
_cell_angle_alpha 147.675454
_cell_angle_beta 37.847638
_cell_angle_gamma 140.459144
_cell_volume 731.557130
_symmetry_space_group_name_H-M "P -1"
_symmetry_group_IT_number 2
_symmetry_cell_setting 'triclinic'
loop_
_space_group_symop_operation_xyz
x,y,z
-x,-y,-z
loop_
_atom_site_type_symbol
_atom_site_label
_atom_site_fract_x
_atom_site_fract_y
_atom_site_fract_z
Si Si1 0.796910 0.225985 0.748580
Si Si2 0.258242 0.291403 0.775455
Si Si3 0.731972 0.115387 0.162351
Si Si4 0.421928 0.157605 0.757825
Si Si5 0.047551 0.268183 0.699226
Si Si6 0.215638 0.371775 0.297691
Si Si7 0.047170 0.852892 0.643395
Si Si8 0.585645 0.458758 0.609008
O O1 0.869857 0.139703 0.522849
O O2 0.761379 0.028255 0.527565
O O3 0.807007 0.567690 0.976292
O O4 0.744779 0.186151 0.008466
O O5 0.341060 0.468802 0.634626
O O6 0.258070 0.345181 0.002256
O O7 0.742259 0.387380 0.482702
O O8 0.647856 0.877073 0.194284
O O9 0.794354 0.957371 0.893023
O O10 0.505280 0.367175 0.662671
O O11 0.421717 0.822546 0.501271
O O12 0.407452 0.276890 0.065293
O O13 0.134214 0.416254 0.534134
O O14 0.054973 0.079936 0.670675
O O15 0.000000 0.000000 0.500000
O O16 0.000000 0.500000 0.000000
O O17 0.000000 0.500000 0.500000
O O18 0.000000 0.000000 0.000000
#
# Coordination Sequence:
#
# PCOD9088363 Si02
#       8
#     2   2   2   2   2   2   2   2
#     4  12  25  43  72  93 134 171 235 278 331 397
#     4  12  24  43  66 102 132 178 219 284 336 401
#     4  12  22  45  66  98 127 184 220 277 328 410
#     4  10  20  35  66  95 131 169 221 271 332 391
#     4  12  28  48  70  96 139 187 224 279 359 427
#     4  12  28  43  67  95 141 171 225 274 348 414
#     4  12  28  46  70 104 133 174 235 297 338 406
#     4  10  19  37  61 101 130 167 218 279 324 396
#
# _framework density 21.871154000000001
#
# number of rings (size 3 to 8) (size 9 to 14) (size 15 to 20)
#    0.000    0.500    3.750    4.500    7.000    0.000 
#    0.000    1.250    0.000    0.000    0.000    0.000 
#    0.000    0.000    0.000    0.000    0.000    0.000 
#
# Total GULP energy -89078.273000 kJ/mol
# GULP energy per Si atom -5567.392063 kJ/mol
# Density = 2.182137 g / cm^3
# Si number density = 21.871154 Si / 1000 Ang^3
#
#
#
# Elastic Constant Matrix: (Units=GPa)
#
#
# Indices 1 2 3 4 5 6 
#
# 1 61.0004 26.7836 40.8384 -15.9311 7.6715 10.0611
# 2 26.7836 72.5547 37.3729 -14.5125 16.3183 8.7786
# 3 40.8384 37.3729 145.2504 6.1115 15.7406 2.2244
# 4 -15.9311 -14.5125 6.1115 46.7244 -0.6527 -4.7544
# 5 7.6715 16.3183 15.7406 -0.6527 36.4862 10.8803
# 6 10.0611 8.7786 2.2244 -4.7544 10.8803 31.5841
#
#
#
# Elastic Compliance Matrix: (Units=1/GPa)
#
#
# Indices 1 2 3 4 5 6 
#
# 1 0.025260 -0.004055 -0.006412 0.007627 0.001105 -0.005700
# 2 -0.004055 0.019505 -0.003421 0.004929 -0.005983 -0.001086
# 3 -0.006412 -0.003421 0.009953 -0.004337 -0.002209 0.002400
# 4 0.007627 0.004929 -0.004337 0.026184 -0.001785 0.001062
# 5 0.001105 -0.005983 -0.002209 -0.001785 0.033897 -0.010479
# 6 -0.005700 -0.001086 0.002400 0.001062 -0.010479 0.037380
#
#
# Mechanical properties :
#
#
# Convention : Reuss Voigt Hill
#
# Bulk Modulus (GPa) = 37.11777 54.31060 45.71419
# Shear Modulus (GPa) = 26.46429 34.54632 30.50530
#
# Velocity S-wave (km/s) = 3.48229 3.97865 3.73872
# Velocity P-wave (km/s) = 5.75990 6.78176 6.29161
#
# Compressibility (1/GPa) = 0.02694127
#
# Stress axis : x y z
#
# Youngs Moduli (GPa) = 39.58894 51.27010 100.47495
#
# Poissons Ratio (x) = 0.20790 0.64424
# Poissons Ratio (y) = 0.16053 0.34370
# Poissons Ratio (z) = 0.25384 0.17538
#
# Static dielectric constant tensor:
#      x y z
#    x 1.865400 -0.026770 0.017430 
#    y -0.026770 1.885050 -0.061800 
#    z 0.017430 -0.061800 1.786040 
# 
# From -- ./inp_files/358481.got.cif
#   From: 2010.05.17/outbox.cif.g08.bks.cpg/sg2_180_cif.got.tgz:358481.got - 2010.06.03 11:33:40.
