data_PCOD9088655
_publ_section_title
;
Structure prediction by ZEFSAII (Michael W. Deem and Ramdas Pophale) SiO2 
 PCOD9088655
Probable space group: P -1
;
_chemical_formula_sum "Si O2"
_cell_formula_units_Z 16
_cell_length_a 9.287309
_cell_length_b 25.321813
_cell_length_c 21.851590
_cell_angle_alpha 20.115023
_cell_angle_beta 151.532124
_cell_angle_gamma 152.532495
_cell_volume 780.231706
_symmetry_space_group_name_H-M "P -1"
_symmetry_group_IT_number 2
_symmetry_cell_setting 'triclinic'
loop_
_space_group_symop_operation_xyz
x,y,z
-x,-y,-z
loop_
_atom_site_type_symbol
_atom_site_label
_atom_site_fract_x
_atom_site_fract_y
_atom_site_fract_z
Si Si1 0.209978 0.397913 0.665407
Si Si2 0.546975 0.836413 0.939696
Si Si3 0.185703 0.019643 0.331583
Si Si4 0.223925 0.294723 0.415696
Si Si5 0.025779 0.302569 0.033686
Si Si6 0.603536 0.278402 0.121215
Si Si7 0.295394 0.776968 0.424713
Si Si8 0.414897 0.555165 0.810742
O O1 0.574058 0.529244 0.669836
O O2 0.000000 0.500000 0.500000
O O3 0.063919 0.331377 0.617227
O O4 0.171222 0.236350 0.867161
O O5 0.338608 0.744345 0.903111
O O6 0.329801 0.776435 0.984541
O O7 0.654704 0.031804 0.760434
O O8 0.103875 0.154695 0.192880
O O9 0.309160 0.107986 0.216967
O O10 0.500000 0.000000 0.500000
O O11 0.902067 0.842750 0.428480
O O12 0.449009 0.242949 0.508343
O O13 0.916337 0.299541 0.256861
O O14 0.282961 0.374429 0.106553
O O15 0.110376 0.445619 0.858490
O O16 0.492929 0.430606 0.928566
O O17 0.361433 0.699774 0.596032
#
# Coordination Sequence:
#
# PCOD9088655 Si02
#       8
#     2   2   2   2   2   2   2   2
#     4  10  23  41  62  85 120 167 209 253 299 360
#     4  12  23  39  65  92 124 156 208 260 307 361
#     4   9  19  35  58  90 130 157 192 244 315 363
#     4  10  19  37  62  90 122 160 207 248 303 363
#     4  10  21  38  62  93 129 161 195 256 314 361
#     4  10  21  36  61  96 124 160 195 253 315 367
#     4  11  23  38  63  87 123 163 212 249 295 360
#     4  10  22  39  61  92 130 161 200 251 308 371
#
# _framework density 20.506730000000001
#
# number of rings (size 3 to 8) (size 9 to 14) (size 15 to 20)
#    0.000    1.750    1.250    3.375    3.500    3.500 
#    0.000    0.625    2.750    3.000    0.000    0.000 
#    0.000    0.000    0.000    0.000    0.000    0.000 
#
# Total GULP energy -89330.609277 kJ/mol
# GULP energy per Si atom -5583.163080 kJ/mol
# Density = 2.046006 g / cm^3
# Si number density = 20.506730 Si / 1000 Ang^3
#
#
#
# Elastic Constant Matrix: (Units=GPa)
#
#
# Indices 1 2 3 4 5 6 
#
# 1 74.8433 26.0335 35.7056 -11.8862 -0.9836 10.1573
# 2 26.0335 65.4812 31.7839 -11.4849 -6.6470 -5.5382
# 3 35.7056 31.7839 149.3979 -25.3936 -6.0204 9.2528
# 4 -11.8862 -11.4849 -25.3936 28.4882 3.4187 -1.3591
# 5 -0.9836 -6.6470 -6.0204 3.4187 20.9717 -9.7403
# 6 10.1573 -5.5382 9.2528 -1.3591 -9.7403 11.6625
#
#
#
# Elastic Compliance Matrix: (Units=1/GPa)
#
#
# Indices 1 2 3 4 5 6 
#
# 1 0.029306 -0.020210 0.000924 0.006120 -0.036080 -0.065274
# 2 -0.020210 0.037521 -0.006282 -0.000645 0.045705 0.078500
# 3 0.000924 -0.006282 0.009705 0.006677 -0.008535 -0.017838
# 4 0.006120 -0.000645 0.006677 0.044103 -0.012876 -0.016548
# 5 -0.036080 0.045705 -0.008535 -0.012876 0.142540 0.177444
# 6 -0.065274 0.078500 -0.017838 -0.016548 0.177444 0.340293
#
#
# Mechanical properties :
#
#
# Convention : Reuss Voigt Hill
#
# Bulk Modulus (GPa) = 39.37397 52.97426 46.17411
# Shear Modulus (GPa) = 7.54069 25.30444 16.42257
#
# Velocity S-wave (km/s) = 1.91968 3.51658 2.83298
# Velocity P-wave (km/s) = 4.91485 6.50978 5.76771
#
# Compressibility (1/GPa) = 0.02539749
#
# Stress axis : x y z
#
# Youngs Moduli (GPa) = 34.12226 26.65155 103.04118
#
# Poissons Ratio (x) = 0.53862 -0.09525
# Poissons Ratio (y) = 0.68960 0.64732
# Poissons Ratio (z) = -0.03154 0.16743
#
# Static dielectric constant tensor:
#      x y z
#    x 1.761300 0.026590 -0.000340 
#    y 0.026590 1.768190 0.006060 
#    z -0.000340 0.006060 1.744170 
# 
# From -- ./inp_files/381703.got.cif
#   From: 2010.05.17/outbox.cif.g08.bks.cpg/sg2_191_cif.got.tgz:381703.got - 2010.06.03 11:33:40.
