data_PCOD9088747
_publ_section_title
;
Structure prediction by ZEFSAII (Michael W. Deem and Ramdas Pophale) SiO2 
 PCOD9088747
Probable space group: P -1
;
_chemical_formula_sum "Si O2"
_cell_formula_units_Z 16
_cell_length_a 11.200646
_cell_length_b 7.699971
_cell_length_c 8.593967
_cell_angle_alpha 67.790216
_cell_angle_beta 89.125693
_cell_angle_gamma 101.207934
_cell_volume 669.884916
_symmetry_space_group_name_H-M "P -1"
_symmetry_group_IT_number 2
_symmetry_cell_setting 'triclinic'
loop_
_space_group_symop_operation_xyz
x,y,z
-x,-y,-z
loop_
_atom_site_type_symbol
_atom_site_label
_atom_site_fract_x
_atom_site_fract_y
_atom_site_fract_z
Si Si1 0.125016 0.786844 0.304497
Si Si2 0.467276 0.714197 0.591407
Si Si3 0.787518 0.268499 0.341003
Si Si4 0.725804 0.871109 0.007033
Si Si5 0.079443 0.985517 0.794462
Si Si6 0.503698 0.294594 0.755750
Si Si7 0.967429 0.613199 0.108298
Si Si8 0.619219 0.587572 0.861275
O O1 0.182212 0.732235 0.478080
O O2 0.060565 0.617228 0.248848
O O3 0.224701 0.934423 0.153622
O O4 0.013787 0.893300 0.310747
O O5 0.439181 0.478939 0.665911
O O6 0.478990 0.780664 0.390543
O O7 0.586407 0.745109 0.688050
O O8 0.642011 0.217811 0.344261
O O9 0.855830 0.127098 0.293878
O O10 0.840280 0.484512 0.209760
O O11 0.719333 0.700360 0.938113
O O12 0.589441 0.848220 0.085414
O O13 0.813289 0.883124 0.150897
O O14 0.999143 0.828890 0.966699
O O15 0.624227 0.405493 0.811740
O O16 0.000000 0.500000 0.000000
O O17 0.500000 0.500000 0.000000
#
# Coordination Sequence:
#
# PCOD9088747 Si02
#       8
#     2   2   2   2   2   2   2   2
#     4  11  23  39  61  94 122 160 203 243 302 366
#     4   9  19  37  62  86 120 150 208 242 297 352
#     4  11  23  41  60  89 126 160 197 254 299 346
#     4  10  19  37  63  84 119 158 198 242 300 354
#     4  10  23  40  61  89 123 163 204 238 304 362
#     4   8  18  37  62  91 115 153 204 244 298 365
#     4   9  20  40  63  85 120 157 203 248 294 354
#     4   8  16  33  58  90 112 147 203 241 289 361
#
# _framework density 23.884702000000001
#
# number of rings (size 3 to 8) (size 9 to 14) (size 15 to 20)
#    0.750    1.750    0.000    2.250    3.500    1.000 
#    0.000   16.250    0.000    0.000    0.000    0.000 
#    0.000    0.000    0.000    0.000    0.000    0.000 
#
# Total GULP energy -89282.229872 kJ/mol
# GULP energy per Si atom -5580.139367 kJ/mol
# Density = 2.383034 g / cm^3
# Si number density = 23.884702 Si / 1000 Ang^3
#
#
#
# Elastic Constant Matrix: (Units=GPa)
#
#
# Indices 1 2 3 4 5 6 
#
# 1 65.8944 29.4274 28.5245 0.8989 -0.2700 2.2699
# 2 29.4274 117.2840 29.9296 13.8255 -1.1820 11.8190
# 3 28.5245 29.9296 89.0942 25.2457 -6.5324 -2.5213
# 4 0.8989 13.8255 25.2457 24.2185 4.1064 5.8464
# 5 -0.2700 -1.1820 -6.5324 4.1064 33.7716 5.1838
# 6 2.2699 11.8190 -2.5213 5.8464 5.1838 25.3249
#
#
#
# Elastic Compliance Matrix: (Units=1/GPa)
#
#
# Indices 1 2 3 4 5 6 
#
# 1 0.020842 -0.004070 -0.009053 0.012205 -0.002731 -0.003128
# 2 -0.004070 0.010749 -0.001224 -0.003922 0.001216 -0.004117
# 3 -0.009053 -0.001224 0.022376 -0.025295 0.006028 0.008216
# 4 0.012205 -0.003922 -0.025295 0.075465 -0.011523 -0.016845
# 5 -0.002731 0.001216 0.006028 -0.011523 0.032777 -0.003772
# 6 -0.003128 -0.004117 0.008216 -0.016845 -0.003772 0.047168
#
#
# Mechanical properties :
#
#
# Convention : Reuss Voigt Hill
#
# Bulk Modulus (GPa) = 39.56730 49.78176 44.67453
# Shear Modulus (GPa) = 20.28431 28.95573 24.62002
#
# Velocity S-wave (km/s) = 2.91737 3.48561 3.21407
# Velocity P-wave (km/s) = 5.28677 6.08991 5.70250
#
# Compressibility (1/GPa) = 0.02527339
#
# Stress axis : x y z
#
# Youngs Moduli (GPa) = 47.97921 93.02849 44.69123
#
# Poissons Ratio (x) = 0.37866 0.40458
# Poissons Ratio (y) = 0.19529 0.05470
# Poissons Ratio (z) = 0.43434 0.11387
#
# Static dielectric constant tensor:
#      x y z
#    x 1.967860 -0.035640 0.024430 
#    y -0.035640 1.946640 -0.005170 
#    z 0.024430 -0.005170 1.897350 
# 
# From -- ./inp_files/327431.got.cif
#   From: 2010.05.17/outbox.cif.g08.bks.cpg/sg2_164_cif.got.tgz:327431.got - 2010.06.03 11:33:40.
