data_PCOD9088264
_publ_section_title
;
Structure prediction by ZEFSAII (Michael W. Deem and Ramdas Pophale) SiO2 
 PCOD9088264
Probable space group: P -1
;
_chemical_formula_sum "Si O2"
_cell_formula_units_Z 16
_cell_length_a 5.666351
_cell_length_b 20.109525
_cell_length_c 19.602276
_cell_angle_alpha 22.227319
_cell_angle_beta 117.492309
_cell_angle_gamma 106.527667
_cell_volume 678.221706
_symmetry_space_group_name_H-M "P -1"
_symmetry_group_IT_number 2
_symmetry_cell_setting 'triclinic'
loop_
_space_group_symop_operation_xyz
x,y,z
-x,-y,-z
loop_
_atom_site_type_symbol
_atom_site_label
_atom_site_fract_x
_atom_site_fract_y
_atom_site_fract_z
Si Si1 0.720457 0.707425 0.272388
Si Si2 0.229308 0.201210 0.328848
Si Si3 0.650098 0.828369 0.784107
Si Si4 0.610778 0.462727 0.950692
Si Si5 0.096487 0.889058 0.190120
Si Si6 0.743286 0.806849 0.027432
Si Si7 0.738582 0.288645 0.984115
Si Si8 0.643924 0.481983 0.643470
O O1 0.669639 0.809730 0.095009
O O2 0.452706 0.647168 0.299083
O O3 0.000000 0.500000 0.500000
O O4 0.833267 0.822038 0.231417
O O5 0.258133 0.148905 0.302408
O O6 0.885728 0.346230 0.149146
O O7 0.337979 0.015398 0.568906
O O8 0.430918 0.317356 0.256621
O O9 0.619358 0.627420 0.978619
O O10 0.911234 0.827512 0.866196
O O11 0.688745 0.408995 0.932749
O O12 0.407480 0.703036 0.397371
O O13 0.140330 0.027466 0.120495
O O14 0.000000 0.000000 0.000000
O O15 0.456010 0.832562 0.923198
O O16 0.009534 0.595248 0.249710
O O17 0.621772 0.420914 0.776265
#
# Coordination Sequence:
#
# PCOD9088264 Si02
#       8
#     2   2   2   2   2   2   2   2
#     4   8  17  33  55  83 109 133 187 242 286 354
#     4   9  20  35  60  95 111 147 203 248 288 360
#     4  10  19  37  60  85 121 153 195 247 298 339
#     4  10  19  37  60  85 120 154 195 245 303 340
#     4   9  19  36  59  89 107 141 199 244 293 357
#     4  10  20  37  56  78 115 152 190 237 294 348
#     4  10  22  39  50  81 118 156 203 233 281 368
#     4  10  20  38  57  79 118 156 186 246 301 344
#
# _framework density 23.591106
#
# number of rings (size 3 to 8) (size 9 to 14) (size 15 to 20)
#    0.000    2.500    0.000    1.500    0.000    5.000 
#    9.000    8.750    0.000    0.000    0.000    0.000 
#    0.000    0.000    0.000    0.000    0.000    0.000 
#
# Total GULP energy -89243.933109 kJ/mol
# GULP energy per Si atom -5577.745819 kJ/mol
# Density = 2.353741 g / cm^3
# Si number density = 23.591106 Si / 1000 Ang^3
#
#
#
# Elastic Constant Matrix: (Units=GPa)
#
#
# Indices 1 2 3 4 5 6 
#
# 1 53.6354 21.2196 18.5494 10.7438 4.8543 12.6028
# 2 21.2196 126.8770 56.9843 6.0796 0.8900 24.9331
# 3 18.5494 56.9843 83.9012 1.9885 0.7235 8.6751
# 4 10.7438 6.0796 1.9885 22.9647 -0.4710 2.0989
# 5 4.8543 0.8900 0.7235 -0.4710 26.4314 6.8696
# 6 12.6028 24.9331 8.6751 2.0989 6.8696 45.7164
#
#
#
# Elastic Compliance Matrix: (Units=1/GPa)
#
#
# Indices 1 2 3 4 5 6 
#
# 1 0.023705 -0.000810 -0.003968 -0.010198 -0.003261 -0.004382
# 2 -0.000810 0.012655 -0.007837 -0.001782 0.001284 -0.005303
# 3 -0.003968 -0.007837 0.017873 0.002214 0.000058 0.001866
# 4 -0.010198 -0.001782 0.002214 0.048580 0.002543 0.000751
# 5 -0.003261 0.001284 0.000058 0.002543 0.039976 -0.005936
# 6 -0.004382 -0.005303 0.001866 0.000751 -0.005936 0.026477
#
#
# Mechanical properties :
#
#
# Convention : Reuss Voigt Hill
#
# Bulk Modulus (GPa) = 34.47818 50.88002 42.67910
# Shear Modulus (GPa) = 24.49027 30.19985 27.34506
#
# Velocity S-wave (km/s) = 3.22547 3.58178 3.40829
# Velocity P-wave (km/s) = 5.34024 6.22253 5.79819
#
# Compressibility (1/GPa) = 0.02900385
#
# Stress axis : x y z
#
# Youngs Moduli (GPa) = 42.18580 79.01859 55.95118
#
# Poissons Ratio (x) = 0.06398 0.22201
# Poissons Ratio (y) = 0.03416 0.43848
# Poissons Ratio (z) = 0.16739 0.61925
#
# Static dielectric constant tensor:
#      x y z
#    x 2.011640 0.030250 0.019840 
#    y 0.030250 1.920330 -0.025860 
#    z 0.019840 -0.025860 1.952620 
# 
# From -- ./inp_files/142254.got.cif
#   From: 2010.05.17/outbox.cif.g08.bks.cpg/sg2_72_cif.got.tgz:142254.got - 2010.06.03 11:33:40.
