data_PCOD9088042
_publ_section_title
;
Structure prediction by ZEFSAII (Michael W. Deem and Ramdas Pophale) SiO2 
 PCOD9088042
Probable space group: P -1
;
_chemical_formula_sum "Si O2"
_cell_formula_units_Z 14
_cell_length_a 9.322794
_cell_length_b 9.899731
_cell_length_c 15.184416
_cell_angle_alpha 30.191461
_cell_angle_beta 64.914463
_cell_angle_gamma 84.324066
_cell_volume 516.539020
_symmetry_space_group_name_H-M "P -1"
_symmetry_group_IT_number 2
_symmetry_cell_setting 'triclinic'
loop_
_space_group_symop_operation_xyz
x,y,z
-x,-y,-z
loop_
_atom_site_type_symbol
_atom_site_label
_atom_site_fract_x
_atom_site_fract_y
_atom_site_fract_z
Si Si1 0.232299 0.750488 0.799958
Si Si2 0.296360 0.271240 0.062056
Si Si3 0.184730 0.774418 0.077328
Si Si4 0.296056 0.303698 0.368949
Si Si5 0.780693 0.302113 0.359325
Si Si6 0.606193 0.215778 0.628586
Si Si7 0.988639 0.771560 0.299255
O O1 0.720011 0.887868 0.429573
O O2 0.296461 0.703168 0.713853
O O3 0.306375 0.571178 0.940389
O O4 0.000000 0.500000 0.000000
O O5 0.313119 0.011994 0.258003
O O6 0.480349 0.413340 0.870187
O O7 0.094581 0.061582 0.179101
O O8 0.190330 0.481953 0.284584
O O9 0.124119 0.901416 0.103222
O O10 0.392152 0.030692 0.831016
O O11 0.003132 0.604823 0.152388
O O12 0.221874 0.024659 0.469206
O O13 0.637139 0.287124 0.476660
O O14 0.765986 0.560775 0.441915
O O15 0.000000 0.500000 0.500000
#
# Coordination Sequence:
#
# PCOD9088042 Si02
#       7
#     2   2   2   2   2   2   2
#     4  10  23  36  54  84 114 150 181 227 282 334
#     4  10  20  38  56  82 113 146 186 227 280 328
#     4  10  19  37  58  87 111 145 190 225 283 324
#     4   9  21  34  58  82 112 145 182 231 276 334
#     4   9  21  36  55  85 115 145 182 232 276 333
#     4   9  20  36  61  83 112 147 183 236 273 329
#     4   9  20  34  58  84 114 144 184 238 269 325
#
# _framework density 27.103473000000001
#
# number of rings (size 3 to 8) (size 9 to 14) (size 15 to 20)
#    0.857    1.714    0.000    0.857    6.000    8.571 
#    0.000    2.857    0.000    1.714    0.000    0.000 
#    0.000    0.000    0.000    0.000    0.000    0.000 
#
# Total GULP energy -78165.044060 kJ/mol
# GULP energy per Si atom -5583.217433 kJ/mol
# Density = 2.704178 g / cm^3
# Si number density = 27.103473 Si / 1000 Ang^3
#
#
#
# Elastic Constant Matrix: (Units=GPa)
#
#
# Indices 1 2 3 4 5 6 
#
# 1 104.4983 14.9583 18.4770 -3.6532 -3.3886 -17.3163
# 2 14.9583 101.8919 41.9482 9.8233 -20.2158 3.9801
# 3 18.4770 41.9482 151.4990 10.8324 -29.2351 -5.9448
# 4 -3.6532 9.8233 10.8324 38.4553 -4.5746 -4.7422
# 5 -3.3886 -20.2158 -29.2351 -4.5746 51.3590 -7.0135
# 6 -17.3163 3.9801 -5.9448 -4.7422 -7.0135 24.2846
#
#
#
# Elastic Compliance Matrix: (Units=1/GPa)
#
#
# Indices 1 2 3 4 5 6 
#
# 1 0.011649 -0.001916 -0.000485 0.003056 0.001304 0.009475
# 2 -0.001916 0.012048 -0.002600 -0.002717 0.002372 -0.003823
# 3 -0.000485 -0.002600 0.008345 -0.000866 0.004044 0.003122
# 4 0.003056 -0.002717 -0.000866 0.028585 0.002370 0.008679
# 5 0.001304 0.002372 0.004044 0.002370 0.024231 0.008992
# 6 0.009475 -0.003823 0.003122 0.008679 0.008992 0.053617
#
#
# Mechanical properties :
#
#
# Convention : Reuss Voigt Hill
#
# Bulk Modulus (GPa) = 45.37678 56.51737 50.94707
# Shear Modulus (GPa) = 32.08739 41.65350 36.87044
#
# Velocity S-wave (km/s) = 3.44450 3.92450 3.69231
# Velocity P-wave (km/s) = 5.70945 6.43687 6.08404
#
# Compressibility (1/GPa) = 0.02203770
#
# Stress axis : x y z
#
# Youngs Moduli (GPa) = 85.84496 83.00139 119.83778
#
# Poissons Ratio (x) = 0.15907 0.05814
# Poissons Ratio (y) = 0.16452 0.31162
# Poissons Ratio (z) = 0.04165 0.21583
#
# Static dielectric constant tensor:
#      x y z
#    x 2.163600 0.044350 0.085490 
#    y 0.044350 2.109570 -0.031120 
#    z 0.085490 -0.031120 2.237910 
# 
# From -- ./inp_files/464137.got.cif
#   From: 2010.05.17/outbox.cif.g08.bks.cpg/sg2_233_cif.got.tgz:464137.got - 2010.06.03 11:33:40.
