data_PCOD9088484
_publ_section_title
;
Structure prediction by ZEFSAII (Michael W. Deem and Ramdas Pophale) SiO2 
 PCOD9088484
Probable space group: P -1
;
_chemical_formula_sum "Si O2"
_cell_formula_units_Z 14
_cell_length_a 5.315621
_cell_length_b 6.882254
_cell_length_c 17.915264
_cell_angle_alpha 93.873338
_cell_angle_beta 92.440942
_cell_angle_gamma 129.012402
_cell_volume 505.019237
_symmetry_space_group_name_H-M "P -1"
_symmetry_group_IT_number 2
_symmetry_cell_setting 'triclinic'
loop_
_space_group_symop_operation_xyz
x,y,z
-x,-y,-z
loop_
_atom_site_type_symbol
_atom_site_label
_atom_site_fract_x
_atom_site_fract_y
_atom_site_fract_z
Si Si1 0.250363 0.155559 0.107883
Si Si2 0.681954 0.564315 0.588163
Si Si3 0.121581 0.831150 0.488354
Si Si4 0.771319 0.159322 0.207791
Si Si5 0.168528 0.692931 0.235420
Si Si6 0.096807 0.395467 0.935463
Si Si7 0.086849 0.137159 0.656966
O O1 0.493796 0.159409 0.167378
O O2 0.516285 0.409881 0.071765
O O3 0.982711 0.146297 0.149626
O O4 0.057789 0.889702 0.056373
O O5 0.500000 0.500000 0.500000
O O6 0.450421 0.320618 0.630184
O O7 0.011257 0.657451 0.555171
O O8 0.822619 0.830133 0.637536
O O9 0.039153 0.756260 0.399639
O O10 0.500000 0.000000 0.500000
O O11 0.000000 0.000000 0.500000
O O12 0.014314 0.422134 0.259414
O O13 0.556478 0.915477 0.251586
O O14 0.085347 0.630911 0.144394
O O15 0.970076 0.781932 0.263740
O O16 0.000000 0.500000 0.000000
#
# Coordination Sequence:
#
# PCOD9088484 Si02
#       7
#     2   2   2   2   2   2   2
#     4  10  21  40  63  89 120 162 208 257 310 369
#     4   9  18  35  59  88 121 159 203 251 306 369
#     4   9  19  38  60  87 119 156 199 245 298 362
#     4  10  21  40  62  88 124 162 202 257 310 369
#     4  10  21  38  61  91 125 164 210 259 312 370
#     4  10  21  40  63  92 126 167 210 259 312 371
#     4  10  19  37  61  89 122 162 204 256 308 364
#
# _framework density 27.721713000000001
#
# number of rings (size 3 to 8) (size 9 to 14) (size 15 to 20)
#    0.000    2.286    0.000    3.429    0.000    0.000 
#    0.000   57.143    0.000    1.714    0.000    0.000 
#    0.000    0.000    0.000    0.000    0.000    0.000 
#
# Total GULP energy -78167.789971 kJ/mol
# GULP energy per Si atom -5583.413569 kJ/mol
# Density = 2.765862 g / cm^3
# Si number density = 27.721713 Si / 1000 Ang^3
#
#
#
# Elastic Constant Matrix: (Units=GPa)
#
#
# Indices 1 2 3 4 5 6 
#
# 1 131.6054 54.7178 28.9949 -5.3847 -33.5193 8.9365
# 2 54.7178 277.2004 56.6585 -3.0019 -15.3327 19.5989
# 3 28.9949 56.6585 109.1500 1.6257 -24.4036 -5.3830
# 4 -5.3847 -3.0019 1.6257 66.9718 -6.7246 -6.8807
# 5 -33.5193 -15.3327 -24.4036 -6.7246 55.3824 -1.3252
# 6 8.9365 19.5989 -5.3830 -6.8807 -1.3252 60.3796
#
#
#
# Elastic Compliance Matrix: (Units=1/GPa)
#
#
# Indices 1 2 3 4 5 6 
#
# 1 0.009818 -0.001423 -0.000730 0.001198 0.005353 -0.000802
# 2 -0.001423 0.004384 -0.002105 -0.000075 -0.000618 -0.001422
# 3 -0.000730 -0.002105 0.011455 0.000177 0.004090 0.001923
# 4 0.001198 -0.000075 0.000177 0.015465 0.002701 0.001684
# 5 0.005353 -0.000618 0.004090 0.002701 0.023269 0.000592
# 6 -0.000802 -0.001422 0.001923 0.001684 0.000592 0.017519
#
#
# Mechanical properties :
#
#
# Convention : Reuss Voigt Hill
#
# Bulk Modulus (GPa) = 58.33984 88.74424 73.54204
# Shear Modulus (GPa) = 52.00799 61.71908 56.86353
#
# Velocity S-wave (km/s) = 4.33607 4.72357 4.53396
# Velocity P-wave (km/s) = 6.79405 7.86330 7.34815
#
# Compressibility (1/GPa) = 0.01714095
#
# Stress axis : x y z
#
# Youngs Moduli (GPa) = 101.85616 228.09198 87.29788
#
# Poissons Ratio (x) = 0.32457 0.06373
# Poissons Ratio (y) = 0.14494 0.18376
# Poissons Ratio (z) = 0.07436 0.48014
#
# Static dielectric constant tensor:
#      x y z
#    x 2.063440 0.577540 0.079200 
#    y 0.577540 1.282960 0.091510 
#    z 0.079200 0.091510 2.303370 
# 
# From -- ./inp_files/548172.got.cif
#   From: 2010.05.17/outbox.cif.g08.bks.cpg/sg2_275_cif.got.tgz:548172.got - 2010.06.03 11:33:40.
