data_PCOD9088371
_publ_section_title
;
Structure prediction by ZEFSAII (Michael W. Deem and Ramdas Pophale) SiO2 
 PCOD9088371
Probable space group: P -1
;
_chemical_formula_sum "Si O2"
_cell_formula_units_Z 16
_cell_length_a 10.730111
_cell_length_b 12.381349
_cell_length_c 11.238552
_cell_angle_alpha 35.963472
_cell_angle_beta 75.724012
_cell_angle_gamma 53.765846
_cell_volume 616.776961
_symmetry_space_group_name_H-M "P -1"
_symmetry_group_IT_number 2
_symmetry_cell_setting 'triclinic'
loop_
_space_group_symop_operation_xyz
x,y,z
-x,-y,-z
loop_
_atom_site_type_symbol
_atom_site_label
_atom_site_fract_x
_atom_site_fract_y
_atom_site_fract_z
Si Si1 0.676464 0.489561 0.291101
Si Si2 0.607893 0.354039 0.222880
Si Si3 0.108717 0.848093 0.991734
Si Si4 0.637961 0.700194 0.662045
Si Si5 0.192854 0.174394 0.632161
Si Si6 0.183941 0.043299 0.202416
Si Si7 0.781533 0.697200 0.226959
Si Si8 0.131011 0.620223 0.876003
O O1 0.542712 0.571285 0.142507
O O2 0.672171 0.619150 0.292388
O O3 0.824217 0.451622 0.209165
O O4 0.710161 0.244020 0.535361
O O5 0.557636 0.192930 0.400850
O O6 0.810837 0.218034 0.277508
O O7 0.500000 0.500000 0.000000
O O8 0.970684 0.889200 0.901492
O O9 0.172277 0.977520 0.809400
O O10 0.258600 0.545601 0.230790
O O11 0.000000 0.000000 0.000000
O O12 0.670035 0.867448 0.452277
O O13 0.734614 0.592173 0.865058
O O14 0.248815 0.183613 0.743402
O O15 0.994079 0.446366 0.405112
O O16 0.068546 0.228928 0.175493
O O17 0.268207 0.112207 0.036677
#
# Coordination Sequence:
#
# PCOD9088371 Si02
#       8
#     2   2   2   2   2   2   2   2
#     4  10  21  35  59  82 117 146 183 233 285 329
#     4   8  18  39  61  75 111 155 192 225 272 334
#     4  11  19  33  57  85 114 146 183 231 280 329
#     4  10  19  37  61  80 111 151 189 229 276 332
#     4  11  20  34  56  85 116 148 187 228 278 336
#     4  11  19  33  56  87 117 142 178 234 293 325
#     4  11  21  33  54  88 118 143 183 230 286 337
#     4   8  18  35  57  82 106 149 181 229 280 329
#
# _framework density 25.941306999999998
#
# number of rings (size 3 to 8) (size 9 to 14) (size 15 to 20)
#    0.750    1.250    5.000    1.125    0.000    0.500 
#    0.000    1.875    0.000    6.750    0.000    0.000 
#    0.000    0.000    0.000    0.000    0.000    0.000 
#
# Total GULP energy -89246.835005 kJ/mol
# GULP energy per Si atom -5577.927188 kJ/mol
# Density = 2.588226 g / cm^3
# Si number density = 25.941307 Si / 1000 Ang^3
#
#
#
# Elastic Constant Matrix: (Units=GPa)
#
#
# Indices 1 2 3 4 5 6 
#
# 1 72.9541 15.2456 18.6896 -8.0359 -9.0809 16.1092
# 2 15.2456 99.2508 19.0940 -7.9751 3.9794 25.0016
# 3 18.6896 19.0940 101.1343 -0.3317 -31.1016 -4.8880
# 4 -8.0359 -7.9751 -0.3317 21.1914 8.0170 -2.0809
# 5 -9.0809 3.9794 -31.1016 8.0170 41.2888 1.3864
# 6 16.1092 25.0016 -4.8880 -2.0809 1.3864 39.0499
#
#
#
# Elastic Compliance Matrix: (Units=1/GPa)
#
#
# Indices 1 2 3 4 5 6 
#
# 1 0.016769 0.000367 -0.003437 0.005647 0.000212 -0.007289
# 2 0.000367 0.014094 -0.005015 0.006749 -0.006056 -0.009228
# 3 -0.003437 -0.005015 0.015631 -0.007187 0.012704 0.005751
# 4 0.005647 0.006749 -0.007187 0.057360 -0.015828 -0.003932
# 5 0.000212 -0.006056 0.012704 -0.015828 0.037385 0.003209
# 6 -0.007289 -0.009228 0.005751 -0.003932 0.003209 0.034920
#
#
# Mechanical properties :
#
#
# Convention : Reuss Voigt Hill
#
# Bulk Modulus (GPa) = 32.97695 42.15529 37.56612
# Shear Modulus (GPa) = 24.69919 34.99335 29.84627
#
# Velocity S-wave (km/s) = 3.08899 3.67678 3.39563
# Velocity P-wave (km/s) = 5.04601 5.85752 5.46684
#
# Compressibility (1/GPa) = 0.03032421
#
# Stress axis : x y z
#
# Youngs Moduli (GPa) = 59.63372 70.95455 63.97539
#
# Poissons Ratio (x) = -0.02602 0.21986
# Poissons Ratio (y) = -0.02187 0.32082
# Poissons Ratio (z) = 0.20494 0.35582
#
# Static dielectric constant tensor:
#      x y z
#    x 2.184760 -0.427560 -0.022820 
#    y -0.427560 3.070850 0.106550 
#    z -0.022820 0.106550 2.097800 
# 
# From -- ./inp_files/432289.got.cif
#   From: 2010.05.17/outbox.cif.g08.bks.cpg/sg2_217_cif.got.tgz:432289.got - 2010.06.03 11:33:40.
