data_PCOD9088243
_publ_section_title
;
Structure prediction by ZEFSAII (Michael W. Deem and Ramdas Pophale) SiO2 
 PCOD9088243
Probable space group: P -1
;
_chemical_formula_sum "Si O2"
_cell_formula_units_Z 16
_cell_length_a 8.765915
_cell_length_b 19.788002
_cell_length_c 8.223609
_cell_angle_alpha 53.243595
_cell_angle_beta 42.569561
_cell_angle_gamma 62.312303
_cell_volume 772.376896
_symmetry_space_group_name_H-M "P -1"
_symmetry_group_IT_number 2
_symmetry_cell_setting 'triclinic'
loop_
_space_group_symop_operation_xyz
x,y,z
-x,-y,-z
loop_
_atom_site_type_symbol
_atom_site_label
_atom_site_fract_x
_atom_site_fract_y
_atom_site_fract_z
Si Si1 0.899791 0.418607 0.483141
Si Si2 0.664234 0.549746 0.685977
Si Si3 0.283395 0.282521 0.758772
Si Si4 0.938321 0.676387 0.786217
Si Si5 0.321343 0.809916 0.276238
Si Si6 0.417744 0.199775 0.257305
Si Si7 0.975277 0.908569 0.224382
Si Si8 0.861504 0.239348 0.936739
O O1 0.718445 0.491086 0.571203
O O2 0.966645 0.406866 0.259768
O O3 0.827204 0.327517 0.737799
O O4 0.116141 0.439642 0.390098
O O5 0.601989 0.643602 0.538180
O O6 0.500000 0.500000 0.000000
O O7 0.465491 0.205073 0.751284
O O8 0.053204 0.255289 0.894620
O O9 0.197785 0.323491 0.939143
O O10 0.150375 0.735909 0.552940
O O11 0.767160 0.723308 0.723506
O O12 0.147448 0.890001 0.267375
O O13 0.447349 0.800859 0.016895
O O14 0.278429 0.115531 0.498005
O O15 0.609441 0.213887 0.220031
O O16 0.041821 0.837915 0.138212
O O17 0.000000 0.000000 0.000000
#
# Coordination Sequence:
#
# PCOD9088243 Si02
#       8
#     2   2   2   2   2   2   2   2
#     4  10  20  38  58  84 114 157 205 251 295 351
#     4  10  24  38  57  87 123 157 202 256 294 353
#     4  10  23  38  58  90 121 159 198 253 310 349
#     4  10  19  37  60  84 117 155 203 248 301 356
#     4   9  19  36  58  87 119 155 195 248 301 357
#     4   9  17  34  62  85 110 156 195 248 287 357
#     4  10  20  36  62  92 119 156 203 248 290 358
#     4  10  20  36  60  90 113 156 208 241 305 359
#
# _framework density 20.715277
#
# number of rings (size 3 to 8) (size 9 to 14) (size 15 to 20)
#    0.000    2.250    3.750    0.000    1.750    6.500 
#    0.000    1.875    0.000    7.500    0.000    0.000 
#    0.000    0.000    0.000    0.000    0.000    0.000 
#
# Total GULP energy -89126.601117 kJ/mol
# GULP energy per Si atom -5570.412570 kJ/mol
# Density = 2.066813 g / cm^3
# Si number density = 20.715277 Si / 1000 Ang^3
#
#
#
# Elastic Constant Matrix: (Units=GPa)
#
#
# Indices 1 2 3 4 5 6 
#
# 1 95.1330 19.6614 33.6530 -12.2843 -13.5010 -22.6985
# 2 19.6614 47.3062 30.0894 -16.4330 -0.9944 -2.0127
# 3 33.6530 30.0894 119.8562 -13.1306 -15.7990 -10.2465
# 4 -12.2843 -16.4330 -13.1306 24.2510 0.7610 4.1378
# 5 -13.5010 -0.9944 -15.7990 0.7610 30.0345 8.2486
# 6 -22.6985 -2.0127 -10.2465 4.1378 8.2486 23.9991
#
#
#
# Elastic Compliance Matrix: (Units=1/GPa)
#
#
# Indices 1 2 3 4 5 6 
#
# 1 0.015540 -0.004095 -0.001732 0.001961 0.002477 0.012426
# 2 -0.004095 0.032483 -0.005910 0.017813 -0.002731 -0.005805
# 3 -0.001732 -0.005910 0.011084 0.000826 0.004595 0.000877
# 4 0.001961 0.017813 0.000826 0.055821 0.002339 -0.006727
# 5 0.002477 -0.002731 0.004595 0.002339 0.039385 -0.009865
# 6 0.012426 -0.005805 0.000877 -0.006727 -0.009865 0.057859
#
#
# Mechanical properties :
#
#
# Convention : Reuss Voigt Hill
#
# Bulk Modulus (GPa) = 28.06272 47.67813 37.87043
# Shear Modulus (GPa) = 20.20006 27.58301 23.89154
#
# Velocity S-wave (km/s) = 3.12609 3.65297 3.39975
# Velocity P-wave (km/s) = 5.15812 6.39204 5.80794
#
# Compressibility (1/GPa) = 0.03563446
#
# Stress axis : x y z
#
# Youngs Moduli (GPa) = 64.35000 30.78498 90.21777
#
# Poissons Ratio (x) = 0.12607 0.15622
# Poissons Ratio (y) = 0.26353 0.53316
# Poissons Ratio (z) = 0.11143 0.18193
#
# Static dielectric constant tensor:
#      x y z
#    x 1.815610 -0.020150 -0.002950 
#    y -0.020150 1.761030 0.031820 
#    z -0.002950 0.031820 1.783510 
# 
# From -- ./inp_files/39546.got.cif
#   From: 2010.05.17/outbox.cif.g08.bks.cpg/sg2_20_cif.got.tgz:39546.got - 2010.06.03 11:33:40.
