data_PCOD9088818
_publ_section_title
;
Structure prediction by ZEFSAII (Michael W. Deem and Ramdas Pophale) SiO2 
 PCOD9088818
Probable space group: P -1
;
_chemical_formula_sum "Si O2"
_cell_formula_units_Z 14
_cell_length_a 16.188988
_cell_length_b 6.797814
_cell_length_c 5.463807
_cell_angle_alpha 93.547723
_cell_angle_beta 118.783068
_cell_angle_gamma 87.086299
_cell_volume 525.838384
_symmetry_space_group_name_H-M "P -1"
_symmetry_group_IT_number 2
_symmetry_cell_setting 'triclinic'
loop_
_space_group_symop_operation_xyz
x,y,z
-x,-y,-z
loop_
_atom_site_type_symbol
_atom_site_label
_atom_site_fract_x
_atom_site_fract_y
_atom_site_fract_z
Si Si1 0.944922 0.458872 0.168552
Si Si2 0.515339 0.233505 0.040810
Si Si3 0.284687 0.591821 0.614029
Si Si4 0.437742 0.201830 0.425633
Si Si5 0.872463 0.073124 0.569173
Si Si6 0.742689 0.632708 0.939332
Si Si7 0.906391 0.987659 0.108047
O O1 0.917649 0.228249 0.123975
O O2 0.000000 0.500000 0.500000
O O3 0.853855 0.602947 0.052453
O O4 0.000000 0.500000 0.000000
O O5 0.624538 0.280605 0.185172
O O6 0.473920 0.310856 0.243954
O O7 0.458259 0.299198 0.723809
O O8 0.500000 0.000000 0.000000
O O9 0.190523 0.730637 0.500303
O O10 0.292411 0.516212 0.339401
O O11 0.274425 0.436656 0.810383
O O12 0.326686 0.182377 0.212357
O O13 0.500000 0.000000 0.500000
O O14 0.852129 0.962057 0.280790
O O15 0.857330 0.944008 0.778452
O O16 0.986462 0.096784 0.730046
#
# Coordination Sequence:
#
# PCOD9088818 Si02
#       7
#     2   2   2   2   2   2   2
#     4  12  24  42  62  95 136 173 213 269 322 389
#     4  10  23  43  67  95 133 165 206 275 339 393
#     4  12  22  40  69  98 129 169 225 275 321 394
#     4  10  23  46  65  91 136 171 217 281 334 395
#     4  10  19  37  63  89 127 164 210 266 313 381
#     4  12  25  42  69  96 128 176 231 268 328 391
#     4  10  20  38  61  88 128 168 208 265 318 373
#
# _framework density 26.624151999999999
#
# number of rings (size 3 to 8) (size 9 to 14) (size 15 to 20)
#    0.000    1.143    2.857    3.429    0.000    3.429 
#   10.286    0.000    0.000    0.000    0.000    0.000 
#    0.000    0.000    0.000    0.000    0.000    0.000 
#
# Total GULP energy -78385.629740 kJ/mol
# GULP energy per Si atom -5598.973553 kJ/mol
# Density = 2.656355 g / cm^3
# Si number density = 26.624152 Si / 1000 Ang^3
#
#
#
# Elastic Constant Matrix: (Units=GPa)
#
#
# Indices 1 2 3 4 5 6 
#
# 1 129.7619 6.4814 79.0837 -8.8819 -8.8225 -1.7524
# 2 6.4814 84.2063 18.8070 -23.5802 7.1895 -8.3801
# 3 79.0837 18.8070 236.9500 -22.7630 -21.5140 -9.6068
# 4 -8.8819 -23.5802 -22.7630 46.4442 -20.3606 10.2985
# 5 -8.8225 7.1895 -21.5140 -20.3606 81.5218 -5.8609
# 6 -1.7524 -8.3801 -9.6068 10.2985 -5.8609 38.5334
#
#
#
# Elastic Compliance Matrix: (Units=1/GPa)
#
#
# Indices 1 2 3 4 5 6 
#
# 1 0.009692 0.000048 -0.003174 0.000558 0.000315 -0.000441
# 2 0.000048 0.013952 -0.000374 0.006855 0.000473 0.001183
# 3 -0.003174 -0.000374 0.005779 0.002716 0.001949 0.000786
# 4 0.000558 0.006855 0.002716 0.030834 0.007521 -0.004904
# 5 0.000315 0.000473 0.001949 0.007521 0.014712 0.000831
# 6 -0.000441 0.001183 0.000786 -0.004904 0.000831 0.027822
#
#
# Mechanical properties :
#
#
# Convention : Reuss Voigt Hill
#
# Bulk Modulus (GPa) = 44.59597 73.29582 58.94590
# Shear Modulus (GPa) = 42.63838 56.40296 49.52067
#
# Velocity S-wave (km/s) = 4.00621 4.60770 4.31744
# Velocity P-wave (km/s) = 6.17949 7.47646 6.85870
#
# Compressibility (1/GPa) = 0.02242355
#
# Stress axis : x y z
#
# Youngs Moduli (GPa) = 103.17475 71.67286 173.03312
#
# Poissons Ratio (x) = -0.00347 0.54928
# Poissons Ratio (y) = -0.00500 0.06474
# Poissons Ratio (z) = 0.32752 0.02682
#
# Static dielectric constant tensor:
#      x y z
#    x 2.146320 0.067900 -0.033700 
#    y 0.067900 2.112800 0.054750 
#    z -0.033700 0.054750 2.079240 
# 
# From -- ./inp_files/107026.got.cif
#   From: 2010.05.17/outbox.cif.g08.bks.cpg/sg2_54_cif.got.tgz:107026.got - 2010.06.03 11:33:40.
