data_PCOD9088053
_publ_section_title
;
Structure prediction by ZEFSAII (Michael W. Deem and Ramdas Pophale) SiO2 
 PCOD9088053
Probable space group: P -1
;
_chemical_formula_sum "Si O2"
_cell_formula_units_Z 14
_cell_length_a 5.518497
_cell_length_b 9.609561
_cell_length_c 11.934950
_cell_angle_alpha 114.197209
_cell_angle_beta 81.443296
_cell_angle_gamma 88.675668
_cell_volume 568.393938
_symmetry_space_group_name_H-M "P -1"
_symmetry_group_IT_number 2
_symmetry_cell_setting 'triclinic'
loop_
_space_group_symop_operation_xyz
x,y,z
-x,-y,-z
loop_
_atom_site_type_symbol
_atom_site_label
_atom_site_fract_x
_atom_site_fract_y
_atom_site_fract_z
Si Si1 0.250927 0.031441 0.370508
Si Si2 0.465528 0.461620 0.618680
Si Si3 0.926550 0.277771 0.833665
Si Si4 0.657847 0.847562 0.823554
Si Si5 0.805144 0.135511 0.016156
Si Si6 0.904065 0.554116 0.771553
Si Si7 0.330373 0.165807 0.623453
O O1 0.249303 0.152456 0.310110
O O2 0.152718 0.117294 0.519209
O O3 0.164518 0.872195 0.274478
O O4 0.526940 0.980765 0.377645
O O5 0.500000 0.500000 0.500000
O O6 0.692618 0.527406 0.687489
O O7 0.495426 0.281813 0.588894
O O8 0.182146 0.512426 0.694299
O O9 0.882079 0.258664 0.961624
O O10 0.842608 0.442969 0.841425
O O11 0.208886 0.255435 0.767891
O O12 0.845934 0.737156 0.849681
O O13 0.645163 0.028135 0.912673
O O14 0.383616 0.804827 0.854480
O O15 0.000000 0.000000 0.000000
#
# Coordination Sequence:
#
# PCOD9088053 Si02
#       7
#     2   2   2   2   2   2   2
#     4  10  19  37  58  88 124 164 210 260 312 381
#     4  11  23  41  63  93 136 174 214 258 316 382
#     4  10  21  39  61  88 127 165 209 268 315 380
#     4  10  23  40  62  93 123 163 216 264 325 376
#     4  10  22  42  66  90 122 164 217 271 323 379
#     4  11  24  42  64  95 129 171 212 266 320 383
#     4  10  20  35  60  91 121 169 210 253 315 381
#
# _framework density 24.630806
#
# number of rings (size 3 to 8) (size 9 to 14) (size 15 to 20)
#    0.000    1.714    1.429    2.571    2.000    1.714 
#   10.286    0.714    0.000    0.000    0.000    0.000 
#    0.000    0.000    0.000    0.000    0.000    0.000 
#
# Total GULP energy -78008.283020 kJ/mol
# GULP energy per Si atom -5572.020216 kJ/mol
# Density = 2.457474 g / cm^3
# Si number density = 24.630806 Si / 1000 Ang^3
#
#
#
# Elastic Constant Matrix: (Units=GPa)
#
#
# Indices 1 2 3 4 5 6 
#
# 1 72.0454 28.1198 18.8863 -13.6338 -9.1949 -4.2336
# 2 28.1198 177.2832 41.0634 -30.5196 -5.2048 -3.3716
# 3 18.8863 41.0634 39.4647 -33.0462 1.3703 6.0199
# 4 -13.6338 -30.5196 -33.0462 55.3741 5.1465 6.6270
# 5 -9.1949 -5.2048 1.3703 5.1465 33.1141 5.4319
# 6 -4.2336 -3.3716 6.0199 6.6270 5.4319 40.6981
#
#
#
# Elastic Compliance Matrix: (Units=1/GPa)
#
#
# Indices 1 2 3 4 5 6 
#
# 1 0.017282 -0.000469 -0.011790 -0.003940 0.005261 0.003442
# 2 -0.000469 0.007767 -0.010229 -0.002353 0.001504 0.002290
# 3 -0.011790 -0.010229 0.081485 0.043535 -0.011798 -0.019641
# 4 -0.003940 -0.002353 0.043535 0.044088 -0.007958 -0.013161
# 5 0.005261 0.001504 -0.011798 -0.007958 0.033751 -0.000792
# 6 0.003442 0.002290 -0.019641 -0.013161 -0.000792 0.030273
#
#
# Mechanical properties :
#
#
# Convention : Reuss Voigt Hill
#
# Bulk Modulus (GPa) = 16.24470 51.65914 33.95192
# Shear Modulus (GPa) = 17.84821 39.21886 28.53354
#
# Velocity S-wave (km/s) = 2.69482 3.99465 3.40729
# Velocity P-wave (km/s) = 4.03637 6.50348 5.41237
#
# Compressibility (1/GPa) = 0.06155856
#
# Stress axis : x y z
#
# Youngs Moduli (GPa) = 57.86462 128.74921 12.27217
#
# Poissons Ratio (x) = 0.06035 0.14468
# Poissons Ratio (y) = 0.02712 0.12554
# Poissons Ratio (z) = 0.68220 1.31702
#
# Static dielectric constant tensor:
#      x y z
#    x 2.147330 0.150020 0.069550 
#    y 0.150020 2.101410 0.124290 
#    z 0.069550 0.124290 2.029900 
# 
# From -- ./inp_files/26988.got.cif
#   From: 2010.05.17/outbox.cif.g08.bks.cpg/sg2_14_cif.got.tgz:26988.got - 2010.06.03 11:33:40.
