data_PCOD9088975
_publ_section_title
;
Structure prediction by ZEFSAII (Michael W. Deem and Ramdas Pophale) SiO2 
 PCOD9088975
Probable space group: P -1
;
_chemical_formula_sum "Si O2"
_cell_formula_units_Z 16
_cell_length_a 16.530505
_cell_length_b 5.776904
_cell_length_c 8.836541
_cell_angle_alpha 110.577445
_cell_angle_beta 95.326299
_cell_angle_gamma 67.752328
_cell_volume 730.407135
_symmetry_space_group_name_H-M "P -1"
_symmetry_group_IT_number 2
_symmetry_cell_setting 'triclinic'
loop_
_space_group_symop_operation_xyz
x,y,z
-x,-y,-z
loop_
_atom_site_type_symbol
_atom_site_label
_atom_site_fract_x
_atom_site_fract_y
_atom_site_fract_z
Si Si1 0.801569 0.870277 0.134383
Si Si2 0.987611 0.816528 0.093003
Si Si3 0.548528 0.702797 0.880390
Si Si4 0.171218 0.660241 0.174914
Si Si5 0.311692 0.406086 0.386978
Si Si6 0.577657 0.325410 0.367367
Si Si7 0.297944 0.211024 0.646465
Si Si8 0.696465 0.319864 0.030243
O O1 0.886232 0.948003 0.153253
O O2 0.779682 0.851341 0.300834
O O3 0.713372 0.066398 0.081694
O O4 0.820463 0.598068 0.984120
O O5 0.067804 0.808900 0.212780
O O6 0.000000 0.500000 0.000000
O O7 0.000000 0.000000 0.000000
O O8 0.612138 0.712604 0.753061
O O9 0.469894 0.616673 0.788241
O O10 0.611743 0.484008 0.954860
O O11 0.500000 0.000000 0.000000
O O12 0.225504 0.567042 0.315531
O O13 0.224220 0.788248 0.104486
O O14 0.344640 0.585683 0.545461
O O15 0.294966 0.215574 0.465785
O O16 0.500000 0.500000 0.500000
O O17 0.610202 0.016068 0.342586
O O18 0.292147 0.470661 0.799993
#
# Coordination Sequence:
#
# PCOD9088975 Si02
#       8
#     2   2   2   2   2   2   2   2
#     4  10  21  37  65  96 125 170 215 267 335 390
#     4  10  19  38  67 104 138 170 222 284 336 396
#     4  10  20  40  65  92 121 159 226 277 323 380
#     4   9  20  37  63  96 127 166 217 270 324 390
#     4  10  23  40  62  88 130 170 210 263 334 394
#     4  10  22  40  61  87 122 170 214 263 333 387
#     4  11  22  40  57  85 130 170 213 259 332 398
#     4  10  19  37  64  89 124 165 215 276 323 384
#
# _framework density 21.90559
#
# number of rings (size 3 to 8) (size 9 to 14) (size 15 to 20)
#    0.000    2.000    2.500    0.750    0.000    5.000 
#    2.250    5.625    0.000    3.000    0.000    0.000 
#    0.000    0.000    0.000    0.000    0.000    0.000 
#
# Total GULP energy -89136.347612 kJ/mol
# GULP energy per Si atom -5571.021726 kJ/mol
# Density = 2.185573 g / cm^3
# Si number density = 21.905590 Si / 1000 Ang^3
#
#
#
# Elastic Constant Matrix: (Units=GPa)
#
#
# Indices 1 2 3 4 5 6 
#
# 1 113.0604 24.5758 69.6949 -30.2963 9.9062 -20.8147
# 2 24.5758 52.8484 24.2459 -18.2585 -9.5347 -8.0522
# 3 69.6949 24.2459 110.9328 -37.4999 -10.6219 -5.6132
# 4 -30.2963 -18.2585 -37.4999 45.0104 2.7931 4.3500
# 5 9.9062 -9.5347 -10.6219 2.7931 31.3182 -13.1584
# 6 -20.8147 -8.0522 -5.6132 4.3500 -13.1584 30.7877
#
#
#
# Elastic Compliance Matrix: (Units=1/GPa)
#
#
# Indices 1 2 3 4 5 6 
#
# 1 0.018576 -0.003644 -0.010675 0.002091 -0.008359 0.005792
# 2 -0.003644 0.026417 0.000559 0.007096 0.012483 0.008880
# 3 -0.010675 0.000559 0.019346 0.008697 0.008931 -0.000955
# 4 0.002091 0.007096 0.008697 0.033548 0.001835 0.000899
# 5 -0.008359 0.012483 0.008931 0.001835 0.049745 0.020243
# 6 0.005792 0.008880 -0.000955 0.000899 0.020243 0.047069
#
#
# Mechanical properties :
#
#
# Convention : Reuss Voigt Hill
#
# Bulk Modulus (GPa) = 27.15997 57.09719 42.12858
# Shear Modulus (GPa) = 21.32245 31.97826 26.65035
#
# Velocity S-wave (km/s) = 3.12329 3.82491 3.49176
# Velocity P-wave (km/s) = 5.04303 6.75487 5.96072
#
# Compressibility (1/GPa) = 0.03681890
#
# Stress axis : x y z
#
# Youngs Moduli (GPa) = 53.83215 37.85455 51.69081
#
# Poissons Ratio (x) = 0.13796 0.55179
# Poissons Ratio (y) = 0.19618 -0.02891
# Poissons Ratio (z) = 0.57465 -0.02117
#
# Static dielectric constant tensor:
#      x y z
#    x 1.907630 0.092290 -0.001250 
#    y 0.092290 1.861090 -0.062240 
#    z -0.001250 -0.062240 1.725110 
# 
# From -- ./inp_files/52014.got.cif
#   From: 2010.05.17/outbox.cif.g08.bks.cpg/sg2_27_cif.got.tgz:52014.got - 2010.06.03 11:33:40.
