data_PCOD9088130
_publ_section_title
;
Structure prediction by ZEFSAII (Michael W. Deem and Ramdas Pophale) SiO2 
 PCOD9088130
Probable space group: P -1
;
_chemical_formula_sum "Si O2"
_cell_formula_units_Z 14
_cell_length_a 5.553073
_cell_length_b 11.513195
_cell_length_c 11.871345
_cell_angle_alpha 65.109901
_cell_angle_beta 92.124672
_cell_angle_gamma 115.761199
_cell_volume 610.094629
_symmetry_space_group_name_H-M "P -1"
_symmetry_group_IT_number 2
_symmetry_cell_setting 'triclinic'
loop_
_space_group_symop_operation_xyz
x,y,z
-x,-y,-z
loop_
_atom_site_type_symbol
_atom_site_label
_atom_site_fract_x
_atom_site_fract_y
_atom_site_fract_z
Si Si1 0.606386 0.670994 0.568047
Si Si2 0.403480 0.794847 0.689905
Si Si3 0.373506 0.835274 0.927107
Si Si4 0.853986 0.091205 0.548757
Si Si5 0.790083 0.173267 0.756220
Si Si6 0.870215 0.828448 0.054505
Si Si7 0.748614 0.438949 0.607914
O O1 0.412476 0.668658 0.666701
O O2 0.738589 0.563980 0.632170
O O3 0.490124 0.627901 0.459653
O O4 0.826829 0.837345 0.490712
O O5 0.306706 0.770590 0.826014
O O6 0.258888 0.867558 0.581395
O O7 0.710016 0.926238 0.651057
O O8 0.578323 0.783439 0.011427
O O9 0.090450 0.801005 0.996939
O O10 0.556245 0.012973 0.851683
O O11 0.804590 0.170458 0.622763
O O12 0.735862 0.306002 0.732141
O O13 0.081338 0.213349 0.801601
O O14 0.000000 0.000000 0.000000
O O15 0.000000 0.500000 0.500000
#
# Coordination Sequence:
#
# PCOD9088130 Si02
#       7
#     2   2   2   2   2   2   2
#     4  11  21  35  58  81 125 161 200 244 300 379
#     4  10  21  36  56  89 124 157 195 254 307 378
#     4  10  23  38  62  93 121 162 202 252 312 365
#     4  10  20  35  56  90 119 155 196 244 321 370
#     4  10  19  37  59  85 124 151 200 259 303 360
#     4  10  21  40  60  90 122 159 206 256 306 358
#     4  11  22  38  53  88 123 160 205 245 304 367
#
# _framework density 22.947261000000001
#
# number of rings (size 3 to 8) (size 9 to 14) (size 15 to 20)
#    0.000    1.714    2.857    2.143    2.000    4.571 
#    0.000    0.000    0.000    1.714    0.000    0.000 
#    0.000    0.000    0.000    0.000    0.000    0.000 
#
# Total GULP energy -78080.467842 kJ/mol
# GULP energy per Si atom -5577.176274 kJ/mol
# Density = 2.289503 g / cm^3
# Si number density = 22.947261 Si / 1000 Ang^3
#
#
#
# Elastic Constant Matrix: (Units=GPa)
#
#
# Indices 1 2 3 4 5 6 
#
# 1 90.5810 11.6446 36.6680 8.4747 -0.9530 -14.9266
# 2 11.6446 44.8515 19.6764 9.6732 -4.7207 -26.0481
# 3 36.6680 19.6764 88.6920 29.6999 7.2255 -5.9265
# 4 8.4747 9.6732 29.6999 28.6661 -8.5452 -1.1206
# 5 -0.9530 -4.7207 7.2255 -8.5452 36.7488 2.1147
# 6 -14.9266 -26.0481 -5.9265 -1.1206 2.1147 37.2892
#
#
#
# Elastic Compliance Matrix: (Units=1/GPa)
#
#
# Indices 1 2 3 4 5 6 
#
# 1 0.014549 0.002904 -0.007717 0.003798 0.002772 0.006583
# 2 0.002904 0.044080 -0.007392 -0.005656 0.004128 0.030375
# 3 -0.007717 -0.007392 0.025075 -0.024833 -0.011604 -0.004356
# 4 0.003798 -0.005656 -0.024833 0.067205 0.020198 -0.005504
# 5 0.002772 0.004128 -0.011604 0.020198 0.034747 0.000785
# 6 0.006583 0.030375 -0.004356 -0.005504 0.000785 0.049768
#
#
# Mechanical properties :
#
#
# Convention : Reuss Voigt Hill
#
# Bulk Modulus (GPa) = 16.86521 40.01138 28.43830
# Shear Modulus (GPa) = 17.88268 30.94985 24.41626
#
# Velocity S-wave (km/s) = 2.79461 3.67650 3.26547
# Velocity P-wave (km/s) = 4.21648 5.95788 5.16115
#
# Compressibility (1/GPa) = 0.05929365
#
# Stress axis : x y z
#
# Youngs Moduli (GPa) = 68.73319 22.68604 39.87974
#
# Poissons Ratio (x) = -0.06588 0.30775
# Poissons Ratio (y) = -0.19959 0.29480
# Poissons Ratio (z) = 0.53041 0.16770
#
# Static dielectric constant tensor:
#      x y z
#    x 2.094300 -0.093380 -0.024700 
#    y -0.093380 2.003220 0.046140 
#    z -0.024700 0.046140 1.913860 
# 
# From -- ./inp_files/66142.got.cif
#   From: 2010.05.17/outbox.cif.g08.bks.cpg/sg2_34_cif.got.tgz:66142.got - 2010.06.03 11:33:40.
