data_PCOD9088817
_publ_section_title
;
Structure prediction by ZEFSAII (Michael W. Deem and Ramdas Pophale) SiO2 
 PCOD9088817
Probable space group: P -1
;
_chemical_formula_sum "Si O2"
_cell_formula_units_Z 14
_cell_length_a 13.232530
_cell_length_b 9.209603
_cell_length_c 13.956880
_cell_angle_alpha 55.017201
_cell_angle_beta 36.356384
_cell_angle_gamma 81.410284
_cell_volume 632.599488
_symmetry_space_group_name_H-M "P -1"
_symmetry_group_IT_number 2
_symmetry_cell_setting 'triclinic'
loop_
_space_group_symop_operation_xyz
x,y,z
-x,-y,-z
loop_
_atom_site_type_symbol
_atom_site_label
_atom_site_fract_x
_atom_site_fract_y
_atom_site_fract_z
Si Si1 0.022325 0.507016 0.659318
Si Si2 0.648420 0.770754 0.305244
Si Si3 0.603553 0.139588 0.217199
Si Si4 0.480183 0.727754 0.160501
Si Si5 0.620296 0.393891 0.933816
Si Si6 0.088865 0.930424 0.193227
Si Si7 0.339476 0.241611 0.484941
O O1 0.882940 0.575578 0.693932
O O2 0.288415 0.691506 0.386010
O O3 0.874983 0.350493 0.924343
O O4 0.976342 0.310221 0.698173
O O5 0.500000 0.500000 0.500000
O O6 0.796091 0.898745 0.050481
O O7 0.752573 0.815399 0.314690
O O8 0.537904 0.891512 0.355483
O O9 0.491248 0.174607 0.373960
O O10 0.533014 0.193203 0.153347
O O11 0.416261 0.701247 0.108659
O O12 0.727010 0.954780 0.909706
O O13 0.475277 0.514097 0.266938
O O14 0.500000 0.500000 0.000000
O O15 0.856606 0.877404 0.398996
#
# Coordination Sequence:
#
# PCOD9088817 Si02
#       7
#     2   2   2   2   2   2   2
#     4   8  20  37  60  88 125 157 204 254 300 365
#     4  11  21  41  65  89 122 164 211 255 303 373
#     4   9  21  40  61  95 124 161 203 254 316 357
#     4  11  19  37  66  92 120 166 207 247 307 377
#     4  10  19  37  63  89 127 160 203 253 312 367
#     4  10  22  38  60  95 120 160 209 252 309 363
#     4  11  21  39  66  87 132 158 200 264 309 361
#
# _framework density 22.130906
#
# number of rings (size 3 to 8) (size 9 to 14) (size 15 to 20)
#    0.857    1.143    2.857    1.286    0.000    0.571 
#    0.000    7.143    0.000    0.000    0.000    0.000 
#    0.000    0.000    0.000    0.000    0.000    0.000 
#
# Total GULP energy -78034.828656 kJ/mol
# GULP energy per Si atom -5573.916333 kJ/mol
# Density = 2.208054 g / cm^3
# Si number density = 22.130906 Si / 1000 Ang^3
#
#
#
# Elastic Constant Matrix: (Units=GPa)
#
#
# Indices 1 2 3 4 5 6 
#
# 1 68.2113 24.5153 24.2002 -12.3006 -1.1345 -8.7319
# 2 24.5153 68.4393 40.7748 9.0035 -10.8697 -23.1309
# 3 24.2002 40.7748 67.5198 4.3261 -12.5257 -4.8059
# 4 -12.3006 9.0035 4.3261 27.7541 -7.0516 7.9872
# 5 -1.1345 -10.8697 -12.5257 -7.0516 39.3085 1.8181
# 6 -8.7319 -23.1309 -4.8059 7.9872 1.8181 42.0647
#
#
#
# Elastic Compliance Matrix: (Units=1/GPa)
#
#
# Indices 1 2 3 4 5 6 
#
# 1 0.020882 -0.008076 -0.003728 0.013253 -0.000301 -0.003036
# 2 -0.008076 0.036671 -0.016561 -0.018589 0.000365 0.020110
# 3 -0.003728 -0.016561 0.026260 0.002988 0.004570 -0.007645
# 4 0.013253 -0.018589 0.002988 0.054287 0.006753 -0.017729
# 5 -0.000301 0.000365 0.004570 0.006753 0.028285 -0.001844
# 6 -0.003036 0.020110 -0.007645 -0.017729 -0.001844 0.036774
#
#
# Mechanical properties :
#
#
# Convention : Reuss Voigt Hill
#
# Bulk Modulus (GPa) = 36.92362 42.57233 39.74798
# Shear Modulus (GPa) = 18.59306 29.47078 24.03192
#
# Velocity S-wave (km/s) = 2.90166 3.65315 3.29887
# Velocity P-wave (km/s) = 5.28645 6.08871 5.70171
#
# Compressibility (1/GPa) = 0.02708294
#
# Stress axis : x y z
#
# Youngs Moduli (GPa) = 47.88817 27.26926 38.08075
#
# Poissons Ratio (x) = 0.22023 0.14198
# Poissons Ratio (y) = 0.38674 0.63065
# Poissons Ratio (z) = 0.17855 0.45160
#
# Static dielectric constant tensor:
#      x y z
#    x 1.876770 -0.013450 -0.002370 
#    y -0.013450 1.795130 0.042900 
#    z -0.002370 0.042900 1.890120 
# 
# From -- ./inp_files/313887.got.cif
#   From: 2010.05.17/outbox.cif.g08.bks.cpg/sg2_157_cif.got.tgz:313887.got - 2010.06.03 11:33:40.
