data_PCOD9088714
_publ_section_title
;
Structure prediction by ZEFSAII (Michael W. Deem and Ramdas Pophale) SiO2 
 PCOD9088714
Probable space group: P -1
;
_chemical_formula_sum "Si O2"
_cell_formula_units_Z 16
_cell_length_a 13.795656
_cell_length_b 8.416772
_cell_length_c 11.028659
_cell_angle_alpha 124.334132
_cell_angle_beta 142.422085
_cell_angle_gamma 50.329284
_cell_volume 596.501036
_symmetry_space_group_name_H-M "P -1"
_symmetry_group_IT_number 2
_symmetry_cell_setting 'triclinic'
loop_
_space_group_symop_operation_xyz
x,y,z
-x,-y,-z
loop_
_atom_site_type_symbol
_atom_site_label
_atom_site_fract_x
_atom_site_fract_y
_atom_site_fract_z
Si Si1 0.040903 0.226775 0.283348
Si Si2 0.176005 0.381317 0.039103
Si Si3 0.530923 0.284169 0.622920
Si Si4 0.562147 0.694130 0.940985
Si Si5 0.236827 0.134922 0.213023
Si Si6 0.770486 0.231963 0.649039
Si Si7 0.752040 0.525352 0.279960
Si Si8 0.194576 0.824188 0.612840
O O1 0.064827 0.231700 0.164927
O O2 0.166841 0.316609 0.517441
O O3 0.860032 0.380170 0.215334
O O4 0.088412 0.988859 0.266172
O O5 0.267295 0.309046 0.965377
O O6 0.231652 0.170131 0.081004
O O7 0.247246 0.558481 0.213261
O O8 0.000000 0.500000 0.000000
O O9 0.525843 0.495689 0.766280
O O10 0.354689 0.249311 0.436551
O O11 0.591878 0.226185 0.518218
O O12 0.672418 0.102951 0.762010
O O13 0.412973 0.335240 0.901205
O O14 0.370433 0.872842 0.806483
O O15 0.803018 0.263206 0.556909
O O16 0.777277 0.350981 0.332456
O O17 0.000000 0.000000 0.500000
#
# Coordination Sequence:
#
# PCOD9088714 Si02
#       8
#     2   2   2   2   2   2   2   2
#     4  10  21  39  66  91 131 180 224 264 328 399
#     4  11  23  40  67  99 138 167 210 285 344 387
#     4   9  20  38  67  95 126 167 214 281 328 393
#     4  11  24  42  66 101 135 173 222 274 337 397
#     4  10  19  37  62  96 126 167 219 265 333 398
#     4  10  21  41  66  94 127 172 228 268 332 401
#     4  11  23  41  64  93 135 179 226 272 321 395
#     4  12  24  43  68  97 132 181 226 272 327 393
#
# _framework density 26.823087999999998
#
# number of rings (size 3 to 8) (size 9 to 14) (size 15 to 20)
#    0.000    1.500    1.250    4.125    0.000    4.000 
#    0.000    4.375    0.000    0.000    0.000    0.000 
#    0.000    0.000    0.000    0.000    0.000    0.000 
#
# Total GULP energy -89201.266577 kJ/mol
# GULP energy per Si atom -5575.079161 kJ/mol
# Density = 2.676204 g / cm^3
# Si number density = 26.823088 Si / 1000 Ang^3
#
#
#
# Elastic Constant Matrix: (Units=GPa)
#
#
# Indices 1 2 3 4 5 6 
#
# 1 164.2590 66.9077 28.7464 -19.7110 -14.9302 14.2576
# 2 66.9077 117.4662 19.8525 -5.9522 -11.0277 -7.6171
# 3 28.7464 19.8525 61.7615 -14.7372 -3.8740 -8.9784
# 4 -19.7110 -5.9522 -14.7372 36.5916 -3.4715 -0.9431
# 5 -14.9302 -11.0277 -3.8740 -3.4715 38.7739 -9.6201
# 6 14.2576 -7.6171 -8.9784 -0.9431 -9.6201 23.4116
#
#
#
# Elastic Compliance Matrix: (Units=1/GPa)
#
#
# Indices 1 2 3 4 5 6 
#
# 1 0.010163 -0.005652 -0.003597 0.002854 -0.000116 -0.009340
# 2 -0.005652 0.012636 0.000012 -0.000408 0.003622 0.009030
# 3 -0.003597 0.000012 0.021833 0.007629 0.004655 0.012788
# 4 0.002854 -0.000408 0.007629 0.032549 0.005842 0.004766
# 5 -0.000116 0.003622 0.004655 0.005842 0.031820 0.016345
# 6 -0.009340 0.009030 0.012788 0.004766 0.016345 0.063152
#
#
# Mechanical properties :
#
#
# Convention : Reuss Voigt Hill
#
# Bulk Modulus (GPa) = 38.23249 63.83332 51.03290
# Shear Modulus (GPa) = 25.08189 34.95408 30.01798
#
# Velocity S-wave (km/s) = 3.06123 3.61381 3.34894
# Velocity P-wave (km/s) = 5.17488 6.42358 5.83274
#
# Compressibility (1/GPa) = 0.02615577
#
# Stress axis : x y z
#
# Youngs Moduli (GPa) = 98.39963 79.14151 45.80189
#
# Poissons Ratio (x) = 0.44735 0.16476
# Poissons Ratio (y) = 0.55620 -0.00054
# Poissons Ratio (z) = 0.35396 -0.00093
#
# Static dielectric constant tensor:
#      x y z
#    x 2.319130 0.017730 0.102240 
#    y 0.017730 2.131850 -0.101730 
#    z 0.102240 -0.101730 2.178890 
# 
# From -- ./inp_files/503193.got.cif
#   From: 2010.05.17/outbox.cif.g08.bks.cpg/sg2_252_cif.got.tgz:503193.got - 2010.06.03 11:33:40.
