data_PCOD9088170
_publ_section_title
;
Structure prediction by ZEFSAII (Michael W. Deem and Ramdas Pophale) SiO2 
 PCOD9088170
Probable space group: P -1
;
_chemical_formula_sum "Si O2"
_cell_formula_units_Z 14
_cell_length_a 8.765425
_cell_length_b 23.056904
_cell_length_c 5.041668
_cell_angle_alpha 70.428871
_cell_angle_beta 117.296811
_cell_angle_gamma 134.200803
_cell_volume 648.948160
_symmetry_space_group_name_H-M "P -1"
_symmetry_group_IT_number 2
_symmetry_cell_setting 'triclinic'
loop_
_space_group_symop_operation_xyz
x,y,z
-x,-y,-z
loop_
_atom_site_type_symbol
_atom_site_label
_atom_site_fract_x
_atom_site_fract_y
_atom_site_fract_z
Si Si1 0.316139 0.502506 0.460674
Si Si2 0.527729 0.327338 0.616207
Si Si3 0.966414 0.554816 0.212481
Si Si4 0.244717 0.224017 0.052021
Si Si5 0.326915 0.042234 0.981601
Si Si6 0.183989 0.878773 0.856027
Si Si7 0.041570 0.083965 0.753592
O O1 0.500000 0.500000 0.500000
O O2 0.441570 0.592703 0.528196
O O3 0.178253 0.441605 0.691116
O O4 0.162571 0.483901 0.109314
O O5 0.399669 0.265025 0.370380
O O6 0.784728 0.362820 0.780950
O O7 0.387432 0.287062 0.834062
O O8 0.000000 0.500000 0.500000
O O9 0.997931 0.193953 0.980624
O O10 0.185538 0.141278 0.031951
O O11 0.197832 0.073237 0.732230
O O12 0.268146 0.963450 0.918284
O O13 0.597093 0.107973 0.081594
O O14 0.194411 0.002679 0.216188
O O15 0.033592 0.870157 0.511299
#
# Coordination Sequence:
#
# PCOD9088170 Si02
#       7
#     2   2   2   2   2   2   2
#     4  11  22  39  65  96 123 151 205 265 301 351
#     4  11  21  40  63  84 122 165 196 240 310 362
#     4  10  20  38  64  92 114 158 208 242 295 368
#     4  11  22  37  60  84 122 166 199 242 308 381
#     4   9  20  34  62  90 114 157 209 266 295 353
#     4  10  19  37  59  89 120 160 205 252 313 352
#     4  10  19  37  59  89 119 157 211 250 308 358
#
# _framework density 21.573369
#
# number of rings (size 3 to 8) (size 9 to 14) (size 15 to 20)
#    0.000    1.714    1.429    5.571    0.000    0.000 
#    0.000    4.286    3.143    0.000    0.000    0.000 
#    0.000    0.000    0.000    0.000    0.000    0.000 
#
# Total GULP energy -77987.014459 kJ/mol
# GULP energy per Si atom -5570.501033 kJ/mol
# Density = 2.152427 g / cm^3
# Si number density = 21.573369 Si / 1000 Ang^3
#
#
#
# Elastic Constant Matrix: (Units=GPa)
#
#
# Indices 1 2 3 4 5 6 
#
# 1 154.6996 47.6113 33.4470 8.3978 7.3721 37.3356
# 2 47.6113 90.0194 26.0391 10.2764 -4.2959 41.0616
# 3 33.4470 26.0391 80.2638 10.1388 -12.1025 17.5005
# 4 8.3978 10.2764 10.1388 27.6752 6.4009 -6.8126
# 5 7.3721 -4.2959 -12.1025 6.4009 28.1255 -0.4746
# 6 37.3356 41.0616 17.5005 -6.8126 -0.4746 40.7018
#
#
#
# Elastic Compliance Matrix: (Units=1/GPa)
#
#
# Indices 1 2 3 4 5 6 
#
# 1 0.009200 -0.000726 -0.002064 -0.002908 -0.002872 -0.007340
# 2 -0.000726 0.028783 0.002407 -0.021775 0.010022 -0.032934
# 3 -0.002064 0.002407 0.017928 -0.011905 0.011162 -0.010107
# 4 -0.002908 -0.021775 -0.011905 0.064388 -0.021660 0.040279
# 5 -0.002872 0.010022 0.011162 -0.021660 0.047312 -0.015349
# 6 -0.007340 -0.032934 -0.010107 0.040279 -0.015349 0.075436
#
#
# Mechanical properties :
#
#
# Convention : Reuss Voigt Hill
#
# Bulk Modulus (GPa) = 18.13332 59.90862 39.02097
# Shear Modulus (GPa) = 19.06987 33.82619 26.44803
#
# Velocity S-wave (km/s) = 2.97636 3.96404 3.50517
# Velocity P-wave (km/s) = 4.49837 6.98438 5.87439
#
# Compressibility (1/GPa) = 0.05514710
#
# Stress axis : x y z
#
# Youngs Moduli (GPa) = 108.69733 34.74256 55.77718
#
# Poissons Ratio (x) = 0.02523 0.11510
# Poissons Ratio (y) = 0.07892 -0.13428
# Poissons Ratio (z) = 0.22430 -0.08364
#
# Static dielectric constant tensor:
#      x y z
#    x 1.883920 0.015050 -0.010580 
#    y 0.015050 1.836740 -0.022540 
#    z -0.010580 -0.022540 1.890260 
# 
# From -- ./inp_files/51615.got.cif
#   From: 2010.05.17/outbox.cif.g08.bks.cpg/sg2_26_cif.got.tgz:51615.got - 2010.06.03 11:33:40.
