data_PCOD9088793
_publ_section_title
;
Structure prediction by ZEFSAII (Michael W. Deem and Ramdas Pophale) SiO2 
 PCOD9088793
Probable space group: P -1
;
_chemical_formula_sum "Si O2"
_cell_formula_units_Z 16
_cell_length_a 11.829441
_cell_length_b 8.929494
_cell_length_c 10.520378
_cell_angle_alpha 97.029330
_cell_angle_beta 55.924458
_cell_angle_gamma 120.775937
_cell_volume 769.477195
_symmetry_space_group_name_H-M "P -1"
_symmetry_group_IT_number 2
_symmetry_cell_setting 'triclinic'
loop_
_space_group_symop_operation_xyz
x,y,z
-x,-y,-z
loop_
_atom_site_type_symbol
_atom_site_label
_atom_site_fract_x
_atom_site_fract_y
_atom_site_fract_z
Si Si1 0.827571 0.384203 0.899678
Si Si2 0.219021 0.115052 0.823385
Si Si3 0.977175 0.187653 0.886769
Si Si4 0.465145 0.628326 0.217986
Si Si5 0.175112 0.676094 0.393905
Si Si6 0.958170 0.211435 0.295189
Si Si7 0.528537 0.712867 0.887233
Si Si8 0.887585 0.959368 0.686041
O O1 0.912985 0.318792 0.935298
O O2 0.802005 0.288534 0.767700
O O3 0.948540 0.597125 0.816495
O O4 0.645210 0.322520 0.048700
O O5 0.406348 0.244253 0.744548
O O6 0.142116 0.234078 0.855860
O O7 0.149807 0.959464 0.745053
O O8 0.149257 0.998893 0.983511
O O9 0.978970 0.132889 0.735517
O O10 0.304073 0.626114 0.344907
O O11 0.453574 0.441565 0.201728
O O12 0.517962 0.697830 0.046400
O O13 0.159034 0.800298 0.518963
O O14 0.000000 0.500000 0.500000
O O15 0.101633 0.193994 0.261506
O O16 0.702077 0.892413 0.768768
O O17 0.000000 0.000000 0.500000
#
# Coordination Sequence:
#
# PCOD9088793 Si02
#       8
#     2   2   2   2   2   2   2   2
#     4  10  21  37  63  92 119 151 203 259 288 347
#     4  10  22  39  59  87 124 164 196 238 296 367
#     4  10  22  38  59  87 122 158 199 239 300 356
#     4  10  19  37  63  88 120 157 197 250 289 356
#     4   9  18  35  61  89 117 149 193 247 298 339
#     4  10  21  38  61  90 118 164 200 233 306 355
#     4  10  20  35  61  91 116 150 203 247 305 344
#     4  11  21  38  62  88 121 157 198 248 302 360
#
# _framework density 20.793340000000001
#
# number of rings (size 3 to 8) (size 9 to 14) (size 15 to 20)
#    0.000    2.000    1.250    3.750    3.500    2.500 
#    2.250    0.000    0.000    6.000    0.000    0.000 
#    0.000    0.000    0.000    0.000    0.000    0.000 
#
# Total GULP energy -89217.601898 kJ/mol
# GULP energy per Si atom -5576.100119 kJ/mol
# Density = 2.074601 g / cm^3
# Si number density = 20.793340 Si / 1000 Ang^3
#
#
#
# Elastic Constant Matrix: (Units=GPa)
#
#
# Indices 1 2 3 4 5 6 
#
# 1 151.6737 64.8210 31.6561 -4.2722 -37.1504 -15.1986
# 2 64.8210 78.0953 27.6267 9.9288 -12.0765 3.4946
# 3 31.6561 27.6267 72.4548 11.9701 -25.5569 3.8363
# 4 -4.2722 9.9288 11.9701 31.6714 3.6236 0.1830
# 5 -37.1504 -12.0765 -25.5569 3.6236 37.0126 2.0331
# 6 -15.1986 3.4946 3.8363 0.1830 2.0331 40.2362
#
#
#
# Elastic Compliance Matrix: (Units=1/GPa)
#
#
# Indices 1 2 3 4 5 6 
#
# 1 0.014777 -0.011662 0.000848 0.004049 0.010890 0.005945
# 2 -0.011662 0.024384 -0.005024 -0.006569 -0.006263 -0.005698
# 3 0.000848 -0.005024 0.022380 -0.008544 0.015618 -0.002128
# 4 0.004049 -0.006569 -0.008544 0.038295 -0.007900 0.003139
# 5 0.010890 -0.006263 0.015618 -0.007900 0.047418 0.000808
# 6 0.005945 -0.005698 -0.002128 0.003139 0.000808 0.027742
#
#
# Mechanical properties :
#
#
# Convention : Reuss Voigt Hill
#
# Bulk Modulus (GPa) = 33.48521 61.15907 47.32214
# Shear Modulus (GPa) = 23.08109 33.65870 28.36989
#
# Velocity S-wave (km/s) = 3.33532 4.02770 3.69775
# Velocity P-wave (km/s) = 5.56518 7.14888 6.40616
#
# Compressibility (1/GPa) = 0.02986393
#
# Stress axis : x y z
#
# Youngs Moduli (GPa) = 67.67108 41.01066 44.68251
#
# Poissons Ratio (x) = 0.47828 -0.03789
# Poissons Ratio (y) = 0.78920 0.22450
# Poissons Ratio (z) = -0.05738 0.20605
#
# Static dielectric constant tensor:
#      x y z
#    x 1.774590 -0.021040 0.029970 
#    y -0.021040 1.802000 0.043330 
#    z 0.029970 0.043330 1.770950 
# 
# From -- ./inp_files/419525.got.cif
#   From: 2010.05.17/outbox.cif.g08.bks.cpg/sg2_210_cif.got.tgz:419525.got - 2010.06.03 11:33:40.
