data_PCOD9088105
_publ_section_title
;
Structure prediction by ZEFSAII (Michael W. Deem and Ramdas Pophale) SiO2 
 PCOD9088105
Probable space group: P -1
;
_chemical_formula_sum "Si O2"
_cell_formula_units_Z 16
_cell_length_a 14.643183
_cell_length_b 11.542129
_cell_length_c 15.162668
_cell_angle_alpha 148.673213
_cell_angle_beta 153.693088
_cell_angle_gamma 41.648274
_cell_volume 588.580894
_symmetry_space_group_name_H-M "P -1"
_symmetry_group_IT_number 2
_symmetry_cell_setting 'triclinic'
loop_
_space_group_symop_operation_xyz
x,y,z
-x,-y,-z
loop_
_atom_site_type_symbol
_atom_site_label
_atom_site_fract_x
_atom_site_fract_y
_atom_site_fract_z
Si Si1 0.252914 0.531472 0.305604
Si Si2 0.788093 0.002392 0.195961
Si Si3 0.993720 0.784080 0.761273
Si Si4 0.202721 0.486107 0.420628
Si Si5 0.317699 0.609848 0.224964
Si Si6 0.169666 0.075026 0.459634
Si Si7 0.336668 0.041894 0.755620
Si Si8 0.291503 0.845580 0.193773
O O1 0.500000 0.500000 0.500000
O O2 0.148607 0.412891 0.224723
O O3 0.202055 0.489437 0.130895
O O4 0.242176 0.792925 0.487481
O O5 0.838322 0.257481 0.436163
O O6 0.762502 0.876810 0.186506
O O7 0.956141 0.963242 0.243105
O O8 0.569474 0.005094 0.959921
O O9 0.885445 0.627399 0.640490
O O10 0.907729 0.748647 0.564431
O O11 0.897764 0.019865 0.848503
O O12 0.233948 0.808534 0.016295
O O13 0.447830 0.457086 0.614364
O O14 0.272986 0.619659 0.088223
O O15 0.299449 0.873930 0.405551
O O16 0.298762 0.175074 0.720450
O O17 0.500000 0.000000 0.500000
#
# Coordination Sequence:
#
# PCOD9088105 Si02
#       8
#     2   2   2   2   2   2   2   2
#     4   8  16  32  60  85 112 150 189 246 290 337
#     4  10  21  38  62  86 119 161 192 247 298 348
#     4  10  22  35  57  86 116 158 197 240 299 352
#     4  10  19  38  58  83 125 156 192 245 299 349
#     4   9  18  36  60  84 115 150 198 244 290 347
#     4  10  21  37  59  89 113 153 207 241 287 355
#     4   9  19  39  63  84 117 160 202 234 299 359
#     4  10  19  37  59  83 116 157 194 239 298 357
#
# _framework density 27.184028999999999
#
# number of rings (size 3 to 8) (size 9 to 14) (size 15 to 20)
#    0.000    2.500    1.250    0.375    0.000    3.500 
#   11.250    1.250   11.000    0.000    0.000    0.000 
#    0.000    0.000    0.000    0.000    0.000    0.000 
#
# Total GULP energy -89278.023966 kJ/mol
# GULP energy per Si atom -5579.876498 kJ/mol
# Density = 2.712216 g / cm^3
# Si number density = 27.184029 Si / 1000 Ang^3
#
#
#
# Elastic Constant Matrix: (Units=GPa)
#
#
# Indices 1 2 3 4 5 6 
#
# 1 148.0409 41.7668 52.9805 -7.6734 -10.6310 32.7296
# 2 41.7668 64.6212 30.2243 -23.4836 -17.3294 36.8245
# 3 52.9805 30.2243 88.7302 -24.8127 -15.7883 19.9903
# 4 -7.6734 -23.4836 -24.8127 50.3818 4.8680 -20.0903
# 5 -10.6310 -17.3294 -15.7883 4.8680 55.4259 -10.5801
# 6 32.7296 36.8245 19.9903 -20.0903 -10.5801 74.4464
#
#
#
# Elastic Compliance Matrix: (Units=1/GPa)
#
#
# Indices 1 2 3 4 5 6 
#
# 1 0.010113 -0.004668 -0.005296 -0.003907 -0.001051 -0.001919
# 2 -0.004668 0.028532 -0.001902 0.007665 0.005140 -0.008751
# 3 -0.005296 -0.001902 0.017327 0.006918 0.002888 0.000894
# 4 -0.003907 0.007665 0.006918 0.027554 0.001919 0.003777
# 5 -0.001051 0.005140 0.002888 0.001919 0.020204 0.000533
# 6 -0.001919 -0.008751 0.000894 0.003777 0.000533 0.019460
#
#
# Mechanical properties :
#
#
# Convention : Reuss Voigt Hill
#
# Bulk Modulus (GPa) = 31.01634 61.25951 46.13792
# Shear Modulus (GPa) = 31.71181 47.81219 39.76200
#
# Velocity S-wave (km/s) = 3.41920 4.19840 3.82867
# Velocity P-wave (km/s) = 5.19831 6.78867 6.04601
#
# Compressibility (1/GPa) = 0.03224107
#
# Stress axis : x y z
#
# Youngs Moduli (GPa) = 98.87835 35.04787 57.71221
#
# Poissons Ratio (x) = 0.16360 0.30565
# Poissons Ratio (y) = 0.46156 0.10977
# Poissons Ratio (z) = 0.52367 0.06666
#
# Static dielectric constant tensor:
#      x y z
#    x 2.226530 0.109710 -0.085440 
#    y 0.109710 2.242230 -0.068960 
#    z -0.085440 -0.068960 2.285080 
# 
# From -- ./inp_files/532738.got.cif
#   From: 2010.05.17/outbox.cif.g08.bks.cpg/sg2_267_cif.got.tgz:532738.got - 2010.06.03 11:33:40.
