data_PCOD9088336
_publ_section_title
;
Structure prediction by ZEFSAII (Michael W. Deem and Ramdas Pophale) SiO2 
 PCOD9088336
Probable space group: P -1
;
_chemical_formula_sum "Si O2"
_cell_formula_units_Z 16
_cell_length_a 12.664543
_cell_length_b 13.274938
_cell_length_c 8.107005
_cell_angle_alpha 75.162425
_cell_angle_beta 49.157759
_cell_angle_gamma 46.033332
_cell_volume 691.351586
_symmetry_space_group_name_H-M "P -1"
_symmetry_group_IT_number 2
_symmetry_cell_setting 'triclinic'
loop_
_space_group_symop_operation_xyz
x,y,z
-x,-y,-z
loop_
_atom_site_type_symbol
_atom_site_label
_atom_site_fract_x
_atom_site_fract_y
_atom_site_fract_z
Si Si1 0.148050 0.852056 0.790101
Si Si2 0.340230 0.717663 0.135137
Si Si3 0.418195 0.920446 0.006981
Si Si4 0.861014 0.814816 0.024806
Si Si5 0.960351 0.384117 0.760472
Si Si6 0.094090 0.035983 0.512398
Si Si7 0.429102 0.550352 0.815110
Si Si8 0.876043 0.674616 0.746542
O O1 0.999473 0.844125 0.872233
O O2 0.217171 0.904004 0.572797
O O3 0.340744 0.682534 0.724295
O O4 0.000000 0.000000 0.000000
O O5 0.385342 0.815053 0.052341
O O6 0.477944 0.598164 0.900433
O O7 0.114945 0.811581 0.265337
O O8 0.383196 0.630545 0.295739
O O9 0.359384 0.022791 0.868442
O O10 0.238920 0.036489 0.273282
O O11 0.636395 0.814386 0.903216
O O12 0.930143 0.701710 0.852504
O O13 0.886507 0.747279 0.205359
O O14 0.754187 0.432345 0.982444
O O15 0.928679 0.523485 0.770208
O O16 0.024232 0.342205 0.521069
O O17 0.000000 0.000000 0.500000
#
# Coordination Sequence:
#
# PCOD9088336 Si02
#       8
#     2   2   2   2   2   2   2   2
#     4  11  20  38  63 100 127 161 210 262 320 383
#     4  10  19  37  60  91 126 156 209 254 326 381
#     4  11  22  40  61  92 128 167 208 265 313 380
#     4  11  23  40  66  95 126 166 216 264 314 382
#     4  10  24  43  67  91 124 173 212 267 322 370
#     4  10  20  37  62  86 128 164 193 261 325 364
#     4  10  20  35  64  92 123 162 206 265 313 385
#     4  11  24  44  65  90 129 170 220 262 316 378
#
# _framework density 23.143072
#
# number of rings (size 3 to 8) (size 9 to 14) (size 15 to 20)
#    0.000    1.500    5.000    0.750    1.750    0.500 
#    0.000    6.250    0.000    0.000    0.000    0.000 
#    0.000    0.000    0.000    0.000    0.000    0.000 
#
# Total GULP energy -89214.002027 kJ/mol
# GULP energy per Si atom -5575.875127 kJ/mol
# Density = 2.309040 g / cm^3
# Si number density = 23.143072 Si / 1000 Ang^3
#
#
#
# Elastic Constant Matrix: (Units=GPa)
#
#
# Indices 1 2 3 4 5 6 
#
# 1 89.3257 34.4361 7.9503 -4.7269 5.3173 20.8018
# 2 34.4361 171.0961 18.4432 -30.1174 3.7508 -17.1652
# 3 7.9503 18.4432 43.3014 -19.3997 -0.2443 1.9867
# 4 -4.7269 -30.1174 -19.3997 36.6755 -0.0193 9.7659
# 5 5.3173 3.7508 -0.2443 -0.0193 29.8607 4.4914
# 6 20.8018 -17.1652 1.9867 9.7659 4.4914 55.0218
#
#
#
# Elastic Compliance Matrix: (Units=1/GPa)
#
#
# Indices 1 2 3 4 5 6 
#
# 1 0.014087 -0.003293 -0.000717 0.000411 -0.001152 -0.006306
# 2 -0.003293 0.007733 -0.000679 0.004795 -0.000823 0.002898
# 3 -0.000717 -0.000679 0.031352 0.017050 0.001111 -0.004190
# 4 0.000411 0.004795 0.017050 0.042083 0.000512 -0.006786
# 5 -0.001152 -0.000823 0.001111 0.000512 0.034220 -0.002746
# 6 -0.006306 0.002898 -0.004190 -0.006786 -0.002746 0.023043
#
#
# Mechanical properties :
#
#
# Convention : Reuss Voigt Hill
#
# Bulk Modulus (GPa) = 22.83362 47.26471 35.04916
# Shear Modulus (GPa) = 28.32957 40.50450 34.41703
#
# Velocity S-wave (km/s) = 3.50252 4.18805 3.86053
# Velocity P-wave (km/s) = 5.12294 6.62220 5.92022
#
# Compressibility (1/GPa) = 0.04379508
#
# Stress axis : x y z
#
# Youngs Moduli (GPa) = 70.98631 129.30760 31.89595
#
# Poissons Ratio (x) = 0.42583 0.02287
# Poissons Ratio (y) = 0.23377 0.02165
# Poissons Ratio (z) = 0.05090 0.08775
#
# Static dielectric constant tensor:
#      x y z
#    x 1.870310 -0.034340 0.072900 
#    y -0.034340 2.176010 0.156790 
#    z 0.072900 0.156790 2.009870 
# 
# From -- ./inp_files/312931.got.cif
#   From: 2010.05.17/outbox.cif.g08.bks.cpg/sg2_157_cif.got.tgz:312931.got - 2010.06.03 11:33:40.
