data_PCOD9088427
_publ_section_title
;
Structure prediction by ZEFSAII (Michael W. Deem and Ramdas Pophale) SiO2 
 PCOD9088427
Probable space group: P -1
;
_chemical_formula_sum "Si O2"
_cell_formula_units_Z 16
_cell_length_a 11.133458
_cell_length_b 12.260125
_cell_length_c 10.382435
_cell_angle_alpha 122.753877
_cell_angle_beta 130.370324
_cell_angle_gamma 40.581416
_cell_volume 698.927171
_symmetry_space_group_name_H-M "P -1"
_symmetry_group_IT_number 2
_symmetry_cell_setting 'triclinic'
loop_
_space_group_symop_operation_xyz
x,y,z
-x,-y,-z
loop_
_atom_site_type_symbol
_atom_site_label
_atom_site_fract_x
_atom_site_fract_y
_atom_site_fract_z
Si Si1 0.837897 0.734930 0.451178
Si Si2 0.760737 0.121545 0.890499
Si Si3 0.507236 0.051299 0.830569
Si Si4 0.181623 0.527334 0.342033
Si Si5 0.813850 0.173203 0.414716
Si Si6 0.569142 0.673156 0.387447
Si Si7 0.198480 0.693957 0.773791
Si Si8 0.386654 0.250406 0.130459
O O1 0.665427 0.906155 0.363372
O O2 0.713699 0.688843 0.409653
O O3 0.991952 0.609432 0.362727
O O4 0.982902 0.729653 0.652872
O O5 0.662820 0.055599 0.859315
O O6 0.661454 0.174894 0.715148
O O7 0.705676 0.285146 0.026037
O O8 0.000000 0.000000 0.000000
O O9 0.619575 0.879722 0.876497
O O10 0.398396 0.200114 0.957251
O O11 0.207175 0.669743 0.440605
O O12 0.364516 0.359794 0.440784
O O13 0.205184 0.443440 0.168891
O O14 0.853717 0.177690 0.293878
O O15 0.603487 0.204683 0.284324
O O16 0.000000 0.000000 0.500000
O O17 0.633921 0.493684 0.281223
#
# Coordination Sequence:
#
# PCOD9088427 Si02
#       8
#     2   2   2   2   2   2   2   2
#     4   9  19  38  61  87 119 159 209 242 318 367
#     4  11  23  39  60  91 122 157 213 253 304 369
#     4  10  23  40  60  86 126 174 192 255 322 352
#     4  10  21  36  63  97 118 158 214 254 303 368
#     4  10  20  37  62  87 123 163 201 252 308 366
#     4   9  20  38  62  87 122 158 199 259 315 358
#     4  10  19  37  61  86 118 161 201 247 312 367
#     4  11  21  39  60  84 132 159 212 249 300 376
#
# _framework density 22.892230000000001
#
# number of rings (size 3 to 8) (size 9 to 14) (size 15 to 20)
#    0.000    2.250    1.250    3.750    0.000    4.500 
#    0.000    2.500    0.000    0.000    0.000    0.000 
#    0.000    0.000    0.000    0.000    0.000    0.000 
#
# Total GULP energy -89268.981998 kJ/mol
# GULP energy per Si atom -5579.311375 kJ/mol
# Density = 2.284013 g / cm^3
# Si number density = 22.892230 Si / 1000 Ang^3
#
#
#
# Elastic Constant Matrix: (Units=GPa)
#
#
# Indices 1 2 3 4 5 6 
#
# 1 43.0248 33.0093 31.0376 -9.9174 12.2538 5.3582
# 2 33.0093 61.0301 36.6629 -14.0887 3.8042 12.1943
# 3 31.0376 36.6629 75.3549 -12.1493 10.3892 -5.4987
# 4 -9.9174 -14.0887 -12.1493 47.6274 -7.7712 -8.8372
# 5 12.2538 3.8042 10.3892 -7.7712 21.7010 -6.1909
# 6 5.3582 12.1943 -5.4987 -8.8372 -6.1909 16.8411
#
#
#
# Elastic Compliance Matrix: (Units=1/GPa)
#
#
# Indices 1 2 3 4 5 6 
#
# 1 0.057113 -0.017010 -0.013740 -0.006729 -0.032461 -0.025804
# 2 -0.017010 0.039735 -0.014638 -0.000421 0.001571 -0.027782
# 3 -0.013740 -0.014638 0.028334 0.007104 0.008130 0.030938
# 4 -0.006729 -0.000421 0.007104 0.029351 0.018697 0.027039
# 5 -0.032461 0.001571 0.008130 0.018697 0.081683 0.051683
# 6 -0.025804 -0.027782 0.030938 0.027039 0.051683 0.130994
#
#
# Mechanical properties :
#
#
# Convention : Reuss Voigt Hill
#
# Bulk Modulus (GPa) = 29.06573 42.31439 35.69006
# Shear Modulus (GPa) = 10.65063 22.48056 16.56560
#
# Velocity S-wave (km/s) = 2.15931 3.13711 2.69296
# Velocity P-wave (km/s) = 4.35214 5.62550 5.02929
#
# Compressibility (1/GPa) = 0.03440478
#
# Stress axis : x y z
#
# Youngs Moduli (GPa) = 17.50916 25.16643 35.29339
#
# Poissons Ratio (x) = 0.42809 0.48494
# Poissons Ratio (y) = 0.29784 0.51663
# Poissons Ratio (z) = 0.24058 0.36839
#
# Static dielectric constant tensor:
#      x y z
#    x 1.865250 -0.063630 -0.026380 
#    y -0.063630 1.925660 0.059340 
#    z -0.026380 0.059340 1.963370 
# 
# From -- ./inp_files/426542.got.cif
#   From: 2010.05.17/outbox.cif.g08.bks.cpg/sg2_214_cif.got.tgz:426542.got - 2010.06.03 11:33:40.
