data_PCOD9088456
_publ_section_title
;
Structure prediction by ZEFSAII (Michael W. Deem and Ramdas Pophale) SiO2 
 PCOD9088456
Probable space group: P -1
;
_chemical_formula_sum "Si O2"
_cell_formula_units_Z 15
_cell_length_a 7.312439
_cell_length_b 25.426314
_cell_length_c 7.927984
_cell_angle_alpha 34.215956
_cell_angle_beta 58.145442
_cell_angle_gamma 43.104205
_cell_volume 555.206172
_symmetry_space_group_name_H-M "P -1"
_symmetry_group_IT_number 2
_symmetry_cell_setting 'triclinic'
loop_
_space_group_symop_operation_xyz
x,y,z
-x,-y,-z
loop_
_atom_site_type_symbol
_atom_site_label
_atom_site_fract_x
_atom_site_fract_y
_atom_site_fract_z
Si Si1 0.751369 0.020312 0.774249
Si Si2 0.940146 0.873682 0.747356
Si Si3 0.795578 0.202053 0.697982
Si Si4 0.608390 0.746463 0.505968
Si Si5 0.000000 0.500000 0.500000
Si Si6 0.824893 0.527289 0.212205
Si Si7 0.661319 0.366465 0.606666
Si Si8 0.279422 0.239641 0.956958
O O1 0.471033 0.142971 0.638754
O O2 0.934444 0.063097 0.540821
O O3 0.757886 0.954321 0.781665
O O4 0.907741 0.921386 0.105449
O O5 0.779480 0.853733 0.743670
O O6 0.193724 0.741542 0.042718
O O7 0.660601 0.229342 0.509651
O O8 0.765700 0.307524 0.530033
O O9 0.590966 0.191997 0.943434
O O10 0.762405 0.740956 0.279117
O O11 0.759297 0.628460 0.853331
O O12 0.893811 0.529733 0.678695
O O13 0.079203 0.359760 0.837060
O O14 0.718352 0.459639 0.366250
O O15 0.664426 0.566821 0.374181
#
# Coordination Sequence:
#
# PCOD9088456 Si02
#       8
#     2   2   2   2   1   2   2   2
#     4  10  20  38  69  87 123 164 213 252 292 367
#     4  10  20  37  63  92 116 167 212 245 305 361
#     4   9  21  39  60  91 127 159 204 257 301 367
#     4  10  22  40  61  93 126 162 200 257 315 356
#     4  12  22  40  62  88 124 164 200 258 302 372
#     4  11  21  36  66  84 123 162 207 253 305 363
#     4  10  19  37  61  88 117 166 208 252 293 369
#     4  10  23  40  59  91 131 157 204 255 315 359
#
# _framework density 27.01699
#
# number of rings (size 3 to 8) (size 9 to 14) (size 15 to 20)
#    0.800    1.067    4.000    0.400    0.000    2.133 
#    0.000    0.000    8.800    0.000    0.000    0.000 
#    0.000    0.000    0.000    0.000    0.000    0.000 
#
# Total GULP energy -83711.063217 kJ/mol
# GULP energy per Si atom -5580.737548 kJ/mol
# Density = 2.695550 g / cm^3
# Si number density = 27.016990 Si / 1000 Ang^3
#
#
#
# Elastic Constant Matrix: (Units=GPa)
#
#
# Indices 1 2 3 4 5 6 
#
# 1 107.0657 25.9531 64.1470 -15.1534 -17.9450 24.5119
# 2 25.9531 99.0187 36.7740 -33.7457 -24.4798 14.2749
# 3 64.1470 36.7740 110.5066 -17.0363 -10.7574 9.1581
# 4 -15.1534 -33.7457 -17.0363 46.5355 8.4481 -4.3067
# 5 -17.9450 -24.4798 -10.7574 8.4481 50.4521 -11.4778
# 6 24.5119 14.2749 9.1581 -4.3067 -11.4778 41.1168
#
#
#
# Elastic Compliance Matrix: (Units=1/GPa)
#
#
# Indices 1 2 3 4 5 6 
#
# 1 0.016914 0.001375 -0.009079 0.001991 0.002690 -0.007579
# 2 0.001375 0.016178 -0.003953 0.009501 0.005197 -0.003110
# 3 -0.009079 -0.003953 0.015305 0.000288 -0.001236 0.003061
# 4 0.001991 0.009501 0.000288 0.028961 0.000198 -0.001461
# 5 0.002690 0.005197 -0.001236 0.000198 0.023807 0.003534
# 6 -0.007579 -0.003110 0.003061 -0.001461 0.003534 0.030071
#
#
# Mechanical properties :
#
#
# Convention : Reuss Voigt Hill
#
# Bulk Modulus (GPa) = 39.86840 63.37103 51.61971
# Shear Modulus (GPa) = 30.69144 40.26867 35.48006
#
# Velocity S-wave (km/s) = 3.37412 3.86488 3.62781
# Velocity P-wave (km/s) = 5.47434 6.58964 6.05771
#
# Compressibility (1/GPa) = 0.02508252
#
# Stress axis : x y z
#
# Youngs Moduli (GPa) = 59.12205 61.81192 65.33677
#
# Poissons Ratio (x) = -0.08497 0.59319
# Poissons Ratio (y) = -0.08128 0.25830
# Poissons Ratio (z) = 0.53676 0.24436
#
# Static dielectric constant tensor:
#      x y z
#    x 2.247520 -0.101400 0.048570 
#    y -0.101400 2.268950 -0.037940 
#    z 0.048570 -0.037940 2.180860 
# 
# From -- ./inp_files/169883.got.cif
#   From: 2010.05.17/outbox.cif.g08.bks.cpg/sg2_85_cif.got.tgz:169883.got - 2010.06.03 11:33:40.
