data_PCOD9088799
_publ_section_title
;
Structure prediction by ZEFSAII (Michael W. Deem and Ramdas Pophale) SiO2 
 PCOD9088799
Probable space group: P -1
;
_chemical_formula_sum "Si O2"
_cell_formula_units_Z 16
_cell_length_a 9.826825
_cell_length_b 12.116828
_cell_length_c 10.865842
_cell_angle_alpha 125.242349
_cell_angle_beta 106.907510
_cell_angle_gamma 50.079056
_cell_volume 803.840442
_symmetry_space_group_name_H-M "P -1"
_symmetry_group_IT_number 2
_symmetry_cell_setting 'triclinic'
loop_
_space_group_symop_operation_xyz
x,y,z
-x,-y,-z
loop_
_atom_site_type_symbol
_atom_site_label
_atom_site_fract_x
_atom_site_fract_y
_atom_site_fract_z
Si Si1 0.794561 0.165364 0.107776
Si Si2 0.435947 0.681168 0.644257
Si Si3 0.873234 0.999185 0.371259
Si Si4 0.207745 0.387970 0.340924
Si Si5 0.034072 0.257094 0.359663
Si Si6 0.705892 0.881738 0.429731
Si Si7 0.051822 0.485335 0.860246
Si Si8 0.039391 0.808847 0.046727
O O1 0.607211 0.295633 0.207546
O O2 0.932983 0.189726 0.227963
O O3 0.806726 0.196420 0.988002
O O4 0.865032 0.975702 0.040327
O O5 0.500000 0.500000 0.500000
O O6 0.583520 0.707438 0.671064
O O7 0.254775 0.822961 0.617816
O O8 0.747640 0.967128 0.390296
O O9 0.998418 0.859203 0.210747
O O10 0.000000 0.000000 0.500000
O O11 0.151068 0.276148 0.306848
O O12 0.119894 0.551357 0.511385
O O13 0.118064 0.461564 0.232170
O O14 0.163546 0.156715 0.445365
O O15 0.783162 0.698093 0.269868
O O16 0.500000 0.000000 0.500000
O O17 0.076341 0.629491 0.928909
O O18 0.000000 0.500000 0.000000
#
# Coordination Sequence:
#
# PCOD9088799 Si02
#       8
#     2   2   2   2   2   2   2   2
#     4  10  20  38  63  90 125 162 219 267 324 383
#     4  11  22  37  64  98 130 162 219 281 318 377
#     4  11  24  42  63  90 132 175 217 267 335 398
#     4  10  21  36  61  97 124 164 221 266 321 386
#     4  10  19  37  63  88 123 172 213 263 324 392
#     4  11  23  38  63  96 126 165 219 272 325 385
#     4  11  22  41  67  91 133 178 215 263 334 403
#     4  10  21  39  63  88 119 176 218 260 323 400
#
# _framework density 19.904447999999999
#
# number of rings (size 3 to 8) (size 9 to 14) (size 15 to 20)
#    0.000    1.500    3.750    2.250    1.750    1.000 
#    0.000    7.500    0.000    4.500    0.000    0.000 
#    0.000    0.000    0.000    0.000    0.000    0.000 
#
# Total GULP energy -89232.589093 kJ/mol
# GULP energy per Si atom -5577.036818 kJ/mol
# Density = 1.985914 g / cm^3
# Si number density = 19.904448 Si / 1000 Ang^3
#
#
#
# Elastic Constant Matrix: (Units=GPa)
#
#
# Indices 1 2 3 4 5 6 
#
# 1 121.2235 30.1429 42.6516 0.0860 -25.5694 7.5023
# 2 30.1429 58.3573 32.7433 8.4817 -4.6700 9.4738
# 3 42.6516 32.7433 106.7563 9.7659 -16.0293 4.7411
# 4 0.0860 8.4817 9.7659 35.8158 7.7986 0.3815
# 5 -25.5694 -4.6700 -16.0293 7.7986 37.5617 -1.1628
# 6 7.5023 9.4738 4.7411 0.3815 -1.1628 36.7794
#
#
#
# Elastic Compliance Matrix: (Units=1/GPa)
#
#
# Indices 1 2 3 4 5 6 
#
# 1 0.011439 -0.003963 -0.002410 0.000228 0.006193 -0.000809
# 2 -0.003963 0.023277 -0.005225 -0.003725 -0.001400 -0.004520
# 3 -0.002410 -0.005225 0.012770 -0.003072 0.003808 0.000344
# 4 0.000228 -0.003725 -0.003072 0.031399 -0.008115 0.000727
# 5 0.006193 -0.001400 0.003808 -0.008115 0.033967 -0.000236
# 6 -0.000809 -0.004520 0.000344 0.000727 -0.000236 0.028459
#
#
# Mechanical properties :
#
#
# Convention : Reuss Voigt Hill
#
# Bulk Modulus (GPa) = 41.16665 55.26809 48.21737
# Shear Modulus (GPa) = 28.96826 34.08467 31.52647
#
# Velocity S-wave (km/s) = 3.81906 4.14262 3.98413
# Velocity P-wave (km/s) = 6.33830 7.12101 6.74102
#
# Compressibility (1/GPa) = 0.02429151
#
# Stress axis : x y z
#
# Youngs Moduli (GPa) = 87.42366 42.96025 78.30929
#
# Poissons Ratio (x) = 0.17023 0.18870
# Poissons Ratio (y) = 0.34642 0.40916
# Poissons Ratio (z) = 0.21066 0.22446
#
# Static dielectric constant tensor:
#      x y z
#    x 1.721480 0.025940 -0.032040 
#    y 0.025940 1.702600 -0.004410 
#    z -0.032040 -0.004410 1.752210 
# 
# From -- ./inp_files/393138.got.cif
#   From: 2010.05.17/outbox.cif.g08.bks.cpg/sg2_197_cif.got.tgz:393138.got - 2010.06.03 11:33:40.
