data_PCOD9088567
_publ_section_title
;
Structure prediction by ZEFSAII (Michael W. Deem and Ramdas Pophale) SiO2 
 PCOD9088567
Probable space group: P -1
;
_chemical_formula_sum "Si O2"
_cell_formula_units_Z 16
_cell_length_a 7.475358
_cell_length_b 11.343012
_cell_length_c 10.254114
_cell_angle_alpha 50.914666
_cell_angle_beta 109.834960
_cell_angle_gamma 102.860692
_cell_volume 634.812018
_symmetry_space_group_name_H-M "P -1"
_symmetry_group_IT_number 2
_symmetry_cell_setting 'triclinic'
loop_
_space_group_symop_operation_xyz
x,y,z
-x,-y,-z
loop_
_atom_site_type_symbol
_atom_site_label
_atom_site_fract_x
_atom_site_fract_y
_atom_site_fract_z
Si Si1 0.363223 0.850273 0.328825
Si Si2 0.813044 0.387058 0.951293
Si Si3 0.439163 0.180364 0.229746
Si Si4 0.962185 0.881261 0.195592
Si Si5 0.326671 0.890791 0.000897
Si Si6 0.850401 0.302986 0.316550
Si Si7 0.264914 0.272227 0.380171
Si Si8 0.831377 0.632380 0.140509
O O1 0.153043 0.833675 0.351407
O O2 0.301970 0.818097 0.188346
O O3 0.546163 0.754446 0.471390
O O4 0.421366 0.024043 0.254740
O O5 0.662055 0.250251 0.991684
O O6 0.735024 0.550211 0.782092
O O7 0.983996 0.344407 0.924427
O O8 0.870658 0.377752 0.121951
O O9 0.651583 0.210716 0.316943
O O10 0.302107 0.174459 0.327290
O O11 0.345937 0.312840 0.027777
O O12 0.858483 0.738638 0.200347
O O13 0.000000 0.000000 0.000000
O O14 0.830891 0.992193 0.169007
O O15 0.500000 0.000000 0.000000
O O16 0.820746 0.453511 0.291911
O O17 0.063434 0.236798 0.423727
#
# Coordination Sequence:
#
# PCOD9088567 Si02
#       8
#     2   2   2   2   2   2   2   2
#     4  11  23  42  59  88 119 161 198 238 303 357
#     4  11  20  38  62  88 120 157 199 247 297 349
#     4  12  21  40  64  87 120 156 199 249 298 350
#     4  10  19  37  62  82 112 156 200 239 291 346
#     4  11  22  37  62  92 116 153 204 249 293 348
#     4  11  24  37  63  93 118 155 203 248 293 352
#     4  11  25  40  59  88 126 160 195 242 303 355
#     4  11  18  38  63  87 115 152 204 253 289 345
#
# _framework density 25.204312000000002
#
# number of rings (size 3 to 8) (size 9 to 14) (size 15 to 20)
#    0.000    1.000    7.500    2.250    0.000    1.000 
#    2.250    0.000    0.000    1.500    0.000    0.000 
#    0.000    0.000    0.000    0.000    0.000    0.000 
#
# Total GULP energy -89432.656482 kJ/mol
# GULP energy per Si atom -5589.541030 kJ/mol
# Density = 2.514695 g / cm^3
# Si number density = 25.204312 Si / 1000 Ang^3
#
#
#
# Elastic Constant Matrix: (Units=GPa)
#
#
# Indices 1 2 3 4 5 6 
#
# 1 112.5892 18.7655 34.8865 -4.0981 33.0480 7.2945
# 2 18.7655 153.7904 27.5633 3.1374 16.2563 8.7127
# 3 34.8865 27.5633 115.2236 -4.3885 58.6641 0.9444
# 4 -4.0981 3.1374 -4.3885 29.3087 8.9068 6.4228
# 5 33.0480 16.2563 58.6641 8.9068 43.9429 5.2400
# 6 7.2945 8.7127 0.9444 6.4228 5.2400 36.2258
#
#
#
# Elastic Compliance Matrix: (Units=1/GPa)
#
#
# Indices 1 2 3 4 5 6 
#
# 1 0.013593 -0.000840 0.007824 0.010221 -0.022271 -0.001330
# 2 -0.000840 0.006951 -0.002100 -0.001258 0.001287 -0.001411
# 3 0.007824 -0.002100 0.041877 0.027326 -0.066870 0.002666
# 4 0.010221 -0.001258 0.027326 0.057461 -0.054785 -0.004731
# 5 -0.022271 0.001287 -0.066870 -0.054785 0.139955 -0.004613
# 6 -0.001330 -0.001411 0.002666 -0.004731 -0.004613 0.029648
#
#
# Mechanical properties :
#
#
# Convention : Reuss Voigt Hill
#
# Bulk Modulus (GPa) = 13.85266 60.44820 37.15043
# Shear Modulus (GPa) = 16.45932 41.92134 29.19033
#
# Velocity S-wave (km/s) = 2.55823 4.08273 3.40685
# Velocity P-wave (km/s) = 3.77281 6.80149 5.49975
#
# Compressibility (1/GPa) = 0.07218832
#
# Stress axis : x y z
#
# Youngs Moduli (GPa) = 73.56923 143.86862 23.87967
#
# Poissons Ratio (x) = 0.12085 -0.18684
# Poissons Ratio (y) = 0.06180 0.05015
# Poissons Ratio (z) = -0.57563 0.30215
#
# Static dielectric constant tensor:
#      x y z
#    x 2.269540 -0.006840 -0.120490 
#    y -0.006840 1.915450 0.033510 
#    z -0.120490 0.033510 2.116430 
# 
# From -- ./inp_files/262116.got.cif
#   From: 2010.05.17/outbox.cif.g08.bks.cpg/sg2_132_cif.got.tgz:262116.got - 2010.06.03 11:33:40.
