data_PCOD9088966
_publ_section_title
;
Structure prediction by ZEFSAII (Michael W. Deem and Ramdas Pophale) SiO2 
 PCOD9088966
Probable space group: P -1
;
_chemical_formula_sum "Si O2"
_cell_formula_units_Z 16
_cell_length_a 19.216624
_cell_length_b 6.810846
_cell_length_c 25.743363
_cell_angle_alpha 93.216657
_cell_angle_beta 12.353387
_cell_angle_gamma 99.075946
_cell_volume 630.629431
_symmetry_space_group_name_H-M "P -1"
_symmetry_group_IT_number 2
_symmetry_cell_setting 'triclinic'
loop_
_space_group_symop_operation_xyz
x,y,z
-x,-y,-z
loop_
_atom_site_type_symbol
_atom_site_label
_atom_site_fract_x
_atom_site_fract_y
_atom_site_fract_z
Si Si1 0.659817 0.617956 0.770930
Si Si2 0.287036 0.097610 0.035366
Si Si3 0.073127 0.728276 0.256703
Si Si4 0.319803 0.649404 0.616739
Si Si5 0.572648 0.232887 0.143879
Si Si6 0.469982 0.108041 0.336553
Si Si7 0.563019 0.024418 0.370362
Si Si8 0.058924 0.378982 0.329800
O O1 0.753619 0.753939 0.650678
O O2 0.965155 0.707341 0.595165
O O3 0.553489 0.359616 0.839903
O O4 0.299803 0.632037 0.057121
O O5 0.873840 0.057029 0.323278
O O6 0.319828 0.996233 0.066766
O O7 0.341450 0.941693 0.951849
O O8 0.977474 0.580716 0.376679
O O9 0.689066 0.727188 0.523790
O O10 0.500000 0.500000 0.500000
O O11 0.560491 0.815903 0.397842
O O12 0.301855 0.786959 0.681373
O O13 0.907903 0.484597 0.896156
O O14 0.571383 0.188777 0.204988
O O15 0.732766 0.107520 0.190920
O O16 0.182269 0.840812 0.532018
O O17 0.500000 0.500000 0.000000
#
# Coordination Sequence:
#
# PCOD9088966 Si02
#       8
#     2   2   2   2   2   2   2   2
#     4  10  21  38  62  87 124 169 214 252 299 367
#     4  10  19  37  64  88 120 168 210 251 300 370
#     4   9  19  35  61  88 116 163 208 257 297 359
#     4  11  22  40  69  93 114 163 213 250 310 377
#     4  11  24  40  61  93 134 163 200 262 319 365
#     4  11  25  40  61  97 130 162 203 261 321 359
#     4  10  21  39  67  90 117 158 214 252 297 386
#     4  10  21  37  61  92 124 166 217 258 294 366
#
# _framework density 25.371476000000001
#
# number of rings (size 3 to 8) (size 9 to 14) (size 15 to 20)
#    0.000    1.750    2.500    3.000    1.750    7.500 
#    0.000    1.875    0.000    0.000    0.000    0.000 
#    0.000    0.000    0.000    0.000    0.000    0.000 
#
# Total GULP energy -89185.632336 kJ/mol
# GULP energy per Si atom -5574.102021 kJ/mol
# Density = 2.531373 g / cm^3
# Si number density = 25.371476 Si / 1000 Ang^3
#
#
#
# Elastic Constant Matrix: (Units=GPa)
#
#
# Indices 1 2 3 4 5 6 
#
# 1 169.1316 67.6438 11.8584 -9.6692 27.7947 -25.9748
# 2 67.6438 147.1205 13.4949 -15.8001 16.1629 -30.9436
# 3 11.8584 13.4949 24.2073 -7.0403 9.0940 4.1566
# 4 -9.6692 -15.8001 -7.0403 23.0723 0.1779 1.8835
# 5 27.7947 16.1629 9.0940 0.1779 42.5669 -15.9436
# 6 -25.9748 -30.9436 4.1566 1.8835 -15.9436 58.6951
#
#
#
# Elastic Compliance Matrix: (Units=1/GPa)
#
#
# Indices 1 2 3 4 5 6 
#
# 1 0.007907 -0.002831 -0.000859 0.001051 -0.003504 0.001082
# 2 -0.002831 0.009681 -0.003758 0.003956 0.000505 0.004127
# 3 -0.000859 -0.003758 0.055119 0.014848 -0.013777 -0.010483
# 4 0.001051 0.003956 0.014848 0.051221 -0.006266 -0.001847
# 5 -0.003504 0.000505 -0.013777 -0.006266 0.031748 0.008516
# 6 0.001082 0.004127 -0.010483 -0.001847 0.008516 0.022807
#
#
# Mechanical properties :
#
#
# Convention : Reuss Voigt Hill
#
# Bulk Modulus (GPa) = 17.29765 58.49484 37.89624
# Shear Modulus (GPa) = 23.51286 41.36435 32.43861
#
# Velocity S-wave (km/s) = 3.04755 4.04214 3.57956
# Velocity P-wave (km/s) = 4.38360 6.70004 5.66156
#
# Compressibility (1/GPa) = 0.05781133
#
# Stress axis : x y z
#
# Youngs Moduli (GPa) = 126.46586 103.29409 18.14254
#
# Poissons Ratio (x) = 0.29248 0.01558
# Poissons Ratio (y) = 0.35809 0.06818
# Poissons Ratio (z) = 0.10860 0.38816
#
# Static dielectric constant tensor:
#      x y z
#    x 2.101160 -0.006160 0.146150 
#    y -0.006160 1.958580 -0.007500 
#    z 0.146150 -0.007500 2.114910 
# 
# From -- ./inp_files/340271.got.cif
#   From: 2010.05.17/outbox.cif.g08.bks.cpg/sg2_171_cif.got.tgz:340271.got - 2010.06.03 11:33:40.
