data_PCOD9088696
_publ_section_title
;
Structure prediction by ZEFSAII (Michael W. Deem and Ramdas Pophale) SiO2 
 PCOD9088696
Probable space group: P -1
;
_chemical_formula_sum "Si O2"
_cell_formula_units_Z 14
_cell_length_a 13.945485
_cell_length_b 8.216507
_cell_length_c 8.523744
_cell_angle_alpha 67.718103
_cell_angle_beta 137.876826
_cell_angle_gamma 116.681054
_cell_volume 583.594520
_symmetry_space_group_name_H-M "P -1"
_symmetry_group_IT_number 2
_symmetry_cell_setting 'triclinic'
loop_
_space_group_symop_operation_xyz
x,y,z
-x,-y,-z
loop_
_atom_site_type_symbol
_atom_site_label
_atom_site_fract_x
_atom_site_fract_y
_atom_site_fract_z
Si Si1 0.257634 0.166056 0.700557
Si Si2 0.454489 0.338006 0.131100
Si Si3 0.796683 0.349984 0.882467
Si Si4 0.433816 0.657538 0.152906
Si Si5 0.349147 0.887960 0.432262
Si Si6 0.913332 0.535546 0.633874
Si Si7 0.777742 0.182347 0.385378
O O1 0.392418 0.260501 0.707352
O O2 0.156687 0.302687 0.559527
O O3 0.173888 0.964122 0.613005
O O4 0.347303 0.169928 0.971479
O O5 0.388219 0.438886 0.147357
O O6 0.600547 0.290700 0.384451
O O7 0.500000 0.500000 0.000000
O O8 0.633148 0.324457 0.765069
O O9 0.780087 0.163544 0.833428
O O10 0.854309 0.491203 0.758976
O O11 0.910558 0.395194 0.147281
O O12 0.347529 0.756344 0.889386
O O13 0.293087 0.944836 0.505161
O O14 0.500000 0.000000 0.500000
O O15 0.877618 0.365065 0.528977
#
# Coordination Sequence:
#
# PCOD9088696 Si02
#       7
#     2   2   2   2   2   2   2
#     4  11  21  37  68  94 121 162 209 269 315 364
#     4  10  19  37  62  93 130 160 207 263 318 366
#     4  10  23  40  64  87 132 170 203 256 328 376
#     4  11  20  37  66  95 119 161 220 260 308 379
#     4  11  22  37  61  99 132 161 208 273 317 372
#     4  10  23  46  60  88 132 173 202 257 322 389
#     4  11  21  38  64  91 125 166 211 259 318 373
#
# _framework density 23.989260000000002
#
# number of rings (size 3 to 8) (size 9 to 14) (size 15 to 20)
#    0.000    1.429    4.286    3.857    2.000    4.000 
#    0.000    8.571    0.000    0.000    0.000    0.000 
#    0.000    0.000    0.000    0.000    0.000    0.000 
#
# Total GULP energy -78001.006082 kJ/mol
# GULP energy per Si atom -5571.500434 kJ/mol
# Density = 2.393466 g / cm^3
# Si number density = 23.989260 Si / 1000 Ang^3
#
#
#
# Elastic Constant Matrix: (Units=GPa)
#
#
# Indices 1 2 3 4 5 6 
#
# 1 57.0011 24.3953 -3.9648 13.8770 -8.5761 -0.4302
# 2 24.3953 108.9302 46.6130 28.9120 -7.8056 -29.0489
# 3 -3.9648 46.6130 96.9365 27.2035 -2.6236 -15.9362
# 4 13.8770 28.9120 27.2035 28.8282 -7.3542 -15.9220
# 5 -8.5761 -7.8056 -2.6236 -7.3542 26.8564 8.3956
# 6 -0.4302 -29.0489 -15.9362 -15.9220 8.3956 45.5626
#
#
#
# Elastic Compliance Matrix: (Units=1/GPa)
#
#
# Indices 1 2 3 4 5 6 
#
# 1 0.025286 -0.006317 0.007364 -0.015715 0.005041 -0.007634
# 2 -0.006317 0.015821 -0.005642 -0.004016 -0.001219 0.006875
# 3 0.007364 -0.005642 0.017355 -0.016145 -0.001109 -0.002895
# 4 -0.015715 -0.004016 -0.016145 0.071856 0.007084 0.015449
# 5 0.005041 -0.001219 -0.001109 0.007084 0.042336 -0.006443
# 6 -0.007634 0.006875 -0.002895 0.015449 -0.006443 0.031833
#
#
# Mechanical properties :
#
#
# Convention : Reuss Voigt Hill
#
# Bulk Modulus (GPa) = 20.29585 44.10609 32.20097
# Shear Modulus (GPa) = 21.72946 33.30440 27.51693
#
# Velocity S-wave (km/s) = 3.01292 3.73004 3.39049
# Velocity P-wave (km/s) = 4.53677 6.08084 5.36465
#
# Compressibility (1/GPa) = 0.04927115
#
# Stress axis : x y z
#
# Youngs Moduli (GPa) = 39.54724 63.20596 57.62001
#
# Poissons Ratio (x) = 0.39930 -0.42429
# Poissons Ratio (y) = 0.24984 0.32509
# Poissons Ratio (z) = -0.29121 0.35660
#
# Static dielectric constant tensor:
#      x y z
#    x 2.165210 0.204470 0.000090 
#    y 0.204470 2.167930 0.076300 
#    z 0.000090 0.076300 1.929790 
# 
# From -- ./inp_files/298430.got.cif
#   From: 2010.05.17/outbox.cif.g08.bks.cpg/sg2_150_cif.got.tgz:298430.got - 2010.06.03 11:33:40.
