data_PCOD9088003
_publ_section_title
;
Structure prediction by ZEFSAII (Michael W. Deem and Ramdas Pophale) SiO2 
 PCOD9088003
Probable space group: P -1
;
_chemical_formula_sum "Si O2"
_cell_formula_units_Z 14
_cell_length_a 11.454990
_cell_length_b 17.941903
_cell_length_c 11.350986
_cell_angle_alpha 32.213599
_cell_angle_beta 38.364636
_cell_angle_gamma 28.752539
_cell_volume 590.009003
_symmetry_space_group_name_H-M "P -1"
_symmetry_group_IT_number 2
_symmetry_cell_setting 'triclinic'
loop_
_space_group_symop_operation_xyz
x,y,z
-x,-y,-z
loop_
_atom_site_type_symbol
_atom_site_label
_atom_site_fract_x
_atom_site_fract_y
_atom_site_fract_z
Si Si1 0.506580 0.827392 0.726945
Si Si2 0.848626 0.488125 0.733321
Si Si3 0.681536 0.783264 0.144444
Si Si4 0.761338 0.752210 0.855530
Si Si5 0.275960 0.620049 0.605560
Si Si6 0.446281 0.647148 0.665440
Si Si7 0.144176 0.980749 0.621333
O O1 0.704429 0.663119 0.700776
O O2 0.590782 0.759814 0.884216
O O3 0.500000 0.000000 0.500000
O O4 0.246851 0.904048 0.773905
O O5 0.648277 0.502491 0.794261
O O6 0.000000 0.500000 0.500000
O O7 0.053558 0.309212 0.884454
O O8 0.570785 0.708342 0.405995
O O9 0.718852 0.726492 0.055497
O O10 0.500000 0.000000 0.000000
O O11 0.712842 0.945272 0.632708
O O12 0.950150 0.379402 0.233267
O O13 0.500000 0.500000 0.500000
O O14 0.358251 0.578048 0.732546
O O15 0.136942 0.836306 0.406441
O O16 0.226087 0.823637 0.676272
#
# Coordination Sequence:
#
# PCOD9088003 Si02
#       7
#     2   2   2   2   2   2   2
#     4   9  17  34  55  85 109 145 188 239 274 325
#     4   9  21  32  56  84 111 145 192 227 277 337
#     4  11  20  36  56  90 117 141 189 241 288 321
#     4   9  20  33  56  84 114 144 184 236 286 323
#     4  10  21  34  53  84 113 149 188 224 278 343
#     4  10  19  37  58  83 108 149 192 227 274 347
#     4   8  17  33  58  79 107 142 192 223 274 327
#
# _framework density 23.728452000000001
#
# number of rings (size 3 to 8) (size 9 to 14) (size 15 to 20)
#    0.857    1.714    1.429    0.429    6.000    0.571 
#    0.000    0.714    0.000    0.857    0.000    0.000 
#    0.000    0.000    0.000    0.000    0.000    0.000 
#
# Total GULP energy -78207.653021 kJ/mol
# GULP energy per Si atom -5586.260930 kJ/mol
# Density = 2.367444 g / cm^3
# Si number density = 23.728452 Si / 1000 Ang^3
#
#
#
# Elastic Constant Matrix: (Units=GPa)
#
#
# Indices 1 2 3 4 5 6 
#
# 1 185.7060 78.1513 43.7605 -11.4364 41.7618 4.8781
# 2 78.1513 145.1988 30.4614 -13.3071 21.2902 -1.7586
# 3 43.7605 30.4614 88.7464 5.3744 5.7875 -2.8310
# 4 -11.4364 -13.3071 5.3744 39.0497 2.8113 7.2840
# 5 41.7618 21.2902 5.7875 2.8113 38.2587 -4.2086
# 6 4.8781 -1.7586 -2.8310 7.2840 -4.2086 36.9914
#
#
#
# Elastic Compliance Matrix: (Units=1/GPa)
#
#
# Indices 1 2 3 4 5 6 
#
# 1 0.009853 -0.002893 -0.003598 0.003714 -0.009258 -0.003497
# 2 -0.002893 0.009372 -0.001830 0.002757 -0.001993 -0.000083
# 3 -0.003598 -0.001830 0.013792 -0.004327 0.003474 0.002690
# 4 0.003714 0.002757 -0.004327 0.030214 -0.007984 -0.007548
# 5 -0.009258 -0.001993 0.003474 -0.007984 0.038218 0.007312
# 6 -0.003497 -0.000083 0.002690 -0.007548 0.007312 0.030015
#
#
# Mechanical properties :
#
#
# Convention : Reuss Voigt Hill
#
# Bulk Modulus (GPa) = 61.07038 80.48860 70.77949
# Shear Modulus (GPa) = 32.55992 40.67851 36.61921
#
# Velocity S-wave (km/s) = 3.70833 4.14494 3.93270
# Velocity P-wave (km/s) = 6.64294 7.54333 7.10740
#
# Compressibility (1/GPa) = 0.01637455
#
# Stress axis : x y z
#
# Youngs Moduli (GPa) = 101.49563 106.70250 72.50685
#
# Poissons Ratio (x) = 0.30865 0.26089
# Poissons Ratio (y) = 0.29359 0.13270
# Poissons Ratio (z) = 0.36519 0.19528
#
# Static dielectric constant tensor:
#      x y z
#    x 1.928130 -0.036550 -0.024610 
#    y -0.036550 1.869650 -0.066730 
#    z -0.024610 -0.066730 2.049700 
# 
# From -- ./inp_files/207339.got.cif
#   From: 2010.05.17/outbox.cif.g08.bks.cpg/sg2_104_cif.got.tgz:207339.got - 2010.06.03 11:33:40.
