data_PCOD9088326
_publ_section_title
;
Structure prediction by ZEFSAII (Michael W. Deem and Ramdas Pophale) SiO2 
 PCOD9088326
Probable space group: P -1
;
_chemical_formula_sum "Si O2"
_cell_formula_units_Z 16
_cell_length_a 14.004306
_cell_length_b 15.160807
_cell_length_c 9.274241
_cell_angle_alpha 89.533021
_cell_angle_beta 132.764184
_cell_angle_gamma 49.443230
_cell_volume 649.969385
_symmetry_space_group_name_H-M "P -1"
_symmetry_group_IT_number 2
_symmetry_cell_setting 'triclinic'
loop_
_space_group_symop_operation_xyz
x,y,z
-x,-y,-z
loop_
_atom_site_type_symbol
_atom_site_label
_atom_site_fract_x
_atom_site_fract_y
_atom_site_fract_z
Si Si1 0.678703 0.687082 0.537026
Si Si2 0.219142 0.300254 0.650598
Si Si3 0.888628 0.196511 0.877172
Si Si4 0.032208 0.041833 0.755577
Si Si5 0.276849 0.063512 0.672010
Si Si6 0.518016 0.080543 0.427355
Si Si7 0.229928 0.745665 0.804235
Si Si8 0.350692 0.495742 0.535252
O O1 0.827239 0.654982 0.566476
O O2 0.762470 0.533912 0.609579
O O3 0.693274 0.723647 0.707418
O O4 0.340091 0.893450 0.131229
O O5 0.214369 0.197964 0.671482
O O6 0.000000 0.500000 0.500000
O O7 0.550010 0.112722 0.049060
O O8 0.873310 0.127590 0.744781
O O9 0.635502 0.335334 0.729334
O O10 0.846890 0.307192 0.728435
O O11 0.184579 0.043836 0.257480
O O12 0.835226 0.209670 0.432620
O O13 0.104759 0.908255 0.750994
O O14 0.477142 0.947855 0.735717
O O15 0.955978 0.220853 0.321383
O O16 0.500000 0.000000 0.500000
O O17 0.554682 0.550260 0.200992
#
# Coordination Sequence:
#
# PCOD9088326 Si02
#       8
#     2   2   2   2   2   2   2   2
#     4  10  21  40  61  91 125 162 211 261 323 377
#     4  11  25  45  65  92 129 169 213 265 324 372
#     4  10  22  39  58  91 127 167 204 257 327 366
#     4   9  20  35  62  85 123 158 204 253 313 383
#     4  11  23  43  66  92 126 167 216 261 315 377
#     4  11  22  40  66  88 123 172 215 257 310 384
#     4  10  19  37  60  90 116 161 206 257 308 377
#     4  10  22  38  59  90 131 158 204 271 312 376
#
# _framework density 24.616544999999999
#
# number of rings (size 3 to 8) (size 9 to 14) (size 15 to 20)
#    0.000    1.750    3.750    0.000    1.750    4.000 
#    4.500    1.250    0.000    0.000    0.000    0.000 
#    0.000    0.000    0.000    0.000    0.000    0.000 
#
# Total GULP energy -89277.660092 kJ/mol
# GULP energy per Si atom -5579.853756 kJ/mol
# Density = 2.456052 g / cm^3
# Si number density = 24.616545 Si / 1000 Ang^3
#
#
#
# Elastic Constant Matrix: (Units=GPa)
#
#
# Indices 1 2 3 4 5 6 
#
# 1 56.0576 14.3943 20.0069 10.4764 -19.0105 5.2416
# 2 14.3943 138.0404 39.9533 3.3233 -7.0006 4.5371
# 3 20.0069 39.9533 77.4724 19.9624 -11.7424 1.5277
# 4 10.4764 3.3233 19.9624 34.5785 -0.0823 -12.7129
# 5 -19.0105 -7.0006 -11.7424 -0.0823 42.0498 6.8742
# 6 5.2416 4.5371 1.5277 -12.7129 6.8742 35.5320
#
#
#
# Elastic Compliance Matrix: (Units=1/GPa)
#
#
# Indices 1 2 3 4 5 6 
#
# 1 0.025774 -0.001106 -0.001239 -0.010580 0.012712 -0.009852
# 2 -0.001106 0.008686 -0.004882 0.002394 -0.000446 0.000207
# 3 -0.001239 -0.004882 0.019887 -0.012669 0.005065 -0.005562
# 4 -0.010580 0.002394 -0.012669 0.046798 -0.011217 0.020714
# 5 0.012712 -0.000446 0.005065 -0.011217 0.032875 -0.012410
# 6 -0.009852 0.000207 -0.005562 0.020714 -0.012410 0.039622
#
#
# Mechanical properties :
#
#
# Convention : Reuss Voigt Hill
#
# Bulk Modulus (GPa) = 25.06652 46.69771 35.88211
# Shear Modulus (GPa) = 24.82697 35.57978 30.20338
#
# Velocity S-wave (km/s) = 3.17921 3.80591 3.50659
# Velocity P-wave (km/s) = 4.86635 6.19068 5.56803
#
# Compressibility (1/GPa) = 0.03989385
#
# Stress axis : x y z
#
# Youngs Moduli (GPa) = 38.79832 115.13346 50.28296
#
# Poissons Ratio (x) = 0.12733 0.06228
# Poissons Ratio (y) = 0.04291 0.24549
# Poissons Ratio (z) = 0.04806 0.56210
#
# Static dielectric constant tensor:
#      x y z
#    x 1.979720 -0.022890 0.010630 
#    y -0.022890 2.010960 -0.012220 
#    z 0.010630 -0.012220 2.112460 
# 
# From -- ./inp_files/205572.got.cif
#   From: 2010.05.17/outbox.cif.g08.bks.cpg/sg2_103_cif.got.tgz:205572.got - 2010.06.03 11:33:40.
