data_PCOD9088194
_publ_section_title
;
Structure prediction by ZEFSAII (Michael W. Deem and Ramdas Pophale) SiO2 
 PCOD9088194
Probable space group: P -1
;
_chemical_formula_sum "Si O2"
_cell_formula_units_Z 16
_cell_length_a 14.399734
_cell_length_b 14.848591
_cell_length_c 9.188069
_cell_angle_alpha 55.014052
_cell_angle_beta 88.942045
_cell_angle_gamma 42.834763
_cell_volume 757.492438
_symmetry_space_group_name_H-M "P -1"
_symmetry_group_IT_number 2
_symmetry_cell_setting 'triclinic'
loop_
_space_group_symop_operation_xyz
x,y,z
-x,-y,-z
loop_
_atom_site_type_symbol
_atom_site_label
_atom_site_fract_x
_atom_site_fract_y
_atom_site_fract_z
Si Si1 0.981594 0.838685 0.750447
Si Si2 0.765861 0.597168 0.351946
Si Si3 0.485105 0.976053 0.208249
Si Si4 0.733892 0.098252 0.257380
Si Si5 0.992242 0.018438 0.809374
Si Si6 0.906470 0.666322 0.978864
Si Si7 0.708218 0.464378 0.242373
Si Si8 0.150951 0.250647 0.547081
O O1 0.150329 0.671075 0.776730
O O2 0.957088 0.740552 0.896195
O O3 0.787246 0.075503 0.442088
O O4 0.020714 0.876973 0.849281
O O5 0.626079 0.730346 0.373623
O O6 0.724812 0.552842 0.266466
O O7 0.002819 0.360363 0.576898
O O8 0.670177 0.812125 0.100347
O O9 0.633543 0.921373 0.286673
O O10 0.330673 0.101727 0.220082
O O11 0.822939 0.882704 0.432162
O O12 0.508626 0.327723 0.005046
O O13 0.846307 0.063195 0.178085
O O14 0.788047 0.283143 0.509973
O O15 0.000000 0.000000 0.000000
O O16 0.000000 0.500000 0.000000
O O17 0.023589 0.483861 0.273246
#
# Coordination Sequence:
#
# PCOD9088194 Si02
#       8
#     2   2   2   2   2   2   2   2
#     4  11  24  46  68 100 138 177 231 281 334 407
#     4  10  19  37  59  93 133 170 224 275 329 402
#     4  10  22  34  57  97 133 177 225 271 332 400
#     4  11  22  42  75  97 127 180 229 276 337 406
#     4  11  27  47  69  99 136 173 226 291 344 400
#     4  11  23  40  62  96 142 176 221 279 334 401
#     4  11  22  43  74  96 133 181 231 278 341 405
#     4  11  20  38  65  95 131 184 221 275 336 401
#
# _framework density 21.122323000000002
#
# number of rings (size 3 to 8) (size 9 to 14) (size 15 to 20)
#    0.000    1.250    5.000    2.625    0.000    6.000 
#    2.250    0.000    0.000    0.000    0.000    0.000 
#    0.000    0.000    0.000    0.000    0.000    0.000 
#
# Total GULP energy -89161.212940 kJ/mol
# GULP energy per Si atom -5572.575809 kJ/mol
# Density = 2.107425 g / cm^3
# Si number density = 21.122323 Si / 1000 Ang^3
#
#
#
# Elastic Constant Matrix: (Units=GPa)
#
#
# Indices 1 2 3 4 5 6 
#
# 1 135.6714 70.4789 59.4931 9.8683 6.0909 8.5280
# 2 70.4789 143.5272 41.4754 4.7130 7.5014 14.6777
# 3 59.4931 41.4754 79.3611 -16.2621 14.1415 -15.0812
# 4 9.8683 4.7130 -16.2621 25.9482 -2.8291 8.3370
# 5 6.0909 7.5014 14.1415 -2.8291 35.4214 -2.6203
# 6 8.5280 14.6777 -15.0812 8.3370 -2.6203 33.6641
#
#
#
# Elastic Compliance Matrix: (Units=1/GPa)
#
#
# Indices 1 2 3 4 5 6 
#
# 1 0.017006 -0.002822 -0.015702 -0.013414 0.002382 -0.006605
# 2 -0.002822 0.010341 -0.004661 -0.002032 -0.000406 -0.005410
# 3 -0.015702 -0.004661 0.035965 0.023477 -0.007634 0.015714
# 4 -0.013414 -0.002032 0.023477 0.058454 -0.001954 0.000173
# 5 0.002382 -0.000406 -0.007634 -0.001954 0.030728 -0.000970
# 6 -0.006605 -0.005410 0.015714 0.000173 -0.000970 0.040659
#
#
# Mechanical properties :
#
#
# Convention : Reuss Voigt Hill
#
# Bulk Modulus (GPa) = 59.02611 77.93941 68.48276
# Shear Modulus (GPa) = 20.39398 31.48088 25.93743
#
# Velocity S-wave (km/s) = 3.11065 3.86477 3.50803
# Velocity P-wave (km/s) = 6.39586 7.54284 6.99291
#
# Compressibility (1/GPa) = 0.01694166
#
# Stress axis : x y z
#
# Youngs Moduli (GPa) = 58.80217 96.69980 27.80480
#
# Poissons Ratio (x) = 0.27288 0.43660
# Poissons Ratio (y) = 0.16594 0.12960
# Poissons Ratio (z) = 0.92332 0.45074
#
# Static dielectric constant tensor:
#      x y z
#    x 1.795240 -0.044310 0.015950 
#    y -0.044310 1.926200 0.047280 
#    z 0.015950 0.047280 1.836240 
# 
# From -- ./inp_files/312748.got.cif
#   From: 2010.05.17/outbox.cif.g08.bks.cpg/sg2_157_cif.got.tgz:312748.got - 2010.06.03 11:33:40.
