data_PCOD9088949
_publ_section_title
;
Structure prediction by ZEFSAII (Michael W. Deem and Ramdas Pophale) SiO2 
 PCOD9088949
Probable space group: P -1
;
_chemical_formula_sum "Si O2"
_cell_formula_units_Z 16
_cell_length_a 17.004024
_cell_length_b 10.051788
_cell_length_c 9.015145
_cell_angle_alpha 77.441467
_cell_angle_beta 56.560946
_cell_angle_gamma 123.703954
_cell_volume 703.042203
_symmetry_space_group_name_H-M "P -1"
_symmetry_group_IT_number 2
_symmetry_cell_setting 'triclinic'
loop_
_space_group_symop_operation_xyz
x,y,z
-x,-y,-z
loop_
_atom_site_type_symbol
_atom_site_label
_atom_site_fract_x
_atom_site_fract_y
_atom_site_fract_z
Si Si1 0.150152 0.890918 0.444238
Si Si2 0.134252 0.060606 0.138430
Si Si3 0.318006 0.795756 0.313463
Si Si4 0.762735 0.734570 0.578273
Si Si5 0.398262 0.569904 0.895096
Si Si6 0.647196 0.706832 0.414849
Si Si7 0.146515 0.578962 0.268602
Si Si8 0.529360 0.030525 0.290055
O O1 0.252173 0.873012 0.366614
O O2 0.950631 0.620577 0.708032
O O3 0.178423 0.998019 0.229373
O O4 0.194057 0.056492 0.478652
O O5 0.244979 0.323093 0.017145
O O6 0.192783 0.084310 0.908667
O O7 0.939580 0.869890 0.387309
O O8 0.201936 0.579261 0.368408
O O9 0.359190 0.793947 0.435454
O O10 0.500000 0.000000 0.000000
O O11 0.690488 0.644472 0.508772
O O12 0.628071 0.525632 0.891565
O O13 0.565542 0.728728 0.592829
O O14 0.407319 0.740891 0.868360
O O15 0.500000 0.500000 0.500000
O O16 0.000000 0.500000 0.500000
O O17 0.305882 0.850867 0.968911
O O18 0.500000 0.000000 0.500000
#
# Coordination Sequence:
#
# PCOD9088949 Si02
#       8
#     2   2   2   2   2   2   2   2
#     4  10  19  37  64  87 114 153 198 242 286 353
#     4  10  21  37  60  91 120 151 191 242 295 343
#     4   9  20  37  58  84 115 155 197 236 290 347
#     4  11  20  37  62  88 117 158 196 232 288 359
#     4  10  21  38  58  83 116 156 195 236 290 349
#     4  10  22  36  53  85 124 156 188 234 289 342
#     4   9  19  38  59  81 111 149 192 238 288 343
#     4  11  22  38  58  85 116 152 199 248 286 338
#
# _framework density 22.758236
#
# number of rings (size 3 to 8) (size 9 to 14) (size 15 to 20)
#    0.000    2.000    0.000    4.500    0.000    5.000 
#    0.000   12.500    0.000    0.000    0.000    0.000 
#    0.000    0.000    0.000    0.000    0.000    0.000 
#
# Total GULP energy -89212.715136 kJ/mol
# GULP energy per Si atom -5575.794696 kJ/mol
# Density = 2.270644 g / cm^3
# Si number density = 22.758236 Si / 1000 Ang^3
#
#
#
# Elastic Constant Matrix: (Units=GPa)
#
#
# Indices 1 2 3 4 5 6 
#
# 1 70.5972 45.0560 32.6325 7.6925 -10.7864 26.8358
# 2 45.0560 82.1153 25.3515 0.8987 -2.0515 24.4506
# 3 32.6325 25.3515 86.7937 29.3122 -13.3085 13.2759
# 4 7.6925 0.8987 29.3122 36.4769 4.3666 5.7312
# 5 -10.7864 -2.0515 -13.3085 4.3666 30.5480 11.6684
# 6 26.8358 24.4506 13.2759 5.7312 11.6684 51.1379
#
#
#
# Elastic Compliance Matrix: (Units=1/GPa)
#
#
# Indices 1 2 3 4 5 6 
#
# 1 0.029944 -0.011581 -0.002659 -0.003625 0.013828 -0.012235
# 2 -0.011581 0.020229 -0.003906 0.005964 -0.004430 -0.002238
# 3 -0.002659 -0.003906 0.022162 -0.018111 0.012290 -0.003265
# 4 -0.003625 0.005964 -0.018111 0.044116 -0.016016 0.002463
# 5 0.013828 -0.004430 0.012290 -0.016016 0.051992 -0.018398
# 6 -0.012235 -0.002238 -0.003265 0.002463 -0.018398 0.031815
#
#
# Mechanical properties :
#
#
# Convention : Reuss Voigt Hill
#
# Bulk Modulus (GPa) = 27.74407 49.50960 38.62684
# Shear Modulus (GPa) = 20.11561 32.73032 26.42296
#
# Velocity S-wave (km/s) = 2.97624 3.79644 3.41108
# Velocity P-wave (km/s) = 4.90183 6.40462 5.70294
#
# Compressibility (1/GPa) = 0.03604374
#
# Stress axis : x y z
#
# Youngs Moduli (GPa) = 33.39596 49.43520 45.12135
#
# Poissons Ratio (x) = 0.57249 0.11999
# Poissons Ratio (y) = 0.38674 0.17622
# Poissons Ratio (z) = 0.08881 0.19307
#
# Static dielectric constant tensor:
#      x y z
#    x 1.987410 -0.017050 -0.105080 
#    y -0.017050 1.944120 -0.002110 
#    z -0.105080 -0.002110 1.971280 
# 
# From -- ./inp_files/333242.got.cif
#   From: 2010.05.17/outbox.cif.g08.bks.cpg/sg2_167_cif.got.tgz:333242.got - 2010.06.03 11:33:40.
