data_PCOD9088980
_publ_section_title
;
Structure prediction by ZEFSAII (Michael W. Deem and Ramdas Pophale) SiO2 
 PCOD9088980
Probable space group: P -1
;
_chemical_formula_sum "Si O2"
_cell_formula_units_Z 16
_cell_length_a 17.060736
_cell_length_b 9.056650
_cell_length_c 9.545698
_cell_angle_alpha 63.469622
_cell_angle_beta 145.223211
_cell_angle_gamma 114.549647
_cell_volume 749.266587
_symmetry_space_group_name_H-M "P -1"
_symmetry_group_IT_number 2
_symmetry_cell_setting 'triclinic'
loop_
_space_group_symop_operation_xyz
x,y,z
-x,-y,-z
loop_
_atom_site_type_symbol
_atom_site_label
_atom_site_fract_x
_atom_site_fract_y
_atom_site_fract_z
Si Si1 0.039310 0.937548 0.238697
Si Si2 0.719910 0.407492 0.581143
Si Si3 0.684913 0.232127 0.306083
Si Si4 0.773836 0.777897 0.863763
Si Si5 0.409008 0.458205 0.107263
Si Si6 0.379747 0.166508 0.957706
Si Si7 0.175513 0.247125 0.379742
Si Si8 0.660324 0.054175 0.751770
O O1 0.190405 0.875069 0.499379
O O2 0.045828 0.107879 0.264684
O O3 0.925307 0.782132 0.156049
O O4 0.000000 0.000000 0.000000
O O5 0.723366 0.330041 0.464844
O O6 0.573487 0.484353 0.356017
O O7 0.837567 0.558068 0.703185
O O8 0.706992 0.247674 0.729902
O O9 0.655655 0.372243 0.091252
O O10 0.534928 0.134394 0.155132
O O11 0.666372 0.640540 0.833523
O O12 0.777360 0.764980 0.707910
O O13 0.734999 0.956507 0.783298
O O14 0.390843 0.333499 0.999282
O O15 0.286142 0.196035 0.676039
O O16 0.317964 0.023304 0.031929
O O17 0.500000 0.000000 0.500000
#
# Coordination Sequence:
#
# PCOD9088980 Si02
#       8
#     2   2   2   2   2   2   2   2
#     4  10  24  41  58  81 125 176 199 237 306 374
#     4  11  19  36  66  95 120 151 207 252 306 350
#     4  11  19  38  65  89 117 167 204 237 308 379
#     4  10  23  43  60  85 129 166 203 238 314 370
#     4  10  19  37  64  90 121 157 196 256 308 363
#     4  10  20  37  65  96 120 149 210 255 301 349
#     4  11  22  40  61  95 125 152 202 271 298 335
#     4  11  20  39  67  89 119 169 196 237 309 379
#
# _framework density 21.354215
#
# number of rings (size 3 to 8) (size 9 to 14) (size 15 to 20)
#    0.000    1.500    6.250    2.250    0.000    1.500 
#    2.250    8.125    0.000    0.000    0.000    0.000 
#    0.000    0.000    0.000    0.000    0.000    0.000 
#
# Total GULP energy -89280.777809 kJ/mol
# GULP energy per Si atom -5580.048613 kJ/mol
# Density = 2.130561 g / cm^3
# Si number density = 21.354215 Si / 1000 Ang^3
#
#
#
# Elastic Constant Matrix: (Units=GPa)
#
#
# Indices 1 2 3 4 5 6 
#
# 1 32.3837 -3.6616 5.0924 0.5459 -14.5607 3.9573
# 2 -3.6616 93.8183 26.0442 -12.9574 -17.2144 10.3391
# 3 5.0924 26.0442 55.2530 -4.1957 -15.8252 0.1686
# 4 0.5459 -12.9574 -4.1957 36.5885 -2.6436 -4.8053
# 5 -14.5607 -17.2144 -15.8252 -2.6436 23.2020 -9.5902
# 6 3.9573 10.3391 0.1686 -4.8053 -9.5902 15.0382
#
#
#
# Elastic Compliance Matrix: (Units=1/GPa)
#
#
# Indices 1 2 3 4 5 6 
#
# 1 0.051760 0.009196 0.006034 0.008825 0.050680 0.015129
# 2 0.009196 0.015757 -0.003527 0.005890 0.014996 -0.001768
# 3 0.006034 -0.003527 0.028427 0.007053 0.030565 0.022264
# 4 0.008825 0.005890 0.007053 0.035102 0.028093 0.022682
# 5 0.050680 0.014996 0.030565 0.028093 0.141054 0.074941
# 6 0.015129 -0.001768 0.022264 0.022682 0.074941 0.118522
#
#
# Mechanical properties :
#
#
# Convention : Reuss Voigt Hill
#
# Bulk Modulus (GPa) = 8.37874 26.26722 17.32298
# Shear Modulus (GPa) = 12.28502 25.23108 18.75805
#
# Velocity S-wave (km/s) = 2.40114 3.44110 2.96704
# Velocity P-wave (km/s) = 3.40874 5.30242 4.45730
#
# Compressibility (1/GPa) = 0.11934962
#
# Stress axis : x y z
#
# Youngs Moduli (GPa) = 19.31986 63.46489 35.17812
#
# Poissons Ratio (x) = -0.58360 -0.21228
# Poissons Ratio (y) = -0.17766 0.12407
# Poissons Ratio (z) = -0.11658 0.22384
#
# Static dielectric constant tensor:
#      x y z
#    x 1.826710 0.046980 0.061220 
#    y 0.046980 1.841860 0.022510 
#    z 0.061220 0.022510 1.816400 
# 
# From -- ./inp_files/216560.got.cif
#   From: 2010.05.17/outbox.cif.g08.bks.cpg/sg2_109_cif.got.tgz:216560.got - 2010.06.03 11:33:40.
