data_PCOD9088415
_publ_section_title
;
Structure prediction by ZEFSAII (Michael W. Deem and Ramdas Pophale) SiO2 
 PCOD9088415
Probable space group: P -1
;
_chemical_formula_sum "Si O2"
_cell_formula_units_Z 16
_cell_length_a 16.931892
_cell_length_b 7.330294
_cell_length_c 4.994421
_cell_angle_alpha 77.749570
_cell_angle_beta 90.127890
_cell_angle_gamma 99.695513
_cell_volume 596.757485
_symmetry_space_group_name_H-M "P -1"
_symmetry_group_IT_number 2
_symmetry_cell_setting 'triclinic'
loop_
_space_group_symop_operation_xyz
x,y,z
-x,-y,-z
loop_
_atom_site_type_symbol
_atom_site_label
_atom_site_fract_x
_atom_site_fract_y
_atom_site_fract_z
Si Si1 0.113267 0.989391 0.674995
Si Si2 0.282684 0.696509 0.390713
Si Si3 0.490365 0.661046 0.658365
Si Si4 0.989741 0.251465 0.644691
Si Si5 0.810786 0.801458 0.905653
Si Si6 0.112092 0.525184 0.206535
Si Si7 0.426875 0.987646 0.221545
Si Si8 0.330954 0.507265 0.967943
O O1 0.171191 0.115710 0.416889
O O2 0.032420 0.070501 0.723937
O O3 0.080661 0.804707 0.557567
O O4 0.161288 0.032369 0.936078
O O5 0.193485 0.640876 0.294137
O O6 0.333136 0.894723 0.219128
O O7 0.292144 0.649651 0.719677
O O8 0.323185 0.545846 0.269540
O O9 0.500000 0.500000 0.500000
O O10 0.450073 0.828202 0.470494
O O11 0.424548 0.559295 0.894605
O O12 0.566423 0.798926 0.738372
O O13 0.949432 0.327404 0.881461
O O14 0.061167 0.400454 0.473452
O O15 0.862883 0.625885 0.956729
O O16 0.722786 0.695310 0.015659
O O17 0.500000 0.000000 0.000000
#
# Coordination Sequence:
#
# PCOD9088415 Si02
#       8
#     2   2   2   2   2   2   2   2
#     4  10  21  37  56  81 116 153 186 241 300 349
#     4  10  20  37  62  85 117 157 198 242 303 357
#     4  10  22  39  62  94 123 164 210 251 308 376
#     4   9  19  36  57  82 115 150 195 241 293 349
#     4  10  20  37  59  82 112 154 194 235 297 350
#     4   9  19  36  59  85 110 152 200 242 285 356
#     4  10  20  40  64  88 126 166 200 257 312 366
#     4  10  19  37  61  85 119 158 194 243 299 362
#
# _framework density 26.811563
#
# number of rings (size 3 to 8) (size 9 to 14) (size 15 to 20)
#    0.000    2.250    1.250    2.250    0.000    5.500 
#    2.250   10.000    0.000    0.000    0.000    0.000 
#    0.000    0.000    0.000    0.000    0.000    0.000 
#
# Total GULP energy -89308.897106 kJ/mol
# GULP energy per Si atom -5581.806069 kJ/mol
# Density = 2.675054 g / cm^3
# Si number density = 26.811563 Si / 1000 Ang^3
#
#
#
# Elastic Constant Matrix: (Units=GPa)
#
#
# Indices 1 2 3 4 5 6 
#
# 1 98.8755 54.1916 23.0720 0.3016 -18.7273 38.8324
# 2 54.1916 169.7702 36.5116 13.9499 -4.5216 45.1570
# 3 23.0720 36.5116 109.6778 -7.4660 -4.9447 12.5759
# 4 0.3016 13.9499 -7.4660 42.1308 7.1707 -2.8379
# 5 -18.7273 -4.5216 -4.9447 7.1707 35.2589 -3.7749
# 6 38.8324 45.1570 12.5759 -2.8379 -3.7749 59.7104
#
#
#
# Elastic Compliance Matrix: (Units=1/GPa)
#
#
# Indices 1 2 3 4 5 6 
#
# 1 0.016434 -0.002456 -0.001462 -0.001408 0.007627 -0.008107
# 2 -0.002456 0.008646 -0.002074 -0.003480 -0.000281 -0.004687
# 3 -0.001462 -0.002074 0.010231 0.002555 -0.000076 0.000481
# 4 -0.001408 -0.003480 0.002555 0.026606 -0.005828 0.003905
# 5 0.007627 -0.000281 -0.000076 -0.005828 0.033240 -0.002907
# 6 -0.008107 -0.004687 0.000481 0.003905 -0.002907 0.025465
#
#
# Mechanical properties :
#
#
# Convention : Reuss Voigt Hill
#
# Bulk Modulus (GPa) = 42.86845 67.31931 55.09388
# Shear Modulus (GPa) = 35.61751 45.05657 40.33704
#
# Velocity S-wave (km/s) = 3.64873 4.10383 3.88295
# Velocity P-wave (km/s) = 5.81158 6.90058 6.37936
#
# Compressibility (1/GPa) = 0.02332718
#
# Stress axis : x y z
#
# Youngs Moduli (GPa) = 60.85019 115.66549 97.74403
#
# Poissons Ratio (x) = 0.28410 0.14288
# Poissons Ratio (y) = 0.14946 0.20267
# Poissons Ratio (z) = 0.08895 0.23984
#
# Static dielectric constant tensor:
#      x y z
#    x 2.344830 0.014720 0.059370 
#    y 0.014720 2.269540 -0.017580 
#    z 0.059370 -0.017580 2.064440 
# 
# From -- ./inp_files/105550.got.cif
#   From: 2010.05.17/outbox.cif.g08.bks.cpg/sg2_53_cif.got.tgz:105550.got - 2010.06.03 11:33:40.
