data_PCOD9088641
_publ_section_title
;
Structure prediction by ZEFSAII (Michael W. Deem and Ramdas Pophale) SiO2 
 PCOD9088641
Probable space group: P -1
;
_chemical_formula_sum "Si O2"
_cell_formula_units_Z 14
_cell_length_a 8.611492
_cell_length_b 12.775319
_cell_length_c 11.224400
_cell_angle_alpha 31.517932
_cell_angle_beta 73.681519
_cell_angle_gamma 86.864792
_cell_volume 575.954319
_symmetry_space_group_name_H-M "P -1"
_symmetry_group_IT_number 2
_symmetry_cell_setting 'triclinic'
loop_
_space_group_symop_operation_xyz
x,y,z
-x,-y,-z
loop_
_atom_site_type_symbol
_atom_site_label
_atom_site_fract_x
_atom_site_fract_y
_atom_site_fract_z
Si Si1 0.895198 0.772750 0.034269
Si Si2 0.054611 0.757886 0.245138
Si Si3 0.216231 0.748174 0.449629
Si Si4 0.207172 0.630434 0.816898
Si Si5 0.731476 0.004648 0.385521
Si Si6 0.345439 0.258551 0.097315
Si Si7 0.573369 0.038655 0.157998
O O1 0.840004 0.511131 0.295071
O O2 0.921330 0.813141 0.132348
O O3 0.761315 0.815625 0.932458
O O4 0.077774 0.898542 0.807747
O O5 0.087674 0.804899 0.333033
O O6 0.000000 0.500000 0.500000
O O7 0.245464 0.860895 0.046182
O O8 0.207029 0.783231 0.557970
O O9 0.422119 0.880811 0.258995
O O10 0.287152 0.780942 0.764943
O O11 0.314140 0.479409 0.913806
O O12 0.000000 0.500000 0.000000
O O13 0.604703 0.914193 0.388876
O O14 0.710950 0.856055 0.649822
O O15 0.520222 0.228243 0.044177
#
# Coordination Sequence:
#
# PCOD9088641 Si02
#       7
#     2   2   2   2   2   2   2
#     4   9  20  38  62  88 120 166 208 245 299 367
#     4   9  20  41  66  85 118 168 209 253 310 367
#     4  10  19  37  62  89 121 164 199 258 306 353
#     4  11  22  38  63  93 127 166 207 246 307 368
#     4  11  21  40  60  91 131 166 202 250 303 372
#     4  11  22  36  62  97 127 161 204 257 308 359
#     4  11  23  37  62  93 127 160 206 258 313 360
#
# _framework density 24.307485
#
# number of rings (size 3 to 8) (size 9 to 14) (size 15 to 20)
#    0.000    1.714    4.286    1.286    0.000    0.571 
#    2.571    7.143    0.000    1.714    0.000    0.000 
#    0.000    0.000    0.000    0.000    0.000    0.000 
#
# Total GULP energy -78057.511708 kJ/mol
# GULP energy per Si atom -5575.536551 kJ/mol
# Density = 2.425216 g / cm^3
# Si number density = 24.307485 Si / 1000 Ang^3
#
#
#
# Elastic Constant Matrix: (Units=GPa)
#
#
# Indices 1 2 3 4 5 6 
#
# 1 97.0625 27.8738 52.5314 6.0392 22.8016 17.2339
# 2 27.8738 103.7842 23.4573 10.7416 19.0628 21.9637
# 3 52.5314 23.4573 112.7378 9.5829 19.0421 1.5339
# 4 6.0392 10.7416 9.5829 32.4396 5.8800 10.1724
# 5 22.8016 19.0628 19.0421 5.8800 52.4478 15.0517
# 6 17.2339 21.9637 1.5339 10.1724 15.0517 53.3179
#
#
#
# Elastic Compliance Matrix: (Units=1/GPa)
#
#
# Indices 1 2 3 4 5 6 
#
# 1 0.015488 -0.001524 -0.006455 0.001186 -0.002939 -0.003589
# 2 -0.001524 0.011561 -0.001167 -0.001797 -0.001955 -0.003341
# 3 -0.006455 -0.001167 0.012653 -0.002824 -0.001995 0.003305
# 4 0.001186 -0.001797 -0.002824 0.034026 -0.000995 -0.005773
# 5 -0.002939 -0.001955 -0.001995 -0.000995 0.023195 -0.004546
# 6 -0.003589 -0.003341 0.003305 -0.005773 -0.004546 0.023581
#
#
# Mechanical properties :
#
#
# Convention : Reuss Voigt Hill
#
# Bulk Modulus (GPa) = 46.70875 57.92326 52.31600
# Shear Modulus (GPa) = 34.26245 41.62254 37.94249
#
# Velocity S-wave (km/s) = 3.75846 4.14253 3.95516
# Velocity P-wave (km/s) = 6.17189 6.83826 6.51360
#
# Compressibility (1/GPa) = 0.02140926
#
# Stress axis : x y z
#
# Youngs Moduli (GPa) = 64.56708 86.50010 79.03307
#
# Poissons Ratio (x) = 0.13183 0.51018
# Poissons Ratio (y) = 0.09840 0.09221
# Poissons Ratio (z) = 0.41680 0.10093
#
# Static dielectric constant tensor:
#      x y z
#    x 2.018770 0.055720 -0.037450 
#    y 0.055720 2.008480 -0.064540 
#    z -0.037450 -0.064540 2.019010 
# 
# From -- ./inp_files/398123.got.cif
#   From: 2010.05.17/outbox.cif.g08.bks.cpg/sg2_200_cif.got.tgz:398123.got - 2010.06.03 11:33:40.
