data_PCOD9088114
_publ_section_title
;
Structure prediction by ZEFSAII (Michael W. Deem and Ramdas Pophale) SiO2 
 PCOD9088114
Probable space group: P -1
;
_chemical_formula_sum "Si O2"
_cell_formula_units_Z 15
_cell_length_a 7.831791
_cell_length_b 6.683462
_cell_length_c 12.919882
_cell_angle_alpha 100.853404
_cell_angle_beta 100.224853
_cell_angle_gamma 116.230424
_cell_volume 569.089339
_symmetry_space_group_name_H-M "P -1"
_symmetry_group_IT_number 2
_symmetry_cell_setting 'triclinic'
loop_
_space_group_symop_operation_xyz
x,y,z
-x,-y,-z
loop_
_atom_site_type_symbol
_atom_site_label
_atom_site_fract_x
_atom_site_fract_y
_atom_site_fract_z
Si Si1 0.091097 0.608237 0.246653
Si Si2 0.239421 0.794061 0.689504
Si Si3 0.377127 0.659711 0.033395
Si Si4 0.379483 0.088240 0.120667
Si Si5 0.000000 0.500000 0.000000
Si Si6 0.228768 0.393792 0.556074
Si Si7 0.043265 0.996781 0.362506
Si Si8 0.419515 0.525560 0.245187
O O1 0.303892 0.636762 0.302559
O O2 0.914146 0.419694 0.277213
O O3 0.064593 0.480259 0.122910
O O4 0.099034 0.856164 0.272411
O O5 0.445684 0.901405 0.785526
O O6 0.244392 0.647340 0.575307
O O7 0.138516 0.954514 0.678510
O O8 0.475695 0.633684 0.145126
O O9 0.176152 0.429110 0.962589
O O10 0.253728 0.809522 0.055815
O O11 0.521362 0.788602 0.966661
O O12 0.303878 0.247119 0.181937
O O13 0.223166 0.252217 0.439106
O O14 0.396492 0.430451 0.659922
O O15 0.026183 0.191934 0.568969
#
# Coordination Sequence:
#
# PCOD9088114 Si02
#       8
#     2   2   2   2   1   2   2   2
#     4  10  22  37  54  83 118 153 193 229 293 345
#     4  10  19  37  59  84 116 147 190 242 286 338
#     4  10  20  36  58  84 114 153 195 238 285 344
#     4  10  20  36  58  86 112 149 204 231 283 345
#     4  10  20  40  54  82 124 154 184 238 286 336
#     4   9  20  37  60  86 108 148 194 238 293 340
#     4  10  20  37  60  83 112 148 195 240 284 345
#     4  10  21  37  57  80 120 150 184 244 289 338
#
# _framework density 26.357900999999998
#
# number of rings (size 3 to 8) (size 9 to 14) (size 15 to 20)
#    0.000    2.133    1.333    1.600    0.000    2.667 
#    9.600    4.000    0.000    0.000    0.000    0.000 
#    0.000    0.000    0.000    0.000    0.000    0.000 
#
# Total GULP energy -83525.280099 kJ/mol
# GULP energy per Si atom -5568.352007 kJ/mol
# Density = 2.629791 g / cm^3
# Si number density = 26.357901 Si / 1000 Ang^3
#
#
#
# Elastic Constant Matrix: (Units=GPa)
#
#
# Indices 1 2 3 4 5 6 
#
# 1 74.3325 48.1327 22.0018 6.8056 9.8263 -33.5238
# 2 48.1327 151.2755 45.5194 21.2346 -9.9456 -40.8692
# 3 22.0018 45.5194 83.3408 12.8394 9.3710 -17.3406
# 4 6.8056 21.2346 12.8394 40.7095 -14.0605 -11.5869
# 5 9.8263 -9.9456 9.3710 -14.0605 34.8535 -4.7380
# 6 -33.5238 -40.8692 -17.3406 -11.5869 -4.7380 53.6021
#
#
#
# Elastic Compliance Matrix: (Units=1/GPa)
#
#
# Indices 1 2 3 4 5 6 
#
# 1 0.021571 -0.004562 -0.000497 -0.000622 -0.006255 0.009165
# 2 -0.004562 0.011140 -0.004600 -0.000084 0.006306 0.004692
# 3 -0.000497 -0.004600 0.016275 -0.005470 -0.007813 -0.000426
# 4 -0.000622 -0.000084 -0.005470 0.033885 0.016180 0.006532
# 5 -0.006255 0.006306 -0.007813 0.016180 0.041636 0.005546
# 6 0.009165 0.004692 -0.000426 0.006532 0.005546 0.029729
#
#
# Mechanical properties :
#
#
# Convention : Reuss Voigt Hill
#
# Bulk Modulus (GPa) = 33.70611 60.02852 46.86731
# Shear Modulus (GPa) = 27.25614 38.71933 32.98774
#
# Velocity S-wave (km/s) = 3.21920 3.83689 3.54154
# Velocity P-wave (km/s) = 5.16074 6.51558 5.87733
#
# Compressibility (1/GPa) = 0.02966821
#
# Stress axis : x y z
#
# Youngs Moduli (GPa) = 46.35820 89.76632 61.44287
#
# Poissons Ratio (x) = 0.40950 0.03055
# Poissons Ratio (y) = 0.21148 0.28264
# Poissons Ratio (z) = 0.02305 0.41293
#
# Static dielectric constant tensor:
#      x y z
#    x 2.882330 0.672290 0.726630 
#    y 0.672290 3.133640 1.088280 
#    z 0.726630 1.088280 3.266540 
# 
# From -- ./inp_files/85188.got.cif
#   From: 2010.05.17/outbox.cif.g08.bks.cpg/sg2_43_cif.got.tgz:85188.got - 2010.06.03 11:33:40.
