data_PCOD9088762
_publ_section_title
;
Structure prediction by ZEFSAII (Michael W. Deem and Ramdas Pophale) SiO2 
 PCOD9088762
Probable space group: P -1
;
_chemical_formula_sum "Si O2"
_cell_formula_units_Z 16
_cell_length_a 9.575052
_cell_length_b 9.886422
_cell_length_c 18.701766
_cell_angle_alpha 155.414533
_cell_angle_beta 84.905851
_cell_angle_gamma 101.372142
_cell_volume 704.096408
_symmetry_space_group_name_H-M "P -1"
_symmetry_group_IT_number 2
_symmetry_cell_setting 'triclinic'
loop_
_space_group_symop_operation_xyz
x,y,z
-x,-y,-z
loop_
_atom_site_type_symbol
_atom_site_label
_atom_site_fract_x
_atom_site_fract_y
_atom_site_fract_z
Si Si1 0.730748 0.474651 0.845143
Si Si2 0.486888 0.377752 0.191484
Si Si3 0.057985 0.770679 0.799366
Si Si4 0.736529 0.521169 0.631818
Si Si5 0.835524 0.385803 0.420641
Si Si6 0.256514 0.255092 0.725510
Si Si7 0.331639 0.420620 0.951311
Si Si8 0.019041 0.723353 0.312395
O O1 0.598149 0.502583 0.814048
O O2 0.814675 0.232169 0.690348
O O3 0.715804 0.389695 0.889061
O O4 0.842413 0.849360 0.020364
O O5 0.395375 0.412493 0.283746
O O6 0.653615 0.602588 0.281521
O O7 0.500000 0.000000 0.000000
O O8 0.135080 0.564805 0.641846
O O9 0.043613 0.623305 0.808154
O O10 0.893698 0.728880 0.757325
O O11 0.745157 0.558477 0.562427
O O12 0.731554 0.125743 0.451579
O O13 0.000000 0.500000 0.500000
O O14 0.757776 0.979135 0.232829
O O15 0.321846 0.498415 0.906194
O O16 0.088612 0.255644 0.735774
O O17 0.500000 0.500000 0.000000
O O18 0.000000 0.000000 0.500000
#
# Coordination Sequence:
#
# PCOD9088762 Si02
#       8
#     2   2   2   2   2   2   2   2
#     4  11  23  40  65  88 123 171 203 255 319 363
#     4  12  24  38  61  94 127 163 208 255 310 376
#     4  10  19  37  63  85 123 158 205 251 310 362
#     4  10  20  39  62  88 121 165 203 255 309 366
#     4   8  18  35  62  90 115 166 212 252 308 374
#     4  11  23  40  64  91 127 162 210 255 312 372
#     4  10  20  40  65  89 126 166 210 257 315 377
#     4  12  23  39  62  97 128 159 210 261 305 375
#
# _framework density 22.724160000000001
#
# number of rings (size 3 to 8) (size 9 to 14) (size 15 to 20)
#    0.000    1.500    3.750    1.500    1.750    0.500 
#    0.000    1.250    0.000    4.500    0.000    0.000 
#    0.000    0.000    0.000    0.000    0.000    0.000 
#
# Total GULP energy -89180.328970 kJ/mol
# GULP energy per Si atom -5573.770561 kJ/mol
# Density = 2.267244 g / cm^3
# Si number density = 22.724160 Si / 1000 Ang^3
#
#
#
# Elastic Constant Matrix: (Units=GPa)
#
#
# Indices 1 2 3 4 5 6 
#
# 1 68.3288 6.1913 18.2059 -11.0340 -9.7548 -1.3682
# 2 6.1913 53.7963 19.4876 -29.6632 -17.6341 16.9007
# 3 18.2059 19.4876 61.3944 -27.4322 -11.9909 -4.2638
# 4 -11.0340 -29.6632 -27.4322 46.2149 13.8246 4.0393
# 5 -9.7548 -17.6341 -11.9909 13.8246 40.2721 -1.9819
# 6 -1.3682 16.9007 -4.2638 4.0393 -1.9819 28.1846
#
#
#
# Elastic Compliance Matrix: (Units=1/GPa)
#
#
# Indices 1 2 3 4 5 6 
#
# 1 0.016247 0.001968 -0.004086 0.001958 0.002855 -0.001089
# 2 0.001968 0.050801 -0.003285 0.031391 0.009259 -0.034712
# 3 -0.004086 -0.003285 0.023634 0.010208 0.001300 0.003975
# 4 0.001958 0.031391 0.010208 0.050886 -0.001418 -0.024577
# 5 0.002855 0.009259 0.001300 -0.001418 0.030309 -0.002882
# 6 -0.001089 -0.034712 0.003975 -0.024577 -0.002882 0.060163
#
#
# Mechanical properties :
#
#
# Convention : Reuss Voigt Hill
#
# Bulk Modulus (GPa) = 12.51923 30.14324 21.33123
# Shear Modulus (GPa) = 18.55486 32.24332 25.39909
#
# Velocity S-wave (km/s) = 2.86059 3.77092 3.34685
# Velocity P-wave (km/s) = 4.05362 5.67921 4.93382
#
# Compressibility (1/GPa) = 0.07987711
#
# Stress axis : x y z
#
# Youngs Moduli (GPa) = 61.54830 19.68450 42.31272
#
# Poissons Ratio (x) = -0.03874 0.17288
# Poissons Ratio (y) = -0.12113 0.13900
# Poissons Ratio (z) = 0.25147 0.06466
#
# Static dielectric constant tensor:
#      x y z
#    x 1.846800 0.100610 -0.076410 
#    y 0.100610 2.264680 -0.057960 
#    z -0.076410 -0.057960 1.906760 
# 
# From -- ./inp_files/256240.got.cif
#   From: 2010.05.17/outbox.cif.g08.bks.cpg/sg2_129_cif.got.tgz:256240.got - 2010.06.03 11:33:40.
