data_PCOD9088770
_publ_section_title
;
Structure prediction by ZEFSAII (Michael W. Deem and Ramdas Pophale) SiO2 
 PCOD9088770
Probable space group: P -1
;
_chemical_formula_sum "Si O2"
_cell_formula_units_Z 16
_cell_length_a 11.973424
_cell_length_b 11.351496
_cell_length_c 21.348163
_cell_angle_alpha 42.029205
_cell_angle_beta 136.383292
_cell_angle_gamma 154.921818
_cell_volume 809.881701
_symmetry_space_group_name_H-M "P -1"
_symmetry_group_IT_number 2
_symmetry_cell_setting 'triclinic'
loop_
_space_group_symop_operation_xyz
x,y,z
-x,-y,-z
loop_
_atom_site_type_symbol
_atom_site_label
_atom_site_fract_x
_atom_site_fract_y
_atom_site_fract_z
Si Si1 0.309716 0.149745 0.501260
Si Si2 0.154897 0.385646 0.387096
Si Si3 0.641046 0.352055 0.252362
Si Si4 0.752855 0.212517 0.473379
Si Si5 0.718950 0.299650 0.932734
Si Si6 0.651641 0.536821 0.897787
Si Si7 0.211681 0.939648 0.029792
Si Si8 0.151921 0.780210 0.205888
O O1 0.244477 0.301250 0.412847
O O2 0.615830 0.397176 0.551637
O O3 0.240219 0.976546 0.480026
O O4 0.119111 0.907185 0.574403
O O5 0.122256 0.544670 0.278084
O O6 0.719698 0.312108 0.361268
O O7 0.478093 0.385772 0.189647
O O8 0.905162 0.621578 0.212642
O O9 0.434037 0.057818 0.244304
O O10 0.000000 0.500000 0.500000
O O11 0.500000 0.000000 0.500000
O O12 0.654679 0.443807 0.867777
O O13 0.738331 0.222944 0.904094
O O14 0.000000 0.500000 0.000000
O O15 0.500000 0.000000 0.000000
O O16 0.951993 0.788141 0.947643
O O17 0.466970 0.266543 0.978356
O O18 0.158431 0.895259 0.099140
#
# Coordination Sequence:
#
# PCOD9088770 Si02
#       8
#     2   2   2   2   2   2   2   2
#     4  10  20  38  64  86 111 158 196 240 309 349
#     4  10  19  37  63  86 117 152 197 244 295 366
#     4  12  25  40  61  86 122 163 193 247 306 356
#     4  12  24  42  64  87 122 156 202 247 303 372
#     4   8  16  34  57  76 108 152 192 239 286 330
#     4  10  21  39  59  85 122 159 202 234 293 354
#     4  10  21  36  61  89 116 160 199 246 288 342
#     4  12  22  38  61  89 127 155 199 247 297 353
#
# _framework density 19.755972
#
# number of rings (size 3 to 8) (size 9 to 14) (size 15 to 20)
#    0.000    1.500    2.500    3.000    0.000    3.000 
#    2.250    0.000    8.250    0.000    0.000    0.000 
#    0.000    0.000    0.000    0.000    0.000    0.000 
#
# Total GULP energy -89299.747896 kJ/mol
# GULP energy per Si atom -5581.234243 kJ/mol
# Density = 1.971101 g / cm^3
# Si number density = 19.755972 Si / 1000 Ang^3
#
#
#
# Elastic Constant Matrix: (Units=GPa)
#
#
# Indices 1 2 3 4 5 6 
#
# 1 86.8375 16.5343 15.1203 7.7865 4.8925 -8.7879
# 2 16.5343 103.1632 0.3111 5.3039 -8.0067 4.3929
# 3 15.1203 0.3111 26.6009 7.6451 13.4189 -12.8026
# 4 7.7865 5.3039 7.6451 19.6834 -2.2363 1.3860
# 5 4.8925 -8.0067 13.4189 -2.2363 35.3292 -6.4221
# 6 -8.7879 4.3929 -12.8026 1.3860 -6.4221 38.7072
#
#
#
# Elastic Compliance Matrix: (Units=1/GPa)
#
#
# Indices 1 2 3 4 5 6 
#
# 1 0.013340 -0.002038 -0.006386 -0.002314 0.000200 0.001264
# 2 -0.002038 0.010342 -0.000418 -0.001447 0.002454 -0.001316
# 3 -0.006386 -0.000418 0.071247 -0.029180 -0.024643 0.019119
# 4 -0.002314 -0.001447 -0.029180 0.065678 0.013389 -0.010143
# 5 0.000200 0.002454 -0.024643 0.013389 0.038594 -0.002460
# 6 0.001264 -0.001316 0.019119 -0.010143 -0.002460 0.032550
#
#
# Mechanical properties :
#
#
# Convention : Reuss Voigt Hill
#
# Bulk Modulus (GPa) = 12.94588 31.17032 22.05810
# Shear Modulus (GPa) = 18.16964 31.05302 24.61133
#
# Velocity S-wave (km/s) = 3.03595 3.96893 3.53337
# Velocity P-wave (km/s) = 4.34240 6.06755 5.27596
#
# Compressibility (1/GPa) = 0.07724464
#
# Stress axis : x y z
#
# Youngs Moduli (GPa) = 74.96294 96.69155 14.03565
#
# Poissons Ratio (x) = 0.19707 0.08964
# Poissons Ratio (y) = 0.15278 0.00586
# Poissons Ratio (z) = 0.47874 0.04040
#
# Static dielectric constant tensor:
#      x y z
#    x 1.755350 -0.037880 0.039540 
#    y -0.037880 1.679520 -0.009140 
#    z 0.039540 -0.009140 1.663880 
# 
# From -- ./inp_files/113426.got.cif
#   From: 2010.05.17/outbox.cif.g08.bks.cpg/sg2_57_cif.got.tgz:113426.got - 2010.06.03 11:33:40.
