data_PCOD9088196
_publ_section_title
;
Structure prediction by ZEFSAII (Michael W. Deem and Ramdas Pophale) SiO2 
 PCOD9088196
Probable space group: P -1
;
_chemical_formula_sum "Si O2"
_cell_formula_units_Z 15
_cell_length_a 12.230770
_cell_length_b 16.475745
_cell_length_c 15.210111
_cell_angle_alpha 162.324324
_cell_angle_beta 137.119138
_cell_angle_gamma 44.861410
_cell_volume 632.426903
_symmetry_space_group_name_H-M "P -1"
_symmetry_group_IT_number 2
_symmetry_cell_setting 'triclinic'
loop_
_space_group_symop_operation_xyz
x,y,z
-x,-y,-z
loop_
_atom_site_type_symbol
_atom_site_label
_atom_site_fract_x
_atom_site_fract_y
_atom_site_fract_z
Si Si1 0.295195 0.270169 0.513997
Si Si2 0.374389 0.787608 0.444765
Si Si3 0.868380 0.855906 0.043388
Si Si4 0.798003 0.264920 0.183696
Si Si5 0.029216 0.309933 0.514115
Si Si6 0.500000 0.000000 0.000000
Si Si7 0.466709 0.327445 0.145661
Si Si8 0.979005 0.269478 0.819649
O O1 0.481503 0.301323 0.628779
O O2 0.192506 0.484373 0.615614
O O3 0.219951 0.305675 0.603399
O O4 0.260847 0.976578 0.157749
O O5 0.391701 0.616580 0.370031
O O6 0.200904 0.723868 0.240253
O O7 0.391515 0.094907 0.801510
O O8 0.893515 0.749492 0.047369
O O9 0.971490 0.119261 0.360900
O O10 0.682924 0.936172 0.998605
O O11 0.949474 0.609004 0.781609
O O12 0.948072 0.186200 0.251845
O O13 0.651764 0.340338 0.241039
O O14 0.460863 0.235951 0.147334
O O15 0.000000 0.000000 0.500000
O O16 0.000000 0.500000 0.000000
#
# Coordination Sequence:
#
# PCOD9088196 Si02
#       8
#     2   2   2   2   2   1   2   2
#     4  10  21  37  67  90 130 173 210 252 314 376
#     4  10  22  42  65  93 119 163 221 257 300 377
#     4  12  28  40  66  94 132 168 210 270 325 378
#     4  10  19  37  59  94 128 175 207 249 304 388
#     4  12  23  42  58 100 133 166 210 260 322 383
#     4  12  24  42  58  90 130 166 200 256 340 372
#     4  10  22  36  64  92 123 162 207 260 310 378
#     4  12  25  48  69  92 122 170 222 266 314 374
#
# _framework density 23.718154999999999
#
# number of rings (size 3 to 8) (size 9 to 14) (size 15 to 20)
#    0.000    1.067    1.333    5.600    3.733    2.133 
#    0.000    1.333    0.000    0.000    0.000    0.000 
#    0.000    0.000    0.000    0.000    0.000    0.000 
#
# Total GULP energy -83649.543848 kJ/mol
# GULP energy per Si atom -5576.636257 kJ/mol
# Density = 2.366417 g / cm^3
# Si number density = 23.718155 Si / 1000 Ang^3
#
#
#
# Elastic Constant Matrix: (Units=GPa)
#
#
# Indices 1 2 3 4 5 6 
#
# 1 121.1094 23.2325 15.9874 3.9931 12.6368 -19.1871
# 2 23.2325 81.2255 26.2634 15.6925 11.0595 -16.8199
# 3 15.9874 26.2634 93.7269 32.0754 12.1200 -1.3152
# 4 3.9931 15.6925 32.0754 33.3528 8.6112 10.2777
# 5 12.6368 11.0595 12.1200 8.6112 33.2463 5.9239
# 6 -19.1871 -16.8199 -1.3152 10.2777 5.9239 38.8002
#
#
#
# Elastic Compliance Matrix: (Units=1/GPa)
#
#
# Indices 1 2 3 4 5 6 
#
# 1 0.009766 -0.000813 -0.000558 -0.000858 -0.003958 0.005290
# 2 -0.000813 0.017339 -0.000820 -0.009240 -0.004590 0.010235
# 3 -0.000558 -0.000820 0.017143 -0.016929 -0.002230 0.004774
# 4 -0.000858 -0.009240 -0.016929 0.057295 -0.001720 -0.019918
# 5 -0.003958 -0.004590 -0.002230 -0.001720 0.035983 -0.009061
# 6 0.005290 0.010235 0.004774 -0.019918 -0.009061 0.039647
#
#
# Mechanical properties :
#
#
# Convention : Reuss Voigt Hill
#
# Bulk Modulus (GPa) = 25.08467 47.44761 36.26614
# Shear Modulus (GPa) = 25.66140 36.45176 31.05658
#
# Velocity S-wave (km/s) = 3.29284 3.92455 3.62249
# Velocity P-wave (km/s) = 5.00561 6.37058 5.72889
#
# Compressibility (1/GPa) = 0.03986499
#
# Stress axis : x y z
#
# Youngs Moduli (GPa) = 102.39652 57.67410 58.33145
#
# Poissons Ratio (x) = 0.04687 0.03258
# Poissons Ratio (y) = 0.08321 0.04786
# Poissons Ratio (z) = 0.05718 0.04732
#
# Static dielectric constant tensor:
#      x y z
#    x 1.956590 0.000050 -0.009600 
#    y 0.000050 1.897070 -0.049020 
#    z -0.009600 -0.049020 1.920700 
# 
# From -- ./inp_files/522069.got.cif
#   From: 2010.05.17/outbox.cif.g08.bks.cpg/sg2_262_cif.got.tgz:522069.got - 2010.06.03 11:33:40.
