data_PCOD9088532
_publ_section_title
;
Structure prediction by ZEFSAII (Michael W. Deem and Ramdas Pophale) SiO2 
 PCOD9088532
Probable space group: P -1
;
_chemical_formula_sum "Si O2"
_cell_formula_units_Z 14
_cell_length_a 5.764616
_cell_length_b 12.719585
_cell_length_c 10.978721
_cell_angle_alpha 94.743298
_cell_angle_beta 82.813676
_cell_angle_gamma 48.644002
_cell_volume 584.537336
_symmetry_space_group_name_H-M "P -1"
_symmetry_group_IT_number 2
_symmetry_cell_setting 'triclinic'
loop_
_space_group_symop_operation_xyz
x,y,z
-x,-y,-z
loop_
_atom_site_type_symbol
_atom_site_label
_atom_site_fract_x
_atom_site_fract_y
_atom_site_fract_z
Si Si1 0.862543 0.091841 0.393297
Si Si2 0.801262 0.045648 0.140704
Si Si3 0.757890 0.840647 0.527174
Si Si4 0.355529 0.361775 0.925746
Si Si5 0.340752 0.679115 0.854045
Si Si6 0.800830 0.812297 0.071432
Si Si7 0.241276 0.637236 0.263454
O O1 0.969327 0.994788 0.257287
O O2 0.478708 0.185215 0.428846
O O3 0.030618 0.156709 0.387881
O O4 0.000000 0.000000 0.500000
O O5 0.619219 0.212999 0.179000
O O6 0.667708 0.968389 0.126296
O O7 0.000000 0.000000 0.000000
O O8 0.021284 0.727792 0.400558
O O9 0.500000 0.000000 0.500000
O O10 0.423867 0.218564 0.926576
O O11 0.482280 0.363199 0.788980
O O12 0.537810 0.365707 0.020086
O O13 0.000000 0.500000 0.000000
O O14 0.557937 0.531810 0.753155
O O15 0.976948 0.763459 0.922436
O O16 0.006458 0.714108 0.168580
#
# Coordination Sequence:
#
# PCOD9088532 Si02
#       7
#     2   2   2   2   2   2   2
#     4  10  22  47  69  99 140 183 240 296 344 426
#     4  10  23  45  66 101 142 180 227 292 369 415
#     4  10  23  42  68  98 134 179 244 298 338 409
#     4  11  19  35  64  99 138 180 233 291 347 426
#     4  10  21  38  57  97 141 173 228 287 356 420
#     4  10  19  37  61  93 134 176 232 279 349 417
#     4  11  21  37  66  96 130 185 234 289 345 419
#
# _framework density 23.950566999999999
#
# number of rings (size 3 to 8) (size 9 to 14) (size 15 to 20)
#    0.000    1.714    2.857    2.571    2.000    0.571 
#   20.571    1.429    0.000    0.000    0.000    0.000 
#    0.000    0.000    0.000    0.000    0.000    0.000 
#
# Total GULP energy -77975.232000 kJ/mol
# GULP energy per Si atom -5569.659429 kJ/mol
# Density = 2.389605 g / cm^3
# Si number density = 23.950567 Si / 1000 Ang^3
#
#
#
# Elastic Constant Matrix: (Units=GPa)
#
#
# Indices 1 2 3 4 5 6 
#
# 1 139.2922 41.6824 58.0983 23.1802 -14.0074 13.3899
# 2 41.6824 154.1957 38.4538 34.8856 -18.5121 26.5876
# 3 58.0983 38.4538 153.4686 28.6611 -20.6147 -0.1554
# 4 23.1802 34.8856 28.6611 40.9465 -5.0195 4.6160
# 5 -14.0074 -18.5121 -20.6147 -5.0195 36.1083 2.1095
# 6 13.3899 26.5876 -0.1554 4.6160 2.1095 32.2090
#
#
#
# Elastic Compliance Matrix: (Units=1/GPa)
#
#
# Indices 1 2 3 4 5 6 
#
# 1 0.009355 -0.000568 -0.002749 -0.002326 0.001633 -0.003207
# 2 -0.000568 0.010008 -0.000532 -0.006495 0.004134 -0.007367
# 3 -0.002749 -0.000532 0.008855 -0.004043 0.003037 0.002005
# 4 -0.002326 -0.006495 -0.004043 0.033682 -0.001952 0.001610
# 5 0.001633 0.004134 0.003037 -0.001952 0.032255 -0.005910
# 6 -0.003207 -0.007367 0.002005 0.001610 -0.005910 0.038628
#
#
# Mechanical properties :
#
#
# Convention : Reuss Voigt Hill
#
# Bulk Modulus (GPa) = 48.73123 80.38062 64.55592
# Shear Modulus (GPa) = 33.93980 42.43423 38.18701
#
# Velocity S-wave (km/s) = 3.76849 4.21377 3.99734
# Velocity P-wave (km/s) = 6.27106 7.57023 6.95106
#
# Compressibility (1/GPa) = 0.02052072
#
# Stress axis : x y z
#
# Youngs Moduli (GPa) = 106.89188 99.92448 112.93310
#
# Poissons Ratio (x) = 0.05677 0.31042
# Poissons Ratio (y) = 0.06073 0.06003
# Poissons Ratio (z) = 0.29382 0.05312
#
# Static dielectric constant tensor:
#      x y z
#    x 2.996310 -0.509000 -0.325780 
#    y -0.509000 2.381350 0.273780 
#    z -0.325780 0.273780 2.128540 
# 
# From -- ./inp_files/363152.got.cif
#   From: 2010.05.17/outbox.cif.g08.bks.cpg/sg2_182_cif.got.tgz:363152.got - 2010.06.03 11:33:40.
