data_PCOD9088312
_publ_section_title
;
Structure prediction by ZEFSAII (Michael W. Deem and Ramdas Pophale) SiO2 
 PCOD9088312
Probable space group: P -1
;
_chemical_formula_sum "Si O2"
_cell_formula_units_Z 16
_cell_length_a 6.522305
_cell_length_b 12.495354
_cell_length_c 19.462214
_cell_angle_alpha 41.674601
_cell_angle_beta 116.432373
_cell_angle_gamma 132.826693
_cell_volume 767.073512
_symmetry_space_group_name_H-M "P -1"
_symmetry_group_IT_number 2
_symmetry_cell_setting 'triclinic'
loop_
_space_group_symop_operation_xyz
x,y,z
-x,-y,-z
loop_
_atom_site_type_symbol
_atom_site_label
_atom_site_fract_x
_atom_site_fract_y
_atom_site_fract_z
Si Si1 0.945499 0.202515 0.938523
Si Si2 0.164902 0.385564 0.501026
Si Si3 0.502591 0.237926 0.148051
Si Si4 0.070065 0.434197 0.209172
Si Si5 0.008170 0.903094 0.152808
Si Si6 0.177059 0.223096 0.445092
Si Si7 0.820357 0.547917 0.376090
Si Si8 0.617778 0.498460 0.917873
O O1 0.856215 0.346817 0.873205
O O2 0.875352 0.113070 0.894795
O O3 0.285481 0.348258 0.924398
O O4 0.871321 0.023163 0.063511
O O5 0.500000 0.500000 0.500000
O O6 0.073047 0.226344 0.504491
O O7 0.075774 0.339103 0.589397
O O8 0.049836 0.513784 0.400967
O O9 0.341180 0.319645 0.121489
O O10 0.737903 0.277826 0.216963
O O11 0.269704 0.024393 0.185734
O O12 0.668436 0.378921 0.038745
O O13 0.132820 0.353217 0.323772
O O14 0.225846 0.443567 0.158486
O O15 0.794872 0.684236 0.254651
O O16 0.517078 0.338783 0.441273
O O17 0.000000 0.000000 0.500000
#
# Coordination Sequence:
#
# PCOD9088312 Si02
#       8
#     2   2   2   2   2   2   2   2
#     4   9  20  37  58  87 124 153 192 247 286 349
#     4   9  21  42  64  88 116 149 197 249 298 351
#     4   9  20  34  55  84 118 150 192 245 282 345
#     4  11  21  37  60  82 116 162 198 237 293 350
#     4  10  19  37  60  88 121 156 193 238 302 353
#     4  11  25  41  59  88 119 153 204 255 297 347
#     4  10  21  41  66  85 118 161 193 243 305 356
#     4   9  18  37  56  81 116 155 196 236 290 346
#
# _framework density 20.858495000000001
#
# number of rings (size 3 to 8) (size 9 to 14) (size 15 to 20)
#    0.000    2.250    0.000    2.625    0.000    5.500 
#    0.000   18.750    0.000    0.000    0.000    0.000 
#    0.000    0.000    0.000    0.000    0.000    0.000 
#
# Total GULP energy -89256.310798 kJ/mol
# GULP energy per Si atom -5578.519425 kJ/mol
# Density = 2.081102 g / cm^3
# Si number density = 20.858495 Si / 1000 Ang^3
#
#
#
# Elastic Constant Matrix: (Units=GPa)
#
#
# Indices 1 2 3 4 5 6 
#
# 1 61.6077 38.5480 29.2895 -12.0476 6.4129 -16.1386
# 2 38.5480 123.6079 23.7026 -3.0300 7.0816 -20.3242
# 3 29.2895 23.7026 78.4119 -5.6894 8.1840 -3.3544
# 4 -12.0476 -3.0300 -5.6894 25.1916 3.1813 2.7262
# 5 6.4129 7.0816 8.1840 3.1813 18.0679 3.5559
# 6 -16.1386 -20.3242 -3.3544 2.7262 3.5559 34.0609
#
#
#
# Elastic Compliance Matrix: (Units=1/GPa)
#
#
# Indices 1 2 3 4 5 6 
#
# 1 0.028466 -0.005163 -0.006892 0.011506 -0.008900 0.009736
# 2 -0.005163 0.010684 -0.000975 -0.001548 -0.002470 0.004214
# 3 -0.006892 -0.000975 0.016052 0.000953 -0.004236 -0.001901
# 4 0.011506 -0.001548 0.000953 0.046573 -0.012543 0.002203
# 5 -0.008900 -0.002470 -0.004236 -0.012543 0.065961 -0.011990
# 6 0.009736 0.004214 -0.001901 0.002203 -0.011990 0.037375
#
#
# Mechanical properties :
#
#
# Convention : Reuss Voigt Hill
#
# Bulk Modulus (GPa) = 34.31511 49.63418 41.97464
# Shear Modulus (GPa) = 20.75679 26.93658 23.84669
#
# Velocity S-wave (km/s) = 3.15798 3.59750 3.38488
# Velocity P-wave (km/s) = 5.45749 6.41119 5.95347
#
# Compressibility (1/GPa) = 0.02914168
#
# Stress axis : x y z
#
# Youngs Moduli (GPa) = 35.12999 93.60069 62.29627
#
# Poissons Ratio (x) = 0.48324 0.42934
# Poissons Ratio (y) = 0.18137 0.06076
# Poissons Ratio (z) = 0.24211 0.09129
#
# Static dielectric constant tensor:
#      x y z
#    x 1.767240 0.016320 0.016310 
#    y 0.016320 1.764070 0.017070 
#    z 0.016310 0.017070 1.768890 
# 
# From -- ./inp_files/583272.got.cif
#   From: 2010.05.17/outbox.cif.g08.bks.cpg/sg2_292_cif.got.tgz:583272.got - 2010.06.03 11:33:40.
