data_PCOD9088192
_publ_section_title
;
Structure prediction by ZEFSAII (Michael W. Deem and Ramdas Pophale) SiO2 
 PCOD9088192
Probable space group: P -1
;
_chemical_formula_sum "Si O2"
_cell_formula_units_Z 14
_cell_length_a 8.955713
_cell_length_b 9.291859
_cell_length_c 25.842445
_cell_angle_alpha 35.345336
_cell_angle_beta 146.397471
_cell_angle_gamma 122.325118
_cell_volume 614.216791
_symmetry_space_group_name_H-M "P -1"
_symmetry_group_IT_number 2
_symmetry_cell_setting 'triclinic'
loop_
_space_group_symop_operation_xyz
x,y,z
-x,-y,-z
loop_
_atom_site_type_symbol
_atom_site_label
_atom_site_fract_x
_atom_site_fract_y
_atom_site_fract_z
Si Si1 0.130839 0.227082 0.972865
Si Si2 0.031444 0.240686 0.050571
Si Si3 0.125034 0.031109 0.437389
Si Si4 0.028225 0.668586 0.594028
Si Si5 0.495116 0.113883 0.908515
Si Si6 0.806373 0.880340 0.678480
Si Si7 0.355246 0.828966 0.350451
O O1 0.228633 0.217077 0.063535
O O2 0.371806 0.123366 0.026795
O O3 0.905765 0.550804 0.802839
O O4 0.000000 0.000000 0.000000
O O5 0.708783 0.271795 0.928107
O O6 0.178146 0.955799 0.209400
O O7 0.000000 0.500000 0.000000
O O8 0.916543 0.257914 0.352752
O O9 0.039723 0.051870 0.346476
O O10 0.441080 0.048585 0.520237
O O11 0.176754 0.752742 0.564467
O O12 0.669828 0.851994 0.429602
O O13 0.163386 0.339345 0.730264
O O14 0.500000 0.000000 0.000000
O O15 0.849917 0.981219 0.717786
O O16 0.500000 0.500000 0.500000
#
# Coordination Sequence:
#
# PCOD9088192 Si02
#       7
#     2   2   2   2   2   2   2
#     4  10  21  38  65  91 123 169 220 252 314 387
#     4  11  23  42  67  93 131 171 213 263 329 383
#     4   9  19  33  61  86 118 156 210 263 306 363
#     4  10  21  38  62  90 125 163 211 259 317 376
#     4  11  23  40  66  94 127 167 221 265 312 385
#     4  10  19  37  59  93 120 162 214 264 304 378
#     4  11  24  41  64  91 129 169 208 263 331 381
#
# _framework density 22.793254000000001
#
# number of rings (size 3 to 8) (size 9 to 14) (size 15 to 20)
#    0.000    1.714    1.429    3.429    4.000    6.857 
#    0.000    5.000    0.000    0.000    0.000    0.000 
#    0.000    0.000    0.000    0.000    0.000    0.000 
#
# Total GULP energy -78056.294803 kJ/mol
# GULP energy per Si atom -5575.449629 kJ/mol
# Density = 2.274138 g / cm^3
# Si number density = 22.793254 Si / 1000 Ang^3
#
#
#
# Elastic Constant Matrix: (Units=GPa)
#
#
# Indices 1 2 3 4 5 6 
#
# 1 165.1508 35.6604 37.6319 -5.4758 -24.1508 -41.1507
# 2 35.6604 69.4024 17.5052 -18.4335 7.1968 -21.1307
# 3 37.6319 17.5052 91.3128 -19.9374 -1.9780 -19.2946
# 4 -5.4758 -18.4335 -19.9374 36.7036 -1.2252 1.1114
# 5 -24.1508 7.1968 -1.9780 -1.2252 34.2912 3.4664
# 6 -41.1507 -21.1307 -19.2946 1.1114 3.4664 40.2433
#
#
#
# Elastic Compliance Matrix: (Units=1/GPa)
#
#
# Indices 1 2 3 4 5 6 
#
# 1 0.009968 -0.003660 -0.002174 -0.001503 0.006935 0.006672
# 2 -0.003660 0.022393 0.001332 0.010893 -0.007723 0.009019
# 3 -0.002174 0.001332 0.014422 0.007978 -0.001227 0.005276
# 4 -0.001503 0.010893 0.007978 0.036531 -0.002307 0.007198
# 5 0.006935 -0.007723 -0.001227 -0.002307 0.035569 -0.000553
# 6 0.006672 0.009019 0.005276 0.007198 -0.000553 0.038786
#
#
# Mechanical properties :
#
#
# Convention : Reuss Voigt Hill
#
# Bulk Modulus (GPa) = 26.46935 56.38456 41.42695
# Shear Modulus (GPa) = 27.89154 37.91885 32.90520
#
# Velocity S-wave (km/s) = 3.50190 4.08315 3.80365
# Velocity P-wave (km/s) = 5.29047 6.85716 6.12412
#
# Compressibility (1/GPa) = 0.03777954
#
# Stress axis : x y z
#
# Youngs Moduli (GPa) = 100.32551 44.65638 69.33701
#
# Poissons Ratio (x) = 0.16343 0.15075
# Poissons Ratio (y) = 0.36717 -0.09237
# Poissons Ratio (z) = 0.21813 -0.05949
#
# Static dielectric constant tensor:
#      x y z
#    x 1.949680 0.035340 0.000890 
#    y 0.035340 1.963680 0.050920 
#    z 0.000890 0.050920 1.824650 
# 
# From -- ./inp_files/169831.got.cif
#   From: 2010.05.17/outbox.cif.g08.bks.cpg/sg2_85_cif.got.tgz:169831.got - 2010.06.03 11:33:40.
