data_PCOD9088262
_publ_section_title
;
Structure prediction by ZEFSAII (Michael W. Deem and Ramdas Pophale) SiO2 
 PCOD9088262
Probable space group: P -1
;
_chemical_formula_sum "Si O2"
_cell_formula_units_Z 16
_cell_length_a 12.179196
_cell_length_b 7.486666
_cell_length_c 13.449900
_cell_angle_alpha 74.034573
_cell_angle_beta 40.454245
_cell_angle_gamma 87.117178
_cell_volume 739.765006
_symmetry_space_group_name_H-M "P -1"
_symmetry_group_IT_number 2
_symmetry_cell_setting 'triclinic'
loop_
_space_group_symop_operation_xyz
x,y,z
-x,-y,-z
loop_
_atom_site_type_symbol
_atom_site_label
_atom_site_fract_x
_atom_site_fract_y
_atom_site_fract_z
Si Si1 0.497449 0.390625 0.120935
Si Si2 0.054963 0.470166 0.604461
Si Si3 0.455973 0.713260 0.588283
Si Si4 0.251635 0.736587 0.914453
Si Si5 0.548301 0.383122 0.693456
Si Si6 0.894385 0.544363 0.197273
Si Si7 0.095809 0.217058 0.434750
Si Si8 0.289321 0.130726 0.781735
O O1 0.656246 0.291419 0.042162
O O2 0.526457 0.546204 0.166470
O O3 0.305473 0.248208 0.291530
O O4 0.500000 0.500000 0.000000
O O5 0.250798 0.600048 0.427176
O O6 0.063011 0.413297 0.721920
O O7 0.029562 0.289614 0.574191
O O8 0.934011 0.614545 0.644322
O O9 0.407676 0.775980 0.720137
O O10 0.532186 0.531348 0.592680
O O11 0.265932 0.644551 0.676305
O O12 0.601868 0.850272 0.399727
O O13 0.179392 0.922511 0.920975
O O14 0.091736 0.556819 0.022319
O O15 0.434204 0.186202 0.760224
O O16 0.817217 0.708915 0.176567
O O17 0.000000 0.000000 0.500000
#
# Coordination Sequence:
#
# PCOD9088262 Si02
#       8
#     2   2   2   2   2   2   2   2
#     4  10  22  42  58  80 119 156 199 248 306 357
#     4  10  19  39  64  83 121 161 195 255 308 348
#     4  10  19  37  60  85 118 157 197 229 294 371
#     4  11  24  35  57  90 122 150 192 257 296 346
#     4   9  18  36  62  82 110 161 192 230 299 365
#     4  11  20  38  59  84 123 159 192 226 313 370
#     4  10  23  39  62  90 114 152 220 259 291 354
#     4  11  20  37  59  90 120 151 194 241 291 368
#
# _framework density 21.628488000000001
#
# number of rings (size 3 to 8) (size 9 to 14) (size 15 to 20)
#    0.000    1.750    2.500    2.625    1.750    0.000 
#    4.500    0.625    0.000    0.000    0.000    0.000 
#    0.000    0.000    0.000    0.000    0.000    0.000 
#
# Total GULP energy -89179.076557 kJ/mol
# GULP energy per Si atom -5573.692285 kJ/mol
# Density = 2.157926 g / cm^3
# Si number density = 21.628488 Si / 1000 Ang^3
#
#
#
# Elastic Constant Matrix: (Units=GPa)
#
#
# Indices 1 2 3 4 5 6 
#
# 1 118.2408 26.7389 24.0624 -8.9447 1.5882 -4.5384
# 2 26.7389 48.5690 10.0639 -8.5952 1.6997 -3.5880
# 3 24.0624 10.0639 58.7888 -6.0877 -4.2588 -5.7561
# 4 -8.9447 -8.5952 -6.0877 21.0577 -0.8054 -4.2356
# 5 1.5882 1.6997 -4.2588 -0.8054 40.4470 7.8459
# 6 -4.5384 -3.5880 -5.7561 -4.2356 7.8459 37.2495
#
#
#
# Elastic Compliance Matrix: (Units=1/GPa)
#
#
# Indices 1 2 3 4 5 6 
#
# 1 0.010327 -0.004652 -0.003244 0.001653 -0.000641 0.000632
# 2 -0.004652 0.025189 -0.001351 0.008446 -0.001414 0.002909
# 3 -0.003244 -0.001351 0.019394 0.004264 0.001812 0.002575
# 4 0.001653 0.008446 0.004264 0.054455 -0.000430 0.007956
# 5 -0.000641 -0.001414 0.001812 -0.000430 0.026052 -0.005471
# 6 0.000632 0.002909 0.002575 0.007956 -0.005471 0.029658
#
#
# Mechanical properties :
#
#
# Convention : Reuss Voigt Hill
#
# Bulk Modulus (GPa) = 27.45989 38.59209 33.02599
# Shear Modulus (GPa) = 25.54824 30.73307 28.14066
#
# Velocity S-wave (km/s) = 3.44063 3.77364 3.61098
# Velocity P-wave (km/s) = 5.33926 6.07199 5.71737
#
# Compressibility (1/GPa) = 0.03641675
#
# Stress axis : x y z
#
# Youngs Moduli (GPa) = 96.83031 39.69947 51.56207
#
# Poissons Ratio (x) = 0.18467 0.16727
# Poissons Ratio (y) = 0.45043 0.06967
# Poissons Ratio (z) = 0.31413 0.05364
#
# Static dielectric constant tensor:
#      x y z
#    x 1.787870 -0.005280 0.004720 
#    y -0.005280 1.887970 0.035470 
#    z 0.004720 0.035470 1.851890 
# 
# From -- ./inp_files/279707.got.cif
#   From: 2010.05.17/outbox.cif.g08.bks.cpg/sg2_140_cif.got.tgz:279707.got - 2010.06.03 11:33:40.
