data_PCOD9088389
_publ_section_title
;
Structure prediction by ZEFSAII (Michael W. Deem and Ramdas Pophale) SiO2 
 PCOD9088389
Probable space group: P -1
;
_chemical_formula_sum "Si O2"
_cell_formula_units_Z 16
_cell_length_a 12.187532
_cell_length_b 19.085831
_cell_length_c 14.878096
_cell_angle_alpha 147.781741
_cell_angle_beta 30.481109
_cell_angle_gamma 127.654676
_cell_volume 841.810443
_symmetry_space_group_name_H-M "P -1"
_symmetry_group_IT_number 2
_symmetry_cell_setting 'triclinic'
loop_
_space_group_symop_operation_xyz
x,y,z
-x,-y,-z
loop_
_atom_site_type_symbol
_atom_site_label
_atom_site_fract_x
_atom_site_fract_y
_atom_site_fract_z
Si Si1 0.639827 0.066732 0.034154
Si Si2 0.233522 0.027297 0.878112
Si Si3 0.679662 0.529842 0.006176
Si Si4 0.977686 0.188643 0.392983
Si Si5 0.259647 0.449060 0.217198
Si Si6 0.414270 0.866334 0.309780
Si Si7 0.641209 0.770001 0.424869
Si Si8 0.050424 0.060628 0.623874
O O1 0.471915 0.194770 0.357914
O O2 0.805097 0.117513 0.913954
O O3 0.500000 0.000000 0.000000
O O4 0.819947 0.925674 0.810054
O O5 0.395337 0.066987 0.737573
O O6 0.427704 0.885830 0.638970
O O7 0.116043 0.168509 0.180165
O O8 0.000000 0.000000 0.000000
O O9 0.729654 0.586885 0.936529
O O10 0.852125 0.356014 0.694368
O O11 0.402884 0.550367 0.227073
O O12 0.716401 0.614995 0.156867
O O13 0.772602 0.128557 0.474939
O O14 0.000000 0.500000 0.500000
O O15 0.428203 0.305598 0.997588
O O16 0.255409 0.940555 0.413641
O O17 0.855737 0.818037 0.326264
O O18 0.000000 0.000000 0.500000
#
# Coordination Sequence:
#
# PCOD9088389 Si02
#       8
#     2   2   2   2   2   2   2   2
#     4  10  19  37  63  84 107 146 193 242 294 334
#     4  10  21  33  55  81 115 146 191 237 278 330
#     4  10  22  38  57  82 121 155 192 226 291 341
#     4   9  20  38  55  80 112 154 186 231 282 348
#     4  10  21  36  58  79 117 165 190 224 279 350
#     4   9  20  35  53  84 108 149 194 227 283 336
#     4  10  22  36  55  90 113 146 192 242 281 348
#     4  10  19  37  61  83 112 147 190 246 296 333
#
# _framework density 19.006654999999999
#
# number of rings (size 3 to 8) (size 9 to 14) (size 15 to 20)
#    0.000    2.250    1.250    0.750    7.000    1.500 
#    4.500    0.625    0.000    0.750    0.000    0.000 
#    0.000    0.000    0.000    0.000    0.000    0.000 
#
# Total GULP energy -89091.121477 kJ/mol
# GULP energy per Si atom -5568.195092 kJ/mol
# Density = 1.896339 g / cm^3
# Si number density = 19.006655 Si / 1000 Ang^3
#
#
#
# Elastic Constant Matrix: (Units=GPa)
#
#
# Indices 1 2 3 4 5 6 
#
# 1 45.9151 45.0879 36.6548 -13.9060 19.7918 20.2051
# 2 45.0879 106.0915 59.2910 -32.8597 17.8360 12.0520
# 3 36.6548 59.2910 111.6221 -20.3254 23.1524 7.0101
# 4 -13.9060 -32.8597 -20.3254 41.6855 1.8522 1.4530
# 5 19.7918 17.8360 23.1524 1.8522 32.6647 -2.7406
# 6 20.2051 12.0520 7.0101 1.4530 -2.7406 30.7756
#
#
#
# Elastic Compliance Matrix: (Units=1/GPa)
#
#
# Indices 1 2 3 4 5 6 
#
# 1 0.101890 -0.016564 -0.004608 0.023468 -0.056249 -0.065474
# 2 -0.016564 0.021129 -0.004784 0.008603 0.001690 0.003434
# 3 -0.004608 -0.004784 0.014244 0.001806 -0.004697 0.001151
# 4 0.023468 0.008603 0.001806 0.041381 -0.024499 -0.023323
# 5 -0.056249 0.001690 -0.004697 -0.024499 0.072261 0.044929
# 6 -0.065474 0.003434 0.001151 -0.023323 0.044929 0.078974
#
#
# Mechanical properties :
#
#
# Convention : Reuss Voigt Hill
#
# Bulk Modulus (GPa) = 11.71631 60.63289 36.17460
# Shear Modulus (GPa) = 12.18795 29.19817 20.69306
#
# Velocity S-wave (km/s) = 2.53503 3.92370 3.30317
# Velocity P-wave (km/s) = 3.84008 7.24551 5.79843
#
# Compressibility (1/GPa) = 0.08535107
#
# Stress axis : x y z
#
# Youngs Moduli (GPa) = 9.81453 47.32840 70.20528
#
# Poissons Ratio (x) = 0.78393 0.32353
# Poissons Ratio (y) = 0.16257 0.33584
# Poissons Ratio (z) = 0.04523 0.22640
#
# Static dielectric constant tensor:
#      x y z
#    x 1.704650 -0.020470 0.010640 
#    y -0.020470 1.705070 -0.012670 
#    z 0.010640 -0.012670 1.665160 
# 
# From -- ./inp_files/206698.got.cif
#   From: 2010.05.17/outbox.cif.g08.bks.cpg/sg2_104_cif.got.tgz:206698.got - 2010.06.03 11:33:40.
