data_PCOD9088565
_publ_section_title
;
Structure prediction by ZEFSAII (Michael W. Deem and Ramdas Pophale) SiO2 
 PCOD9088565
Probable space group: P -1
;
_chemical_formula_sum "Si O2"
_cell_formula_units_Z 16
_cell_length_a 14.817719
_cell_length_b 14.468848
_cell_length_c 9.216372
_cell_angle_alpha 57.252239
_cell_angle_beta 67.264573
_cell_angle_gamma 28.330466
_cell_volume 768.497754
_symmetry_space_group_name_H-M "P -1"
_symmetry_group_IT_number 2
_symmetry_cell_setting 'triclinic'
loop_
_space_group_symop_operation_xyz
x,y,z
-x,-y,-z
loop_
_atom_site_type_symbol
_atom_site_label
_atom_site_fract_x
_atom_site_fract_y
_atom_site_fract_z
Si Si1 0.310867 0.941004 0.218897
Si Si2 0.852104 0.363033 0.151138
Si Si3 0.302465 0.189941 0.367633
Si Si4 0.148536 0.574621 0.221749
Si Si5 0.535253 0.847863 0.942382
Si Si6 0.480311 0.461111 0.698846
Si Si7 0.746052 0.970314 0.291776
Si Si8 0.489561 0.680287 0.631175
O O1 0.375853 0.782779 0.196437
O O2 0.414367 0.806101 0.419643
O O3 0.387637 0.976754 0.059178
O O4 0.080518 0.158867 0.205579
O O5 0.739240 0.370509 0.285204
O O6 0.823455 0.384941 0.977316
O O7 0.723483 0.592619 0.084571
O O8 0.174353 0.421289 0.290998
O O9 0.374250 0.131426 0.206692
O O10 0.206357 0.172403 0.499435
O O11 0.500000 0.000000 0.500000
O O12 0.316278 0.443917 0.339746
O O13 0.939856 0.801832 0.225025
O O14 0.418814 0.908327 0.824717
O O15 0.500000 0.500000 0.500000
O O16 0.525017 0.515863 0.734446
O O17 0.662266 0.148642 0.290496
#
# Coordination Sequence:
#
# PCOD9088565 Si02
#       8
#     2   2   2   2   2   2   2   2
#     4  10  21  39  62  81 114 158 189 229 292 343
#     4  10  19  37  62  82 109 153 195 227 280 348
#     4   9  17  35  61  85 113 151 189 230 281 343
#     4  11  21  36  61  89 115 148 190 235 285 334
#     4   9  18  36  59  84 112 148 192 231 278 343
#     4   9  22  39  58  80 118 153 191 230 290 341
#     4  11  20  36  60  87 115 150 193 235 280 335
#     4  11  23  38  55  88 118 143 192 249 277 329
#
# _framework density 20.819839000000002
#
# number of rings (size 3 to 8) (size 9 to 14) (size 15 to 20)
#    0.000    2.000    5.000    0.375    0.000    6.500 
#    0.000    1.875    0.000    3.750    0.000    0.000 
#    0.000    0.000    0.000    0.000    0.000    0.000 
#
# Total GULP energy -89179.735873 kJ/mol
# GULP energy per Si atom -5573.733492 kJ/mol
# Density = 2.077245 g / cm^3
# Si number density = 20.819839 Si / 1000 Ang^3
#
#
#
# Elastic Constant Matrix: (Units=GPa)
#
#
# Indices 1 2 3 4 5 6 
#
# 1 121.6694 42.3272 51.7370 -6.5451 -29.7051 29.4013
# 2 42.3272 130.4069 26.2850 14.6670 -2.0673 -9.6849
# 3 51.7370 26.2850 101.5133 7.0361 -17.1068 -1.9351
# 4 -6.5451 14.6670 7.0361 34.3282 -5.1638 -2.1499
# 5 -29.7051 -2.0673 -17.1068 -5.1638 46.8150 -4.6480
# 6 29.4013 -9.6849 -1.9351 -2.1499 -4.6480 46.6021
#
#
#
# Elastic Compliance Matrix: (Units=1/GPa)
#
#
# Indices 1 2 3 4 5 6 
#
# 1 0.019385 -0.006538 -0.007512 0.008588 0.008962 -0.012611
# 2 -0.006538 0.010752 0.000474 -0.006121 -0.003606 0.005737
# 3 -0.007512 0.000474 0.014018 -0.004110 0.000447 0.005275
# 4 0.008588 -0.006121 -0.004110 0.035007 0.007088 -0.004539
# 5 0.008962 -0.003606 0.000447 0.007088 0.027504 -0.003315
# 6 -0.012611 0.005737 0.005275 -0.004539 -0.003315 0.030286
#
#
# Mechanical properties :
#
#
# Convention : Reuss Voigt Hill
#
# Bulk Modulus (GPa) = 58.81573 66.03199 62.42386
# Shear Modulus (GPa) = 29.45114 41.09843 35.27478
#
# Velocity S-wave (km/s) = 3.76516 4.44780 4.12064
# Velocity P-wave (km/s) = 6.87118 7.62640 7.25862
#
# Compressibility (1/GPa) = 0.01700226
#
# Stress axis : x y z
#
# Youngs Moduli (GPa) = 51.58533 93.00385 71.33868
#
# Poissons Ratio (x) = 0.60808 0.53592
# Poissons Ratio (y) = 0.33728 -0.03382
# Poissons Ratio (z) = 0.38753 -0.04409
#
# Static dielectric constant tensor:
#      x y z
#    x 1.802420 0.036960 -0.042410 
#    y 0.036960 1.758400 0.009560 
#    z -0.042410 0.009560 1.779750 
# 
# From -- ./inp_files/294197.got.cif
#   From: 2010.05.17/outbox.cif.g08.bks.cpg/sg2_148_cif.got.tgz:294197.got - 2010.06.03 11:33:40.
