data_PCOD9088168
_publ_section_title
;
Structure prediction by ZEFSAII (Michael W. Deem and Ramdas Pophale) SiO2 
 PCOD9088168
Probable space group: P -1
;
_chemical_formula_sum "Si O2"
_cell_formula_units_Z 14
_cell_length_a 11.201430
_cell_length_b 11.472471
_cell_length_c 10.875506
_cell_angle_alpha 111.083955
_cell_angle_beta 59.138994
_cell_angle_gamma 64.619862
_cell_volume 720.216491
_symmetry_space_group_name_H-M "P -1"
_symmetry_group_IT_number 2
_symmetry_cell_setting 'triclinic'
loop_
_space_group_symop_operation_xyz
x,y,z
-x,-y,-z
loop_
_atom_site_type_symbol
_atom_site_label
_atom_site_fract_x
_atom_site_fract_y
_atom_site_fract_z
Si Si1 0.087536 0.854487 0.510832
Si Si2 0.976886 0.310953 0.700258
Si Si3 0.588924 0.066376 0.538254
Si Si4 0.138589 0.374300 0.001465
Si Si5 0.165839 0.057739 0.874991
Si Si6 0.796426 0.139529 0.999133
Si Si7 0.558416 0.491885 0.106455
O O1 0.068786 0.726775 0.418329
O O2 0.339819 0.710388 0.347724
O O3 0.000000 0.000000 0.500000
O O4 0.943360 0.980552 0.752780
O O5 0.956319 0.474215 0.782402
O O6 0.795762 0.388272 0.923622
O O7 0.206717 0.106493 0.550800
O O8 0.384445 0.248139 0.795204
O O9 0.500000 0.000000 0.500000
O O10 0.677597 0.075128 0.374215
O O11 0.136149 0.227326 0.968896
O O12 0.000000 0.500000 0.000000
O O13 0.939397 0.146200 0.996132
O O14 0.256511 0.930183 0.900622
O O15 0.598498 0.345217 0.116034
O O16 0.500000 0.500000 0.000000
#
# Coordination Sequence:
#
# PCOD9088168 Si02
#       7
#     2   2   2   2   2   2   2
#     4  11  22  37  61  90 119 159 204 249 296 355
#     4  11  21  35  61  93 116 152 212 247 292 348
#     4  10  19  37  59  89 115 160 196 247 296 349
#     4  11  21  37  61  88 120 155 206 245 293 358
#     4  10  22  40  59  90 124 160 191 255 305 356
#     4  11  21  42  59  87 130 151 200 251 307 354
#     4  10  20  36  60  89 117 158 202 246 291 357
#
# _framework density 19.438599
#
# number of rings (size 3 to 8) (size 9 to 14) (size 15 to 20)
#    0.000    1.429    7.143    0.000    4.000    0.000 
#    2.571    2.143    0.000   10.286    0.000    0.000 
#    0.000    0.000    0.000    0.000    0.000    0.000 
#
# Total GULP energy -78066.977328 kJ/mol
# GULP energy per Si atom -5576.212666 kJ/mol
# Density = 1.939436 g / cm^3
# Si number density = 19.438599 Si / 1000 Ang^3
#
#
#
# Elastic Constant Matrix: (Units=GPa)
#
#
# Indices 1 2 3 4 5 6 
#
# 1 88.1182 29.1902 25.1576 12.1262 5.6431 7.1864
# 2 29.1902 137.0087 38.5503 11.2518 -1.0967 3.8451
# 3 25.1576 38.5503 105.9529 24.1983 -4.7875 -1.5088
# 4 12.1262 11.2518 24.1983 27.1179 -4.5118 -3.3646
# 5 5.6431 -1.0967 -4.7875 -4.5118 44.1687 9.7082
# 6 7.1864 3.8451 -1.5088 -3.3646 9.7082 25.7297
#
#
#
# Elastic Compliance Matrix: (Units=1/GPa)
#
#
# Indices 1 2 3 4 5 6 
#
# 1 0.013463 -0.001969 -0.001575 -0.004507 -0.001623 -0.003535
# 2 -0.001969 0.008498 -0.002515 -0.000472 0.000377 -0.001072
# 3 -0.001575 -0.002515 0.012974 -0.009729 0.000528 0.000105
# 4 -0.004507 -0.000472 -0.009729 0.049042 0.003209 0.005961
# 5 -0.001623 0.000377 0.000528 0.003209 0.025141 -0.008639
# 6 -0.003535 -0.001072 0.000105 0.005961 -0.008639 0.044058
#
#
# Mechanical properties :
#
#
# Convention : Reuss Voigt Hill
#
# Bulk Modulus (GPa) = 43.82510 57.43067 50.62788
# Shear Modulus (GPa) = 28.91868 35.28202 32.10035
#
# Velocity S-wave (km/s) = 3.86125 4.26496 4.06812
# Velocity P-wave (km/s) = 6.51716 7.33907 6.94029
#
# Compressibility (1/GPa) = 0.02281798
#
# Stress axis : x y z
#
# Youngs Moduli (GPa) = 74.27997 117.67879 77.07490
#
# Poissons Ratio (x) = 0.23169 0.12136
# Poissons Ratio (y) = 0.14625 0.19383
# Poissons Ratio (z) = 0.11696 0.29595
#
# Static dielectric constant tensor:
#      x y z
#    x 1.757500 0.049450 0.007690 
#    y 0.049450 1.672920 0.031250 
#    z 0.007690 0.031250 1.720070 
# 
# From -- ./inp_files/423895.got.cif
#   From: 2010.05.17/outbox.cif.g08.bks.cpg/sg2_212_cif.got.tgz:423895.got - 2010.06.03 11:33:40.
