data_PCOD9088750
_publ_section_title
;
Structure prediction by ZEFSAII (Michael W. Deem and Ramdas Pophale) SiO2 
 PCOD9088750
Probable space group: P -1
;
_chemical_formula_sum "Si O2"
_cell_formula_units_Z 14
_cell_length_a 11.760114
_cell_length_b 18.206122
_cell_length_c 8.805561
_cell_angle_alpha 124.871158
_cell_angle_beta 106.822780
_cell_angle_gamma 28.104155
_cell_volume 605.620918
_symmetry_space_group_name_H-M "P -1"
_symmetry_group_IT_number 2
_symmetry_cell_setting 'triclinic'
loop_
_space_group_symop_operation_xyz
x,y,z
-x,-y,-z
loop_
_atom_site_type_symbol
_atom_site_label
_atom_site_fract_x
_atom_site_fract_y
_atom_site_fract_z
Si Si1 0.239628 0.120141 0.604670
Si Si2 0.756628 0.263651 0.879529
Si Si3 0.854790 0.011338 0.589422
Si Si4 0.503778 0.071272 0.215583
Si Si5 0.980768 0.705919 0.578057
Si Si6 0.410398 0.662560 0.605684
Si Si7 0.776695 0.017492 0.038238
O O1 0.981362 0.317869 0.619203
O O2 0.303332 0.972305 0.428979
O O3 0.500000 0.000000 0.500000
O O4 0.245213 0.123796 0.793318
O O5 0.013657 0.083714 0.641338
O O6 0.907333 0.189276 0.004824
O O7 0.500000 0.500000 0.000000
O O8 0.650523 0.234938 0.807494
O O9 0.139231 0.830880 0.590100
O O10 0.199916 0.258059 0.403285
O O11 0.567970 0.119269 0.209413
O O12 0.500000 0.000000 0.000000
O O13 0.288222 0.505336 0.541135
O O14 0.807092 0.916664 0.808247
O O15 0.500000 0.500000 0.500000
O O16 0.311901 0.820155 0.849541
#
# Coordination Sequence:
#
# PCOD9088750 Si02
#       7
#     2   2   2   2   2   2   2
#     4  10  19  37  63  84 120 160 194 245 302 347
#     4  10  20  36  60  88 118 155 197 248 295 348
#     4  10  20  37  59  87 121 154 198 245 294 351
#     4   9  19  38  66  86 113 157 201 250 296 348
#     4  10  21  38  61  87 120 160 197 241 301 354
#     4  11  22  37  58  89 125 162 195 242 300 354
#     4  10  21  38  61  88 120 156 202 248 291 350
#
# _framework density 23.116771
#
# number of rings (size 3 to 8) (size 9 to 14) (size 15 to 20)
#    0.000    2.000    2.857    0.857    0.000    1.143 
#    2.571    0.000    6.286    7.714    0.000    0.000 
#    0.000    0.000    0.000    0.000    0.000    0.000 
#
# Total GULP energy -77949.742686 kJ/mol
# GULP energy per Si atom -5567.838763 kJ/mol
# Density = 2.306416 g / cm^3
# Si number density = 23.116771 Si / 1000 Ang^3
#
#
#
# Elastic Constant Matrix: (Units=GPa)
#
#
# Indices 1 2 3 4 5 6 
#
# 1 143.7175 32.1892 28.8550 -0.1961 19.9753 -1.4443
# 2 32.1892 87.5848 43.4356 -1.5992 21.4139 6.9223
# 3 28.8550 43.4356 62.2470 -5.0500 13.3147 8.0679
# 4 -0.1961 -1.5992 -5.0500 35.4354 3.8216 1.8644
# 5 19.9753 21.4139 13.3147 3.8216 30.1704 -3.9426
# 6 -1.4443 6.9223 8.0679 1.8644 -3.9426 33.0111
#
#
#
# Elastic Compliance Matrix: (Units=1/GPa)
#
#
# Indices 1 2 3 4 5 6 
#
# 1 0.008167 -0.000987 -0.002437 -0.000004 -0.003534 0.000738
# 2 -0.000987 0.019570 -0.010958 0.000397 -0.008783 -0.002540
# 3 -0.002437 -0.010958 0.026537 0.003906 -0.003459 -0.004928
# 4 -0.000004 0.000397 0.003906 0.029646 -0.006209 -0.003454
# 5 -0.003534 -0.008783 -0.003459 -0.006209 0.045112 0.008271
# 6 0.000738 -0.002540 -0.004928 -0.003454 0.008271 0.033245
#
#
# Mechanical properties :
#
#
# Convention : Reuss Voigt Hill
#
# Bulk Modulus (GPa) = 39.20216 55.83432 47.51824
# Shear Modulus (GPa) = 25.05692 32.32800 28.69246
#
# Velocity S-wave (km/s) = 3.29588 3.74366 3.52688
# Velocity P-wave (km/s) = 5.61060 6.54922 6.09800
#
# Compressibility (1/GPa) = 0.02550880
#
# Stress axis : x y z
#
# Youngs Moduli (GPa) = 122.44171 51.09831 37.68371
#
# Poissons Ratio (x) = 0.05045 0.09184
# Poissons Ratio (y) = 0.12090 0.41294
# Poissons Ratio (z) = 0.29840 0.55994
#
# Static dielectric constant tensor:
#      x y z
#    x 1.946870 0.050080 -0.043170 
#    y 0.050080 1.905290 -0.031370 
#    z -0.043170 -0.031370 1.929720 
# 
# From -- ./inp_files/279928.got.cif
#   From: 2010.05.17/outbox.cif.g08.bks.cpg/sg2_140_cif.got.tgz:279928.got - 2010.06.03 11:33:40.
