data_PCOD9088752
_publ_section_title
;
Structure prediction by ZEFSAII (Michael W. Deem and Ramdas Pophale) SiO2 
 PCOD9088752
Probable space group: P -1
;
_chemical_formula_sum "Si O2"
_cell_formula_units_Z 16
_cell_length_a 21.895318
_cell_length_b 16.397920
_cell_length_c 8.801906
_cell_angle_alpha 143.135591
_cell_angle_beta 141.244400
_cell_angle_gamma 23.924030
_cell_volume 753.394825
_symmetry_space_group_name_H-M "P -1"
_symmetry_group_IT_number 2
_symmetry_cell_setting 'triclinic'
loop_
_space_group_symop_operation_xyz
x,y,z
-x,-y,-z
loop_
_atom_site_type_symbol
_atom_site_label
_atom_site_fract_x
_atom_site_fract_y
_atom_site_fract_z
Si Si1 0.733225 0.685656 0.542252
Si Si2 0.105131 0.757925 0.293574
Si Si3 0.648330 0.311542 0.402748
Si Si4 0.737391 0.654766 0.862362
Si Si5 0.414199 0.905887 0.744363
Si Si6 0.429378 0.880520 0.103770
Si Si7 0.218427 0.865484 0.300071
Si Si8 0.085357 0.730143 0.863831
O O1 0.756240 0.631930 0.683927
O O2 0.576649 0.782800 0.326010
O O3 0.861480 0.476883 0.380839
O O4 0.710490 0.870148 0.755370
O O5 0.277215 0.637067 0.447040
O O6 0.131918 0.585759 0.174601
O O7 0.057950 0.776488 0.057523
O O8 0.000000 0.000000 0.500000
O O9 0.500000 0.500000 0.500000
O O10 0.776910 0.120375 0.487308
O O11 0.606170 0.235694 0.097484
O O12 0.567403 0.783328 0.770561
O O13 0.717891 0.834835 0.142666
O O14 0.350935 0.827275 0.450604
O O15 0.450479 0.863549 0.934583
O O16 0.216697 0.703087 0.036745
O O17 0.062565 0.077200 0.234654
#
# Coordination Sequence:
#
# PCOD9088752 Si02
#       8
#     2   2   2   2   2   2   2   2
#     4  10  20  34  59  88 113 147 190 239 286 334
#     4  11  24  40  57  82 120 158 187 236 298 351
#     4  10  19  37  63  85 108 155 200 236 278 339
#     4  10  21  35  59  84 119 149 187 238 290 343
#     4   9  18  39  60  85 112 150 191 238 288 340
#     4   9  18  36  58  87 111 146 198 241 275 333
#     4   9  19  35  62  81 104 147 197 231 274 340
#     4  10  21  38  59  78 113 154 187 236 283 344
#
# _framework density 21.237204999999999
#
# number of rings (size 3 to 8) (size 9 to 14) (size 15 to 20)
#    0.000    2.250    0.000    3.750    5.250    1.000 
#    4.500    3.750    0.000    0.000    0.000    0.000 
#    0.000    0.000    0.000    0.000    0.000    0.000 
#
# Total GULP energy -89151.821599 kJ/mol
# GULP energy per Si atom -5571.988850 kJ/mol
# Density = 2.118887 g / cm^3
# Si number density = 21.237205 Si / 1000 Ang^3
#
#
#
# Elastic Constant Matrix: (Units=GPa)
#
#
# Indices 1 2 3 4 5 6 
#
# 1 25.8324 10.4039 7.3642 4.0728 0.7154 8.8339
# 2 10.4039 92.0678 29.5448 18.6064 -18.5608 24.2531
# 3 7.3642 29.5448 75.4185 12.8636 -5.6883 4.6788
# 4 4.0728 18.6064 12.8636 41.0076 -8.4654 1.0471
# 5 0.7154 -18.5608 -5.6883 -8.4654 24.7855 3.2836
# 6 8.8339 24.2531 4.6788 1.0471 3.2836 30.2571
#
#
#
# Elastic Compliance Matrix: (Units=1/GPa)
#
#
# Indices 1 2 3 4 5 6 
#
# 1 0.044379 -0.000831 -0.002899 -0.003274 -0.002165 -0.011494
# 2 -0.000831 0.021272 -0.005261 -0.004246 0.015620 -0.017543
# 3 -0.002899 -0.005261 0.015763 -0.002659 -0.001529 0.002884
# 4 -0.003274 -0.004246 -0.002659 0.028554 0.005637 0.003171
# 5 -0.002165 0.015620 -0.001529 0.005637 0.056056 -0.017931
# 6 -0.011494 -0.017543 0.002884 0.003171 -0.017931 0.051858
#
#
# Mechanical properties :
#
#
# Convention : Reuss Voigt Hill
#
# Bulk Modulus (GPa) = 15.76538 31.99381 23.87959
# Shear Modulus (GPa) = 19.45445 28.94376 24.19911
#
# Velocity S-wave (km/s) = 3.02992 3.69573 3.37926
# Velocity P-wave (km/s) = 4.43623 5.77138 5.14728
#
# Compressibility (1/GPa) = 0.06343014
#
# Stress axis : x y z
#
# Youngs Moduli (GPa) = 22.53302 47.00914 63.44045
#
# Poissons Ratio (x) = 0.03908 0.18394
# Poissons Ratio (y) = 0.01873 0.33379
# Poissons Ratio (z) = 0.06533 0.24734
#
# Static dielectric constant tensor:
#      x y z
#    x 1.816050 0.013680 0.047920 
#    y 0.013680 1.838970 0.023320 
#    z 0.047920 0.023320 1.758530 
# 
# From -- ./inp_files/354964.got.cif
#   From: 2010.05.17/outbox.cif.g08.bks.cpg/sg2_178_cif.got.tgz:354964.got - 2010.06.03 11:33:40.
