data_PCOD9088095
_publ_section_title
;
Structure prediction by ZEFSAII (Michael W. Deem and Ramdas Pophale) SiO2 
 PCOD9088095
Probable space group: P -1
;
_chemical_formula_sum "Si O2"
_cell_formula_units_Z 16
_cell_length_a 12.194254
_cell_length_b 7.330175
_cell_length_c 9.267658
_cell_angle_alpha 110.234266
_cell_angle_beta 62.956296
_cell_angle_gamma 87.808554
_cell_volume 673.080233
_symmetry_space_group_name_H-M "P -1"
_symmetry_group_IT_number 2
_symmetry_cell_setting 'triclinic'
loop_
_space_group_symop_operation_xyz
x,y,z
-x,-y,-z
loop_
_atom_site_type_symbol
_atom_site_label
_atom_site_fract_x
_atom_site_fract_y
_atom_site_fract_z
Si Si1 0.393986 0.879129 0.795740
Si Si2 0.578354 0.408339 0.067521
Si Si3 0.983282 0.817442 0.064989
Si Si4 0.968855 0.289823 0.416742
Si Si5 0.192692 0.241094 0.058115
Si Si6 0.860414 0.280564 0.776199
Si Si7 0.205180 0.612158 0.716436
Si Si8 0.435637 0.336309 0.575419
O O1 0.471851 0.745428 0.840682
O O2 0.280793 0.766241 0.786234
O O3 0.479434 0.864653 0.597493
O O4 0.329250 0.096661 0.952340
O O5 0.576830 0.594015 0.231367
O O6 0.500000 0.500000 0.000000
O O7 0.717456 0.272472 0.902443
O O8 0.080228 0.625152 0.887418
O O9 0.845938 0.801781 0.094881
O O10 0.033170 0.812063 0.194478
O O11 0.000000 0.000000 0.000000
O O12 0.919613 0.204855 0.566598
O O13 0.848945 0.323567 0.390075
O O14 0.000000 0.500000 0.500000
O O15 0.095281 0.189358 0.222255
O O16 0.170152 0.477093 0.145893
O O17 0.295203 0.394502 0.611129
O O18 0.500000 0.500000 0.500000
#
# Coordination Sequence:
#
# PCOD9088095 Si02
#       8
#     2   2   2   2   2   2   2   2
#     4  10  19  37  59  82 108 153 193 237 286 333
#     4  10  20  35  58  83 114 144 197 242 281 334
#     4  11  18  35  60  83 111 145 188 238 280 337
#     4   9  21  34  54  82 120 152 186 227 294 342
#     4  10  21  38  57  83 120 150 189 233 288 348
#     4  11  21  36  57  88 114 151 188 234 294 343
#     4   9  16  33  58  77 107 148 187 231 280 332
#     4   8  17  32  56  82 103 144 196 228 283 325
#
# _framework density 23.771314
#
# number of rings (size 3 to 8) (size 9 to 14) (size 15 to 20)
#    0.000    2.500    3.750    0.375    5.250    0.000 
#    0.000    8.125    0.000    0.000    0.000    0.000 
#    0.000    0.000    0.000    0.000    0.000    0.000 
#
# Total GULP energy -89095.017358 kJ/mol
# GULP energy per Si atom -5568.438585 kJ/mol
# Density = 2.371721 g / cm^3
# Si number density = 23.771314 Si / 1000 Ang^3
#
#
#
# Elastic Constant Matrix: (Units=GPa)
#
#
# Indices 1 2 3 4 5 6 
#
# 1 28.5197 18.6610 28.1410 -8.6497 10.2887 -25.1073
# 2 18.6610 94.0991 60.0040 3.1782 7.7953 -21.7042
# 3 28.1410 60.0040 162.1317 -17.4101 8.2217 -34.1881
# 4 -8.6497 3.1782 -17.4101 47.9047 -13.4586 5.3184
# 5 10.2887 7.7953 8.2217 -13.4586 36.7872 -7.4642
# 6 -25.1073 -21.7042 -34.1881 5.3184 -7.4642 41.7956
#
#
#
# Elastic Compliance Matrix: (Units=1/GPa)
#
#
# Indices 1 2 3 4 5 6 
#
# 1 0.085215 -0.004428 -0.002602 0.006790 -0.010912 0.043949
# 2 -0.004428 0.015330 -0.004970 -0.004404 -0.002227 0.001398
# 3 -0.002602 -0.004970 0.009469 0.003366 0.001598 0.003458
# 4 0.006790 -0.004404 0.003366 0.025618 0.008213 0.002752
# 5 -0.010912 -0.002227 0.001598 0.008213 0.033040 -0.001549
# 6 0.043949 0.001398 0.003458 0.002752 -0.001549 0.053255
#
#
# Mechanical properties :
#
#
# Convention : Reuss Voigt Hill
#
# Bulk Modulus (GPa) = 11.62616 55.37359 33.49988
# Shear Modulus (GPa) = 18.20837 37.16046 27.68442
#
# Velocity S-wave (km/s) = 2.77064 3.95808 3.41635
# Velocity P-wave (km/s) = 3.89059 6.65082 5.44840
#
# Compressibility (1/GPa) = 0.08601290
#
# Stress axis : x y z
#
# Youngs Moduli (GPa) = 11.73502 65.23040 105.61324
#
# Poissons Ratio (x) = 0.28887 0.27478
# Poissons Ratio (y) = 0.05197 0.52492
# Poissons Ratio (z) = 0.03053 0.32421
#
# Static dielectric constant tensor:
#      x y z
#    x 2.021940 0.045860 0.004800 
#    y 0.045860 2.046130 0.037510 
#    z 0.004800 0.037510 2.085890 
# 
# From -- ./inp_files/295501.got.cif
#   From: 2010.05.17/outbox.cif.g08.bks.cpg/sg2_148_cif.got.tgz:295501.got - 2010.06.03 11:33:40.
