data_PCOD9088687
_publ_section_title
;
Structure prediction by ZEFSAII (Michael W. Deem and Ramdas Pophale) SiO2 
 PCOD9088687
Probable space group: P -1
;
_chemical_formula_sum "Si O2"
_cell_formula_units_Z 14
_cell_length_a 8.975110
_cell_length_b 11.719740
_cell_length_c 11.294102
_cell_angle_alpha 43.445238
_cell_angle_beta 55.409489
_cell_angle_gamma 44.575328
_cell_volume 570.206438
_symmetry_space_group_name_H-M "P -1"
_symmetry_group_IT_number 2
_symmetry_cell_setting 'triclinic'
loop_
_space_group_symop_operation_xyz
x,y,z
-x,-y,-z
loop_
_atom_site_type_symbol
_atom_site_label
_atom_site_fract_x
_atom_site_fract_y
_atom_site_fract_z
Si Si1 0.157834 0.132424 0.398276
Si Si2 0.593077 0.086717 0.272498
Si Si3 0.001215 0.572092 0.155379
Si Si4 0.797145 0.695335 0.394883
Si Si5 0.594151 0.574208 0.746286
Si Si6 0.765102 0.135471 0.937019
Si Si7 0.087833 0.062636 0.229162
O O1 0.374944 0.094014 0.389300
O O2 0.007582 0.371582 0.275586
O O3 0.209211 0.050464 0.303688
O O4 0.054578 0.025304 0.592949
O O5 0.597607 0.256802 0.214480
O O6 0.793703 0.866320 0.342617
O O7 0.594064 0.123098 0.104396
O O8 0.217831 0.494700 0.190102
O O9 0.820561 0.695707 0.243810
O O10 0.997319 0.714853 0.948346
O O11 0.602321 0.686788 0.542393
O O12 0.000000 0.500000 0.500000
O O13 0.658753 0.367376 0.820126
O O14 0.791495 0.064183 0.845339
O O15 0.000000 0.000000 0.000000
#
# Coordination Sequence:
#
# PCOD9088687 Si02
#       7
#     2   2   2   2   2   2   2
#     4  10  25  42  68  97 128 175 226 275 323 386
#     4  11  23  41  61  97 133 169 217 278 328 380
#     4  10  19  41  66  93 128 172 221 267 330 394
#     4  10  19  37  62  92 127 170 210 260 332 397
#     4  10  21  36  60  97 134 165 213 269 330 389
#     4  12  22  40  66  94 132 173 219 264 330 398
#     4  11  22  44  70  92 133 178 223 267 328 400
#
# _framework density 24.552510000000002
#
# number of rings (size 3 to 8) (size 9 to 14) (size 15 to 20)
#    0.000    1.429    2.857    3.000    0.000    5.143 
#    5.143    0.000    0.000    2.571    0.000    0.000 
#    0.000    0.000    0.000    0.000    0.000    0.000 
#
# Total GULP energy -77968.499615 kJ/mol
# GULP energy per Si atom -5569.178544 kJ/mol
# Density = 2.449663 g / cm^3
# Si number density = 24.552510 Si / 1000 Ang^3
#
#
#
# Elastic Constant Matrix: (Units=GPa)
#
#
# Indices 1 2 3 4 5 6 
#
# 1 57.6027 30.8852 39.1974 4.3908 6.7166 24.4673
# 2 30.8852 211.5042 70.8859 -12.4919 15.3531 29.2768
# 3 39.1974 70.8859 170.8373 -2.5308 1.4506 3.9364
# 4 4.3908 -12.4919 -2.5308 56.6673 4.2454 8.0384
# 5 6.7166 15.3531 1.4506 4.2454 30.0350 9.3730
# 6 24.4673 29.2768 3.9364 8.0384 9.3730 27.3513
#
#
#
# Elastic Compliance Matrix: (Units=1/GPa)
#
#
# Indices 1 2 3 4 5 6 
#
# 1 0.036463 0.002416 -0.008540 0.002192 0.001699 -0.035202
# 2 0.002416 0.007025 -0.003198 0.002674 -0.001380 -0.009534
# 3 -0.008540 -0.003198 0.008891 -0.001083 0.000130 0.010057
# 4 0.002192 0.002674 -0.001083 0.019533 -0.001476 -0.009903
# 5 0.001699 -0.001380 0.000130 -0.001476 0.037742 -0.012562
# 6 -0.035202 -0.009534 0.010057 -0.009903 -0.012562 0.084024
#
#
# Mechanical properties :
#
#
# Convention : Reuss Voigt Hill
#
# Bulk Modulus (GPa) = 29.64207 80.20900 54.92553
# Shear Modulus (GPa) = 22.36466 42.74245 32.55356
#
# Velocity S-wave (km/s) = 3.02137 4.17689 3.64521
# Velocity P-wave (km/s) = 4.92653 7.48339 6.33529
#
# Compressibility (1/GPa) = 0.03373584
#
# Stress axis : x y z
#
# Youngs Moduli (GPa) = 27.42518 142.35142 112.47233
#
# Poissons Ratio (x) = -0.34398 0.96047
# Poissons Ratio (y) = -0.06627 0.35972
# Poissons Ratio (z) = 0.23420 0.45528
#
# Static dielectric constant tensor:
#      x y z
#    x 1.994790 -0.065340 -0.067640 
#    y -0.065340 2.087050 -0.065560 
#    z -0.067640 -0.065560 2.162710 
# 
# From -- ./inp_files/424878.got.cif
#   From: 2010.05.17/outbox.cif.g08.bks.cpg/sg2_213_cif.got.tgz:424878.got - 2010.06.03 11:33:40.
