data_PCOD9088620
_publ_section_title
;
Structure prediction by ZEFSAII (Michael W. Deem and Ramdas Pophale) SiO2 
 PCOD9088620
Probable space group: P -1
;
_chemical_formula_sum "Si O2"
_cell_formula_units_Z 16
_cell_length_a 20.987411
_cell_length_b 7.609385
_cell_length_c 6.859328
_cell_angle_alpha 112.912310
_cell_angle_beta 130.758044
_cell_angle_gamma 53.683429
_cell_volume 668.586045
_symmetry_space_group_name_H-M "P -1"
_symmetry_group_IT_number 2
_symmetry_cell_setting 'triclinic'
loop_
_space_group_symop_operation_xyz
x,y,z
-x,-y,-z
loop_
_atom_site_type_symbol
_atom_site_label
_atom_site_fract_x
_atom_site_fract_y
_atom_site_fract_z
Si Si1 0.247610 0.171345 0.699289
Si Si2 0.565127 0.473198 0.934241
Si Si3 0.887256 0.248470 0.910004
Si Si4 0.433378 0.919578 0.725900
Si Si5 0.850404 0.029893 0.115573
Si Si6 0.944083 0.849576 0.584780
Si Si7 0.324179 0.030715 0.193059
Si Si8 0.760151 0.450301 0.398411
O O1 0.153313 0.148947 0.542739
O O2 0.218283 0.383078 0.604844
O O3 0.337416 0.975121 0.682946
O O4 0.293656 0.176359 0.002150
O O5 0.648687 0.523782 0.192457
O O6 0.500000 0.500000 0.000000
O O7 0.498988 0.659789 0.729597
O O8 0.616771 0.224037 0.860927
O O9 0.797744 0.424042 0.683238
O O10 0.937895 0.068218 0.762004
O O11 0.860431 0.132403 0.979759
O O12 0.957702 0.324503 0.187913
O O13 0.392019 0.046613 0.496627
O O14 0.500000 0.000000 0.000000
O O15 0.806657 0.226477 0.270038
O O16 0.942935 0.856219 0.350233
O O17 0.775252 0.940965 0.902801
#
# Coordination Sequence:
#
# PCOD9088620 Si02
#       8
#     2   2   2   2   2   2   2   2
#     4  11  22  42  57  87 129 153 202 251 303 358
#     4  11  22  42  62  89 120 161 207 256 290 362
#     4  10  19  37  62  88 115 156 201 245 304 353
#     4  12  24  41  61  91 123 160 201 251 309 360
#     4   9  19  37  60  87 118 153 203 246 295 357
#     4   9  20  36  62  88 116 154 199 251 296 360
#     4  10  23  39  64  88 119 165 203 245 304 357
#     4  10  23  38  56  89 123 155 198 253 297 359
#
# _framework density 23.931103
#
# number of rings (size 3 to 8) (size 9 to 14) (size 15 to 20)
#    0.000    1.750    2.500    2.250    1.750    2.000 
#    0.000    0.625    0.000    0.000    0.000    0.000 
#    0.000    0.000    0.000    0.000    0.000    0.000 
#
# Total GULP energy -89376.844393 kJ/mol
# GULP energy per Si atom -5586.052775 kJ/mol
# Density = 2.387663 g / cm^3
# Si number density = 23.931103 Si / 1000 Ang^3
#
#
#
# Elastic Constant Matrix: (Units=GPa)
#
#
# Indices 1 2 3 4 5 6 
#
# 1 83.8170 -6.0373 37.7330 -11.7680 -6.2882 12.5986
# 2 -6.0373 31.9226 12.8691 5.2663 -3.8408 10.0988
# 3 37.7330 12.8691 210.3856 -24.9246 -15.5193 10.0919
# 4 -11.7680 5.2663 -24.9246 32.0423 6.3200 -5.7575
# 5 -6.2882 -3.8408 -15.5193 6.3200 31.9572 -7.6110
# 6 12.5986 10.0988 10.0919 -5.7575 -7.6110 24.2838
#
#
#
# Elastic Compliance Matrix: (Units=1/GPa)
#
#
# Indices 1 2 3 4 5 6 
#
# 1 0.015094 0.006750 -0.002574 0.000720 0.000163 -0.009346
# 2 0.006750 0.043525 -0.004129 -0.012215 0.001668 -0.022260
# 3 -0.002574 -0.004129 0.006011 0.004484 0.001529 0.002097
# 4 0.000720 -0.012215 0.004484 0.039799 -0.004426 0.010892
# 5 0.000163 0.001668 0.001529 -0.004426 0.035182 0.008564
# 6 -0.009346 -0.022260 0.002097 0.010892 0.008564 0.059681
#
#
# Mechanical properties :
#
#
# Convention : Reuss Voigt Hill
#
# Bulk Modulus (GPa) = 15.45058 46.13943 30.79500
# Shear Modulus (GPa) = 22.64773 36.42734 29.53754
#
# Velocity S-wave (km/s) = 3.07965 3.90574 3.51703
# Velocity P-wave (km/s) = 4.37218 6.29775 5.42115
#
# Compressibility (1/GPa) = 0.06472251
#
# Stress axis : x y z
#
# Youngs Moduli (GPa) = 66.25102 22.97536 166.36408
#
# Poissons Ratio (x) = -0.15509 0.42829
# Poissons Ratio (y) = -0.44720 0.68698
# Poissons Ratio (z) = 0.17056 0.09487
#
# Static dielectric constant tensor:
#      x y z
#    x 1.606030 -0.478740 -0.008690 
#    y -0.478740 1.382560 -0.099590 
#    z -0.008690 -0.099590 1.972610 
# 
# From -- ./inp_files/49278.got.cif
#   From: 2010.05.17/outbox.cif.g08.bks.cpg/sg2_25_cif.got.tgz:49278.got - 2010.06.03 11:33:40.
