data_PCOD9088946
_publ_section_title
;
Structure prediction by ZEFSAII (Michael W. Deem and Ramdas Pophale) SiO2 
 PCOD9088946
Probable space group: P -1
;
_chemical_formula_sum "Si O2"
_cell_formula_units_Z 14
_cell_length_a 9.272028
_cell_length_b 20.698784
_cell_length_c 14.024030
_cell_angle_alpha 20.403795
_cell_angle_beta 102.130261
_cell_angle_gamma 116.332682
_cell_volume 633.223814
_symmetry_space_group_name_H-M "P -1"
_symmetry_group_IT_number 2
_symmetry_cell_setting 'triclinic'
loop_
_space_group_symop_operation_xyz
x,y,z
-x,-y,-z
loop_
_atom_site_type_symbol
_atom_site_label
_atom_site_fract_x
_atom_site_fract_y
_atom_site_fract_z
Si Si1 0.402407 0.461846 0.731293
Si Si2 0.366531 0.097012 0.110932
Si Si3 0.306178 0.109605 0.654843
Si Si4 0.508369 0.858730 0.556289
Si Si5 0.633127 0.209944 0.813738
Si Si6 0.095995 0.298146 0.332125
Si Si7 0.124220 0.949635 0.534964
O O1 0.580202 0.704302 0.492116
O O2 0.269327 0.515565 0.597816
O O3 0.461054 0.380844 0.764084
O O4 0.275542 0.202270 0.136766
O O5 0.449186 0.014134 0.309300
O O6 0.461146 0.126019 0.982750
O O7 0.107368 0.857018 0.413256
O O8 0.464900 0.224285 0.427204
O O9 0.143293 0.120848 0.585309
O O10 0.236998 0.838347 0.050919
O O11 0.264685 0.957372 0.614926
O O12 0.324605 0.604629 0.949546
O O13 0.500000 0.000000 0.000000
O O14 0.025321 0.297046 0.217253
O O15 0.000000 0.000000 0.500000
#
# Coordination Sequence:
#
# PCOD9088946 Si02
#       7
#     2   2   2   2   2   2   2
#     4  10  20  37  61  88 124 159 199 253 309 346
#     4  10  23  38  61  91 124 161 202 254 305 365
#     4  10  19  37  64  86 120 166 201 248 300 355
#     4  11  21  40  62  89 131 164 199 249 302 362
#     4   9  20  40  66  84 116 165 209 249 308 360
#     4  11  21  36  60  96 126 159 204 249 307 359
#     4  11  21  35  63  93 124 160 206 247 301 363
#
# _framework density 22.109088
#
# number of rings (size 3 to 8) (size 9 to 14) (size 15 to 20)
#    0.000    1.714    2.857    2.143    0.000    2.286 
#    2.571    5.714    3.143    0.000    0.000    0.000 
#    0.000    0.000    0.000    0.000    0.000    0.000 
#
# Total GULP energy -78076.987642 kJ/mol
# GULP energy per Si atom -5576.927689 kJ/mol
# Density = 2.205877 g / cm^3
# Si number density = 22.109088 Si / 1000 Ang^3
#
#
#
# Elastic Constant Matrix: (Units=GPa)
#
#
# Indices 1 2 3 4 5 6 
#
# 1 111.4469 35.5153 26.6959 1.8302 26.3161 12.5211
# 2 35.5153 94.3463 13.2740 0.9451 1.3916 -10.3291
# 3 26.6959 13.2740 60.7550 6.8646 30.4520 7.8805
# 4 1.8302 0.9451 6.8646 25.9688 5.5346 4.9877
# 5 26.3161 1.3916 30.4520 5.5346 33.9913 1.8071
# 6 12.5211 -10.3291 7.8805 4.9877 1.8071 35.0422
#
#
#
# Elastic Compliance Matrix: (Units=1/GPa)
#
#
# Indices 1 2 3 4 5 6 
#
# 1 0.014227 -0.006274 0.002108 0.002750 -0.012714 -0.007143
# 2 -0.006274 0.014516 -0.005948 -0.002011 0.009512 0.007654
# 3 0.002108 -0.005948 0.033410 -0.000601 -0.030778 -0.008347
# 4 0.002750 -0.002011 -0.000601 0.041566 -0.007907 -0.006949
# 5 -0.012714 0.009512 -0.030778 -0.007907 0.067100 0.011934
# 6 -0.007143 0.007654 -0.008347 -0.006949 0.011934 0.035596
#
#
# Mechanical properties :
#
#
# Convention : Reuss Voigt Hill
#
# Bulk Modulus (GPa) = 23.85240 46.39095 35.12168
# Shear Modulus (GPa) = 20.77986 31.73801 26.25893
#
# Velocity S-wave (km/s) = 3.06907 3.79293 3.45004
# Velocity P-wave (km/s) = 4.83434 6.34114 5.63830
#
# Compressibility (1/GPa) = 0.04192450
#
# Stress axis : x y z
#
# Youngs Moduli (GPa) = 70.28969 68.89119 29.93076
#
# Poissons Ratio (x) = 0.43223 -0.06309
# Poissons Ratio (y) = 0.44100 0.17803
# Poissons Ratio (z) = -0.14816 0.40976
#
# Static dielectric constant tensor:
#      x y z
#    x 1.932030 -0.256750 0.037690 
#    y -0.256750 2.509580 -0.096770 
#    z 0.037690 -0.096770 1.856870 
# 
# From -- ./inp_files/507821.got.cif
#   From: 2010.05.17/outbox.cif.g08.bks.cpg/sg2_254_cif.got.tgz:507821.got - 2010.06.03 11:33:40.
