data_PCOD9088066
_publ_section_title
;
Structure prediction by ZEFSAII (Michael W. Deem and Ramdas Pophale) SiO2 
 PCOD9088066
Probable space group: P -1
;
_chemical_formula_sum "Si O2"
_cell_formula_units_Z 16
_cell_length_a 8.231902
_cell_length_b 16.154575
_cell_length_c 8.197364
_cell_angle_alpha 128.973710
_cell_angle_beta 88.585788
_cell_angle_gamma 62.793688
_cell_volume 672.495147
_symmetry_space_group_name_H-M "P -1"
_symmetry_group_IT_number 2
_symmetry_cell_setting 'triclinic'
loop_
_space_group_symop_operation_xyz
x,y,z
-x,-y,-z
loop_
_atom_site_type_symbol
_atom_site_label
_atom_site_fract_x
_atom_site_fract_y
_atom_site_fract_z
Si Si1 0.276641 0.362952 0.157111
Si Si2 0.288554 0.027601 0.916416
Si Si3 0.024436 0.914267 0.240760
Si Si4 0.371283 0.637625 0.804324
Si Si5 0.961687 0.883343 0.664125
Si Si6 0.607218 0.260930 0.429595
Si Si7 0.810836 0.524188 0.347008
Si Si8 0.553446 0.044084 0.712586
O O1 0.402099 0.424556 0.209228
O O2 0.222679 0.386340 0.382297
O O3 0.048187 0.438816 0.182196
O O4 0.440411 0.204909 0.909987
O O5 0.362813 0.877712 0.758400
O O6 0.471199 0.032285 0.872601
O O7 0.166361 0.074832 0.805364
O O8 0.126931 0.127224 0.179632
O O9 0.060762 0.978926 0.165972
O O10 0.217599 0.765473 0.076608
O O11 0.000000 0.000000 0.500000
O O12 0.372127 0.688236 0.684042
O O13 0.263273 0.565732 0.714114
O O14 0.203750 0.770318 0.506567
O O15 0.797273 0.925635 0.581378
O O16 0.376926 0.369346 0.635362
O O17 0.500000 0.000000 0.500000
#
# Coordination Sequence:
#
# PCOD9088066 Si02
#       8
#     2   2   2   2   2   2   2   2
#     4  10  21  39  61  91 132 161 223 272 319 379
#     4  11  21  37  61  91 129 167 208 275 333 378
#     4  11  20  35  61  92 128 169 205 265 333 393
#     4  11  19  39  62  94 131 170 224 269 315 389
#     4  11  20  37  59  90 129 163 207 271 332 375
#     4  10  19  37  58  90 128 157 216 269 315 380
#     4  10  22  38  63  97 125 175 223 272 314 376
#     4  12  25  41  63  98 131 166 213 271 344 407
#
# _framework density 23.791995
#
# number of rings (size 3 to 8) (size 9 to 14) (size 15 to 20)
#    0.000    1.250    3.750    4.875    0.000    0.000 
#    4.500    0.000    0.000    7.500    0.000    0.000 
#    0.000    0.000    0.000    0.000    0.000    0.000 
#
# Total GULP energy -89094.386625 kJ/mol
# GULP energy per Si atom -5568.399164 kJ/mol
# Density = 2.373784 g / cm^3
# Si number density = 23.791995 Si / 1000 Ang^3
#
#
#
# Elastic Constant Matrix: (Units=GPa)
#
#
# Indices 1 2 3 4 5 6 
#
# 1 137.5506 53.5744 20.8921 12.5982 -13.7495 -43.6277
# 2 53.5744 58.8262 24.3692 8.7008 -12.0095 -33.0862
# 3 20.8921 24.3692 97.0891 12.6041 7.7585 -20.1760
# 4 12.5982 8.7008 12.6041 29.8571 -5.9918 -10.7872
# 5 -13.7495 -12.0095 7.7585 -5.9918 25.4151 6.0215
# 6 -43.6277 -33.0862 -20.1760 -10.7872 6.0215 57.5829
#
#
#
# Elastic Compliance Matrix: (Units=1/GPa)
#
#
# Indices 1 2 3 4 5 6 
#
# 1 0.011987 -0.008400 0.000424 -0.001081 0.001164 0.004079
# 2 -0.008400 0.035500 -0.006036 0.002147 0.011956 0.011070
# 3 0.000424 -0.006036 0.013355 -0.005202 -0.008263 0.001422
# 4 -0.001081 0.002147 -0.005202 0.039322 0.010127 0.004899
# 5 0.001164 0.011956 -0.008263 0.010127 0.050180 0.001507
# 6 0.004079 0.011070 0.001422 0.004899 0.001507 0.028076
#
#
# Mechanical properties :
#
#
# Convention : Reuss Voigt Hill
#
# Bulk Modulus (GPa) = 30.47283 54.57083 42.52183
# Shear Modulus (GPa) = 23.00094 35.54636 29.27365
#
# Velocity S-wave (km/s) = 3.11264 3.86948 3.51151
# Velocity P-wave (km/s) = 5.07482 6.55365 5.86106
#
# Compressibility (1/GPa) = 0.03281612
#
# Stress axis : x y z
#
# Youngs Moduli (GPa) = 83.42543 28.16922 74.87953
#
# Poissons Ratio (x) = 0.23663 -0.03176
# Poissons Ratio (y) = 0.70079 0.45201
# Poissons Ratio (z) = -0.03538 0.17004
#
# Static dielectric constant tensor:
#      x y z
#    x 1.622940 -0.069680 0.031170 
#    y -0.069680 1.952070 0.024800 
#    z 0.031170 0.024800 1.907600 
# 
# From -- ./inp_files/215849.got.cif
#   From: 2010.05.17/outbox.cif.g08.bks.cpg/sg2_108_cif.got.tgz:215849.got - 2010.06.03 11:33:40.
