data_PCOD9088008
_publ_section_title
;
Structure prediction by ZEFSAII (Michael W. Deem and Ramdas Pophale) SiO2 
 PCOD9088008
Probable space group: P -1
;
_chemical_formula_sum "Si O2"
_cell_formula_units_Z 14
_cell_length_a 15.528663
_cell_length_b 21.647524
_cell_length_c 5.472238
_cell_angle_alpha 91.443990
_cell_angle_beta 95.114793
_cell_angle_gamma 17.275567
_cell_volume 532.820890
_symmetry_space_group_name_H-M "P -1"
_symmetry_group_IT_number 2
_symmetry_cell_setting 'triclinic'
loop_
_space_group_symop_operation_xyz
x,y,z
-x,-y,-z
loop_
_atom_site_type_symbol
_atom_site_label
_atom_site_fract_x
_atom_site_fract_y
_atom_site_fract_z
Si Si1 0.182698 0.258209 0.652716
Si Si2 0.120759 0.871532 0.721003
Si Si3 0.517307 0.067365 0.220717
Si Si4 0.703347 0.438309 0.293059
Si Si5 0.734340 0.637822 0.852923
Si Si6 0.708392 0.390107 0.787229
Si Si7 0.544874 0.265266 0.839238
O O1 0.302141 0.194275 0.407926
O O2 0.868692 0.505979 0.651980
O O3 0.211323 0.165197 0.690219
O O4 0.391469 0.139201 0.921553
O O5 0.390523 0.642667 0.699837
O O6 0.275042 0.813353 0.939476
O O7 0.000000 0.000000 0.500000
O O8 0.815719 0.047598 0.745241
O O9 0.522559 0.137791 0.248697
O O10 0.847803 0.308773 0.553504
O O11 0.389412 0.613971 0.198789
O O12 0.645880 0.550379 0.321161
O O13 0.855194 0.319112 0.058319
O O14 0.641680 0.654491 0.042232
O O15 0.000000 0.500000 0.000000
#
# Coordination Sequence:
#
# PCOD9088008 Si02
#       7
#     2   2   2   2   2   2   2
#     4   9  18  36  61  85 118 160 202 253 302 351
#     4  10  19  37  58  83 116 155 195 250 298 358
#     4   9  18  36  61  86 118 159 203 251 300 359
#     4   9  17  32  52  82 108 148 189 240 288 351
#     4  10  21  40  61  91 124 164 204 253 303 367
#     4   9  17  31  56  77 111 145 189 240 294 344
#     4  10  21  37  58  85 119 156 200 242 303 357
#
# _framework density 26.275244000000001
#
# number of rings (size 3 to 8) (size 9 to 14) (size 15 to 20)
#    0.000    2.571    1.429    0.429    0.000    0.000 
#   12.857    0.000    0.000    0.000    0.000    0.000 
#    0.000    0.000    0.000    0.000    0.000    0.000 
#
# Total GULP energy -78192.698104 kJ/mol
# GULP energy per Si atom -5585.192722 kJ/mol
# Density = 2.621544 g / cm^3
# Si number density = 26.275244 Si / 1000 Ang^3
#
#
#
# Elastic Constant Matrix: (Units=GPa)
#
#
# Indices 1 2 3 4 5 6 
#
# 1 155.8803 48.2446 23.2054 3.2759 -22.6204 20.7271
# 2 48.2446 114.2787 18.6754 -18.0549 10.0472 21.5700
# 3 23.2054 18.6754 140.4182 -0.0072 -5.9762 -5.3214
# 4 3.2759 -18.0549 -0.0072 31.6420 13.0979 -6.8855
# 5 -22.6204 10.0472 -5.9762 13.0979 36.3958 1.1362
# 6 20.7271 21.5700 -5.3214 -6.8855 1.1362 48.5570
#
#
#
# Elastic Compliance Matrix: (Units=1/GPa)
#
#
# Indices 1 2 3 4 5 6 
#
# 1 0.011229 -0.006872 -0.000531 -0.011250 0.012952 -0.003697
# 2 -0.006872 0.015973 -0.001672 0.015407 -0.014442 -0.001823
# 3 -0.000531 -0.001672 0.007567 -0.001296 0.001791 0.001573
# 4 -0.011250 0.015407 -0.001296 0.056175 -0.031878 0.006528
# 5 0.012952 -0.014442 0.001791 -0.031878 0.051424 -0.004641
# 6 -0.003697 -0.001823 0.001573 0.006528 -0.004641 0.024189
#
#
# Mechanical properties :
#
#
# Convention : Reuss Voigt Hill
#
# Bulk Modulus (GPa) = 60.17023 65.64756 62.90889
# Shear Modulus (GPa) = 26.28186 44.68241 35.48213
#
# Velocity S-wave (km/s) = 3.16611 4.12825 3.67877
# Velocity P-wave (km/s) = 6.02622 6.91101 6.48372
#
# Compressibility (1/GPa) = 0.01661951
#
# Stress axis : x y z
#
# Youngs Moduli (GPa) = 89.05789 62.60685 132.14465
#
# Poissons Ratio (x) = 0.43023 0.07018
# Poissons Ratio (y) = 0.61200 0.22090
# Poissons Ratio (z) = 0.04730 0.10466
#
# Static dielectric constant tensor:
#      x y z
#    x 2.097120 0.071960 0.067180 
#    y 0.071960 2.199370 0.044160 
#    z 0.067180 0.044160 2.176550 
# 
# From -- ./inp_files/100558.got.cif
#   From: 2010.05.17/outbox.cif.g08.bks.cpg/sg2_51_cif.got.tgz:100558.got - 2010.06.03 11:33:40.
