data_PCOD9088920
_publ_section_title
;
Structure prediction by ZEFSAII (Michael W. Deem and Ramdas Pophale) SiO2 
 PCOD9088920
Probable space group: P -1
;
_chemical_formula_sum "Si O2"
_cell_formula_units_Z 14
_cell_length_a 11.015743
_cell_length_b 15.644404
_cell_length_c 12.115091
_cell_angle_alpha 141.065095
_cell_angle_beta 144.399432
_cell_angle_gamma 65.004259
_cell_volume 625.539384
_symmetry_space_group_name_H-M "P -1"
_symmetry_group_IT_number 2
_symmetry_cell_setting 'triclinic'
loop_
_space_group_symop_operation_xyz
x,y,z
-x,-y,-z
loop_
_atom_site_type_symbol
_atom_site_label
_atom_site_fract_x
_atom_site_fract_y
_atom_site_fract_z
Si Si1 0.413260 0.615697 0.456780
Si Si2 0.882999 0.247163 0.682458
Si Si3 0.907377 0.560121 0.351476
Si Si4 0.209657 0.957521 0.375149
Si Si5 0.230212 0.763023 0.996487
Si Si6 0.121659 0.215470 0.618723
Si Si7 0.410874 0.592185 0.681294
O O1 0.349256 0.732943 0.469717
O O2 0.490710 0.665678 0.690778
O O3 0.598310 0.575777 0.497811
O O4 0.142313 0.432382 0.075129
O O5 0.912088 0.185243 0.523060
O O6 0.859395 0.135636 0.653250
O O7 0.005145 0.661243 0.639456
O O8 0.149503 0.568081 0.490415
O O9 0.713635 0.366246 0.041106
O O10 0.834728 0.647355 0.298214
O O11 0.073151 0.052717 0.362858
O O12 0.514876 0.091914 0.728693
O O13 0.157807 0.838383 0.115464
O O14 0.374754 0.290263 0.954483
#
# Coordination Sequence:
#
# PCOD9088920 Si02
#       7
#     2   2   2   2   2   2   2
#     4   9  19  35  63 103 128 166 211 261 332 386
#     4  10  20  38  68  98 133 168 208 272 332 389
#     4  11  22  46  69  94 127 174 226 267 304 397
#     4  11  23  43  63 100 136 168 215 272 323 388
#     4  10  25  44  66  90 134 178 220 266 313 377
#     4  11  23  39  71  99 128 170 211 271 340 376
#     4  10  19  37  63  99 129 157 216 269 313 387
#
# _framework density 22.380686000000001
#
# number of rings (size 3 to 8) (size 9 to 14) (size 15 to 20)
#    0.000    1.714    2.857    1.286    4.000    1.143 
#    0.000    8.571    0.000    0.000    0.000    0.000 
#    0.000    0.000    0.000    0.000    0.000    0.000 
#
# Total GULP energy -78303.815419 kJ/mol
# GULP energy per Si atom -5593.129673 kJ/mol
# Density = 2.232975 g / cm^3
# Si number density = 22.380686 Si / 1000 Ang^3
#
#
#
# Elastic Constant Matrix: (Units=GPa)
#
#
# Indices 1 2 3 4 5 6 
#
# 1 72.8698 34.4833 35.0118 12.1202 -26.9689 4.6011
# 2 34.4833 108.3382 27.3141 8.0525 -10.2759 -8.2083
# 3 35.0118 27.3141 59.0806 10.6061 -17.5039 -1.0671
# 4 12.1202 8.0525 10.6061 25.7092 2.7216 6.3994
# 5 -26.9689 -10.2759 -17.5039 2.7216 40.4877 -1.0060
# 6 4.6011 -8.2083 -1.0671 6.3994 -1.0060 31.9312
#
#
#
# Elastic Compliance Matrix: (Units=1/GPa)
#
#
# Indices 1 2 3 4 5 6 
#
# 1 0.026330 -0.004717 -0.008054 -0.008226 0.013333 -0.003207
# 2 -0.004717 0.011666 -0.002668 -0.001148 -0.001164 0.003783
# 3 -0.008054 -0.002668 0.026048 -0.007480 0.005797 0.003027
# 4 -0.008226 -0.001148 -0.007480 0.049988 -0.012608 -0.009775
# 5 0.013333 -0.001164 0.005797 -0.012608 0.036679 0.001656
# 6 -0.003207 0.003783 0.003027 -0.009775 0.001656 0.034864
#
#
# Mechanical properties :
#
#
# Convention : Reuss Voigt Hill
#
# Bulk Modulus (GPa) = 30.15226 48.21189 39.18208
# Shear Modulus (GPa) = 21.97717 29.19090 25.58404
#
# Velocity S-wave (km/s) = 3.13704 3.61541 3.38469
# Velocity P-wave (km/s) = 5.15975 6.24634 5.72887
#
# Compressibility (1/GPa) = 0.03316501
#
# Stress axis : x y z
#
# Youngs Moduli (GPa) = 37.97942 85.71851 38.39135
#
# Poissons Ratio (x) = 0.40435 0.30919
# Poissons Ratio (y) = 0.17915 0.10245
# Poissons Ratio (z) = 0.30588 0.22874
#
# Static dielectric constant tensor:
#      x y z
#    x 1.854550 -0.019840 0.013610 
#    y -0.019840 1.799460 0.021020 
#    z 0.013610 0.021020 1.883630 
# 
# From -- ./inp_files/177005.got.cif
#   From: 2010.05.17/outbox.cif.g08.bks.cpg/sg2_89_cif.got.tgz:177005.got - 2010.06.03 11:33:40.
