data_PCOD9088545
_publ_section_title
;
Structure prediction by ZEFSAII (Michael W. Deem and Ramdas Pophale) SiO2 
 PCOD9088545
Probable space group: P -1
;
_chemical_formula_sum "Si O2"
_cell_formula_units_Z 16
_cell_length_a 8.672067
_cell_length_b 13.167466
_cell_length_c 17.163657
_cell_angle_alpha 57.976759
_cell_angle_beta 26.422015
_cell_angle_gamma 57.038322
_cell_volume 726.862236
_symmetry_space_group_name_H-M "P -1"
_symmetry_group_IT_number 2
_symmetry_cell_setting 'triclinic'
loop_
_space_group_symop_operation_xyz
x,y,z
-x,-y,-z
loop_
_atom_site_type_symbol
_atom_site_label
_atom_site_fract_x
_atom_site_fract_y
_atom_site_fract_z
Si Si1 0.780469 0.771651 0.213748
Si Si2 0.602473 0.765956 0.875236
Si Si3 0.532832 0.448937 0.596366
Si Si4 0.217977 0.981809 0.327138
Si Si5 0.733505 0.679184 0.429618
Si Si6 0.316639 0.313146 0.303130
Si Si7 0.488705 0.540832 0.079917
Si Si8 0.701880 0.874598 0.495662
O O1 0.731704 0.647287 0.241380
O O2 0.580123 0.757363 0.392073
O O3 0.587726 0.894150 0.211819
O O4 0.179129 0.782935 0.047874
O O5 0.728278 0.890357 0.785094
O O6 0.739728 0.726361 0.743519
O O7 0.694767 0.653056 0.938979
O O8 0.500000 0.500000 0.500000
O O9 0.509028 0.578029 0.598717
O O10 0.912347 0.372553 0.483189
O O11 0.000000 0.000000 0.500000
O O12 0.020288 0.910884 0.384510
O O13 0.798925 0.773535 0.426378
O O14 0.097407 0.600948 0.262784
O O15 0.554994 0.417210 0.149296
O O16 0.482282 0.198305 0.326557
O O17 0.500000 0.500000 0.000000
O O18 0.500000 0.000000 0.500000
#
# Coordination Sequence:
#
# PCOD9088545 Si02
#       8
#     2   2   2   2   2   2   2   2
#     4  10  19  37  61  96 120 161 212 270 319 379
#     4  10  20  36  64  94 124 160 214 269 319 377
#     4   9  17  34  62  95 119 153 210 270 312 377
#     4  12  22  39  62  90 122 174 225 261 308 384
#     4   9  20  35  61  94 128 162 209 265 319 374
#     4  10  19  38  62  90 124 169 213 264 318 376
#     4   8  17  35  62  93 118 156 204 264 324 373
#     4  12  25  40  60  93 134 175 219 263 314 378
#
# _framework density 22.012425
#
# number of rings (size 3 to 8) (size 9 to 14) (size 15 to 20)
#    0.000    2.000    2.500    1.875    0.000    3.000 
#    0.000    2.500    0.000    1.500    0.000    0.000 
#    0.000    0.000    0.000    0.000    0.000    0.000 
#
# Total GULP energy -89147.986620 kJ/mol
# GULP energy per Si atom -5571.749164 kJ/mol
# Density = 2.196232 g / cm^3
# Si number density = 22.012425 Si / 1000 Ang^3
#
#
#
# Elastic Constant Matrix: (Units=GPa)
#
#
# Indices 1 2 3 4 5 6 
#
# 1 52.1160 37.7376 16.7207 -6.3306 -1.9013 5.9908
# 2 37.7376 144.5398 49.4186 -49.1491 -0.1059 10.1872
# 3 16.7207 49.4186 76.1890 -19.6019 -6.7097 -0.3342
# 4 -6.3306 -49.1491 -19.6019 50.3068 -11.9887 2.6351
# 5 -1.9013 -0.1059 -6.7097 -11.9887 15.4867 -10.0586
# 6 5.9908 10.1872 -0.3342 2.6351 -10.0586 49.7472
#
#
#
# Elastic Compliance Matrix: (Units=1/GPa)
#
#
# Indices 1 2 3 4 5 6 
#
# 1 0.024797 -0.007573 -0.002469 -0.006109 -0.004074 -0.001952
# 2 -0.007573 0.015162 -0.003842 0.014252 0.007610 -0.001435
# 3 -0.002469 -0.003842 0.019476 0.007212 0.016384 0.004146
# 4 -0.006109 0.014252 0.007212 0.045113 0.039666 0.003496
# 5 -0.004074 0.007610 0.016384 0.039666 0.115051 0.020204
# 6 -0.001952 -0.001435 0.004146 0.003496 0.020204 0.024558
#
#
# Mechanical properties :
#
#
# Convention : Reuss Voigt Hill
#
# Bulk Modulus (GPa) = 31.57821 53.39986 42.48904
# Shear Modulus (GPa) = 17.70027 34.37266 26.03647
#
# Velocity S-wave (km/s) = 2.83875 3.95588 3.44293
# Velocity P-wave (km/s) = 5.01213 6.72138 5.92868
#
# Compressibility (1/GPa) = 0.03166740
#
# Stress axis : x y z
#
# Youngs Moduli (GPa) = 40.32691 65.95341 51.34592
#
# Poissons Ratio (x) = 0.49944 0.12679
# Poissons Ratio (y) = 0.30538 0.19728
# Poissons Ratio (z) = 0.09958 0.25340
#
# Static dielectric constant tensor:
#      x y z
#    x 1.814780 -0.018220 0.032320 
#    y -0.018220 1.898560 0.002520 
#    z 0.032320 0.002520 1.833460 
# 
# From -- ./inp_files/272824.got.cif
#   From: 2010.05.17/outbox.cif.g08.bks.cpg/sg2_137_cif.got.tgz:272824.got - 2010.06.03 11:33:40.
