data_PCOD9088155
_publ_section_title
;
Structure prediction by ZEFSAII (Michael W. Deem and Ramdas Pophale) SiO2 
 PCOD9088155
Probable space group: P -1
;
_chemical_formula_sum "Si O2"
_cell_formula_units_Z 14
_cell_length_a 14.461882
_cell_length_b 13.189355
_cell_length_c 5.187736
_cell_angle_alpha 60.804443
_cell_angle_beta 78.660259
_cell_angle_gamma 43.365297
_cell_volume 572.161220
_symmetry_space_group_name_H-M "P -1"
_symmetry_group_IT_number 2
_symmetry_cell_setting 'triclinic'
loop_
_space_group_symop_operation_xyz
x,y,z
-x,-y,-z
loop_
_atom_site_type_symbol
_atom_site_label
_atom_site_fract_x
_atom_site_fract_y
_atom_site_fract_z
Si Si1 0.834938 0.128782 0.208309
Si Si2 0.788928 0.987736 0.802621
Si Si3 0.477850 0.274211 0.619633
Si Si4 0.961896 0.638736 0.033995
Si Si5 0.187368 0.432504 0.569269
Si Si6 0.045165 0.780650 0.280153
Si Si7 0.530295 0.360277 0.975955
O O1 0.789880 0.117033 0.523750
O O2 0.860280 0.236241 0.961817
O O3 0.697242 0.212960 0.021509
O O4 0.985369 0.931333 0.321526
O O5 0.633711 0.088977 0.822412
O O6 0.864489 0.831615 0.751348
O O7 0.902056 0.874652 0.103201
O O8 0.350673 0.301627 0.670710
O O9 0.460039 0.394473 0.695591
O O10 0.486870 0.302835 0.279286
O O11 0.860077 0.656372 0.257337
O O12 0.106369 0.540446 0.216941
O O13 0.000000 0.500000 0.000000
O O14 0.122200 0.597725 0.572760
O O15 0.500000 0.500000 0.000000
#
# Coordination Sequence:
#
# PCOD9088155 Si02
#       7
#     2   2   2   2   2   2   2
#     4  10  20  35  60  90 121 167 210 254 315 379
#     4  10  21  39  61  88 127 166 210 268 316 382
#     4  11  24  42  64  95 129 171 216 264 324 387
#     4  10  22  42  66  91 123 163 217 271 325 379
#     4  10  23  40  63  93 122 166 215 265 324 380
#     4  10  19  37  59  87 125 162 210 258 312 380
#     4  11  23  41  63  93 136 174 214 262 318 384
#
# _framework density 24.468627000000001
#
# number of rings (size 3 to 8) (size 9 to 14) (size 15 to 20)
#    0.000    1.714    1.429    2.571    2.000    0.571 
#    5.143    0.714    0.000    0.000    0.000    0.000 
#    0.000    0.000    0.000    0.000    0.000    0.000 
#
# Total GULP energy -77983.680912 kJ/mol
# GULP energy per Si atom -5570.262922 kJ/mol
# Density = 2.441294 g / cm^3
# Si number density = 24.468627 Si / 1000 Ang^3
#
#
#
# Elastic Constant Matrix: (Units=GPa)
#
#
# Indices 1 2 3 4 5 6 
#
# 1 140.4665 23.7569 35.0327 -3.7648 17.3029 -27.7123
# 2 23.7569 69.8909 11.4777 3.2716 17.8669 -9.0814
# 3 35.0327 11.4777 74.3450 9.0356 -4.0470 -13.1173
# 4 -3.7648 3.2716 9.0356 26.8868 0.0622 5.4518
# 5 17.3029 17.8669 -4.0470 0.0622 37.6166 -13.9410
# 6 -27.7123 -9.0814 -13.1173 5.4518 -13.9410 38.1324
#
#
#
# Elastic Compliance Matrix: (Units=1/GPa)
#
#
# Indices 1 2 3 4 5 6 
#
# 1 0.009514 -0.001496 -0.003948 0.002047 -0.002632 0.003945
# 2 -0.001496 0.017221 -0.002293 -0.001422 -0.007907 -0.000462
# 3 -0.003948 -0.002293 0.018173 -0.007741 0.007327 0.006622
# 4 0.002047 -0.001422 -0.007741 0.042133 -0.004583 -0.009213
# 5 -0.002632 -0.007907 0.007327 -0.004583 0.037150 0.012962
# 6 0.003945 -0.000462 0.006622 -0.009213 0.012962 0.037315
#
#
# Mechanical properties :
#
#
# Convention : Reuss Voigt Hill
#
# Bulk Modulus (GPa) = 33.97417 47.24857 40.61137
# Shear Modulus (GPa) = 26.76777 34.82282 30.79529
#
# Velocity S-wave (km/s) = 3.31110 3.77657 3.55147
# Velocity P-wave (km/s) = 5.34161 6.19423 5.78365
#
# Compressibility (1/GPa) = 0.02943412
#
# Stress axis : x y z
#
# Youngs Moduli (GPa) = 105.10531 58.06889 55.02591
#
# Poissons Ratio (x) = 0.08687 0.21726
# Poissons Ratio (y) = 0.15724 0.12616
# Poissons Ratio (z) = 0.41500 0.13314
#
# Static dielectric constant tensor:
#      x y z
#    x 2.050640 0.153520 -0.040280 
#    y 0.153520 2.299810 0.142900 
#    z -0.040280 0.142900 2.005520 
# 
# From -- ./inp_files/45385.got.cif
#   From: 2010.05.17/outbox.cif.g08.bks.cpg/sg2_23_cif.got.tgz:45385.got - 2010.06.03 11:33:40.
