data_PCOD9088402
_publ_section_title
;
Structure prediction by ZEFSAII (Michael W. Deem and Ramdas Pophale) SiO2 
 PCOD9088402
Probable space group: P -1
;
_chemical_formula_sum "Si O2"
_cell_formula_units_Z 16
_cell_length_a 11.643574
_cell_length_b 17.866013
_cell_length_c 17.329806
_cell_angle_alpha 27.347716
_cell_angle_beta 150.304925
_cell_angle_gamma 150.108207
_cell_volume 744.874103
_symmetry_space_group_name_H-M "P -1"
_symmetry_group_IT_number 2
_symmetry_cell_setting 'triclinic'
loop_
_space_group_symop_operation_xyz
x,y,z
-x,-y,-z
loop_
_atom_site_type_symbol
_atom_site_label
_atom_site_fract_x
_atom_site_fract_y
_atom_site_fract_z
Si Si1 0.948081 0.329429 0.500524
Si Si2 0.743747 0.501234 0.686257
Si Si3 0.783461 0.151296 0.417258
Si Si4 0.453966 0.789031 0.487959
Si Si5 0.968819 0.651035 0.104559
Si Si6 0.971196 0.149076 0.902130
Si Si7 0.472787 0.619919 0.998513
Si Si8 0.473965 0.540664 0.235329
O O1 0.838910 0.165576 0.526976
O O2 0.752884 0.298016 0.484897
O O3 0.979389 0.502656 0.308384
O O4 0.224388 0.351125 0.669862
O O5 0.500000 0.500000 0.500000
O O6 0.679475 0.472124 0.765099
O O7 0.975228 0.693844 0.625990
O O8 0.826916 0.351089 0.837043
O O9 0.690907 0.957010 0.506174
O O10 0.559510 0.217860 0.211727
O O11 0.543405 0.650545 0.627841
O O12 0.293405 0.847303 0.279884
O O13 0.018812 0.830369 0.017261
O O14 0.696939 0.557282 0.987138
O O15 0.228608 0.326257 0.870947
O O16 0.000000 0.000000 0.000000
O O17 0.384100 0.612190 0.042065
#
# Coordination Sequence:
#
# PCOD9088402 Si02
#       8
#     2   2   2   2   2   2   2   2
#     4  10  19  37  61  84 119 153 202 242 292 355
#     4  10  19  40  66  85 115 162 208 242 284 358
#     4  10  23  39  58  89 123 160 193 247 306 355
#     4  12  22  36  58  97 123 147 198 259 300 349
#     4  10  22  39  60  87 117 160 209 237 292 363
#     4  12  21  36  60  88 124 159 188 246 316 354
#     4  10  22  38  59  90 118 159 204 240 298 354
#     4  12  21  37  66  90 114 162 210 243 285 352
#
# _framework density 21.480139999999999
#
# number of rings (size 3 to 8) (size 9 to 14) (size 15 to 20)
#    0.000    1.500    6.250    1.875    0.000    3.500 
#    2.250    0.000    0.000    0.750    0.000    0.000 
#    0.000    0.000    0.000    0.000    0.000    0.000 
#
# Total GULP energy -89313.065022 kJ/mol
# GULP energy per Si atom -5582.066564 kJ/mol
# Density = 2.143125 g / cm^3
# Si number density = 21.480140 Si / 1000 Ang^3
#
#
#
# Elastic Constant Matrix: (Units=GPa)
#
#
# Indices 1 2 3 4 5 6 
#
# 1 168.0381 40.9313 16.1497 -3.5662 11.8767 -32.5589
# 2 40.9313 112.6203 26.3503 11.3851 13.7502 -40.4457
# 3 16.1497 26.3503 34.4090 5.2466 0.0728 -16.9136
# 4 -3.5662 11.3851 5.2466 18.5746 -5.0936 0.3578
# 5 11.8767 13.7502 0.0728 -5.0936 24.9500 4.2550
# 6 -32.5589 -40.4457 -16.9136 0.3578 4.2550 45.0220
#
#
#
# Elastic Compliance Matrix: (Units=1/GPa)
#
#
# Indices 1 2 3 4 5 6 
#
# 1 0.007405 -0.000087 -0.000825 0.000424 -0.004304 0.005371
# 2 -0.000087 0.020299 -0.003825 -0.016584 -0.017682 0.018539
# 3 -0.000825 -0.003825 0.039182 -0.009476 -0.001406 0.010895
# 4 0.000424 -0.016584 -0.009476 0.074819 0.027886 -0.021382
# 5 -0.004304 -0.017682 -0.001406 0.027886 0.061936 -0.025601
# 6 0.005371 0.018539 0.010895 -0.021382 -0.025601 0.049432
#
#
# Mechanical properties :
#
#
# Convention : Reuss Voigt Hill
#
# Bulk Modulus (GPa) = 17.41782 53.54777 35.48280
# Shear Modulus (GPa) = 17.75024 33.15173 25.45099
#
# Velocity S-wave (km/s) = 2.87776 3.93283 3.44592
# Velocity P-wave (km/s) = 4.37817 6.75322 5.69097
#
# Compressibility (1/GPa) = 0.05741248
#
# Stress axis : x y z
#
# Youngs Moduli (GPa) = 135.03790 49.26249 25.52189
#
# Poissons Ratio (x) = 0.00429 0.02104
# Poissons Ratio (y) = 0.01176 0.09763
# Poissons Ratio (z) = 0.11135 0.18845
#
# Static dielectric constant tensor:
#      x y z
#    x 1.820460 -0.018850 -0.003690 
#    y -0.018850 1.804490 -0.008190 
#    z -0.003690 -0.008190 1.816970 
# 
# From -- ./inp_files/225730.got.cif
#   From: 2010.05.17/outbox.cif.g08.bks.cpg/sg2_113_cif.got.tgz:225730.got - 2010.06.03 11:33:40.
