data_PCOD9088753
_publ_section_title
;
Structure prediction by ZEFSAII (Michael W. Deem and Ramdas Pophale) SiO2 
 PCOD9088753
Probable space group: P -1
;
_chemical_formula_sum "Si O2"
_cell_formula_units_Z 10
_cell_length_a 8.652836
_cell_length_b 11.368076
_cell_length_c 13.295027
_cell_angle_alpha 30.987627
_cell_angle_beta 122.298743
_cell_angle_gamma 138.736995
_cell_volume 420.081698
_symmetry_space_group_name_H-M "P -1"
_symmetry_group_IT_number 2
_symmetry_cell_setting 'triclinic'
loop_
_space_group_symop_operation_xyz
x,y,z
-x,-y,-z
loop_
_atom_site_type_symbol
_atom_site_label
_atom_site_fract_x
_atom_site_fract_y
_atom_site_fract_z
Si Si1 0.601790 0.134320 0.549479
Si Si2 0.045593 0.227627 0.698639
Si Si3 0.152952 0.829592 0.949183
Si Si4 0.704526 0.427513 0.674492
Si Si5 0.815656 0.991476 0.375845
O O1 0.794489 0.512839 0.349083
O O2 0.364762 0.996325 0.635730
O O3 0.759138 0.062161 0.709522
O O4 0.500000 0.000000 0.500000
O O5 0.086669 0.991244 0.877043
O O6 0.156038 0.429508 0.486199
O O7 0.443539 0.080147 0.834899
O O8 0.038192 0.778721 0.836891
O O9 0.126621 0.575357 0.187498
O O10 0.651789 0.638566 0.538439
O O11 0.000000 0.000000 0.500000
#
# Coordination Sequence:
#
# PCOD9088753 Si02
#       5
#     2   2   2   2   2
#     4  11  21  36  58  86 119 158 190 230 295 349
#     4  10  20  39  61  83 120 152 191 242 288 348
#     4  10  19  37  63  85 109 148 198 242 285 339
#     4  10  19  37  63  85 109 148 198 242 285 339
#     4  11  21  38  61  85 117 149 193 245 285 343
#
# _framework density 23.804891999999999
#
# number of rings (size 3 to 8) (size 9 to 14) (size 15 to 20)
#    0.000    1.600    4.000    3.600    0.000    0.800 
#    0.000    6.000    0.000    8.400    0.000    0.000 
#    0.000    0.000    0.000    0.000    0.000    0.000 
#
# Total GULP energy -55840.990339 kJ/mol
# GULP energy per Si atom -5584.099034 kJ/mol
# Density = 2.375071 g / cm^3
# Si number density = 23.804892 Si / 1000 Ang^3
#
#
#
# Elastic Constant Matrix: (Units=GPa)
#
#
# Indices 1 2 3 4 5 6 
#
# 1 136.8250 42.3881 27.1991 2.1444 29.2081 -1.6678
# 2 42.3881 132.7707 25.6255 19.0328 3.8633 -5.2801
# 3 27.1991 25.6255 117.3437 20.6626 22.3975 -11.5949
# 4 2.1444 19.0328 20.6626 34.1527 1.9197 2.0321
# 5 29.2081 3.8633 22.3975 1.9197 29.6349 2.7484
# 6 -1.6678 -5.2801 -11.5949 2.0321 2.7484 46.6175
#
#
#
# Elastic Compliance Matrix: (Units=1/GPa)
#
#
# Indices 1 2 3 4 5 6 
#
# 1 0.010439 -0.003259 -0.000058 0.001726 -0.009979 0.000503
# 2 -0.003259 0.009367 -0.000964 -0.004642 0.002952 0.000733
# 3 -0.000058 -0.000964 0.011896 -0.006382 -0.008733 0.003641
# 4 0.001726 -0.004642 -0.006382 0.035742 0.001756 -0.003713
# 5 -0.009979 0.002952 -0.008733 0.001756 0.050165 -0.005229
# 6 0.000503 0.000733 0.003641 -0.003713 -0.005229 0.022928
#
#
# Mechanical properties :
#
#
# Convention : Reuss Voigt Hill
#
# Bulk Modulus (GPa) = 43.21241 64.15165 53.68203
# Shear Modulus (GPa) = 31.88546 41.52946 36.70746
#
# Velocity S-wave (km/s) = 3.66382 4.18134 3.93111
# Velocity P-wave (km/s) = 6.00752 7.09359 6.57302
#
# Compressibility (1/GPa) = 0.02314150
#
# Stress axis : x y z
#
# Youngs Moduli (GPa) = 95.79646 106.75979 84.06045
#
# Poissons Ratio (x) = 0.34789 0.00485
# Poissons Ratio (y) = 0.31217 0.08102
# Poissons Ratio (z) = 0.00552 0.10290
#
# Static dielectric constant tensor:
#      x y z
#    x 1.906500 -0.052930 0.006420 
#    y -0.052930 2.159050 0.013290 
#    z 0.006420 0.013290 1.916240 
# 
# From -- ./inp_files/152315.got.cif
#   From: 2010.05.17/outbox.cif.g08.bks.cpg/sg2_77_cif.got.tgz:152315.got - 2010.06.03 11:33:40.
