data_PCOD9088970
_publ_section_title
;
Structure prediction by ZEFSAII (Michael W. Deem and Ramdas Pophale) SiO2 
 PCOD9088970
Probable space group: P -1
;
_chemical_formula_sum "Si O2"
_cell_formula_units_Z 16
_cell_length_a 10.223185
_cell_length_b 14.501768
_cell_length_c 16.692240
_cell_angle_alpha 146.556390
_cell_angle_beta 37.131298
_cell_angle_gamma 143.221336
_cell_volume 751.669112
_symmetry_space_group_name_H-M "P -1"
_symmetry_group_IT_number 2
_symmetry_cell_setting 'triclinic'
loop_
_space_group_symop_operation_xyz
x,y,z
-x,-y,-z
loop_
_atom_site_type_symbol
_atom_site_label
_atom_site_fract_x
_atom_site_fract_y
_atom_site_fract_z
Si Si1 0.433356 0.408442 0.264326
Si Si2 0.393312 0.619876 0.090265
Si Si3 0.887062 0.038865 0.702326
Si Si4 0.310108 0.950917 0.362917
Si Si5 0.837225 0.809639 0.897992
Si Si6 0.554941 0.334974 0.317422
Si Si7 0.126758 0.404405 0.923766
Si Si8 0.764850 0.318842 0.363690
O O1 0.262467 0.221882 0.167286
O O2 0.586339 0.372647 0.235075
O O3 0.618069 0.541681 0.205963
O O4 0.286244 0.515367 0.452973
O O5 0.330470 0.780037 0.274437
O O6 0.500000 0.500000 0.000000
O O7 0.601336 0.735502 0.011588
O O8 0.175408 0.483668 0.045996
O O9 0.678484 0.851325 0.694041
O O10 0.114988 0.005339 0.539145
O O11 0.792154 0.108537 0.720597
O O12 0.971044 0.190065 0.839084
O O13 0.555190 0.129878 0.361583
O O14 0.985227 0.684239 0.739751
O O15 0.000000 0.000000 0.000000
O O16 0.500000 0.500000 0.500000
O O17 0.741362 0.320150 0.279305
O O18 0.000000 0.500000 0.000000
#
# Coordination Sequence:
#
# PCOD9088970 Si02
#       8
#     2   2   2   2   2   2   2   2
#     4  10  22  39  59  91 119 153 202 252 296 354
#     4  11  25  40  57  89 126 157 200 251 301 353
#     4  10  20  37  66  91 115 160 200 248 302 352
#     4  10  19  37  64  89 117 156 203 242 297 365
#     4  11  23  39  61  81 119 166 196 238 304 361
#     4   9  21  36  61  96 119 142 201 257 294 346
#     4  11  22  39  63  87 122 160 202 246 305 362
#     4  10  19  39  63  84 117 160 202 240 295 360
#
# _framework density 21.285962999999999
#
# number of rings (size 3 to 8) (size 9 to 14) (size 15 to 20)
#    0.000    1.750    3.750    0.375    1.750    4.000 
#    0.000    1.875    0.000    0.000    0.000    0.000 
#    0.000    0.000    0.000    0.000    0.000    0.000 
#
# Total GULP energy -89287.032509 kJ/mol
# GULP energy per Si atom -5580.439532 kJ/mol
# Density = 2.123751 g / cm^3
# Si number density = 21.285963 Si / 1000 Ang^3
#
#
#
# Elastic Constant Matrix: (Units=GPa)
#
#
# Indices 1 2 3 4 5 6 
#
# 1 91.4212 5.9510 21.4830 19.7451 3.0888 8.4164
# 2 5.9510 43.9014 20.1808 22.2739 13.9964 11.2590
# 3 21.4830 20.1808 70.9946 15.9348 -2.9241 7.2375
# 4 19.7451 22.2739 15.9348 40.6928 10.9326 -0.2489
# 5 3.0888 13.9964 -2.9241 10.9326 37.9390 6.4732
# 6 8.4164 11.2590 7.2375 -0.2489 6.4732 29.4787
#
#
#
# Elastic Compliance Matrix: (Units=1/GPa)
#
#
# Indices 1 2 3 4 5 6 
#
# 1 0.013591 0.005075 -0.003208 -0.008145 -0.000009 -0.005098
# 2 0.005075 0.042323 -0.007913 -0.020364 -0.008379 -0.014003
# 3 -0.003208 -0.007913 0.018373 -0.002860 0.005737 -0.001857
# 4 -0.008145 -0.020364 -0.002860 0.042608 -0.006470 0.012586
# 5 -0.000009 -0.008379 0.005737 -0.006470 0.032684 -0.005437
# 6 -0.005098 -0.014003 -0.001857 0.012586 -0.005437 0.042483
#
#
# Mechanical properties :
#
#
# Convention : Reuss Voigt Hill
#
# Bulk Modulus (GPa) = 16.07855 33.50520 24.79188
# Shear Modulus (GPa) = 22.23363 32.20226 27.21795
#
# Velocity S-wave (km/s) = 3.23541 3.89374 3.57974
# Velocity P-wave (km/s) = 4.63974 5.99914 5.36269
#
# Compressibility (1/GPa) = 0.06219466
#
# Stress axis : x y z
#
# Youngs Moduli (GPa) = 73.58044 23.62804 54.42760
#
# Poissons Ratio (x) = -0.11991 0.17459
# Poissons Ratio (y) = -0.37342 0.43069
# Poissons Ratio (z) = 0.23602 0.18697
#
# Static dielectric constant tensor:
#      x y z
#    x 1.808330 -0.013780 0.000510 
#    y -0.013780 1.763360 0.016620 
#    z 0.000510 0.016620 1.818910 
# 
# From -- ./inp_files/186838.got.cif
#   From: 2010.05.17/outbox.cif.g08.bks.cpg/sg2_94_cif.got.tgz:186838.got - 2010.06.03 11:33:40.
