data_PCOD9088988
_publ_section_title
;
Structure prediction by ZEFSAII (Michael W. Deem and Ramdas Pophale) SiO2 
 PCOD9088988
Probable space group: P -1
;
_chemical_formula_sum "Si O2"
_cell_formula_units_Z 16
_cell_length_a 9.260038
_cell_length_b 21.206228
_cell_length_c 22.126306
_cell_angle_alpha 26.124438
_cell_angle_beta 24.723174
_cell_angle_gamma 26.757276
_cell_volume 726.097051
_symmetry_space_group_name_H-M "P -1"
_symmetry_group_IT_number 2
_symmetry_cell_setting 'triclinic'
loop_
_space_group_symop_operation_xyz
x,y,z
-x,-y,-z
loop_
_atom_site_type_symbol
_atom_site_label
_atom_site_fract_x
_atom_site_fract_y
_atom_site_fract_z
Si Si1 0.283323 0.286764 0.183672
Si Si2 0.307038 0.823422 0.522663
Si Si3 0.170522 0.430642 0.808036
Si Si4 0.404872 0.849727 0.037861
Si Si5 0.293260 0.164001 0.757831
Si Si6 0.828488 0.378340 0.523259
Si Si7 0.865720 0.928067 0.286559
Si Si8 0.875869 0.396648 0.819708
O O1 0.923188 0.281683 0.289985
O O2 0.118189 0.399161 0.207057
O O3 0.566024 0.108618 0.250485
O O4 0.513610 0.356818 0.994404
O O5 0.452784 0.799239 0.419156
O O6 0.657197 0.823445 0.427731
O O7 0.000000 0.000000 0.500000
O O8 0.240823 0.306392 0.942032
O O9 0.590364 0.417990 0.642581
O O10 0.017354 0.381264 0.848507
O O11 0.102193 0.815363 0.141948
O O12 0.176547 0.925533 0.121731
O O13 0.495116 0.980508 0.857241
O O14 0.178730 0.272359 0.766568
O O15 0.500000 0.500000 0.500000
O O16 0.935468 0.192643 0.630453
O O17 0.160828 0.435396 0.335977
#
# Coordination Sequence:
#
# PCOD9088988 Si02
#       8
#     2   2   2   2   2   2   2   2
#     4  11  21  39  59  88 125 168 198 247 313 365
#     4   9  20  36  62  89 125 160 199 252 311 366
#     4  10  22  40  61  88 128 164 203 252 311 362
#     4   9  19  37  63  91 117 157 210 257 298 363
#     4  10  19  37  64  91 119 156 213 254 298 365
#     4   9  20  40  60  85 117 157 208 254 289 359
#     4   9  18  39  63  86 121 163 200 249 312 369
#     4  11  22  38  63  89 127 160 206 255 297 365
#
# _framework density 22.035620000000002
#
# number of rings (size 3 to 8) (size 9 to 14) (size 15 to 20)
#    0.000    2.250    1.250    1.125    1.750    1.500 
#    6.750    7.500    0.000    0.000    0.000    0.000 
#    0.000    0.000    0.000    0.000    0.000    0.000 
#
# Total GULP energy -89184.866093 kJ/mol
# GULP energy per Si atom -5574.054131 kJ/mol
# Density = 2.198547 g / cm^3
# Si number density = 22.035620 Si / 1000 Ang^3
#
#
#
# Elastic Constant Matrix: (Units=GPa)
#
#
# Indices 1 2 3 4 5 6 
#
# 1 30.1100 19.6462 -1.3558 -7.3724 9.6862 9.8808
# 2 19.6462 114.2772 10.6932 -6.1116 5.1899 7.1173
# 3 -1.3558 10.6932 104.7376 6.3835 -1.5683 -3.1977
# 4 -7.3724 -6.1116 6.3835 28.2548 -11.6910 3.5844
# 5 9.6862 5.1899 -1.5683 -11.6910 22.2924 -9.8398
# 6 9.8808 7.1173 -3.1977 3.5844 -9.8398 25.4961
#
#
#
# Elastic Compliance Matrix: (Units=1/GPa)
#
#
# Indices 1 2 3 4 5 6 
#
# 1 0.065587 -0.006542 -0.000566 0.003025 -0.043464 -0.040862
# 2 -0.006542 0.010016 -0.001169 0.001136 0.000933 -0.000207
# 3 -0.000566 -0.001169 0.009907 -0.002548 0.000996 0.002531
# 4 0.003025 0.001136 -0.002548 0.046361 0.022756 0.000456
# 5 -0.043464 0.000933 0.000996 0.022756 0.098227 0.051419
# 6 -0.040862 -0.000207 0.002531 0.000456 0.051419 0.075213
#
#
# Mechanical properties :
#
#
# Convention : Reuss Voigt Hill
#
# Bulk Modulus (GPa) = 14.50187 34.12133 24.31160
# Shear Modulus (GPa) = 14.49908 29.88474 22.19191
#
# Velocity S-wave (km/s) = 2.56790 3.68666 3.17692
# Velocity P-wave (km/s) = 3.92270 5.80002 4.95115
#
# Compressibility (1/GPa) = 0.06895664
#
# Stress axis : x y z
#
# Youngs Moduli (GPa) = 15.24698 99.84055 100.93738
#
# Poissons Ratio (x) = 0.65315 0.05712
# Poissons Ratio (y) = 0.09974 0.11798
# Poissons Ratio (z) = 0.00863 0.11670
#
# Static dielectric constant tensor:
#      x y z
#    x 1.943080 -0.064270 -0.036520 
#    y -0.064270 1.831460 -0.010290 
#    z -0.036520 -0.010290 1.868390 
# 
# From -- ./inp_files/591209.got.cif
#   From: 2010.05.17/outbox.cif.g08.bks.cpg/sg2_296_cif.got.tgz:591209.got - 2010.06.03 11:33:40.
