data_PCOD9088701
_publ_section_title
;
Structure prediction by ZEFSAII (Michael W. Deem and Ramdas Pophale) SiO2 
 PCOD9088701
Probable space group: P -1
;
_chemical_formula_sum "Si O2"
_cell_formula_units_Z 16
_cell_length_a 15.384446
_cell_length_b 11.585317
_cell_length_c 7.483883
_cell_angle_alpha 113.679985
_cell_angle_beta 79.486446
_cell_angle_gamma 45.564937
_cell_volume 615.101067
_symmetry_space_group_name_H-M "P -1"
_symmetry_group_IT_number 2
_symmetry_cell_setting 'triclinic'
loop_
_space_group_symop_operation_xyz
x,y,z
-x,-y,-z
loop_
_atom_site_type_symbol
_atom_site_label
_atom_site_fract_x
_atom_site_fract_y
_atom_site_fract_z
Si Si1 0.142503 0.777672 0.058504
Si Si2 0.890079 0.454404 0.973988
Si Si3 0.607879 0.926326 0.576804
Si Si4 0.706434 0.742496 0.864758
Si Si5 0.475041 0.540410 0.748392
Si Si6 0.295181 0.947375 0.561298
Si Si7 0.269703 0.011803 0.026441
Si Si8 0.926000 0.258808 0.327984
O O1 0.317160 0.642470 0.919631
O O2 0.118506 0.749413 0.850122
O O3 0.154466 0.638472 0.084666
O O4 0.986760 0.068853 0.314051
O O5 0.825553 0.601956 0.912687
O O6 0.794273 0.634635 0.291526
O O7 0.093272 0.208469 0.767936
O O8 0.500000 0.000000 0.500000
O O9 0.616999 0.061789 0.609377
O O10 0.489303 0.030363 0.850040
O O11 0.750166 0.820748 0.799651
O O12 0.770404 0.536540 0.620915
O O13 0.500000 0.500000 0.500000
O O14 0.639145 0.276968 0.617733
O O15 0.411043 0.760926 0.929834
O O16 0.328943 0.943615 0.753717
O O17 0.094344 0.144234 0.179218
#
# Coordination Sequence:
#
# PCOD9088701 Si02
#       8
#     2   2   2   2   2   2   2   2
#     4  10  21  40  66  90 119 166 219 256 307 382
#     4  11  22  36  67  93 124 168 212 257 307 380
#     4  10  20  35  59  92 127 167 204 253 314 373
#     4  11  23  39  64  96 134 163 200 266 322 370
#     4   9  20  33  63  91 119 161 213 258 300 360
#     4  11  19  37  62  94 121 167 224 251 297 374
#     4  10  19  37  62  94 125 169 207 257 311 374
#     4  10  22  40  64  96 127 163 211 262 316 371
#
# _framework density 26.011983000000001
#
# number of rings (size 3 to 8) (size 9 to 14) (size 15 to 20)
#    0.000    1.750    3.750    2.250    3.500    0.500 
#    0.000    0.625    8.250    3.750    0.000    0.000 
#    0.000    0.000    0.000    0.000    0.000    0.000 
#
# Total GULP energy -89641.103986 kJ/mol
# GULP energy per Si atom -5602.568999 kJ/mol
# Density = 2.595278 g / cm^3
# Si number density = 26.011983 Si / 1000 Ang^3
#
#
#
# Elastic Constant Matrix: (Units=GPa)
#
#
# Indices 1 2 3 4 5 6 
#
# 1 80.4349 56.9960 54.9340 11.7871 7.9769 24.2417
# 2 56.9960 122.8796 38.8426 32.1705 -2.6282 39.8111
# 3 54.9340 38.8426 118.2414 24.1792 15.4905 11.9513
# 4 11.7871 32.1705 24.1792 50.2902 2.5427 6.1435
# 5 7.9769 -2.6282 15.4905 2.5427 37.8299 7.1446
# 6 24.2417 39.8111 11.9513 6.1435 7.1446 51.4551
#
#
#
# Elastic Compliance Matrix: (Units=1/GPa)
#
#
# Indices 1 2 3 4 5 6 
#
# 1 0.025888 -0.009381 -0.009376 0.004918 -0.002022 -0.003067
# 2 -0.009381 0.017567 0.000542 -0.008463 0.005248 -0.009016
# 3 -0.009376 0.000542 0.013933 -0.004888 -0.003714 0.001861
# 4 0.004918 -0.008463 -0.004888 0.026286 -0.001860 0.002486
# 5 -0.002022 0.005248 -0.003714 -0.001860 0.030041 -0.006194
# 6 -0.003067 -0.009016 0.001861 0.002486 -0.006194 0.027986
#
#
# Mechanical properties :
#
#
# Convention : Reuss Voigt Hill
#
# Bulk Modulus (GPa) = 47.71642 69.23348 58.47495
# Shear Modulus (GPa) = 27.00986 39.30059 33.15523
#
# Velocity S-wave (km/s) = 3.22586 3.89120 3.57405
# Velocity P-wave (km/s) = 5.67968 6.84561 6.28972
#
# Compressibility (1/GPa) = 0.02095715
#
# Stress axis : x y z
#
# Youngs Moduli (GPa) = 38.62864 56.92429 71.77071
#
# Poissons Ratio (x) = 0.53401 0.67294
# Poissons Ratio (y) = 0.36238 -0.03890
# Poissons Ratio (z) = 0.36219 -0.03085
#
# Static dielectric constant tensor:
#      x y z
#    x 2.051280 -0.017760 0.087610 
#    y -0.017760 2.106800 -0.006470 
#    z 0.087610 -0.006470 2.115300 
# 
# From -- ./inp_files/333503.got.cif
#   From: 2010.05.17/outbox.cif.g08.bks.cpg/sg2_167_cif.got.tgz:333503.got - 2010.06.03 11:33:40.
