data_PCOD9088523
_publ_section_title
;
Structure prediction by ZEFSAII (Michael W. Deem and Ramdas Pophale) SiO2 
 PCOD9088523
Probable space group: P -1
;
_chemical_formula_sum "Si O2"
_cell_formula_units_Z 16
_cell_length_a 11.055158
_cell_length_b 8.020957
_cell_length_c 12.471056
_cell_angle_alpha 66.145981
_cell_angle_beta 50.612207
_cell_angle_gamma 91.446959
_cell_volume 716.825462
_symmetry_space_group_name_H-M "P -1"
_symmetry_group_IT_number 2
_symmetry_cell_setting 'triclinic'
loop_
_space_group_symop_operation_xyz
x,y,z
-x,-y,-z
loop_
_atom_site_type_symbol
_atom_site_label
_atom_site_fract_x
_atom_site_fract_y
_atom_site_fract_z
Si Si1 0.340275 0.356341 0.973721
Si Si2 0.594812 0.864794 0.196439
Si Si3 0.899053 0.466619 0.820125
Si Si4 0.105608 0.726197 0.917193
Si Si5 0.223311 0.116918 0.685409
Si Si6 0.562837 0.302638 0.337271
Si Si7 0.264352 0.551984 0.565950
Si Si8 0.568763 0.182662 0.996681
O O1 0.311912 0.186275 0.943827
O O2 0.439981 0.548903 0.793270
O O3 0.192615 0.407799 0.099196
O O4 0.449753 0.301929 0.016038
O O5 0.703199 0.873994 0.238162
O O6 0.410120 0.689227 0.368374
O O7 0.561775 0.062858 0.140856
O O8 0.094940 0.596919 0.648612
O O9 0.913039 0.301292 0.938187
O O10 0.764771 0.341464 0.837652
O O11 0.298085 0.775250 0.760184
O O12 0.069903 0.900226 0.833354
O O13 0.000000 0.500000 0.000000
O O14 0.375721 0.143404 0.509790
O O15 0.200101 0.320864 0.630645
O O16 0.644695 0.412463 0.376262
O O17 0.500000 0.000000 0.000000
#
# Coordination Sequence:
#
# PCOD9088523 Si02
#       8
#     2   2   2   2   2   2   2   2
#     4  10  20  38  66  86 122 161 215 244 303 362
#     4  10  19  40  64  94 118 166 208 253 292 376
#     4  11  23  40  60  92 126 160 200 263 311 350
#     4  11  22  37  56  92 131 156 195 251 312 364
#     4  11  20  37  62  88 130 161 206 236 313 373
#     4  10  19  37  61  92 122 165 197 250 303 376
#     4  11  21  38  62  94 130 153 199 256 320 360
#     4  10  22  42  66  89 116 166 223 252 287 367
#
# _framework density 22.320637000000001
#
# number of rings (size 3 to 8) (size 9 to 14) (size 15 to 20)
#    0.000    1.500    5.000    1.500    0.000    0.500 
#    9.000    3.125    0.000    0.000    0.000    0.000 
#    0.000    0.000    0.000    0.000    0.000    0.000 
#
# Total GULP energy -89194.957961 kJ/mol
# GULP energy per Si atom -5574.684873 kJ/mol
# Density = 2.226983 g / cm^3
# Si number density = 22.320637 Si / 1000 Ang^3
#
#
#
# Elastic Constant Matrix: (Units=GPa)
#
#
# Indices 1 2 3 4 5 6 
#
# 1 77.8630 27.2603 41.7739 -10.3851 -8.3744 -11.5577
# 2 27.2603 75.4029 50.3820 -12.3590 -12.0488 -0.4522
# 3 41.7739 50.3820 74.4776 7.2735 -26.3653 -20.2040
# 4 -10.3851 -12.3590 7.2735 35.3816 -6.8393 4.7943
# 5 -8.3744 -12.0488 -26.3653 -6.8393 26.5184 -6.3052
# 6 -11.5577 -0.4522 -20.2040 4.7943 -6.3052 37.4932
#
#
#
# Elastic Compliance Matrix: (Units=1/GPa)
#
#
# Indices 1 2 3 4 5 6 
#
# 1 0.033542 0.035128 -0.074508 0.033676 -0.048802 -0.041900
# 2 0.035128 0.107426 -0.170139 0.075166 -0.115696 -0.108627
# 3 -0.074508 -0.170139 0.320629 -0.129776 0.232864 0.203513
# 4 0.033676 0.075166 -0.129776 0.086589 -0.081754 -0.083466
# 5 -0.048802 -0.115696 0.232864 -0.081754 0.217266 0.156036
# 6 -0.041900 -0.108627 0.203513 -0.083466 0.156036 0.159026
#
#
# Mechanical properties :
#
#
# Convention : Reuss Voigt Hill
#
# Bulk Modulus (GPa) = 23.49691 51.84175 37.66933
# Shear Modulus (GPa) = 3.68269 27.10046 15.39157
#
# Velocity S-wave (km/s) = 1.28588 3.48824 2.62881
# Velocity P-wave (km/s) = 3.57134 6.28491 5.11149
#
# Compressibility (1/GPa) = 0.04255878
#
# Stress axis : x y z
#
# Youngs Moduli (GPa) = 29.81366 9.30877 3.11887
#
# Poissons Ratio (x) = -0.32700 0.23238
# Poissons Ratio (y) = -1.04729 0.53064
# Poissons Ratio (z) = 2.22134 1.58378
#
# Static dielectric constant tensor:
#      x y z
#    x 1.895360 0.030040 -0.018650 
#    y 0.030040 1.973130 -0.043330 
#    z -0.018650 -0.043330 1.830980 
# 
# From -- ./inp_files/351724.got.cif
#   From: 2010.05.17/outbox.cif.g08.bks.cpg/sg2_176_cif.got.tgz:351724.got - 2010.06.03 11:33:40.
