data_PCOD9088356
_publ_section_title
;
Structure prediction by ZEFSAII (Michael W. Deem and Ramdas Pophale) SiO2 
 PCOD9088356
Probable space group: P -1
;
_chemical_formula_sum "Si O2"
_cell_formula_units_Z 14
_cell_length_a 7.182230
_cell_length_b 11.656001
_cell_length_c 23.385772
_cell_angle_alpha 29.752925
_cell_angle_beta 144.156822
_cell_angle_gamma 124.648049
_cell_volume 503.564116
_symmetry_space_group_name_H-M "P -1"
_symmetry_group_IT_number 2
_symmetry_cell_setting 'triclinic'
loop_
_space_group_symop_operation_xyz
x,y,z
-x,-y,-z
loop_
_atom_site_type_symbol
_atom_site_label
_atom_site_fract_x
_atom_site_fract_y
_atom_site_fract_z
Si Si1 0.597711 0.627604 0.819902
Si Si2 0.448483 0.629383 0.363721
Si Si3 0.809673 0.451249 0.143421
Si Si4 0.381067 0.163996 0.581752
Si Si5 0.344997 0.615423 0.184274
Si Si6 0.276179 0.185823 0.746925
Si Si7 0.915871 0.077845 0.602014
O O1 0.340246 0.576361 0.821257
O O2 0.593803 0.499887 0.814397
O O3 0.480511 0.937253 0.658456
O O4 0.000000 0.500000 0.000000
O O5 0.264243 0.442066 0.402446
O O6 0.337541 0.819682 0.309093
O O7 0.444465 0.782404 0.240704
O O8 0.887978 0.435581 0.557500
O O9 0.948845 0.663273 0.081408
O O10 0.500000 0.500000 0.000000
O O11 0.117876 0.174496 0.315743
O O12 0.142817 0.106111 0.592989
O O13 0.486076 0.830915 0.131141
O O14 0.585412 0.365152 0.393880
O O15 0.123709 0.032280 0.734661
#
# Coordination Sequence:
#
# PCOD9088356 Si02
#       7
#     2   2   2   2   2   2   2
#     4  11  25  43  62  89 131 172 217 259 317 381
#     4   9  16  34  59  90 129 155 197 259 328 360
#     4  11  25  44  66  89 132 174 211 257 324 379
#     4   9  19  34  61  89 122 165 203 258 317 367
#     4  12  22  40  67  97 124 167 210 272 312 377
#     4  10  19  37  60  97 131 157 200 266 323 377
#     4  10  21  41  64  98 127 162 213 264 318 377
#
# _framework density 27.801822999999999
#
# number of rings (size 3 to 8) (size 9 to 14) (size 15 to 20)
#    0.000    1.714    5.714    0.429    2.000    4.571 
#    2.571    0.714    0.000    1.714    0.000    0.000 
#    0.000    0.000    0.000    0.000    0.000    0.000 
#
# Total GULP energy -78100.476005 kJ/mol
# GULP energy per Si atom -5578.605429 kJ/mol
# Density = 2.773854 g / cm^3
# Si number density = 27.801823 Si / 1000 Ang^3
#
#
#
# Elastic Constant Matrix: (Units=GPa)
#
#
# Indices 1 2 3 4 5 6 
#
# 1 115.1742 72.8084 3.8247 7.8649 -9.1089 -12.4909
# 2 72.8084 154.6212 34.8352 14.5647 -2.4694 -2.4423
# 3 3.8247 34.8352 65.6259 11.1447 10.6732 2.3060
# 4 7.8649 14.5647 11.1447 48.9275 2.5057 2.9412
# 5 -9.1089 -2.4694 10.6732 2.5057 22.5589 7.4095
# 6 -12.4909 -2.4423 2.3060 2.9412 7.4095 37.2961
#
#
#
# Elastic Compliance Matrix: (Units=1/GPa)
#
#
# Indices 1 2 3 4 5 6 
#
# 1 0.013493 -0.006701 0.002416 -0.001065 0.002537 0.003511
# 2 -0.006701 0.010950 -0.005484 -0.000932 0.001666 -0.001446
# 3 0.002416 -0.005484 0.019946 -0.002906 -0.009154 0.001265
# 4 -0.001065 -0.000932 -0.002906 0.021705 -0.000992 -0.001753
# 5 0.002537 0.001666 -0.009154 -0.000992 0.052902 -0.008907
# 6 0.003511 -0.001446 0.001265 -0.001753 -0.008907 0.029723
#
#
# Mechanical properties :
#
#
# Convention : Reuss Voigt Hill
#
# Bulk Modulus (GPa) = 40.24153 62.03977 51.14065
# Shear Modulus (GPa) = 28.32208 36.68669 32.50438
#
# Velocity S-wave (km/s) = 3.19519 3.63654 3.42299
# Velocity P-wave (km/s) = 5.30266 6.32424 5.83585
#
# Compressibility (1/GPa) = 0.02484995
#
# Stress axis : x y z
#
# Youngs Moduli (GPa) = 74.11374 91.32428 50.13569
#
# Poissons Ratio (x) = 0.61201 -0.12112
# Poissons Ratio (y) = 0.49667 0.27493
# Poissons Ratio (z) = -0.17905 0.50080
#
# Static dielectric constant tensor:
#      x y z
#    x 2.247810 -0.051260 -0.026930 
#    y -0.051260 2.226720 -0.023400 
#    z -0.026930 -0.023400 2.319980 
# 
# From -- ./inp_files/616926.got.cif
#   From: 2010.05.17/outbox.cif.g08.bks.cpg/sg2_309_cif.got.tgz:616926.got - 2010.06.03 11:33:40.
