data_PCOD9088400
_publ_section_title
;
Structure prediction by ZEFSAII (Michael W. Deem and Ramdas Pophale) SiO2 
 PCOD9088400
Probable space group: P -1
;
_chemical_formula_sum "Si O2"
_cell_formula_units_Z 14
_cell_length_a 14.943489
_cell_length_b 9.679202
_cell_length_c 5.832063
_cell_angle_alpha 114.084700
_cell_angle_beta 116.976832
_cell_angle_gamma 60.135044
_cell_volume 633.558923
_symmetry_space_group_name_H-M "P -1"
_symmetry_group_IT_number 2
_symmetry_cell_setting 'triclinic'
loop_
_space_group_symop_operation_xyz
x,y,z
-x,-y,-z
loop_
_atom_site_type_symbol
_atom_site_label
_atom_site_fract_x
_atom_site_fract_y
_atom_site_fract_z
Si Si1 0.351894 0.607894 0.146570
Si Si2 0.408336 0.011609 0.718364
Si Si3 0.150078 0.506619 0.751209
Si Si4 0.935260 0.633411 0.828001
Si Si5 0.407392 0.249374 0.496017
Si Si6 0.767176 0.815288 0.066537
Si Si7 0.596115 0.389141 0.284294
O O1 0.465035 0.443897 0.179592
O O2 0.352037 0.677865 0.452660
O O3 0.244253 0.570279 0.960009
O O4 0.363372 0.692436 0.973174
O O5 0.386128 0.175804 0.658396
O O6 0.299447 0.032574 0.745071
O O7 0.469758 0.862631 0.517105
O O8 0.500000 0.000000 0.000000
O O9 0.139196 0.447832 0.442859
O O10 0.175711 0.340345 0.810844
O O11 0.029974 0.635794 0.770429
O O12 0.858658 0.801586 0.975318
O O13 0.000000 0.500000 0.000000
O O14 0.390602 0.436887 0.605418
O O15 0.325916 0.219569 0.203071
#
# Coordination Sequence:
#
# PCOD9088400 Si02
#       7
#     2   2   2   2   2   2   2
#     4  10  20  32  49  72  97 131 167 197 239 290
#     4   9  19  28  43  67  91 126 163 193 244 290
#     4  10  18  30  45  66  97 128 159 199 240 288
#     4   9  19  28  43  67  91 126 163 193 244 290
#     4  10  18  30  45  66  97 128 159 199 240 288
#     4  10  16  28  45  64  93 124 154 198 238 288
#     4  10  20  32  49  72  97 131 167 197 239 290
#
# _framework density 22.097391999999999
#
# number of rings (size 3 to 8) (size 9 to 14) (size 15 to 20)
#    0.000    2.286    1.429    2.571    4.000    0.000 
#    0.000    0.000    0.000    0.000    0.000    1.000 
#    0.000   29.714    0.000    9.143    0.000    1.143 
#
# Total GULP energy -78039.325882 kJ/mol
# GULP energy per Si atom -5574.237563 kJ/mol
# Density = 2.204710 g / cm^3
# Si number density = 22.097392 Si / 1000 Ang^3
#
#
#
# Elastic Constant Matrix: (Units=GPa)
#
#
# Indices 1 2 3 4 5 6 
#
# 1 113.9561 29.2495 46.0082 15.2685 -10.5065 -39.1575
# 2 29.2495 45.4076 24.9847 5.8034 -9.1762 -10.8170
# 3 46.0082 24.9847 157.6378 -18.2334 -12.5438 2.2495
# 4 15.2685 5.8034 -18.2334 26.7922 -8.0399 -9.4335
# 5 -10.5065 -9.1762 -12.5438 -8.0399 45.8161 6.0652
# 6 -39.1575 -10.8170 2.2495 -9.4335 6.0652 42.5446
#
#
#
# Elastic Compliance Matrix: (Units=1/GPa)
#
#
# Indices 1 2 3 4 5 6 
#
# 1 0.018287 -0.004227 -0.006074 -0.009146 -0.001815 0.014309
# 2 -0.004227 0.028368 -0.003625 -0.004676 0.002621 0.002103
# 3 -0.006074 -0.003625 0.010211 0.010312 0.003177 -0.005218
# 4 -0.009146 -0.004676 0.010312 0.053443 0.009115 0.000398
# 5 -0.001815 0.002621 0.003177 0.009115 0.024759 -0.002681
# 6 0.014309 0.002103 -0.005218 0.000398 -0.002681 0.037955
#
#
# Mechanical properties :
#
#
# Convention : Reuss Voigt Hill
#
# Bulk Modulus (GPa) = 34.46476 57.49847 45.98161
# Shear Modulus (GPa) = 23.74761 37.48118 30.61439
#
# Velocity S-wave (km/s) = 3.28179 4.12294 3.72617
# Velocity P-wave (km/s) = 5.47638 6.98153 6.27426
#
# Compressibility (1/GPa) = 0.02901515
#
# Stress axis : x y z
#
# Youngs Moduli (GPa) = 54.68236 35.25046 97.93438
#
# Poissons Ratio (x) = 0.14900 0.59485
# Poissons Ratio (y) = 0.23114 0.35499
# Poissons Ratio (z) = 0.33214 0.12778
#
# Static dielectric constant tensor:
#      x y z
#    x 1.920050 -0.045680 -0.082820 
#    y -0.045680 1.838200 0.034710 
#    z -0.082820 0.034710 1.888090 
# 
# From -- ./inp_files/73824.got.cif
#   From: 2010.05.17/outbox.cif.g08.bks.cpg/sg2_37_cif.got.tgz:73824.got - 2010.06.03 11:33:40.
