data_PCOD9088489
_publ_section_title
;
Structure prediction by ZEFSAII (Michael W. Deem and Ramdas Pophale) SiO2 
 PCOD9088489
Probable space group: P -1
;
_chemical_formula_sum "Si O2"
_cell_formula_units_Z 14
_cell_length_a 20.606656
_cell_length_b 7.764816
_cell_length_c 8.918330
_cell_angle_alpha 129.986311
_cell_angle_beta 43.463589
_cell_angle_gamma 137.666219
_cell_volume 643.512549
_symmetry_space_group_name_H-M "P -1"
_symmetry_group_IT_number 2
_symmetry_cell_setting 'triclinic'
loop_
_space_group_symop_operation_xyz
x,y,z
-x,-y,-z
loop_
_atom_site_type_symbol
_atom_site_label
_atom_site_fract_x
_atom_site_fract_y
_atom_site_fract_z
Si Si1 0.384757 0.962800 0.348417
Si Si2 0.522297 0.273886 0.551525
Si Si3 0.784927 0.989827 0.736008
Si Si4 0.545877 0.758941 0.938111
Si Si5 0.776842 0.641483 0.303585
Si Si6 0.058894 0.571605 0.101446
Si Si7 0.154430 0.793662 0.562569
O O1 0.435094 0.187896 0.515540
O O2 0.447619 0.804092 0.169856
O O3 0.253574 0.784609 0.471906
O O4 0.413881 0.102239 0.215801
O O5 0.511990 0.461507 0.793835
O O6 0.648518 0.438048 0.373306
O O7 0.500000 0.000000 0.500000
O O8 0.782049 0.743483 0.523022
O O9 0.866539 0.120780 0.810037
O O10 0.831045 0.202610 0.640052
O O11 0.658677 0.905141 0.926199
O O12 0.820842 0.909860 0.286049
O O13 0.854565 0.526135 0.090221
O O14 0.962147 0.421343 0.300225
O O15 0.000000 0.500000 0.000000
#
# Coordination Sequence:
#
# PCOD9088489 Si02
#       7
#     2   2   2   2   2   2   2
#     4  10  19  37  61  89 124 151 211 242 296 370
#     4  11  22  36  63  89 128 159 194 256 309 358
#     4   8  19  40  62  84 122 157 206 237 310 361
#     4   9  19  38  63  90 115 166 198 250 297 367
#     4   9  22  41  60  85 121 166 203 246 307 369
#     4  12  23  37  65  90 121 158 207 258 306 356
#     4   9  21  41  61  89 123 164 203 247 299 372
#
# _framework density 21.755599
#
# number of rings (size 3 to 8) (size 9 to 14) (size 15 to 20)
#    0.857    1.429    1.429    2.143    2.000    1.143 
#    0.000    0.000    0.000    0.000    0.000    0.000 
#    0.000    0.000    0.000    0.000    0.000    0.000 
#
# Total GULP energy -78154.666438 kJ/mol
# GULP energy per Si atom -5582.476174 kJ/mol
# Density = 2.170608 g / cm^3
# Si number density = 21.755599 Si / 1000 Ang^3
#
#
#
# Elastic Constant Matrix: (Units=GPa)
#
#
# Indices 1 2 3 4 5 6 
#
# 1 63.7510 30.8039 19.9997 -11.0629 1.5583 29.7698
# 2 30.8039 85.1292 24.2916 -1.7436 -8.7868 16.4356
# 3 19.9997 24.2916 74.4741 -4.9088 -24.7326 16.3510
# 4 -11.0629 -1.7436 -4.9088 31.3367 6.6658 -0.6640
# 5 1.5583 -8.7868 -24.7326 6.6658 30.0977 3.4813
# 6 29.7698 16.4356 16.3510 -0.6640 3.4813 45.1081
#
#
#
# Elastic Compliance Matrix: (Units=1/GPa)
#
#
# Indices 1 2 3 4 5 6 
#
# 1 0.029229 -0.007176 -0.004232 0.010605 -0.007770 -0.014386
# 2 -0.007176 0.015322 -0.001783 -0.002838 0.004073 -0.000556
# 3 -0.004232 -0.001783 0.023012 -0.002354 0.019878 -0.006468
# 4 0.010605 -0.002838 -0.002354 0.037427 -0.011173 -0.003698
# 5 -0.007770 0.004073 0.019878 -0.011173 0.054543 -0.007935
# 6 -0.014386 -0.000556 -0.006468 -0.003698 -0.007935 0.034768
#
#
# Mechanical properties :
#
#
# Convention : Reuss Voigt Hill
#
# Bulk Modulus (GPa) = 24.28337 41.50496 32.89417
# Shear Modulus (GPa) = 21.33021 31.19245 26.26133
#
# Velocity S-wave (km/s) = 3.13461 3.79062 3.47811
# Velocity P-wave (km/s) = 4.92820 6.18689 5.59307
#
# Compressibility (1/GPa) = 0.04118045
#
# Stress axis : x y z
#
# Youngs Moduli (GPa) = 34.21268 65.26553 43.45638
#
# Poissons Ratio (x) = 0.46837 0.18389
# Poissons Ratio (y) = 0.24552 0.07748
# Poissons Ratio (z) = 0.14478 0.11636
#
# Static dielectric constant tensor:
#      x y z
#    x 1.818120 -0.024310 0.043560 
#    y -0.024310 1.773400 0.014200 
#    z 0.043560 0.014200 1.813430 
# 
# From -- ./inp_files/193746.got.cif
#   From: 2010.05.17/outbox.cif.g08.bks.cpg/sg2_97_cif.got.tgz:193746.got - 2010.06.03 11:33:40.
