data_PCOD9088324
_publ_section_title
;
Structure prediction by ZEFSAII (Michael W. Deem and Ramdas Pophale) SiO2 
 PCOD9088324
Probable space group: P -1
;
_chemical_formula_sum "Si O2"
_cell_formula_units_Z 14
_cell_length_a 6.863854
_cell_length_b 21.841062
_cell_length_c 13.062030
_cell_angle_alpha 151.936752
_cell_angle_beta 40.347640
_cell_angle_gamma 140.570675
_cell_volume 563.435536
_symmetry_space_group_name_H-M "P -1"
_symmetry_group_IT_number 2
_symmetry_cell_setting 'triclinic'
loop_
_space_group_symop_operation_xyz
x,y,z
-x,-y,-z
loop_
_atom_site_type_symbol
_atom_site_label
_atom_site_fract_x
_atom_site_fract_y
_atom_site_fract_z
Si Si1 0.850943 0.726135 0.766040
Si Si2 0.454656 0.082032 0.534747
Si Si3 0.115705 0.956757 0.168981
Si Si4 0.403959 0.346675 0.870108
Si Si5 0.587622 0.740503 0.476150
Si Si6 0.369197 0.081707 0.963142
Si Si7 0.684266 0.526802 0.703552
O O1 0.617628 0.602016 0.741825
O O2 0.000000 0.500000 0.500000
O O3 0.204086 0.721114 0.586676
O O4 0.635348 0.764646 0.825044
O O5 0.603491 0.247808 0.691775
O O6 0.095127 0.074530 0.690378
O O7 0.500000 0.000000 0.500000
O O8 0.512073 0.992570 0.286755
O O9 0.437169 0.931567 0.035385
O O10 0.207250 0.117408 0.346266
O O11 0.943680 0.852430 0.996345
O O12 0.264615 0.259743 0.695844
O O13 0.500000 0.500000 0.000000
O O14 0.242346 0.377977 0.084035
O O15 0.578642 0.611941 0.359612
O O16 0.000000 0.000000 0.000000
#
# Coordination Sequence:
#
# PCOD9088324 Si02
#       7
#     2   2   2   2   2   2   2
#     4  11  21  41  63  93 129 169 214 269 316 383
#     4  12  23  40  64  96 128 169 212 270 322 380
#     4  12  23  38  68  96 130 164 222 262 325 378
#     4  10  19  37  60  89 126 171 212 259 326 387
#     4  10  21  35  63  92 126 169 214 262 327 380
#     4  12  24  39  63  96 132 167 214 265 327 380
#     4   9  19  36  62  87 124 174 209 258 331 381
#
# _framework density 24.847564999999999
#
# number of rings (size 3 to 8) (size 9 to 14) (size 15 to 20)
#    0.000    1.143    5.714    0.857    0.000    0.000 
#    0.000    0.000    3.143   12.000    0.000    0.000 
#    0.000    0.000    0.000    0.000    0.000    0.000 
#
# Total GULP energy -77986.603342 kJ/mol
# GULP energy per Si atom -5570.471667 kJ/mol
# Density = 2.479101 g / cm^3
# Si number density = 24.847565 Si / 1000 Ang^3
#
#
#
# Elastic Constant Matrix: (Units=GPa)
#
#
# Indices 1 2 3 4 5 6 
#
# 1 48.2531 14.5587 19.5699 15.2619 -16.4587 -17.4274
# 2 14.5587 91.5209 29.5991 11.5322 -7.9122 -28.3001
# 3 19.5699 29.5991 94.6927 5.7712 -0.9468 -16.6000
# 4 15.2619 11.5322 5.7712 60.8314 -30.3037 -7.7397
# 5 -16.4587 -7.9122 -0.9468 -30.3037 38.8325 0.6014
# 6 -17.4274 -28.3001 -16.6000 -7.7397 0.6014 40.8631
#
#
#
# Elastic Compliance Matrix: (Units=1/GPa)
#
#
# Indices 1 2 3 4 5 6 
#
# 1 0.031059 0.001457 -0.004625 0.000806 0.013787 0.012326
# 2 0.001457 0.015038 -0.003276 0.000072 0.003508 0.009667
# 3 -0.004625 -0.003276 0.012701 -0.000787 -0.002945 0.000813
# 4 0.000806 0.000072 -0.000787 0.027923 0.022049 0.005038
# 5 0.013787 0.003508 -0.002945 0.022049 0.049281 0.010564
# 6 0.012326 0.009667 0.000813 0.005038 0.010564 0.037553
#
#
# Mechanical properties :
#
#
# Convention : Reuss Voigt Hill
#
# Bulk Modulus (GPa) = 21.78171 40.21356 30.99763
# Shear Modulus (GPa) = 24.78356 39.48802 32.13579
#
# Velocity S-wave (km/s) = 3.16163 3.99082 3.60017
# Velocity P-wave (km/s) = 4.70245 6.12003 5.45746
#
# Compressibility (1/GPa) = 0.04591008
#
# Stress axis : x y z
#
# Youngs Moduli (GPa) = 32.19627 66.49949 78.73189
#
# Poissons Ratio (x) = -0.09687 0.36412
# Poissons Ratio (y) = -0.04690 0.25794
# Poissons Ratio (z) = 0.14890 0.21787
#
# Static dielectric constant tensor:
#      x y z
#    x 2.025760 -0.102690 -0.138560 
#    y -0.102690 2.108850 0.090060 
#    z -0.138560 0.090060 2.135300 
# 
# From -- ./inp_files/563420.got.cif
#   From: 2010.05.17/outbox.cif.g08.bks.cpg/sg2_282_cif.got.tgz:563420.got - 2010.06.03 11:33:40.
