data_PCOD9088621
_publ_section_title
;
Structure prediction by ZEFSAII (Michael W. Deem and Ramdas Pophale) SiO2 
 PCOD9088621
Probable space group: P -1
;
_chemical_formula_sum "Si O2"
_cell_formula_units_Z 16
_cell_length_a 8.558102
_cell_length_b 22.483901
_cell_length_c 9.460177
_cell_angle_alpha 41.098481
_cell_angle_beta 46.727233
_cell_angle_gamma 32.930530
_cell_volume 643.311347
_symmetry_space_group_name_H-M "P -1"
_symmetry_group_IT_number 2
_symmetry_cell_setting 'triclinic'
loop_
_space_group_symop_operation_xyz
x,y,z
-x,-y,-z
loop_
_atom_site_type_symbol
_atom_site_label
_atom_site_fract_x
_atom_site_fract_y
_atom_site_fract_z
Si Si1 0.406963 0.091373 0.669096
Si Si2 0.696602 0.054390 0.153503
Si Si3 0.973719 0.922539 0.492845
Si Si4 0.763910 0.590185 0.770283
Si Si5 0.707067 0.346668 0.248855
Si Si6 0.217466 0.286785 0.205567
Si Si7 0.239750 0.393230 0.650173
Si Si8 0.393054 0.200372 0.723404
O O1 0.228121 0.201052 0.468870
O O2 0.294159 0.139868 0.810889
O O3 0.427937 0.980229 0.820085
O O4 0.741532 0.029667 0.553335
O O5 0.488208 0.190331 0.104776
O O6 0.780748 0.970362 0.386836
O O7 0.000000 0.000000 0.000000
O O8 0.085288 0.791130 0.694690
O O9 0.259481 0.894746 0.316350
O O10 0.537313 0.581080 0.856812
O O11 0.737989 0.636664 0.861445
O O12 0.689665 0.698933 0.523388
O O13 0.097940 0.466261 0.752262
O O14 0.533339 0.354244 0.479348
O O15 0.920234 0.358302 0.171765
O O16 0.261037 0.280565 0.802933
O O17 0.000000 0.500000 0.500000
#
# Coordination Sequence:
#
# PCOD9088621 Si02
#       8
#     2   2   2   2   2   2   2   2
#     4  10  16  28  46  67  87 118 153 182 220 275
#     4  11  21  31  42  62  96 122 149 195 225 254
#     4   9  15  29  45  64  89 118 151 183 220 273
#     4   8  16  26  44  71 100 112 138 192 235 260
#     4   9  14  26  47  68  92 120 147 180 221 275
#     4  10  17  30  48  67  88 125 156 176 226 278
#     4   7  13  25  38  70 105 107 130 191 238 256
#     4   8  15  24  47  67  88 118 144 180 225 273
#
# _framework density 24.871317000000001
#
# number of rings (size 3 to 8) (size 9 to 14) (size 15 to 20)
#    0.000    3.500    2.500    1.125    0.000    1.500 
#    0.000    0.625    0.000    0.000    0.000    4.375 
#    0.000    1.750    0.000    0.000    0.000    0.000 
#
# Total GULP energy -89105.542400 kJ/mol
# GULP energy per Si atom -5569.096400 kJ/mol
# Density = 2.481471 g / cm^3
# Si number density = 24.871317 Si / 1000 Ang^3
#
#
#
# Elastic Constant Matrix: (Units=GPa)
#
#
# Indices 1 2 3 4 5 6 
#
# 1 162.4077 87.2860 27.8716 7.5565 12.3777 30.8109
# 2 87.2860 150.1272 21.7806 16.5258 9.3894 12.7988
# 3 27.8716 21.7806 48.7044 6.7757 4.0694 -1.9917
# 4 7.5565 16.5258 6.7757 18.6762 2.1211 8.6268
# 5 12.3777 9.3894 4.0694 2.1211 28.5953 1.5228
# 6 30.8109 12.7988 -1.9917 8.6268 1.5228 51.6933
#
#
#
# Elastic Compliance Matrix: (Units=1/GPa)
#
#
# Indices 1 2 3 4 5 6 
#
# 1 0.011133 -0.005716 -0.004620 0.005372 -0.002351 -0.006225
# 2 -0.005716 0.010765 -0.000300 -0.008005 -0.000535 0.002082
# 3 -0.004620 -0.000300 0.024905 -0.009260 -0.001045 0.005364
# 4 0.005372 -0.008005 -0.009260 0.068062 -0.002743 -0.012855
# 5 -0.002351 -0.000535 -0.001045 -0.002743 0.036470 0.000877
# 6 -0.006225 0.002082 0.005364 -0.012855 0.000877 0.024866
#
#
# Mechanical properties :
#
#
# Convention : Reuss Voigt Hill
#
# Bulk Modulus (GPa) = 39.16805 70.56840 54.86823
# Shear Modulus (GPa) = 24.27398 34.74636 29.51017
#
# Velocity S-wave (km/s) = 3.12746 3.74176 3.44832
# Velocity P-wave (km/s) = 5.36878 6.86314 6.16143
#
# Compressibility (1/GPa) = 0.02553101
#
# Stress axis : x y z
#
# Youngs Moduli (GPa) = 89.82699 92.89416 40.15299
#
# Poissons Ratio (x) = 0.53097 0.18551
# Poissons Ratio (y) = 0.51344 0.01203
# Poissons Ratio (z) = 0.41500 0.02784
#
# Static dielectric constant tensor:
#      x y z
#    x 2.060160 0.060050 0.042780 
#    y 0.060050 2.038400 0.020140 
#    z 0.042780 0.020140 2.107520 
# 
# From -- ./inp_files/227461.got.cif
#   From: 2010.05.17/outbox.cif.g08.bks.cpg/sg2_114_cif.got.tgz:227461.got - 2010.06.03 11:33:40.
