data_PCOD9088256
_publ_section_title
;
Structure prediction by ZEFSAII (Michael W. Deem and Ramdas Pophale) SiO2 
 PCOD9088256
Probable space group: P -1
;
_chemical_formula_sum "Si O2"
_cell_formula_units_Z 16
_cell_length_a 8.704731
_cell_length_b 14.169342
_cell_length_c 8.878976
_cell_angle_alpha 94.275349
_cell_angle_beta 116.891992
_cell_angle_gamma 116.026538
_cell_volume 825.162823
_symmetry_space_group_name_H-M "P -1"
_symmetry_group_IT_number 2
_symmetry_cell_setting 'triclinic'
loop_
_space_group_symop_operation_xyz
x,y,z
-x,-y,-z
loop_
_atom_site_type_symbol
_atom_site_label
_atom_site_fract_x
_atom_site_fract_y
_atom_site_fract_z
Si Si1 0.109589 0.209911 0.190612
Si Si2 0.361879 0.807350 0.303412
Si Si3 0.280670 0.420643 0.813041
Si Si4 0.273160 0.438602 0.455798
Si Si5 0.653690 0.060581 0.942449
Si Si6 0.080796 0.555969 0.204657
Si Si7 0.968088 0.807303 0.191787
Si Si8 0.736853 0.947995 0.691375
O O1 0.174542 0.313058 0.338318
O O2 0.234267 0.150663 0.255765
O O3 0.108991 0.238003 0.017245
O O4 0.878354 0.117373 0.113279
O O5 0.281886 0.678513 0.278783
O O6 0.576451 0.896615 0.479855
O O7 0.183845 0.816554 0.306182
O O8 0.362920 0.842491 0.135592
O O9 0.287752 0.446224 0.643026
O O10 0.197109 0.288430 0.784935
O O11 0.103518 0.435331 0.807286
O O12 0.500000 0.500000 0.000000
O O13 0.500000 0.500000 0.500000
O O14 0.147887 0.489202 0.333605
O O15 0.644830 0.982485 0.792469
O O16 0.500000 0.000000 0.000000
O O17 0.000000 0.500000 0.000000
O O18 0.047806 0.938859 0.242974
#
# Coordination Sequence:
#
# PCOD9088256 Si02
#       8
#     2   2   2   2   2   2   2   2
#     4  10  21  39  59  82 117 158 196 239 293 355
#     4   9  19  35  59  85 113 151 190 236 295 355
#     4  11  24  41  63  91 121 158 204 253 307 363
#     4  12  24  41  61  88 121 160 204 254 302 359
#     4  10  20  36  58  87 118 149 188 240 293 355
#     4  11  22  42  65  89 120 159 204 255 306 359
#     4   9  18  37  59  83 116 154 192 240 294 355
#     4  10  19  37  60  85 115 155 194 235 297 357
#
# _framework density 19.390112999999999
#
# number of rings (size 3 to 8) (size 9 to 14) (size 15 to 20)
#    0.000    2.000    0.000    7.875    0.000    3.000 
#    0.000   15.000    0.000    0.000    0.000    0.000 
#    0.000    0.000    0.000    0.000    0.000    0.000 
#
# Total GULP energy -89236.681468 kJ/mol
# GULP energy per Si atom -5577.292592 kJ/mol
# Density = 1.934598 g / cm^3
# Si number density = 19.390113 Si / 1000 Ang^3
#
#
#
# Elastic Constant Matrix: (Units=GPa)
#
#
# Indices 1 2 3 4 5 6 
#
# 1 56.6405 38.5552 33.2270 -15.3400 -3.0786 7.9712
# 2 38.5552 108.6837 44.9114 -12.9044 -13.1257 -0.2656
# 3 33.2270 44.9114 116.5700 -3.0234 2.0608 -3.9896
# 4 -15.3400 -12.9044 -3.0234 28.2298 -2.8629 -2.4866
# 5 -3.0786 -13.1257 2.0608 -2.8629 21.8020 1.1631
# 6 7.9712 -0.2656 -3.9896 -2.4866 1.1631 33.1197
#
#
#
# Elastic Compliance Matrix: (Units=1/GPa)
#
#
# Indices 1 2 3 4 5 6 
#
# 1 0.030112 -0.006316 -0.006126 0.012495 0.003054 -0.007205
# 2 -0.006316 0.014507 -0.003804 0.003769 0.008635 0.001158
# 3 -0.006126 -0.003804 0.011867 -0.004058 -0.004956 0.002743
# 4 0.012495 0.003769 -0.004058 0.044502 0.010287 -0.000486
# 5 0.003054 0.008635 -0.004956 0.010287 0.053442 -0.002367
# 6 -0.007205 0.001158 0.002743 -0.000486 -0.002367 0.032314
#
#
# Mechanical properties :
#
#
# Convention : Reuss Voigt Hill
#
# Bulk Modulus (GPa) = 41.67878 57.25349 49.46614
# Shear Modulus (GPa) = 22.00374 27.64367 24.82371
#
# Velocity S-wave (km/s) = 3.37232 3.77989 3.58190
# Velocity P-wave (km/s) = 6.05846 6.97433 6.53247
#
# Compressibility (1/GPa) = 0.02399303
#
# Stress axis : x y z
#
# Youngs Moduli (GPa) = 33.20908 68.93376 84.27018
#
# Poissons Ratio (x) = 0.43538 0.51627
# Poissons Ratio (y) = 0.20975 0.32056
# Poissons Ratio (z) = 0.20345 0.26222
#
# Static dielectric constant tensor:
#      x y z
#    x 1.685260 -0.027010 0.001460 
#    y -0.027010 1.724810 -0.007390 
#    z 0.001460 -0.007390 1.655620 
# 
# From -- ./inp_files/207444.got.cif
#   From: 2010.05.17/outbox.cif.g08.bks.cpg/sg2_104_cif.got.tgz:207444.got - 2010.06.03 11:33:40.
