data_PCOD9088589
_publ_section_title
;
Structure prediction by ZEFSAII (Michael W. Deem and Ramdas Pophale) SiO2 
 PCOD9088589
Probable space group: P -1
;
_chemical_formula_sum "Si O2"
_cell_formula_units_Z 16
_cell_length_a 9.899186
_cell_length_b 35.492417
_cell_length_c 5.198035
_cell_angle_alpha 67.843733
_cell_angle_beta 58.265652
_cell_angle_gamma 33.550288
_cell_volume 851.130666
_symmetry_space_group_name_H-M "P -1"
_symmetry_group_IT_number 2
_symmetry_cell_setting 'triclinic'
loop_
_space_group_symop_operation_xyz
x,y,z
-x,-y,-z
loop_
_atom_site_type_symbol
_atom_site_label
_atom_site_fract_x
_atom_site_fract_y
_atom_site_fract_z
Si Si1 0.677894 0.559403 0.169165
Si Si2 0.827492 0.669017 0.239095
Si Si3 0.686764 0.169522 0.687261
Si Si4 0.895491 0.169373 0.976093
Si Si5 0.483243 0.030874 0.687287
Si Si6 0.392074 0.330860 0.038913
Si Si7 0.551730 0.440625 0.100538
Si Si8 0.023049 0.968632 0.307736
O O1 0.574866 0.555630 0.532138
O O2 0.575993 0.627202 0.096156
O O3 0.575723 0.555393 0.031880
O O4 0.000000 0.500000 0.000000
O O5 0.609640 0.750383 0.237594
O O6 0.763217 0.655075 0.592127
O O7 0.768429 0.652485 0.093546
O O8 0.123425 0.627091 0.051576
O O9 0.851498 0.159391 0.327359
O O10 0.726244 0.113896 0.737713
O O11 0.805520 0.155550 0.884214
O O12 0.686614 0.249371 0.950277
O O13 0.207650 0.113194 0.761100
O O14 0.500000 0.000000 0.500000
O O15 0.753098 0.999343 0.498040
O O16 0.500000 0.000000 0.000000
O O17 0.500000 0.500000 0.000000
O O18 0.000000 0.000000 0.500000
O O19 0.000000 0.000000 0.000000
#
# Coordination Sequence:
#
# PCOD9088589 Si02
#       8
#     2   2   2   2   2   2   2   2
#     4  12  24  41  64  93 126 156 192 248 292 336
#     4  10  21  40  64  87 115 162 197 239 287 359
#     4  10  20  38  61  81 117 154 199 235 297 356
#     4  10  19  37  62  86 107 155 202 244 282 356
#     4  12  21  38  63  82 112 153 208 242 286 353
#     4  10  21  39  63  88 120 152 198 243 300 339
#     4  12  24  41  64  92 124 159 202 232 284 356
#     4  12  24  38  55  87 119 153 192 251 306 341
#
# _framework density 18.798522999999999
#
# number of rings (size 3 to 8) (size 9 to 14) (size 15 to 20)
#    0.000    1.000    2.500    5.250    0.000    0.000 
#    4.500    0.000    0.000    0.000    0.000    0.000 
#    0.000    0.000    0.000    0.000    0.000    0.000 
#
# Total GULP energy -89338.664026 kJ/mol
# GULP energy per Si atom -5583.666502 kJ/mol
# Density = 1.875574 g / cm^3
# Si number density = 18.798523 Si / 1000 Ang^3
#
#
#
# Elastic Constant Matrix: (Units=GPa)
#
#
# Indices 1 2 3 4 5 6 
#
# 1 163.3288 55.3349 74.7367 -2.2753 12.5681 10.3097
# 2 55.3349 110.2875 47.3075 1.3552 -7.4103 16.6316
# 3 74.7367 47.3075 155.4201 -10.1967 6.7356 -2.9580
# 4 -2.2753 1.3552 -10.1967 30.5562 -3.8371 -8.4697
# 5 12.5681 -7.4103 6.7356 -3.8371 38.1234 4.8203
# 6 10.3097 16.6316 -2.9580 -8.4697 4.8203 33.9092
#
#
#
# Elastic Compliance Matrix: (Units=1/GPa)
#
#
# Indices 1 2 3 4 5 6 
#
# 1 0.008988 -0.003035 -0.003370 -0.001070 -0.002889 -0.001395
# 2 -0.003035 0.013457 -0.003207 -0.003365 0.004790 -0.007478
# 3 -0.003370 -0.003207 0.009451 0.004166 -0.001352 0.004655
# 4 -0.001070 -0.003365 0.004166 0.037544 0.001283 0.011534
# 5 -0.002889 0.004790 -0.001352 0.001283 0.029167 -0.005414
# 6 -0.001395 -0.007478 0.004655 0.011534 -0.005414 0.037639
#
#
# Mechanical properties :
#
#
# Convention : Reuss Voigt Hill
#
# Bulk Modulus (GPa) = 78.91330 87.08830 83.00080
# Shear Modulus (GPa) = 31.30972 37.29492 34.30232
#
# Velocity S-wave (km/s) = 4.08553 4.45896 4.27633
# Velocity P-wave (km/s) = 8.02029 8.54035 8.28440
#
# Compressibility (1/GPa) = 0.01267214
#
# Stress axis : x y z
#
# Youngs Moduli (GPa) = 111.25582 74.31327 105.80410
#
# Poissons Ratio (x) = 0.22552 0.35656
# Poissons Ratio (y) = 0.33764 0.33934
# Poissons Ratio (z) = 0.37493 0.23834
#
# Static dielectric constant tensor:
#      x y z
#    x 1.609020 -0.010580 0.016940 
#    y -0.010580 1.679860 0.021000 
#    z 0.016940 0.021000 1.615300 
# 
# From -- ./inp_files/56830.got.cif
#   From: 2010.05.17/outbox.cif.g08.bks.cpg/sg2_29_cif.got.tgz:56830.got - 2010.06.03 11:33:40.
