data_PCOD9088677
_publ_section_title
;
Structure prediction by ZEFSAII (Michael W. Deem and Ramdas Pophale) SiO2 
 PCOD9088677
Probable space group: P -1
;
_chemical_formula_sum "Si O2"
_cell_formula_units_Z 14
_cell_length_a 10.357383
_cell_length_b 10.886339
_cell_length_c 10.313692
_cell_angle_alpha 38.902346
_cell_angle_beta 87.500385
_cell_angle_gamma 111.419108
_cell_volume 562.931013
_symmetry_space_group_name_H-M "P -1"
_symmetry_group_IT_number 2
_symmetry_cell_setting 'triclinic'
loop_
_space_group_symop_operation_xyz
x,y,z
-x,-y,-z
loop_
_atom_site_type_symbol
_atom_site_label
_atom_site_fract_x
_atom_site_fract_y
_atom_site_fract_z
Si Si1 0.282584 0.390694 0.979998
Si Si2 0.796554 0.093669 0.726162
Si Si3 0.134256 0.280476 0.323400
Si Si4 0.691597 0.086882 0.001556
Si Si5 0.423715 0.576068 0.549087
Si Si6 0.826100 0.630556 0.470769
Si Si7 0.029923 0.453790 0.823908
O O1 0.413225 0.545224 0.729706
O O2 0.125672 0.384414 0.959955
O O3 0.297962 0.443922 0.089149
O O4 0.239806 0.121726 0.186988
O O5 0.982231 0.244495 0.651630
O O6 0.822228 0.316718 0.462767
O O7 0.677605 0.978818 0.948781
O O8 0.179715 0.254947 0.488731
O O9 0.049680 0.417761 0.221643
O O10 0.000000 0.000000 0.500000
O O11 0.538042 0.875954 0.269644
O O12 0.715536 0.336821 0.759705
O O13 0.868203 0.204961 0.965357
O O14 0.500000 0.500000 0.500000
O O15 0.236367 0.375193 0.663462
#
# Coordination Sequence:
#
# PCOD9088677 Si02
#       7
#     2   2   2   2   2   2   2
#     4  12  22  39  66  94 126 158 206 257 306 364
#     4  10  19  37  62  91 127 152 205 257 311 350
#     4  10  20  43  64  92 124 157 205 259 311 364
#     4  10  20  39  58  88 129 162 200 251 307 370
#     4  12  25  37  58  95 128 162 207 248 306 367
#     4  10  22  40  64  88 120 165 204 258 310 356
#     4  10  22  37  66  95 119 159 209 257 306 358
#
# _framework density 24.869834000000001
#
# number of rings (size 3 to 8) (size 9 to 14) (size 15 to 20)
#    0.000    1.714    4.286    4.286    2.000    1.143 
#    0.000    3.571    0.000    0.000    0.000    0.000 
#    0.000    0.000    0.000    0.000    0.000    0.000 
#
# Total GULP energy -78051.358030 kJ/mol
# GULP energy per Si atom -5575.097002 kJ/mol
# Density = 2.481323 g / cm^3
# Si number density = 24.869834 Si / 1000 Ang^3
#
#
#
# Elastic Constant Matrix: (Units=GPa)
#
#
# Indices 1 2 3 4 5 6 
#
# 1 35.0272 2.3717 -3.0680 3.0845 2.6371 -5.2779
# 2 2.3717 101.4795 28.0446 32.4837 -2.9844 -31.4428
# 3 -3.0680 28.0446 123.4205 34.7791 -14.2015 -1.7791
# 4 3.0845 32.4837 34.7791 41.1330 -6.7151 -4.2832
# 5 2.6371 -2.9844 -14.2015 -6.7151 25.9361 4.7204
# 6 -5.2779 -31.4428 -1.7791 -4.2832 4.7204 28.9928
#
#
#
# Elastic Compliance Matrix: (Units=1/GPa)
#
#
# Indices 1 2 3 4 5 6 
#
# 1 0.030818 0.003803 0.001152 -0.006159 -0.005440 0.009782
# 2 0.003803 0.022028 -0.000965 -0.015522 -0.006642 0.023311
# 3 0.001152 -0.000965 0.011123 -0.008274 0.004092 -0.002043
# 4 -0.006159 -0.015522 -0.008274 0.043968 0.008112 -0.013288
# 5 -0.005440 -0.006642 0.004092 0.008112 0.045254 -0.014112
# 6 0.009782 0.023311 -0.002043 -0.013288 -0.014112 0.061762
#
#
# Mechanical properties :
#
#
# Convention : Reuss Voigt Hill
#
# Bulk Modulus (GPa) = 13.89826 34.95820 24.42823
# Shear Modulus (GPa) = 21.64910 34.71765 28.18338
#
# Velocity S-wave (km/s) = 2.95362 3.74033 3.37001
# Velocity P-wave (km/s) = 4.15119 5.72192 4.99864
#
# Compressibility (1/GPa) = 0.07195144
#
# Stress axis : x y z
#
# Youngs Moduli (GPa) = 32.44813 45.39641 89.90155
#
# Poissons Ratio (x) = -0.17266 -0.10360
# Poissons Ratio (y) = -0.12341 0.08675
# Poissons Ratio (z) = -0.03739 0.04381
#
# Static dielectric constant tensor:
#      x y z
#    x 2.190930 -0.092470 -0.062360 
#    y -0.092470 2.035470 0.068710 
#    z -0.062360 0.068710 2.060670 
# 
# From -- ./inp_files/253832.got.cif
#   From: 2010.05.17/outbox.cif.g08.bks.cpg/sg2_127_cif.got.tgz:253832.got - 2010.06.03 11:33:40.
