data_PCOD9088923
_publ_section_title
;
Structure prediction by ZEFSAII (Michael W. Deem and Ramdas Pophale) SiO2 
 PCOD9088923
Probable space group: P -1
;
_chemical_formula_sum "Si O2"
_cell_formula_units_Z 16
_cell_length_a 15.086631
_cell_length_b 11.648691
_cell_length_c 12.238116
_cell_angle_alpha 96.916392
_cell_angle_beta 62.465844
_cell_angle_gamma 151.389531
_cell_volume 676.158180
_symmetry_space_group_name_H-M "P -1"
_symmetry_group_IT_number 2
_symmetry_cell_setting 'triclinic'
loop_
_space_group_symop_operation_xyz
x,y,z
-x,-y,-z
loop_
_atom_site_type_symbol
_atom_site_label
_atom_site_fract_x
_atom_site_fract_y
_atom_site_fract_z
Si Si1 0.439479 0.669547 0.378303
Si Si2 0.853221 0.313123 0.747113
Si Si3 0.051375 0.273963 0.369283
Si Si4 0.109223 0.238339 0.912709
Si Si5 0.068226 0.372560 0.142161
Si Si6 0.932470 0.658611 0.247298
Si Si7 0.588238 0.613541 0.588751
Si Si8 0.643538 0.054646 0.599937
O O1 0.218181 0.441734 0.576358
O O2 0.483793 0.580628 0.329470
O O3 0.313321 0.583435 0.330499
O O4 0.737131 0.042663 0.281923
O O5 0.667442 0.115281 0.720590
O O6 0.802888 0.367970 0.860906
O O7 0.844987 0.188358 0.809193
O O8 0.171081 0.662828 0.553220
O O9 0.112318 0.334528 0.214337
O O10 0.827690 0.135894 0.493938
O O11 0.905862 0.998411 0.457307
O O12 0.956944 0.131208 0.881718
O O13 0.406386 0.520640 0.728837
O O14 0.142019 0.378120 0.995353
O O15 0.000000 0.000000 0.000000
O O16 0.673955 0.307698 0.298939
O O17 0.500000 0.500000 0.500000
#
# Coordination Sequence:
#
# PCOD9088923 Si02
#       8
#     2   2   2   2   2   2   2   2
#     4  12  22  38  67 100 123 165 220 272 319 379
#     4  10  22  37  65  99 130 165 216 267 322 377
#     4  11  21  39  66  97 124 165 217 272 321 374
#     4  12  24  43  69  90 134 180 209 262 333 385
#     4  11  24  42  62  94 140 170 202 263 330 390
#     4  12  22  39  70  96 127 170 222 268 313 382
#     4  12  20  42  68  91 124 165 221 274 320 373
#     4  10  19  37  64 100 129 158 212 277 320 367
#
# _framework density 23.663104000000001
#
# number of rings (size 3 to 8) (size 9 to 14) (size 15 to 20)
#    0.000    0.750    8.750    0.750    0.000    0.500 
#    0.000    3.750    0.000    0.000    0.000    0.000 
#    0.000    0.000    0.000    0.000    0.000    0.000 
#
# Total GULP energy -89476.743275 kJ/mol
# GULP energy per Si atom -5592.296455 kJ/mol
# Density = 2.360925 g / cm^3
# Si number density = 23.663104 Si / 1000 Ang^3
#
#
#
# Elastic Constant Matrix: (Units=GPa)
#
#
# Indices 1 2 3 4 5 6 
#
# 1 91.7244 16.3407 21.6242 2.6480 15.1143 5.5699
# 2 16.3407 78.2090 23.0487 13.1968 3.8648 19.3150
# 3 21.6242 23.0487 83.6514 38.4268 2.3820 0.5438
# 4 2.6480 13.1968 38.4268 46.7359 -14.1314 4.7669
# 5 15.1143 3.8648 2.3820 -14.1314 32.7671 8.4803
# 6 5.5699 19.3150 0.5438 4.7669 8.4803 39.6849
#
#
#
# Elastic Compliance Matrix: (Units=1/GPa)
#
#
# Indices 1 2 3 4 5 6 
#
# 1 0.012734 -0.001656 -0.002951 0.000576 -0.005244 0.000111
# 2 -0.001656 0.016196 -0.003994 -0.000048 0.001151 -0.007836
# 3 -0.002951 -0.003994 0.024993 -0.023681 -0.012126 0.007451
# 4 0.000576 -0.000048 -0.023681 0.049812 0.025853 -0.011241
# 5 -0.005244 0.001151 -0.012126 0.025853 0.048214 -0.013067
# 6 0.000111 -0.007836 0.007451 -0.011241 -0.013067 0.033037
#
#
# Mechanical properties :
#
#
# Convention : Reuss Voigt Hill
#
# Bulk Modulus (GPa) = 27.23370 41.73465 34.48418
# Shear Modulus (GPa) = 23.31780 36.67567 29.99673
#
# Velocity S-wave (km/s) = 3.14253 3.94116 3.56428
# Velocity P-wave (km/s) = 4.97003 6.19561 5.61635
#
# Compressibility (1/GPa) = 0.03671921
#
# Stress axis : x y z
#
# Youngs Moduli (GPa) = 78.53100 61.74469 40.01148
#
# Poissons Ratio (x) = 0.10226 0.11809
# Poissons Ratio (y) = 0.13006 0.15981
# Poissons Ratio (z) = 0.23177 0.24661
#
# Static dielectric constant tensor:
#      x y z
#    x 1.910690 -0.024880 0.018270 
#    y -0.024880 1.923660 -0.045150 
#    z 0.018270 -0.045150 1.963000 
# 
# From -- ./inp_files/355208.got.cif
#   From: 2010.05.17/outbox.cif.g08.bks.cpg/sg2_178_cif.got.tgz:355208.got - 2010.06.03 11:33:40.
