data_PCOD9088539
_publ_section_title
;
Structure prediction by ZEFSAII (Michael W. Deem and Ramdas Pophale) SiO2 
 PCOD9088539
Probable space group: P -1
;
_chemical_formula_sum "Si O2"
_cell_formula_units_Z 16
_cell_length_a 9.587261
_cell_length_b 12.816329
_cell_length_c 15.113779
_cell_angle_alpha 127.668921
_cell_angle_beta 36.527999
_cell_angle_gamma 101.168926
_cell_volume 678.682829
_symmetry_space_group_name_H-M "P -1"
_symmetry_group_IT_number 2
_symmetry_cell_setting 'triclinic'
loop_
_space_group_symop_operation_xyz
x,y,z
-x,-y,-z
loop_
_atom_site_type_symbol
_atom_site_label
_atom_site_fract_x
_atom_site_fract_y
_atom_site_fract_z
Si Si1 0.108745 0.887846 0.297648
Si Si2 0.818732 0.423963 0.564419
Si Si3 0.052971 0.691537 0.800578
Si Si4 0.644290 0.508673 0.292042
Si Si5 0.299291 0.944685 0.867353
Si Si6 0.872661 0.692819 0.324589
Si Si7 0.247274 0.462254 0.161379
Si Si8 0.192083 0.034075 0.158918
O O1 0.110614 0.981204 0.259787
O O2 0.914114 0.826786 0.341119
O O3 0.441185 0.716951 0.064736
O O4 0.000000 0.000000 0.500000
O O5 0.489755 0.528724 0.739973
O O6 0.810645 0.412027 0.667922
O O7 0.000000 0.500000 0.500000
O O8 0.969016 0.234987 0.356773
O O9 0.358489 0.632192 0.568053
O O10 0.116335 0.654357 0.853386
O O11 0.000737 0.565513 0.723176
O O12 0.756186 0.879671 0.026593
O O13 0.778232 0.608800 0.262520
O O14 0.610344 0.793545 0.585778
O O15 0.254611 0.927331 0.983739
O O16 0.000000 0.000000 0.000000
O O17 0.183469 0.543105 0.139189
O O18 0.500000 0.000000 0.000000
#
# Coordination Sequence:
#
# PCOD9088539 Si02
#       8
#     2   2   2   2   2   2   2   2
#     4  12  26  47  69 100 139 184 226 287 350 412
#     4  12  21  38  64 100 136 172 222 292 334 394
#     4  10  19  37  61  94 133 167 225 274 335 395
#     4  10  21  38  61  99 132 177 220 279 339 404
#     4  12  22  41  67 101 134 180 222 283 336 404
#     4  11  24  44  70  96 140 183 229 276 349 411
#     4  11  23  40  68  97 127 180 233 278 338 407
#     4  12  25  41  65 103 136 173 232 285 334 402
#
# _framework density 23.575077
#
# number of rings (size 3 to 8) (size 9 to 14) (size 15 to 20)
#    0.000    0.750    3.750    4.875    0.000    2.000 
#    0.000    3.125    0.000    3.000    0.000    0.000 
#    0.000    0.000    0.000    0.000    0.000    0.000 
#
# Total GULP energy -89359.625768 kJ/mol
# GULP energy per Si atom -5584.976610 kJ/mol
# Density = 2.352142 g / cm^3
# Si number density = 23.575077 Si / 1000 Ang^3
#
#
#
# Elastic Constant Matrix: (Units=GPa)
#
#
# Indices 1 2 3 4 5 6 
#
# 1 158.0801 50.3981 5.4527 -20.8932 -1.6931 8.6619
# 2 50.3981 151.3536 18.3527 -15.4438 -0.2344 12.8055
# 3 5.4527 18.3527 57.7035 3.3673 -3.4750 -7.4968
# 4 -20.8932 -15.4438 3.3673 33.5441 -3.7595 -8.8575
# 5 -1.6931 -0.2344 -3.4750 -3.7595 21.9726 4.6347
# 6 8.6619 12.8055 -7.4968 -8.8575 4.6347 35.3310
#
#
#
# Elastic Compliance Matrix: (Units=1/GPa)
#
#
# Indices 1 2 3 4 5 6 
#
# 1 0.007526 -0.002054 -0.000252 0.003812 0.001247 -0.000362
# 2 -0.002054 0.008058 -0.002797 0.002084 0.000377 -0.002538
# 3 -0.000252 -0.002797 0.019033 -0.002007 0.001692 0.004389
# 4 0.003812 0.002084 -0.002007 0.035508 0.004775 0.006160
# 5 0.001247 0.000377 0.001692 0.004775 0.047783 -0.005155
# 6 -0.000362 -0.002538 0.004389 0.006160 -0.005155 0.032464
#
#
# Mechanical properties :
#
#
# Convention : Reuss Voigt Hill
#
# Bulk Modulus (GPa) = 40.96718 57.28268 49.12493
# Shear Modulus (GPa) = 29.63548 37.69847 33.66697
#
# Velocity S-wave (km/s) = 3.54936 4.00319 3.78309
# Velocity P-wave (km/s) = 5.84913 6.76152 6.32181
#
# Compressibility (1/GPa) = 0.02440978
#
# Stress axis : x y z
#
# Youngs Moduli (GPa) = 132.86476 124.09861 52.54101
#
# Poissons Ratio (x) = 0.25491 0.01326
# Poissons Ratio (y) = 0.27291 0.14698
# Poissons Ratio (z) = 0.03352 0.34715
#
# Static dielectric constant tensor:
#      x y z
#    x 1.976570 -0.046070 -0.065550 
#    y -0.046070 2.162770 0.159180 
#    z -0.065550 0.159180 2.157310 
# 
# From -- ./inp_files/505466.got.cif
#   From: 2010.05.17/outbox.cif.g08.bks.cpg/sg2_253_cif.got.tgz:505466.got - 2010.06.03 11:33:40.
