data_PCOD9088372
_publ_section_title
;
Structure prediction by ZEFSAII (Michael W. Deem and Ramdas Pophale) SiO2 
 PCOD9088372
Probable space group: P -1
;
_chemical_formula_sum "Si O2"
_cell_formula_units_Z 9
_cell_length_a 9.987865
_cell_length_b 8.022153
_cell_length_c 7.467509
_cell_angle_alpha 121.066200
_cell_angle_beta 133.181604
_cell_angle_gamma 75.831019
_cell_volume 368.051871
_symmetry_space_group_name_H-M "P -1"
_symmetry_group_IT_number 2
_symmetry_cell_setting 'triclinic'
loop_
_space_group_symop_operation_xyz
x,y,z
-x,-y,-z
loop_
_atom_site_type_symbol
_atom_site_label
_atom_site_fract_x
_atom_site_fract_y
_atom_site_fract_z
Si Si1 0.528198 0.040353 0.763130
Si Si2 0.830909 0.207905 0.612981
Si Si3 0.040863 0.903964 0.795991
Si Si4 0.092749 0.523826 0.807799
Si Si5 0.500000 0.500000 0.000000
O O1 0.500000 0.000000 0.500000
O O2 0.388343 0.871523 0.645630
O O3 0.740137 0.034270 0.004486
O O4 0.487857 0.259268 0.878071
O O5 0.939544 0.338742 0.628819
O O6 0.862216 0.344068 0.894887
O O7 0.918301 0.011008 0.612629
O O8 0.003015 0.671833 0.677925
O O9 0.000000 0.000000 0.000000
O O10 0.293566 0.489741 0.905652
#
# Coordination Sequence:
#
# PCOD9088372 Si02
#       5
#     2   2   2   2   1
#     4  11  19  36  60  82 114 154 182 234 288 325
#     4  10  19  37  61  80 115 151 184 235 281 328
#     4   9  17  34  58  82 111 148 190 227 277 341
#     4   9  19  35  56  86 113 144 192 232 273 342
#     4  10  20  36  58  86 114 146 192 232 278 342
#
# _framework density 24.453074999999998
#
# number of rings (size 3 to 8) (size 9 to 14) (size 15 to 20)
#    0.000    2.222    6.667    0.000    0.000    0.889 
#    0.000   23.333    0.000    0.000    0.000    0.000 
#    0.000    0.000    0.000    0.000    0.000    0.000 
#
# Total GULP energy -50132.361859 kJ/mol
# GULP energy per Si atom -5570.262429 kJ/mol
# Density = 2.439742 g / cm^3
# Si number density = 24.453075 Si / 1000 Ang^3
#
#
#
# Elastic Constant Matrix: (Units=GPa)
#
#
# Indices 1 2 3 4 5 6 
#
# 1 201.9306 88.2685 53.0707 15.5446 38.9300 9.8617
# 2 88.2685 138.1976 40.8936 31.2774 29.5796 -10.5472
# 3 53.0707 40.8936 87.7944 19.6792 43.0948 12.1166
# 4 15.5446 31.2774 19.6792 40.4135 16.2615 4.2717
# 5 38.9300 29.5796 43.0948 16.2615 58.1497 16.4132
# 6 9.8617 -10.5472 12.1166 4.2717 16.4132 55.8971
#
#
#
# Elastic Compliance Matrix: (Units=1/GPa)
#
#
# Indices 1 2 3 4 5 6 
#
# 1 0.007711 -0.004650 -0.002095 0.002413 -0.001487 -0.001532
# 2 -0.004650 0.013017 -0.001389 -0.007409 -0.001719 0.004648
# 3 -0.002095 -0.001389 0.019697 -0.003031 -0.011483 -0.000559
# 4 0.002413 -0.007409 -0.003031 0.032943 -0.004114 -0.002476
# 5 -0.001487 -0.001719 -0.011483 -0.004114 0.030480 -0.006208
# 6 -0.001532 0.004648 -0.000559 -0.002476 -0.006208 0.021171
#
#
# Mechanical properties :
#
#
# Convention : Reuss Voigt Hill
#
# Bulk Modulus (GPa) = 41.39804 88.04315 64.72060
# Shear Modulus (GPa) = 33.48112 47.27138 40.37625
#
# Velocity S-wave (km/s) = 3.70428 4.40153 4.06787
# Velocity P-wave (km/s) = 5.93818 7.86857 6.97052
#
# Compressibility (1/GPa) = 0.02415573
#
# Stress axis : x y z
#
# Youngs Moduli (GPa) = 129.68235 76.82525 50.77023
#
# Poissons Ratio (x) = 0.35724 0.10636
# Poissons Ratio (y) = 0.60303 0.07053
# Poissons Ratio (z) = 0.27168 0.10673
#
# Static dielectric constant tensor:
#      x y z
#    x 1.957900 0.023970 -0.095410 
#    y 0.023970 1.884460 0.026470 
#    z -0.095410 0.026470 2.060580 
# 
# From -- ./inp_files/143926.got.cif
#   From: 2010.05.17/outbox.cif.g08.bks.cpg/sg2_72_cif.got.tgz:143926.got - 2010.06.03 11:33:40.
