data_PCOD9088878
_publ_section_title
;
Structure prediction by ZEFSAII (Michael W. Deem and Ramdas Pophale) SiO2 
 PCOD9088878
Probable space group: P -1
;
_chemical_formula_sum "Si O2"
_cell_formula_units_Z 12
_cell_length_a 8.355860
_cell_length_b 15.701420
_cell_length_c 9.461259
_cell_angle_alpha 36.103415
_cell_angle_beta 132.273619
_cell_angle_gamma 121.516464
_cell_volume 540.604257
_symmetry_space_group_name_H-M "P -1"
_symmetry_group_IT_number 2
_symmetry_cell_setting 'triclinic'
loop_
_space_group_symop_operation_xyz
x,y,z
-x,-y,-z
loop_
_atom_site_type_symbol
_atom_site_label
_atom_site_fract_x
_atom_site_fract_y
_atom_site_fract_z
Si Si1 0.701903 0.289028 0.343215
Si Si2 0.816547 0.925298 0.401377
Si Si3 0.753797 0.583989 0.148217
Si Si4 0.666710 0.093682 0.828218
Si Si5 0.238025 0.628785 0.326278
Si Si6 0.911285 0.350520 0.097044
O O1 0.773416 0.440227 0.253346
O O2 0.764384 0.154177 0.661389
O O3 0.789536 0.280522 0.249144
O O4 0.441886 0.310912 0.157822
O O5 0.573851 0.960294 0.266052
O O6 0.885546 0.757013 0.675129
O O7 0.000000 0.000000 0.500000
O O8 0.805783 0.982135 0.156974
O O9 0.695168 0.518624 0.354420
O O10 0.984998 0.652743 0.190448
O O11 0.638154 0.238410 0.715214
O O12 0.235382 0.625770 0.160679
O O13 0.000000 0.500000 0.000000
#
# Coordination Sequence:
#
# PCOD9088878 Si02
#       6
#     2   2   2   2   2   2
#     4  10  21  37  61  96 130 167 215 264 318 380
#     4  11  24  46  71  90 129 175 218 261 321 392
#     4   9  19  36  60  92 132 174 208 258 323 389
#     4  10  23  43  71  91 120 182 223 248 321 401
#     4  10  19  37  63  93 127 171 216 257 320 381
#     4  12  24  39  63 102 133 163 211 279 320 364
#
# _framework density 22.197382999999999
#
# number of rings (size 3 to 8) (size 9 to 14) (size 15 to 20)
#    0.000    1.667    3.333    1.000    4.667    1.333 
#    0.000    0.833    0.000    0.000    0.000    0.000 
#    0.000    0.000    0.000    0.000    0.000    0.000 
#
# Total GULP energy -67065.152220 kJ/mol
# GULP energy per Si atom -5588.762685 kJ/mol
# Density = 2.214686 g / cm^3
# Si number density = 22.197383 Si / 1000 Ang^3
#
#
#
# Elastic Constant Matrix: (Units=GPa)
#
#
# Indices 1 2 3 4 5 6 
#
# 1 59.0790 15.4091 16.2434 15.7312 -24.6364 -2.1065
# 2 15.4091 73.3212 21.5169 19.1992 2.2110 14.9549
# 3 16.2434 21.5169 112.8760 15.0876 -26.0083 -8.4397
# 4 15.7312 19.1992 15.0876 37.3161 -5.7641 -3.2554
# 5 -24.6364 2.2110 -26.0083 -5.7641 50.4484 16.0738
# 6 -2.1065 14.9549 -8.4397 -3.2554 16.0738 31.4055
#
#
#
# Elastic Compliance Matrix: (Units=1/GPa)
#
#
# Indices 1 2 3 4 5 6 
#
# 1 0.024839 -0.002983 0.000710 -0.007567 0.013105 -0.004215
# 2 -0.002983 0.019729 -0.003342 -0.008722 -0.001684 -0.010535
# 3 0.000710 -0.003342 0.011043 -0.002065 0.005438 0.001609
# 4 -0.007567 -0.008722 -0.002065 0.035577 -0.002954 0.008291
# 5 0.013105 -0.001684 0.005438 -0.002954 0.033286 -0.014200
# 6 -0.004215 -0.010535 0.001609 0.008291 -0.014200 0.045136
#
#
# Mechanical properties :
#
#
# Convention : Reuss Voigt Hill
#
# Bulk Modulus (GPa) = 22.53101 39.06832 30.79967
# Shear Modulus (GPa) = 25.55807 36.64111 31.09959
#
# Velocity S-wave (km/s) = 3.39691 4.06728 3.74712
# Velocity P-wave (km/s) = 5.05546 6.30045 5.71198
#
# Compressibility (1/GPa) = 0.04438327
#
# Stress axis : x y z
#
# Youngs Moduli (GPa) = 40.25979 50.68583 90.55210
#
# Poissons Ratio (x) = 0.15117 -0.06430
# Poissons Ratio (y) = 0.12008 0.30259
# Poissons Ratio (z) = -0.02859 0.16937
#
# Static dielectric constant tensor:
#      x y z
#    x 1.834550 0.006440 -0.034580 
#    y 0.006440 1.800530 0.026150 
#    z -0.034580 0.026150 1.866660 
# 
# From -- ./inp_files/164573.got.cif
#   From: 2010.05.17/outbox.cif.g08.bks.cpg/sg2_83_cif.got.tgz:164573.got - 2010.06.03 11:33:40.
