data_PCOD9088815
_publ_section_title
;
Structure prediction by ZEFSAII (Michael W. Deem and Ramdas Pophale) SiO2 
 PCOD9088815
Probable space group: P -1
;
_chemical_formula_sum "Si O2"
_cell_formula_units_Z 15
_cell_length_a 14.144022
_cell_length_b 6.561467
_cell_length_c 14.624453
_cell_angle_alpha 83.762472
_cell_angle_beta 139.730765
_cell_angle_gamma 73.229412
_cell_volume 711.615497
_symmetry_space_group_name_H-M "P -1"
_symmetry_group_IT_number 2
_symmetry_cell_setting 'triclinic'
loop_
_space_group_symop_operation_xyz
x,y,z
-x,-y,-z
loop_
_atom_site_type_symbol
_atom_site_label
_atom_site_fract_x
_atom_site_fract_y
_atom_site_fract_z
Si Si1 0.139307 0.855140 0.809219
Si Si2 0.463302 0.192560 0.633001
Si Si3 0.752393 0.594104 0.204094
Si Si4 0.441154 0.932081 0.086287
Si Si5 0.500000 0.500000 0.500000
Si Si6 0.292235 0.301056 0.262963
Si Si7 0.052142 0.598258 0.340964
Si Si8 0.041579 0.575634 0.890095
O O1 0.195831 0.677624 0.771640
O O2 0.092234 0.729355 0.858887
O O3 0.305035 0.868445 0.953875
O O4 0.971057 0.144772 0.665697
O O5 0.559486 0.072146 0.805719
O O6 0.515406 0.364722 0.616471
O O7 0.253479 0.361860 0.491682
O O8 0.531226 0.960031 0.627037
O O9 0.638730 0.717127 0.205081
O O10 0.935933 0.571729 0.331484
O O11 0.622967 0.802633 0.020305
O O12 0.350823 0.447900 0.358360
O O13 0.158143 0.261097 0.222458
O O14 0.177582 0.448893 0.080793
O O15 0.962918 0.611274 0.175854
#
# Coordination Sequence:
#
# PCOD9088815 Si02
#       8
#     2   2   2   2   1   2   2   2
#     4  10  19  37  63  89 125 159 208 258 311 373
#     4  12  25  40  61  90 132 167 208 257 319 373
#     4   9  20  40  67  90 124 161 208 266 313 372
#     4  10  21  40  65  96 120 162 211 264 315 373
#     4  12  26  40  60  92 126 170 204 260 310 368
#     4  11  24  42  64  88 124 167 220 260 315 363
#     4  10  22  38  59  93 126 166 205 254 317 378
#     4  10  22  41  64  91 120 170 215 263 304 374
#
# _framework density 21.078800999999999
#
# number of rings (size 3 to 8) (size 9 to 14) (size 15 to 20)
#    0.000    1.600    1.333    4.000    1.867    1.600 
#    0.000    4.000    0.000    0.000    0.000    0.000 
#    0.000    0.000    0.000    0.000    0.000    0.000 
#
# Total GULP energy -83507.610191 kJ/mol
# GULP energy per Si atom -5567.174013 kJ/mol
# Density = 2.103082 g / cm^3
# Si number density = 21.078801 Si / 1000 Ang^3
#
#
#
# Elastic Constant Matrix: (Units=GPa)
#
#
# Indices 1 2 3 4 5 6 
#
# 1 86.4667 15.2132 15.5637 -4.1850 13.0548 -11.1892
# 2 15.2132 85.1587 19.3489 -7.6262 12.5509 -11.3281
# 3 15.5637 19.3489 61.8254 -6.3088 12.1207 -3.0565
# 4 -4.1850 -7.6262 -6.3088 20.2765 -12.7705 11.0841
# 5 13.0548 12.5509 12.1207 -12.7705 43.1234 -2.4372
# 6 -11.1892 -11.3281 -3.0565 11.0841 -2.4372 27.0749
#
#
#
# Elastic Compliance Matrix: (Units=1/GPa)
#
#
# Indices 1 2 3 4 5 6 
#
# 1 0.013364 -0.000778 -0.002454 -0.004298 -0.004045 0.006316
# 2 -0.000778 0.013654 -0.003359 -0.000447 -0.002646 0.004957
# 3 -0.002454 -0.003359 0.018608 0.003462 -0.002596 -0.001970
# 4 -0.004298 -0.000447 0.003462 0.081724 0.022796 -0.032977
# 5 -0.004045 -0.002646 -0.002596 0.022796 0.032127 -0.009513
# 6 0.006316 0.004957 -0.001970 -0.032977 -0.009513 0.054040
#
#
# Mechanical properties :
#
#
# Convention : Reuss Voigt Hill
#
# Bulk Modulus (GPa) = 30.82238 37.07806 33.95022
# Shear Modulus (GPa) = 21.05126 30.31662 25.68394
#
# Velocity S-wave (km/s) = 3.16364 3.79654 3.49445
# Velocity P-wave (km/s) = 5.29141 6.07015 5.69411
#
# Compressibility (1/GPa) = 0.03244396
#
# Stress axis : x y z
#
# Youngs Moduli (GPa) = 74.82904 73.23618 53.73929
#
# Poissons Ratio (x) = 0.05701 0.13187
# Poissons Ratio (y) = 0.05825 0.18051
# Poissons Ratio (z) = 0.18362 0.24600
#
# Static dielectric constant tensor:
#      x y z
#    x 1.759450 -0.041980 -0.006990 
#    y -0.041980 1.800500 -0.012270 
#    z -0.006990 -0.012270 1.800960 
# 
# From -- ./inp_files/138111.got.cif
#   From: 2010.05.17/outbox.cif.g08.bks.cpg/sg2_70_cif.got.tgz:138111.got - 2010.06.03 11:33:40.
