data_PCOD9088383
_publ_section_title
;
Structure prediction by ZEFSAII (Michael W. Deem and Ramdas Pophale) SiO2 
 PCOD9088383
Probable space group: P -1
;
_chemical_formula_sum "Si O2"
_cell_formula_units_Z 16
_cell_length_a 12.266485
_cell_length_b 30.495944
_cell_length_c 15.737345
_cell_angle_alpha 163.797892
_cell_angle_beta 25.979623
_cell_angle_gamma 157.100069
_cell_volume 633.576323
_symmetry_space_group_name_H-M "P -1"
_symmetry_group_IT_number 2
_symmetry_cell_setting 'triclinic'
loop_
_space_group_symop_operation_xyz
x,y,z
-x,-y,-z
loop_
_atom_site_type_symbol
_atom_site_label
_atom_site_fract_x
_atom_site_fract_y
_atom_site_fract_z
Si Si1 0.208217 0.739134 0.717678
Si Si2 0.371449 0.923564 0.306343
Si Si3 0.432519 0.572396 0.374951
Si Si4 0.449765 0.216456 0.930858
Si Si5 0.779149 0.581182 0.309855
Si Si6 0.617177 0.326853 0.709321
Si Si7 0.082857 0.846114 0.732967
Si Si8 0.952808 0.973106 0.382541
O O1 0.374928 0.722083 0.650492
O O2 0.362142 0.727831 0.503277
O O3 0.884812 0.573157 0.641305
O O4 0.160088 0.910604 0.078454
O O5 0.475777 0.103101 0.624557
O O6 0.623654 0.979985 0.167464
O O7 0.092195 0.885432 0.378959
O O8 0.362603 0.782817 0.119274
O O9 0.656654 0.615284 0.372749
O O10 0.556592 0.492921 0.067266
O O11 0.519148 0.414236 0.225933
O O12 0.123438 0.110138 0.986392
O O13 0.918966 0.755335 0.592991
O O14 0.000000 0.500000 0.000000
O O15 0.871663 0.309463 0.543292
O O16 0.362006 0.193061 0.700387
O O17 0.000000 0.000000 0.500000
#
# Coordination Sequence:
#
# PCOD9088383 Si02
#       8
#     2   2   2   2   2   2   2   2
#     4  10  21  38  61  87 111 157 203 236 298 354
#     4  10  22  41  60  84 122 156 202 246 291 357
#     4  10  21  38  59  86 123 151 191 250 293 351
#     4  11  22  38  61  89 115 165 197 236 298 359
#     4  12  21  39  59  90 130 152 190 250 304 345
#     4  10  19  37  61  82 114 156 194 241 303 351
#     4  11  21  37  63  87 121 158 197 244 299 359
#     4  10  22  40  58  82 118 152 194 255 292 341
#
# _framework density 25.253468999999999
#
# number of rings (size 3 to 8) (size 9 to 14) (size 15 to 20)
#    0.000    1.500    2.500    4.125    0.000    1.500 
#    2.250    1.250    0.000    0.000    0.000    0.000 
#    0.000    0.000    0.000    0.000    0.000    0.000 
#
# Total GULP energy -89453.463660 kJ/mol
# GULP energy per Si atom -5590.841479 kJ/mol
# Density = 2.519599 g / cm^3
# Si number density = 25.253469 Si / 1000 Ang^3
#
#
#
# Elastic Constant Matrix: (Units=GPa)
#
#
# Indices 1 2 3 4 5 6 
#
# 1 154.0522 11.6725 19.4138 -10.3121 -39.2510 -7.0382
# 2 11.6725 71.0348 24.5790 -15.0737 -8.3824 -12.4025
# 3 19.4138 24.5790 62.7483 -24.1093 -21.4493 -8.2864
# 4 -10.3121 -15.0737 -24.1093 29.6891 4.1935 3.4454
# 5 -39.2510 -8.3824 -21.4493 4.1935 35.9013 -8.8914
# 6 -7.0382 -12.4025 -8.2864 3.4454 -8.8914 24.7097
#
#
#
# Elastic Compliance Matrix: (Units=1/GPa)
#
#
# Indices 1 2 3 4 5 6 
#
# 1 0.011245 0.001517 0.005914 0.005497 0.018468 0.011826
# 2 0.001517 0.018406 -0.001291 0.006555 0.007114 0.010883
# 3 0.005914 -0.001291 0.037708 0.025159 0.031040 0.021343
# 4 0.005497 0.006555 0.025159 0.055182 0.019226 0.012517
# 5 0.018468 0.007114 0.031040 0.019226 0.076966 0.044254
# 6 0.011826 0.010883 0.021343 0.012517 0.044254 0.070637
#
#
# Mechanical properties :
#
#
# Convention : Reuss Voigt Hill
#
# Bulk Modulus (GPa) = 12.55696 44.35177 28.45437
# Shear Modulus (GPa) = 17.58014 33.53803 25.55908
#
# Velocity S-wave (km/s) = 2.64132 3.64820 3.18481
# Velocity P-wave (km/s) = 3.77959 5.94530 4.98156
#
# Compressibility (1/GPa) = 0.07963709
#
# Stress axis : x y z
#
# Youngs Moduli (GPa) = 88.92880 54.33036 26.51943
#
# Poissons Ratio (x) = -0.08240 -0.15683
# Poissons Ratio (y) = -0.13488 0.03425
# Poissons Ratio (z) = -0.52589 0.07016
#
# Static dielectric constant tensor:
#      x y z
#    x 2.035770 0.024330 -0.040080 
#    y 0.024330 2.146970 0.016630 
#    z -0.040080 0.016630 1.980820 
# 
# From -- ./inp_files/524637.got.cif
#   From: 2010.05.17/outbox.cif.g08.bks.cpg/sg2_263_cif.got.tgz:524637.got - 2010.06.03 11:33:40.
