data_PCOD9088284
_publ_section_title
;
Structure prediction by ZEFSAII (Michael W. Deem and Ramdas Pophale) SiO2 
 PCOD9088284
Probable space group: P -1
;
_chemical_formula_sum "Si O2"
_cell_formula_units_Z 16
_cell_length_a 12.304256
_cell_length_b 8.610411
_cell_length_c 18.047215
_cell_angle_alpha 137.545595
_cell_angle_beta 127.026227
_cell_angle_gamma 87.542960
_cell_volume 687.430973
_symmetry_space_group_name_H-M "P -1"
_symmetry_group_IT_number 2
_symmetry_cell_setting 'triclinic'
loop_
_space_group_symop_operation_xyz
x,y,z
-x,-y,-z
loop_
_atom_site_type_symbol
_atom_site_label
_atom_site_fract_x
_atom_site_fract_y
_atom_site_fract_z
Si Si1 0.379164 0.453958 0.002545
Si Si2 0.912728 0.794280 0.997504
Si Si3 0.598902 0.794401 0.824573
Si Si4 0.815984 0.242694 0.670163
Si Si5 0.431713 0.875030 0.287053
Si Si6 0.852408 0.579853 0.214189
Si Si7 0.572477 0.350757 0.146206
Si Si8 0.295906 0.187274 0.381683
O O1 0.483436 0.803368 0.208464
O O2 0.395256 0.272873 0.005181
O O3 0.500000 0.500000 0.000000
O O4 0.176236 0.285154 0.819764
O O5 0.782307 0.847332 0.935414
O O6 0.921985 0.610897 0.872874
O O7 0.776605 0.506057 0.904675
O O8 0.131291 0.109380 0.235751
O O9 0.434003 0.566375 0.743947
O O10 0.474330 0.565421 0.621338
O O11 0.691460 0.166515 0.991874
O O12 0.933074 0.270551 0.659730
O O13 0.596530 0.036090 0.475348
O O14 0.801476 0.063295 0.673758
O O15 0.388084 0.087934 0.339994
O O16 0.776524 0.603157 0.267864
O O17 0.500000 0.000000 0.000000
#
# Coordination Sequence:
#
# PCOD9088284 Si02
#       8
#     2   2   2   2   2   2   2   2
#     4  10  19  37  60  87 117 161 202 254 303 356
#     4  11  20  36  64  88 123 165 208 257 301 368
#     4  11  21  42  62  93 126 164 209 254 304 369
#     4  11  20  37  59  92 125 162 207 255 311 365
#     4  11  19  38  61  90 124 164 206 254 304 372
#     4  10  23  38  61  91 129 161 202 257 314 360
#     4   9  19  38  67  86 120 167 205 252 308 363
#     4  11  21  37  65  92 120 169 212 247 307 373
#
# _framework density 23.275062999999999
#
# number of rings (size 3 to 8) (size 9 to 14) (size 15 to 20)
#    0.000    1.500    3.750    3.750    0.000    0.500 
#    2.250    8.125    0.000    2.250    0.000    0.000 
#    0.000    0.000    0.000    0.000    0.000    0.000 
#
# Total GULP energy -89392.439790 kJ/mol
# GULP energy per Si atom -5587.027487 kJ/mol
# Density = 2.322209 g / cm^3
# Si number density = 23.275063 Si / 1000 Ang^3
#
#
#
# Elastic Constant Matrix: (Units=GPa)
#
#
# Indices 1 2 3 4 5 6 
#
# 1 155.1394 45.9970 43.0835 -10.3667 -11.6027 -0.3029
# 2 45.9970 68.6929 28.4655 -10.4995 -0.3607 5.8392
# 3 43.0835 28.4655 96.5253 -26.6488 0.6237 -8.0674
# 4 -10.3667 -10.4995 -26.6488 30.8581 -6.8716 4.1636
# 5 -11.6027 -0.3607 0.6237 -6.8716 34.8747 -3.7078
# 6 -0.3029 5.8392 -8.0674 4.1636 -3.7078 35.9563
#
#
#
# Elastic Compliance Matrix: (Units=1/GPa)
#
#
# Indices 1 2 3 4 5 6 
#
# 1 0.008813 -0.004943 -0.002536 -0.000348 0.002927 0.000650
# 2 -0.004943 0.020024 -0.003359 0.002556 -0.001350 -0.004482
# 3 -0.002536 -0.003359 0.015948 0.011710 0.001451 0.002896
# 4 -0.000348 0.002556 0.011710 0.045443 0.008423 -0.002184
# 5 0.002927 -0.001350 0.001451 0.008423 0.031571 0.002850
# 6 0.000650 -0.004482 0.002896 -0.002184 0.002850 0.029741
#
#
# Mechanical properties :
#
#
# Convention : Reuss Voigt Hill
#
# Bulk Modulus (GPa) = 43.27497 61.71662 52.49580
# Shear Modulus (GPa) = 27.63667 33.85858 30.74763
#
# Velocity S-wave (km/s) = 3.44960 3.81821 3.63857
# Velocity P-wave (km/s) = 5.87363 6.78322 6.34474
#
# Compressibility (1/GPa) = 0.02310804
#
# Stress axis : x y z
#
# Youngs Moduli (GPa) = 113.47343 49.94030 62.70245
#
# Poissons Ratio (x) = 0.24685 0.15903
# Poissons Ratio (y) = 0.56089 0.21063
# Poissons Ratio (z) = 0.28781 0.16776
#
# Static dielectric constant tensor:
#      x y z
#    x 1.931090 0.033040 -0.002850 
#    y 0.033040 1.899030 0.014270 
#    z -0.002850 0.014270 1.840040 
# 
# From -- ./inp_files/567055.got.cif
#   From: 2010.05.17/outbox.cif.g08.bks.cpg/sg2_284_cif.got.tgz:567055.got - 2010.06.03 11:33:40.
