data_PCOD9088884
_publ_section_title
;
Structure prediction by ZEFSAII (Michael W. Deem and Ramdas Pophale) SiO2 
 PCOD9088884
Probable space group: P -1
;
_chemical_formula_sum "Si O2"
_cell_formula_units_Z 16
_cell_length_a 12.737366
_cell_length_b 12.294057
_cell_length_c 11.365427
_cell_angle_alpha 69.096522
_cell_angle_beta 46.474413
_cell_angle_gamma 106.626134
_cell_volume 746.522691
_symmetry_space_group_name_H-M "P -1"
_symmetry_group_IT_number 2
_symmetry_cell_setting 'triclinic'
loop_
_space_group_symop_operation_xyz
x,y,z
-x,-y,-z
loop_
_atom_site_type_symbol
_atom_site_label
_atom_site_fract_x
_atom_site_fract_y
_atom_site_fract_z
Si Si1 0.197417 0.093291 0.904604
Si Si2 0.122391 0.271861 0.019818
Si Si3 0.257874 0.978313 0.116568
Si Si4 0.688997 0.368865 0.320514
Si Si5 0.752397 0.263879 0.908166
Si Si6 0.215028 0.941969 0.426793
Si Si7 0.208598 0.662514 0.497486
Si Si8 0.239511 0.811285 0.810765
O O1 0.260049 0.252893 0.862637
O O2 0.134969 0.966737 0.108060
O O3 0.415756 0.182036 0.630185
O O4 0.000000 0.000000 0.000000
O O5 0.275244 0.485446 0.828519
O O6 0.977737 0.142150 0.296970
O O7 0.926422 0.196110 0.111055
O O8 0.533987 0.187606 0.816928
O O9 0.241392 0.828978 0.163336
O O10 0.162234 0.944075 0.332746
O O11 0.788930 0.419656 0.357437
O O12 0.791233 0.332501 0.174447
O O13 0.766917 0.200018 0.041387
O O14 0.487939 0.149226 0.158668
O O15 0.982439 0.490117 0.658245
O O16 0.205122 0.793668 0.495229
O O17 0.500000 0.000000 0.500000
#
# Coordination Sequence:
#
# PCOD9088884 Si02
#       8
#     2   2   2   2   2   2   2   2
#     4  11  25  43  64  85 118 164 209 256 310 365
#     4  12  22  38  61  91 123 164 197 251 314 356
#     4  10  24  42  57  89 126 164 210 250 301 370
#     4  11  22  38  62  97 125 154 202 263 307 365
#     4  11  20  34  66  92 124 163 200 256 307 358
#     4  11  23  38  59  91 130 161 203 252 304 373
#     4  10  19  37  63  94 126 159 201 254 309 362
#     4  12  19  34  62  97 125 152 201 255 310 359
#
# _framework density 21.432704000000001
#
# number of rings (size 3 to 8) (size 9 to 14) (size 15 to 20)
#    0.000    1.000    3.750    6.000    0.000    2.500 
#    0.000    0.000    0.000    0.750    0.000    0.000 
#    0.000    0.000    0.000    0.000    0.000    0.000 
#
# Total GULP energy -89325.680702 kJ/mol
# GULP energy per Si atom -5582.855044 kJ/mol
# Density = 2.138392 g / cm^3
# Si number density = 21.432704 Si / 1000 Ang^3
#
#
#
# Elastic Constant Matrix: (Units=GPa)
#
#
# Indices 1 2 3 4 5 6 
#
# 1 108.8871 -0.5714 36.1675 1.5700 15.7417 10.9983
# 2 -0.5714 87.4143 18.0132 -5.7179 2.5430 0.6169
# 3 36.1675 18.0132 74.0104 -8.7993 14.3391 9.8485
# 4 1.5700 -5.7179 -8.7993 35.8565 8.0795 -4.5376
# 5 15.7417 2.5430 14.3391 8.0795 33.0970 -0.9637
# 6 10.9983 0.6169 9.8485 -4.5376 -0.9637 30.9398
#
#
#
# Elastic Compliance Matrix: (Units=1/GPa)
#
#
# Indices 1 2 3 4 5 6 
#
# 1 0.011658 0.001167 -0.005133 -0.001220 -0.003195 -0.002812
# 2 0.001167 0.012237 -0.003431 0.001198 -0.000284 0.000600
# 3 -0.005133 -0.003431 0.019399 0.005588 -0.007171 -0.003686
# 4 -0.001220 0.001198 0.005588 0.032068 -0.009673 0.003033
# 5 -0.003195 -0.000284 -0.007171 -0.009673 0.037316 0.003168
# 6 -0.002812 0.000600 -0.003686 0.003033 0.003168 0.035025
#
#
# Mechanical properties :
#
#
# Convention : Reuss Voigt Hill
#
# Bulk Modulus (GPa) = 35.08750 41.94782 38.51766
# Shear Modulus (GPa) = 29.07012 34.42550 31.74781
#
# Velocity S-wave (km/s) = 3.68685 4.01211 3.85291
# Velocity P-wave (km/s) = 5.87626 6.40914 6.14847
#
# Compressibility (1/GPa) = 0.02850018
#
# Stress axis : x y z
#
# Youngs Moduli (GPa) = 85.77467 81.72064 51.54830
#
# Poissons Ratio (x) = -0.09537 0.26461
# Poissons Ratio (y) = -0.10010 0.17686
# Poissons Ratio (z) = 0.44030 0.28038
#
# Static dielectric constant tensor:
#      x y z
#    x 1.788500 0.022280 0.007220 
#    y 0.022280 1.823980 -0.092540 
#    z 0.007220 -0.092540 1.779460 
# 
# From -- ./inp_files/531092.got.cif
#   From: 2010.05.17/outbox.cif.g08.bks.cpg/sg2_266_cif.got.tgz:531092.got - 2010.06.03 11:33:40.
