data_PCOD9088954
_publ_section_title
;
Structure prediction by ZEFSAII (Michael W. Deem and Ramdas Pophale) SiO2 
 PCOD9088954
Probable space group: P -1
;
_chemical_formula_sum "Si O2"
_cell_formula_units_Z 16
_cell_length_a 11.852697
_cell_length_b 8.954957
_cell_length_c 12.163979
_cell_angle_alpha 82.087724
_cell_angle_beta 57.665401
_cell_angle_gamma 53.420526
_cell_volume 844.244248
_symmetry_space_group_name_H-M "P -1"
_symmetry_group_IT_number 2
_symmetry_cell_setting 'triclinic'
loop_
_space_group_symop_operation_xyz
x,y,z
-x,-y,-z
loop_
_atom_site_type_symbol
_atom_site_label
_atom_site_fract_x
_atom_site_fract_y
_atom_site_fract_z
Si Si1 0.452605 0.184946 0.893984
Si Si2 0.330169 0.524165 0.086728
Si Si3 0.778903 0.569661 0.639686
Si Si4 0.208305 0.112203 0.123491
Si Si5 0.551220 0.999494 0.651722
Si Si6 0.970723 0.046439 0.880628
Si Si7 0.935697 0.513821 0.349345
Si Si8 0.262730 0.061936 0.661183
O O1 0.470322 0.181733 0.754379
O O2 0.648904 0.047128 0.848673
O O3 0.356212 0.369938 0.003106
O O4 0.338712 0.113834 0.977278
O O5 0.313840 0.479612 0.225638
O O6 0.172919 0.731171 0.102125
O O7 0.500000 0.500000 0.000000
O O8 0.811774 0.511958 0.499542
O O9 0.956027 0.462409 0.623575
O O10 0.682425 0.798449 0.668449
O O11 0.067712 0.318561 0.233562
O O12 0.101484 0.056742 0.124792
O O13 0.410507 0.982416 0.681030
O O14 0.647837 0.003419 0.497848
O O15 0.144150 0.001779 0.749581
O O16 0.000000 0.000000 0.000000
O O17 0.839111 0.706050 0.307808
#
# Coordination Sequence:
#
# PCOD9088954 Si02
#       8
#     2   2   2   2   2   2   2   2
#     4  11  20  37  63  89 116 155 209 243 289 353
#     4  12  24  40  59  90 123 157 200 245 297 361
#     4  10  19  37  64  87 117 153 201 241 300 346
#     4  11  21  37  61  91 120 153 202 250 291 353
#     4  10  21  38  68  89 116 164 200 246 291 356
#     4  12  26  41  59  89 127 160 190 250 310 351
#     4  10  19  37  65  88 114 156 197 251 290 350
#     4  10  22  41  61  90 125 156 203 238 301 363
#
# _framework density 18.951861000000001
#
# number of rings (size 3 to 8) (size 9 to 14) (size 15 to 20)
#    0.000    1.250    5.000    1.500    1.750    1.000 
#    2.250    3.750    0.000    3.000    0.000    0.000 
#    0.000    0.000    0.000    0.000    0.000    0.000 
#
# Total GULP energy -89116.845995 kJ/mol
# GULP energy per Si atom -5569.802875 kJ/mol
# Density = 1.890873 g / cm^3
# Si number density = 18.951861 Si / 1000 Ang^3
#
#
#
# Elastic Constant Matrix: (Units=GPa)
#
#
# Indices 1 2 3 4 5 6 
#
# 1 112.6041 12.1963 59.0106 -7.4529 -17.9021 13.3706
# 2 12.1963 31.0296 14.2621 4.5071 8.6806 4.2102
# 3 59.0106 14.2621 101.9127 -5.3690 -7.4515 15.6337
# 4 -7.4529 4.5071 -5.3690 27.6044 3.1396 0.1136
# 5 -17.9021 8.6806 -7.4515 3.1396 28.3307 -0.8850
# 6 13.3706 4.2102 15.6337 0.1136 -0.8850 20.6117
#
#
#
# Elastic Compliance Matrix: (Units=1/GPa)
#
#
# Indices 1 2 3 4 5 6 
#
# 1 0.014870 -0.005236 -0.006601 0.002589 0.008877 -0.003203
# 2 -0.005236 0.042211 -0.004032 -0.007191 -0.016594 -0.002840
# 3 -0.006601 -0.004032 0.015344 0.001808 0.000696 -0.006513
# 4 0.002589 -0.007191 0.001808 0.038459 -0.000003 -0.001794
# 5 0.008877 -0.016594 0.000696 -0.000003 0.046146 -0.000916
# 6 -0.003203 -0.002840 -0.006513 -0.001794 -0.000916 0.056085
#
#
# Mechanical properties :
#
#
# Convention : Reuss Voigt Hill
#
# Bulk Modulus (GPa) = 24.57741 46.27606 35.42674
# Shear Modulus (GPa) = 19.34888 25.98118 22.66503
#
# Velocity S-wave (km/s) = 3.19870 3.70659 3.46197
# Velocity P-wave (km/s) = 5.16127 6.54134 5.89185
#
# Compressibility (1/GPa) = 0.04068776
#
# Stress axis : x y z
#
# Youngs Moduli (GPa) = 67.25007 23.69075 65.17325
#
# Poissons Ratio (x) = 0.12404 0.43018
# Poissons Ratio (y) = 0.35211 0.26277
# Poissons Ratio (z) = 0.44389 0.09552
#
# Static dielectric constant tensor:
#      x y z
#    x 1.649310 0.011430 -0.015620 
#    y 0.011430 1.686880 -0.012770 
#    z -0.015620 -0.012770 1.764910 
# 
# From -- ./inp_files/308289.got.cif
#   From: 2010.05.17/outbox.cif.g08.bks.cpg/sg2_155_cif.got.tgz:308289.got - 2010.06.03 11:33:40.
