data_PCOD9088507
_publ_section_title
;
Structure prediction by ZEFSAII (Michael W. Deem and Ramdas Pophale) SiO2 
 PCOD9088507
Probable space group: P -1
;
_chemical_formula_sum "Si O2"
_cell_formula_units_Z 15
_cell_length_a 10.174604
_cell_length_b 11.927771
_cell_length_c 10.853652
_cell_angle_alpha 38.903283
_cell_angle_beta 139.033419
_cell_angle_gamma 116.944928
_cell_volume 512.590893
_symmetry_space_group_name_H-M "P -1"
_symmetry_group_IT_number 2
_symmetry_cell_setting 'triclinic'
loop_
_space_group_symop_operation_xyz
x,y,z
-x,-y,-z
loop_
_atom_site_type_symbol
_atom_site_label
_atom_site_fract_x
_atom_site_fract_y
_atom_site_fract_z
Si Si1 0.861842 0.368092 0.983375
Si Si2 0.477910 0.605959 0.675983
Si Si3 0.432545 0.878398 0.188938
Si Si4 0.979027 0.195387 0.574030
Si Si5 0.739179 0.569136 0.484129
Si Si6 0.199289 0.018101 0.530076
Si Si7 0.000000 0.000000 0.000000
Si Si8 0.295085 0.181987 0.209370
O O1 0.653929 0.472471 0.823231
O O2 0.798066 0.395206 0.771270
O O3 0.000000 0.500000 0.000000
O O4 0.971007 0.158965 0.292894
O O5 0.390332 0.794782 0.363841
O O6 0.317271 0.488407 0.642075
O O7 0.598637 0.650888 0.841337
O O8 0.563622 0.727767 0.308066
O O9 0.596570 0.991664 0.238508
O O10 0.203130 0.019293 0.869205
O O11 0.055406 0.367585 0.444664
O O12 0.908833 0.154925 0.693161
O O13 0.803128 0.164397 0.387839
O O14 0.207444 0.164114 0.299008
O O15 0.870291 0.855348 0.971589
O O16 0.500000 0.000000 0.500000
#
# Coordination Sequence:
#
# PCOD9088507 Si02
#       8
#     2   2   2   2   2   2   1   2
#     4  11  18  37  61  93 129 161 199 241 312 391
#     4  10  20  36  61  91 120 162 203 246 314 374
#     4  10  19  37  61  90 125 166 196 245 315 381
#     4  11  23  39  59  91 125 165 211 259 303 361
#     4  11  22  36  59  95 131 157 199 258 315 371
#     4  10  20  37  62  89 119 167 204 242 309 373
#     4  10  22  40  64  78 112 166 212 252 300 348
#     4  10  20  37  62  87 109 154 217 255 291 360
#
# _framework density 29.263103000000001
#
# number of rings (size 3 to 8) (size 9 to 14) (size 15 to 20)
#    0.000    1.600    4.000    5.200    0.000    1.600 
#    2.400    0.667    0.000   20.000    0.000    0.933 
#    0.000    0.000    0.000    0.000    0.000    0.000 
#
# Total GULP energy -83673.839674 kJ/mol
# GULP energy per Si atom -5578.255978 kJ/mol
# Density = 2.919650 g / cm^3
# Si number density = 29.263103 Si / 1000 Ang^3
#
#
#
# Elastic Constant Matrix: (Units=GPa)
#
#
# Indices 1 2 3 4 5 6 
#
# 1 43.1756 13.9669 1.6533 10.0199 -25.8461 -20.0135
# 2 13.9669 299.6724 20.5585 48.2899 4.0008 7.7770
# 3 1.6533 20.5585 82.9470 1.6478 -10.3736 -8.4233
# 4 10.0199 48.2899 1.6478 44.9994 8.4096 4.0439
# 5 -25.8461 4.0008 -10.3736 8.4096 36.5965 -2.7095
# 6 -20.0135 7.7770 -8.4233 4.0439 -2.7095 37.4613
#
#
#
# Elastic Compliance Matrix: (Units=1/GPa)
#
#
# Indices 1 2 3 4 5 6 
#
# 1 0.718657 -0.012602 0.127502 -0.318231 0.654987 0.496950
# 2 -0.012602 0.004342 -0.003199 0.001201 -0.011246 -0.009297
# 3 0.127502 -0.003199 0.035815 -0.057018 0.120441 0.091701
# 4 -0.318231 0.001201 -0.057018 0.169303 -0.296443 -0.222800
# 5 0.654987 -0.011246 0.120441 -0.296443 0.627209 0.456705
# 6 0.496950 -0.009297 0.091701 -0.222800 0.456705 0.371820
#
#
# Mechanical properties :
#
#
# Convention : Reuss Voigt Hill
#
# Bulk Modulus (GPa) = 1.01811 55.35027 28.18419
# Shear Modulus (GPa) = 2.46166 49.78584 26.12375
#
# Velocity S-wave (km/s) = 0.91817 4.12918 2.99108
# Velocity P-wave (km/s) = 1.21356 6.45672 4.64553
#
# Compressibility (1/GPa) = 0.98221330
#
# Stress axis : x y z
#
# Youngs Moduli (GPa) = 1.39148 230.32762 27.92117
#
# Poissons Ratio (x) = 2.90267 -3.55999
# Poissons Ratio (y) = 0.01754 0.08933
# Poissons Ratio (z) = -0.17742 0.73689
#
# Static dielectric constant tensor:
#      x y z
#    x 3.942330 0.263190 0.175760 
#    y 0.263190 2.359990 0.011100 
#    z 0.175760 0.011100 2.226580 
# 
# From -- ./inp_files/425191.got.cif
#   From: 2010.05.17/outbox.cif.g08.bks.cpg/sg2_213_cif.got.tgz:425191.got - 2010.06.03 11:33:40.
