data_PCOD9088210
_publ_section_title
;
Structure prediction by ZEFSAII (Michael W. Deem and Ramdas Pophale) SiO2 
 PCOD9088210
Probable space group: P -1
;
_chemical_formula_sum "Si O2"
_cell_formula_units_Z 14
_cell_length_a 7.175607
_cell_length_b 17.433485
_cell_length_c 5.594633
_cell_angle_alpha 57.462014
_cell_angle_beta 67.005719
_cell_angle_gamma 84.444920
_cell_volume 537.310822
_symmetry_space_group_name_H-M "P -1"
_symmetry_group_IT_number 2
_symmetry_cell_setting 'triclinic'
loop_
_space_group_symop_operation_xyz
x,y,z
-x,-y,-z
loop_
_atom_site_type_symbol
_atom_site_label
_atom_site_fract_x
_atom_site_fract_y
_atom_site_fract_z
Si Si1 0.716396 0.244133 0.131598
Si Si2 0.680441 0.907211 0.469391
Si Si3 0.116807 0.221462 0.734515
Si Si4 0.642584 0.605636 0.484180
Si Si5 0.556349 0.076588 0.038798
Si Si6 0.779660 0.279886 0.539374
Si Si7 0.226354 0.472596 0.944619
O O1 0.530289 0.161216 0.376489
O O2 0.745465 0.307847 0.240327
O O3 0.686178 0.300944 0.809136
O O4 0.930205 0.205787 0.041567
O O5 0.836032 0.865711 0.291587
O O6 0.655388 0.899302 0.781286
O O7 0.678801 0.015272 0.252483
O O8 0.306490 0.285998 0.653296
O O9 0.017775 0.283590 0.480397
O O10 0.408480 0.558034 0.668575
O O11 0.743018 0.588281 0.206857
O O12 0.732594 0.559251 0.750733
O O13 0.695405 0.169935 0.748200
O O14 0.500000 0.000000 0.000000
O O15 0.000000 0.500000 0.000000
#
# Coordination Sequence:
#
# PCOD9088210 Si02
#       7
#     2   2   2   2   2   2   2
#     4   9  20  39  55  83 119 155 204 255 305 377
#     4  10  21  39  59  84 120 166 215 260 328 364
#     4  10  24  39  60  94 128 162 203 266 318 368
#     4  10  23  42  68 102 137 164 217 265 303 402
#     4  10  19  37  60  80 118 167 218 273 302 380
#     4   9  20  38  57  80 121 155 206 259 310 354
#     4  10  22  45  72 100 132 173 212 250 323 385
#
# _framework density 26.055681
#
# number of rings (size 3 to 8) (size 9 to 14) (size 15 to 20)
#    0.857    1.429    1.429    0.429    2.000    2.857 
#    0.000    1.429    0.000    0.000    0.000    0.000 
#    0.000    0.000    0.000    0.000    0.000    0.000 
#
# Total GULP energy -78037.899975 kJ/mol
# GULP energy per Si atom -5574.135713 kJ/mol
# Density = 2.599638 g / cm^3
# Si number density = 26.055681 Si / 1000 Ang^3
#
#
#
# Elastic Constant Matrix: (Units=GPa)
#
#
# Indices 1 2 3 4 5 6 
#
# 1 83.3707 26.0970 51.1439 7.8589 -1.7173 15.5556
# 2 26.0970 113.7158 45.6844 40.1518 7.7768 7.5306
# 3 51.1439 45.6844 123.2245 30.3398 5.7963 4.2973
# 4 7.8589 40.1518 30.3398 55.4174 1.0706 6.1328
# 5 -1.7173 7.7768 5.7963 1.0706 54.8510 14.9814
# 6 15.5556 7.5306 4.2973 6.1328 14.9814 41.4404
#
#
#
# Elastic Compliance Matrix: (Units=1/GPa)
#
#
# Indices 1 2 3 4 5 6 
#
# 1 0.018637 -0.002343 -0.007783 0.004099 0.003770 -0.007732
# 2 -0.002343 0.013004 -0.001782 -0.008139 -0.001713 0.000525
# 3 -0.007783 -0.001782 0.013274 -0.005211 -0.002234 0.003448
# 4 0.004099 -0.008139 -0.005211 0.026648 0.002506 -0.004369
# 5 0.003770 -0.001713 -0.002234 0.002506 0.021213 -0.008912
# 6 -0.007732 0.000525 0.003448 -0.004369 -0.008912 0.030449
#
#
# Mechanical properties :
#
#
# Convention : Reuss Voigt Hill
#
# Bulk Modulus (GPa) = 47.40003 62.90685 55.15344
# Shear Modulus (GPa) = 32.45169 43.50080 37.97625
#
# Velocity S-wave (km/s) = 3.53296 4.09042 3.82187
# Velocity P-wave (km/s) = 5.90540 6.81941 6.37880
#
# Compressibility (1/GPa) = 0.02109703
#
# Stress axis : x y z
#
# Youngs Moduli (GPa) = 53.65730 76.90149 75.33375
#
# Poissons Ratio (x) = 0.18019 0.58635
# Poissons Ratio (y) = 0.12573 0.13427
# Poissons Ratio (z) = 0.41763 0.13707
#
# Static dielectric constant tensor:
#      x y z
#    x 2.202800 -0.030570 0.116420 
#    y -0.030570 2.048770 0.024790 
#    z 0.116420 0.024790 2.184240 
# 
# From -- ./inp_files/47294.got.cif
#   From: 2010.05.17/outbox.cif.g08.bks.cpg/sg2_24_cif.got.tgz:47294.got - 2010.06.03 11:33:40.
