data_PCOD9088881
_publ_section_title
;
Structure prediction by ZEFSAII (Michael W. Deem and Ramdas Pophale) SiO2 
 PCOD9088881
Probable space group: P -1
;
_chemical_formula_sum "Si O2"
_cell_formula_units_Z 16
_cell_length_a 9.335700
_cell_length_b 14.805517
_cell_length_c 23.458276
_cell_angle_alpha 161.398574
_cell_angle_beta 44.417830
_cell_angle_gamma 135.652252
_cell_volume 713.213478
_symmetry_space_group_name_H-M "P -1"
_symmetry_group_IT_number 2
_symmetry_cell_setting 'triclinic'
loop_
_space_group_symop_operation_xyz
x,y,z
-x,-y,-z
loop_
_atom_site_type_symbol
_atom_site_label
_atom_site_fract_x
_atom_site_fract_y
_atom_site_fract_z
Si Si1 0.357586 0.723281 0.195284
Si Si2 0.571030 0.301930 0.192348
Si Si3 0.206949 0.719280 0.055719
Si Si4 0.347220 0.353233 0.406903
Si Si5 0.327664 0.730836 0.454119
Si Si6 0.235222 0.843310 0.668749
Si Si7 0.576193 0.371105 0.754252
Si Si8 0.025134 0.653135 0.945481
O O1 0.308485 0.645152 0.228541
O O2 0.139975 0.640222 0.175443
O O3 0.516236 0.020311 0.320904
O O4 0.500000 0.500000 0.000000
O O5 0.472650 0.303699 0.283755
O O6 0.493025 0.546355 0.322382
O O7 0.819433 0.362196 0.159461
O O8 0.500000 0.000000 0.000000
O O9 0.419395 0.600652 0.937753
O O10 0.170948 0.725905 0.002217
O O11 0.000000 0.500000 0.000000
O O12 0.224517 0.036939 0.266898
O O13 0.500000 0.500000 0.500000
O O14 0.208039 0.585989 0.566823
O O15 0.184753 0.745361 0.559184
O O16 0.282932 0.602059 0.326455
O O17 0.422247 0.063017 0.613792
O O18 0.104397 0.088122 0.868146
#
# Coordination Sequence:
#
# PCOD9088881 Si02
#       8
#     2   2   2   2   2   2   2   2
#     4   9  19  36  63  93 134 171 211 273 330 394
#     4  11  21  46  67  94 134 185 225 272 337 407
#     4  12  24  40  68 100 131 172 235 280 334 407
#     4  11  26  44  69  97 139 180 220 287 346 396
#     4   9  18  37  64  90 127 172 218 268 328 391
#     4   9  21  41  64  95 135 173 218 273 346 394
#     4  10  19  37  63  93 130 177 216 270 338 395
#     4  11  22  40  69 100 124 180 225 270 329 411
#
# _framework density 22.433675999999998
#
# number of rings (size 3 to 8) (size 9 to 14) (size 15 to 20)
#    0.000    1.750    2.500    2.250    5.250    0.500 
#    2.250   11.250    0.000    0.000    0.000    0.000 
#    0.000    0.000    0.000    0.000    0.000    0.000 
#
# Total GULP energy -89288.848821 kJ/mol
# GULP energy per Si atom -5580.553051 kJ/mol
# Density = 2.238262 g / cm^3
# Si number density = 22.433676 Si / 1000 Ang^3
#
#
#
# Elastic Constant Matrix: (Units=GPa)
#
#
# Indices 1 2 3 4 5 6 
#
# 1 65.6409 15.6539 11.6080 22.6766 19.9728 -2.5515
# 2 15.6539 63.5094 12.1749 13.7084 2.0237 -0.6206
# 3 11.6080 12.1749 83.7603 27.2247 -1.7900 -6.1083
# 4 22.6766 13.7084 27.2247 36.5621 -4.1910 7.3274
# 5 19.9728 2.0237 -1.7900 -4.1910 36.0609 1.0795
# 6 -2.5515 -0.6206 -6.1083 7.3274 1.0795 38.3352
#
#
#
# Elastic Compliance Matrix: (Units=1/GPa)
#
#
# Indices 1 2 3 4 5 6 
#
# 1 0.029592 -0.002140 0.004360 -0.024568 -0.019144 0.007865
# 2 -0.002140 0.017500 -0.000520 -0.005108 -0.000448 0.001047
# 3 0.004360 -0.000520 0.017380 -0.017165 -0.003711 0.006437
# 4 -0.024568 -0.005108 -0.017165 0.063108 0.020888 -0.017104
# 5 -0.019144 -0.000448 -0.003711 0.020888 0.040813 -0.007015
# 6 0.007865 0.001047 0.006437 -0.017104 -0.007015 0.031118
#
#
# Mechanical properties :
#
#
# Convention : Reuss Voigt Hill
#
# Bulk Modulus (GPa) = 14.73372 32.42046 23.57709
# Shear Modulus (GPa) = 22.85883 33.75657 28.30770
#
# Velocity S-wave (km/s) = 3.19557 3.88329 3.55609
# Velocity P-wave (km/s) = 4.49416 5.88130 5.23389
#
# Compressibility (1/GPa) = 0.06787153
#
# Stress axis : x y z
#
# Youngs Moduli (GPa) = 33.79298 57.14327 57.53864
#
# Poissons Ratio (x) = 0.12227 -0.25086
# Poissons Ratio (y) = 0.07231 0.02992
# Poissons Ratio (z) = -0.14733 0.02972
#
# Static dielectric constant tensor:
#      x y z
#    x 1.845730 -0.000500 0.018140 
#    y -0.000500 2.004730 -0.002120 
#    z 0.018140 -0.002120 1.846800 
# 
# From -- ./inp_files/608198.got.cif
#   From: 2010.05.17/outbox.cif.g08.bks.cpg/sg2_305_cif.got.tgz:608198.got - 2010.06.03 11:33:40.
