data_PCOD9088167
_publ_section_title
;
Structure prediction by ZEFSAII (Michael W. Deem and Ramdas Pophale) SiO2 
 PCOD9088167
Probable space group: P -1
;
_chemical_formula_sum "Si O2"
_cell_formula_units_Z 11
_cell_length_a 10.448271
_cell_length_b 5.149905
_cell_length_c 12.649638
_cell_angle_alpha 78.655093
_cell_angle_beta 47.114027
_cell_angle_gamma 63.558072
_cell_volume 440.640418
_symmetry_space_group_name_H-M "P -1"
_symmetry_group_IT_number 2
_symmetry_cell_setting 'triclinic'
loop_
_space_group_symop_operation_xyz
x,y,z
-x,-y,-z
loop_
_atom_site_type_symbol
_atom_site_label
_atom_site_fract_x
_atom_site_fract_y
_atom_site_fract_z
Si Si1 0.359379 0.341418 0.573244
Si Si2 0.735595 0.769629 0.583750
Si Si3 0.277119 0.608631 0.979290
Si Si4 0.000000 0.000000 0.500000
Si Si5 0.743945 0.303332 0.776133
Si Si6 0.281538 0.169907 0.843947
O O1 0.500000 0.500000 0.500000
O O2 0.249430 0.407863 0.518926
O O3 0.234709 0.347418 0.745917
O O4 0.500000 0.000000 0.500000
O O5 0.806209 0.501773 0.647817
O O6 0.856598 0.955279 0.496744
O O7 0.516119 0.990829 0.718706
O O8 0.224622 0.389100 0.957116
O O9 0.223265 0.906017 0.918990
O O10 0.201638 0.688284 0.134399
O O11 0.151507 0.001937 0.319114
O O12 0.511521 0.438382 0.880036
#
# Coordination Sequence:
#
# PCOD9088167 Si02
#       6
#     2   2   2   1   2   2
#     4  10  20  35  61  88 119 150 198 256 293 336
#     4  10  22  35  58  89 122 154 199 242 303 349
#     4  10  21  36  62  85 118 149 202 243 299 342
#     4  12  22  38  56  86 128 162 192 238 298 366
#     4  10  22  36  56  86 118 158 195 246 292 354
#     4  10  19  37  59  89 114 150 195 254 291 344
#
# _framework density 24.963664999999999
#
# number of rings (size 3 to 8) (size 9 to 14) (size 15 to 20)
#    0.000    1.818    1.818    3.818    5.091    2.182 
#    0.000    0.000    0.000    2.182    0.000    0.000 
#    0.000    0.000    0.000    0.000    0.000    0.000 
#
# Total GULP energy -61254.299449 kJ/mol
# GULP energy per Si atom -5568.572677 kJ/mol
# Density = 2.490685 g / cm^3
# Si number density = 24.963665 Si / 1000 Ang^3
#
#
#
# Elastic Constant Matrix: (Units=GPa)
#
#
# Indices 1 2 3 4 5 6 
#
# 1 32.5854 114.5110 109.7295 6.1450 -11.7555 75.8801
# 2 114.5110 -50.2787 -126.7724 -4.5463 42.5558 -88.9559
# 3 109.7295 -126.7724 36.9001 13.0445 66.1550 -99.3207
# 4 6.1450 -4.5463 13.0445 34.6330 10.5034 3.8970
# 5 -11.7555 42.5558 66.1550 10.5034 28.9379 27.2846
# 6 75.8801 -88.9559 -99.3207 3.8970 27.2846 -40.8174
#
#
#
# Elastic Compliance Matrix: (Units=1/GPa)
#
#
# Indices 1 2 3 4 5 6 
#
# 1 0.008353 0.000931 0.001950 -0.000660 -0.006373 0.004434
# 2 0.000931 0.009553 -0.002859 0.002796 0.001864 -0.010619
# 3 0.001950 -0.002859 0.005052 -0.001504 -0.002192 -0.004045
# 4 -0.000660 0.002796 -0.001504 0.032856 -0.007590 -0.005597
# 5 -0.006373 0.001864 -0.002192 -0.007590 0.029227 0.008236
# 6 0.004434 -0.010619 -0.004045 -0.005597 0.008236 0.021701
#
#
# Mechanical properties :
#
#
# Convention : Reuss Voigt Hill
#
# Bulk Modulus (GPa) = 43.47730 23.79365 33.63548
# Shear Modulus (GPa) = 43.71876 -0.66671 21.52603
#
# Velocity S-wave (km/s) = 4.18939 -0.51735 2.93967
# Velocity P-wave (km/s) = 6.39182 3.03235 5.00252
#
# Compressibility (1/GPa) = 0.02300051
#
# Stress axis : x y z
#
# Youngs Moduli (GPa) = 119.71045 104.67583 197.94666
#
# Poissons Ratio (x) = -0.09742 -0.38593
# Poissons Ratio (y) = -0.11141 0.56602
# Poissons Ratio (z) = -0.23339 0.29931
#
# Static dielectric constant tensor:
#      x y z
#    x 1.890560 0.400220 0.169200 
#    y 0.400220 1.366950 -0.199440 
#    z 0.169200 -0.199440 1.900930 
# 
# From -- ./inp_files/407888.got.cif
#   From: 2010.05.17/outbox.cif.g08.bks.cpg/sg2_204_cif.got.tgz:407888.got - 2010.06.03 11:33:40.
