data_PCOD9088727
_publ_section_title
;
Structure prediction by ZEFSAII (Michael W. Deem and Ramdas Pophale) SiO2 
 PCOD9088727
Probable space group: P -1
;
_chemical_formula_sum "Si O2"
_cell_formula_units_Z 16
_cell_length_a 10.691111
_cell_length_b 4.907535
_cell_length_c 18.013877
_cell_angle_alpha 120.862196
_cell_angle_beta 120.816812
_cell_angle_gamma 73.876128
_cell_volume 696.615086
_symmetry_space_group_name_H-M "P -1"
_symmetry_group_IT_number 2
_symmetry_cell_setting 'triclinic'
loop_
_space_group_symop_operation_xyz
x,y,z
-x,-y,-z
loop_
_atom_site_type_symbol
_atom_site_label
_atom_site_fract_x
_atom_site_fract_y
_atom_site_fract_z
Si Si1 0.344357 0.595695 0.169920
Si Si2 0.066130 0.875212 0.291646
Si Si3 0.900088 0.804662 0.498581
Si Si4 0.267246 0.276335 0.795599
Si Si5 0.654690 0.439182 0.291125
Si Si6 0.892660 0.808604 0.007407
Si Si7 0.373320 0.263350 0.986450
Si Si8 0.870173 0.815500 0.800163
O O1 0.486165 0.541352 0.254089
O O2 0.351807 0.358100 0.908222
O O3 0.261348 0.929022 0.198095
O O4 0.231880 0.302968 0.103238
O O5 0.901821 0.766418 0.242472
O O6 0.157743 0.555142 0.257178
O O7 0.121986 0.025446 0.405721
O O8 0.070987 0.105406 0.254399
O O9 0.752019 0.676780 0.400829
O O10 0.000000 0.500000 0.500000
O O11 0.000000 0.000000 0.500000
O O12 0.289004 0.525495 0.771603
O O13 0.609329 0.452571 0.909350
O O14 0.323177 0.930724 0.734521
O O15 0.785863 0.857200 0.052639
O O16 0.003048 0.096624 0.088815
O O17 0.000000 0.500000 0.000000
O O18 0.500000 0.000000 0.000000
#
# Coordination Sequence:
#
# PCOD9088727 Si02
#       8
#     2   2   2   2   2   2   2   2
#     4   9  22  42  64  93 137 180 218 268 332 389
#     4  12  23  40  68  97 129 165 230 272 324 394
#     4  12  23  42  68 102 129 166 215 278 347 400
#     4  12  23  38  66  98 131 171 208 273 332 395
#     4  12  24  43  64  96 137 165 214 272 346 394
#     4   8  17  38  61  86 128 174 219 254 314 393
#     4  10  19  37  62  98 131 168 220 267 333 381
#     4  11  23  43  65  94 130 184 222 266 319 403
#
# _framework density 22.968208000000001
#
# number of rings (size 3 to 8) (size 9 to 14) (size 15 to 20)
#    0.750    0.500    5.000    1.500    0.000    1.500 
#    0.000   15.000    0.000    0.000    0.000    0.000 
#    0.000    0.000    0.000    0.000    0.000    0.000 
#
# Total GULP energy -89501.889831 kJ/mol
# GULP energy per Si atom -5593.868114 kJ/mol
# Density = 2.291593 g / cm^3
# Si number density = 22.968208 Si / 1000 Ang^3
#
#
#
# Elastic Constant Matrix: (Units=GPa)
#
#
# Indices 1 2 3 4 5 6 
#
# 1 84.8216 28.6648 31.6072 -6.8613 6.6530 -19.5383
# 2 28.6648 98.4482 38.5399 4.8562 0.4609 -3.9601
# 3 31.6072 38.5399 182.1937 -14.7809 -7.9939 -13.0839
# 4 -6.8613 4.8562 -14.7809 37.7270 -9.2608 4.2256
# 5 6.6530 0.4609 -7.9939 -9.2608 43.7408 0.4009
# 6 -19.5383 -3.9601 -13.0839 4.2256 0.4009 42.3530
#
#
#
# Elastic Compliance Matrix: (Units=1/GPa)
#
#
# Indices 1 2 3 4 5 6 
#
# 1 0.015281 -0.003712 -0.001407 0.001455 -0.002290 0.006144
# 2 -0.003712 0.012266 -0.002308 -0.003213 -0.000658 -0.000952
# 3 -0.001407 -0.002308 0.006622 0.003052 0.002087 0.000857
# 4 0.001455 -0.003213 0.003052 0.030245 0.006790 -0.001768
# 5 -0.002290 -0.000658 0.002087 0.006790 0.025049 -0.001388
# 6 0.006144 -0.000952 0.000857 -0.001768 -0.001388 0.026811
#
#
# Mechanical properties :
#
#
# Convention : Reuss Voigt Hill
#
# Bulk Modulus (GPa) = 51.77952 62.56528 57.17240
# Shear Modulus (GPa) = 36.34625 42.54092 39.44359
#
# Velocity S-wave (km/s) = 3.98233 4.30835 4.14854
# Velocity P-wave (km/s) = 6.61349 7.21445 6.92049
#
# Compressibility (1/GPa) = 0.01931265
#
# Stress axis : x y z
#
# Youngs Moduli (GPa) = 65.44102 81.52911 151.01878
#
# Poissons Ratio (x) = 0.30267 0.21246
# Poissons Ratio (y) = 0.24295 0.34862
# Poissons Ratio (z) = 0.09207 0.18821
#
# Static dielectric constant tensor:
#      x y z
#    x 1.994320 0.064960 -0.011830 
#    y 0.064960 1.825620 -0.014280 
#    z -0.011830 -0.014280 1.835370 
# 
# From -- ./inp_files/609117.got.cif
#   From: 2010.05.17/outbox.cif.g08.bks.cpg/sg2_305_cif.got.tgz:609117.got - 2010.06.03 11:33:40.
