data_PCOD9088116
_publ_section_title
;
Structure prediction by ZEFSAII (Michael W. Deem and Ramdas Pophale) SiO2 
 PCOD9088116
Probable space group: P -1
;
_chemical_formula_sum "Si O2"
_cell_formula_units_Z 16
_cell_length_a 19.428920
_cell_length_b 8.077808
_cell_length_c 7.232397
_cell_angle_alpha 108.925588
_cell_angle_beta 97.882772
_cell_angle_gamma 134.119051
_cell_volume 651.492152
_symmetry_space_group_name_H-M "P -1"
_symmetry_group_IT_number 2
_symmetry_cell_setting 'triclinic'
loop_
_space_group_symop_operation_xyz
x,y,z
-x,-y,-z
loop_
_atom_site_type_symbol
_atom_site_label
_atom_site_fract_x
_atom_site_fract_y
_atom_site_fract_z
Si Si1 0.839410 0.751131 0.503112
Si Si2 0.590056 0.452976 0.829187
Si Si3 0.523764 0.358559 0.376487
Si Si4 0.986110 0.164897 0.359923
Si Si5 0.378144 0.790547 0.975253
Si Si6 0.164049 0.850849 0.287684
Si Si7 0.085162 0.662688 0.816001
Si Si8 0.634698 0.794167 0.263724
O O1 0.928493 0.812920 0.676173
O O2 0.819717 0.906624 0.627752
O O3 0.722838 0.423399 0.286297
O O4 0.905223 0.916809 0.393308
O O5 0.590332 0.410887 0.595787
O O6 0.637135 0.384179 0.934956
O O7 0.458751 0.240387 0.760729
O O8 0.648183 0.744054 0.044135
O O9 0.500000 0.500000 0.500000
O O10 0.588430 0.535461 0.275183
O O11 0.407155 0.029228 0.172368
O O12 0.070269 0.473942 0.601145
O O13 0.905456 0.127094 0.193510
O O14 0.500000 0.000000 0.000000
O O15 0.039614 0.574932 0.223024
O O16 0.250389 0.935931 0.492226
O O17 0.169940 0.794476 0.061380
#
# Coordination Sequence:
#
# PCOD9088116 Si02
#       8
#     2   2   2   2   2   2   2   2
#     4  10  21  37  60  83 118 156 189 250 293 347
#     4  10  21  37  59  84 120 162 200 245 288 361
#     4  10  22  39  58  84 117 157 202 247 292 360
#     4   9  20  40  57  87 117 147 200 242 299 345
#     4  12  22  39  59  87 124 162 202 248 303 353
#     4  10  19  37  59  84 117 152 192 239 301 345
#     4   9  20  37  60  85 114 150 193 245 289 364
#     4  10  20  39  58  87 123 161 196 249 300 350
#
# _framework density 24.559004999999999
#
# number of rings (size 3 to 8) (size 9 to 14) (size 15 to 20)
#    0.000    2.000    2.500    0.375    0.000    4.500 
#    2.250    1.250    0.000    0.000    0.000    0.000 
#    0.000    0.000    0.000    0.000    0.000    0.000 
#
# Total GULP energy -89351.302360 kJ/mol
# GULP energy per Si atom -5584.456398 kJ/mol
# Density = 2.450311 g / cm^3
# Si number density = 24.559005 Si / 1000 Ang^3
#
#
#
# Elastic Constant Matrix: (Units=GPa)
#
#
# Indices 1 2 3 4 5 6 
#
# 1 54.7363 3.8077 2.5986 4.3405 14.7233 -1.3504
# 2 3.8077 56.3640 11.7658 0.4063 -2.2542 3.6316
# 3 2.5986 11.7658 92.4698 -8.6276 9.1223 14.5195
# 4 4.3405 0.4063 -8.6276 27.5735 -0.6837 0.5770
# 5 14.7233 -2.2542 9.1223 -0.6837 32.4410 -0.9197
# 6 -1.3504 3.6316 14.5195 0.5770 -0.9197 17.6368
#
#
#
# Elastic Compliance Matrix: (Units=1/GPa)
#
#
# Indices 1 2 3 4 5 6 
#
# 1 0.021385 -0.001924 0.000028 -0.003608 -0.009877 0.001613
# 2 -0.001924 0.018597 -0.002344 -0.000597 0.002758 -0.001883
# 3 0.000028 -0.002344 0.013698 0.004444 -0.004250 -0.011159
# 4 -0.003608 -0.000597 0.004444 0.038364 0.001013 -0.005014
# 5 -0.009877 0.002758 -0.004250 0.001013 0.036831 0.004062
# 6 0.001613 -0.001883 -0.011159 -0.005014 0.004062 0.066773
#
#
# Mechanical properties :
#
#
# Convention : Reuss Voigt Hill
#
# Bulk Modulus (GPa) = 22.12361 26.65715 24.39038
# Shear Modulus (GPa) = 22.81083 27.89014 25.35049
#
# Velocity S-wave (km/s) = 3.05096 3.37358 3.21632
# Velocity P-wave (km/s) = 4.63023 5.10418 4.87297
#
# Compressibility (1/GPa) = 0.04520059
#
# Stress axis : x y z
#
# Youngs Moduli (GPa) = 46.76266 53.77187 73.00353
#
# Poissons Ratio (x) = 0.10343 -0.00207
# Poissons Ratio (y) = 0.08995 0.17114
# Poissons Ratio (z) = -0.00132 0.12606
#
# Static dielectric constant tensor:
#      x y z
#    x 1.989060 0.020100 -0.037570 
#    y 0.020100 2.045840 -0.075950 
#    z -0.037570 -0.075950 2.106980 
# 
# From -- ./inp_files/352306.got.cif
#   From: 2010.05.17/outbox.cif.g08.bks.cpg/sg2_177_cif.got.tgz:352306.got - 2010.06.03 11:33:40.
