data_PCOD9088852
_publ_section_title
;
Structure prediction by ZEFSAII (Michael W. Deem and Ramdas Pophale) SiO2 
 PCOD9088852
Probable space group: P -1
;
_chemical_formula_sum "Si O2"
_cell_formula_units_Z 15
_cell_length_a 7.222586
_cell_length_b 14.022241
_cell_length_c 7.007974
_cell_angle_alpha 64.801451
_cell_angle_beta 62.119976
_cell_angle_gamma 63.872135
_cell_volume 541.216180
_symmetry_space_group_name_H-M "P -1"
_symmetry_group_IT_number 2
_symmetry_cell_setting 'triclinic'
loop_
_space_group_symop_operation_xyz
x,y,z
-x,-y,-z
loop_
_atom_site_type_symbol
_atom_site_label
_atom_site_fract_x
_atom_site_fract_y
_atom_site_fract_z
Si Si1 0.510966 0.111876 0.998607
Si Si2 0.196222 0.014956 0.754694
Si Si3 0.196400 0.693444 0.909870
Si Si4 0.305483 0.412590 0.311372
Si Si5 0.847179 0.423373 0.424253
Si Si6 0.874270 0.173306 0.524304
Si Si7 0.799472 0.772199 0.227127
Si Si8 0.000000 0.500000 0.000000
O O1 0.682552 0.148270 0.754898
O O2 0.284179 0.199623 0.973186
O O3 0.597336 0.089418 0.192649
O O4 0.500000 0.000000 0.000000
O O5 0.271642 0.117149 0.710326
O O6 0.086909 0.069039 0.561989
O O7 0.000000 0.000000 0.000000
O O8 0.452265 0.625747 0.853837
O O9 0.172670 0.801431 0.696829
O O10 0.062394 0.741181 0.121546
O O11 0.063223 0.611404 0.968753
O O12 0.104599 0.423999 0.248050
O O13 0.278023 0.319020 0.548716
O O14 0.234069 0.522900 0.380070
O O15 0.858432 0.298955 0.489747
O O16 0.755856 0.518331 0.231877
#
# Coordination Sequence:
#
# PCOD9088852 Si02
#       8
#     2   2   2   2   2   2   2   1
#     4   9  19  36  64  87 116 161 201 251 310 357
#     4   9  19  38  65  88 118 160 205 257 309 358
#     4  11  24  38  62  92 126 164 204 249 300 368
#     4  11  22  41  63  88 125 170 201 242 310 366
#     4  10  22  39  62  90 127 164 204 250 298 368
#     4  10  19  37  63  91 124 159 204 253 303 360
#     4  11  20  41  63  91 122 161 207 248 305 371
#     4  10  22  40  56  96 126 154 210 248 288 362
#
# _framework density 27.715361000000001
#
# number of rings (size 3 to 8) (size 9 to 14) (size 15 to 20)
#    0.000    1.867    4.000    0.000    0.000    3.733 
#    0.000   13.333    0.000    0.000    0.000    0.000 
#    0.000    0.000    0.000    0.000    0.000    0.000 
#
# Total GULP energy -83603.262064 kJ/mol
# GULP energy per Si atom -5573.550804 kJ/mol
# Density = 2.765228 g / cm^3
# Si number density = 27.715361 Si / 1000 Ang^3
#
#
#
# Elastic Constant Matrix: (Units=GPa)
#
#
# Indices 1 2 3 4 5 6 
#
# 1 113.0230 35.7019 38.7837 -10.1532 2.0698 -23.2836
# 2 35.7019 60.1602 59.3493 -36.5143 -9.9347 -17.7246
# 3 38.7837 59.3493 137.1518 -28.9151 -8.1794 -8.4114
# 4 -10.1532 -36.5143 -28.9151 59.7252 -8.4669 -1.7886
# 5 2.0698 -9.9347 -8.1794 -8.4669 44.2188 -6.0674
# 6 -23.2836 -17.7246 -8.4114 -1.7886 -6.0674 51.5072
#
#
#
# Elastic Compliance Matrix: (Units=1/GPa)
#
#
# Indices 1 2 3 4 5 6 
#
# 1 0.011959 -0.009702 -0.000238 -0.004456 -0.003435 0.001469
# 2 -0.009702 0.076264 -0.018912 0.040045 0.024927 0.023097
# 3 -0.000238 -0.018912 0.013873 -0.005517 -0.003406 -0.004943
# 4 -0.004456 0.040045 -0.005517 0.040776 0.017968 0.014397
# 5 -0.003435 0.024927 -0.003406 0.017968 0.032688 0.010943
# 6 0.001469 0.023097 -0.004943 0.014397 0.010943 0.029009
#
#
# Mechanical properties :
#
#
# Convention : Reuss Voigt Hill
#
# Bulk Modulus (GPa) = 22.52653 64.22274 43.37463
# Shear Modulus (GPa) = 18.04605 42.85690 30.45147
#
# Velocity S-wave (km/s) = 2.55448 3.93660 3.31829
# Velocity P-wave (km/s) = 4.10438 6.62457 5.51048
#
# Compressibility (1/GPa) = 0.04439210
#
# Stress axis : x y z
#
# Youngs Moduli (GPa) = 83.61728 13.11240 72.08350
#
# Poissons Ratio (x) = 0.12721 0.01715
# Poissons Ratio (y) = 0.81122 1.36326
# Poissons Ratio (z) = 0.01990 0.24799
#
# Static dielectric constant tensor:
#      x y z
#    x 3.726490 -0.335540 0.708030 
#    y -0.335540 2.311090 -0.086300 
#    z 0.708030 -0.086300 2.486360 
# 
# From -- ./inp_files/214213.got.cif
#   From: 2010.05.17/outbox.cif.g08.bks.cpg/sg2_108_cif.got.tgz:214213.got - 2010.06.03 11:33:40.
