data_PCOD9088443
_publ_section_title
;
Structure prediction by ZEFSAII (Michael W. Deem and Ramdas Pophale) SiO2 
 PCOD9088443
Probable space group: P -1
;
_chemical_formula_sum "Si O2"
_cell_formula_units_Z 12
_cell_length_a 11.868846
_cell_length_b 17.285778
_cell_length_c 7.989416
_cell_angle_alpha 50.890389
_cell_angle_beta 52.274287
_cell_angle_gamma 19.431795
_cell_volume 422.210314
_symmetry_space_group_name_H-M "P -1"
_symmetry_group_IT_number 2
_symmetry_cell_setting 'triclinic'
loop_
_space_group_symop_operation_xyz
x,y,z
-x,-y,-z
loop_
_atom_site_type_symbol
_atom_site_label
_atom_site_fract_x
_atom_site_fract_y
_atom_site_fract_z
Si Si1 0.704525 0.475367 0.150263
Si Si2 0.796403 0.325295 0.830713
Si Si3 0.726335 0.873353 0.130495
Si Si4 0.173706 0.984552 0.449442
Si Si5 0.339579 0.263435 0.405898
Si Si6 0.813534 0.517634 0.331169
O O1 0.320600 0.686462 0.173659
O O2 0.745682 0.520798 0.205771
O O3 0.910394 0.242236 0.321962
O O4 0.902919 0.393604 0.921179
O O5 0.790774 0.433860 0.587278
O O6 0.147500 0.107963 0.909757
O O7 0.500000 0.500000 0.000000
O O8 0.558454 0.909290 0.372424
O O9 0.500000 0.000000 0.000000
O O10 0.345226 0.870408 0.634635
O O11 0.511884 0.781100 0.306358
O O12 0.000000 0.000000 0.500000
O O13 0.000000 0.500000 0.500000
O O14 0.173056 0.343508 0.270100
#
# Coordination Sequence:
#
# PCOD9088443 Si02
#       6
#     2   2   2   2   2   2
#     4  11  21  37  63  90 117 156 202 249 297 354
#     4   9  19  34  57  83 122 156 191 240 302 352
#     4  10  19  37  61  87 117 164 197 245 301 356
#     4  11  21  35  59  87 120 155 194 242 306 347
#     4   9  20  39  60  86 121 157 199 244 301 361
#     4  10  21  38  60  90 118 155 204 248 295 352
#
# _framework density 28.421852999999999
#
# number of rings (size 3 to 8) (size 9 to 14) (size 15 to 20)
#    0.000    2.000    3.333    0.500    0.000    0.667 
#    0.000    3.333    0.000   24.000    0.000    0.000 
#    0.000    0.000    0.000    0.000    0.000    0.000 
#
# Total GULP energy -67065.800096 kJ/mol
# GULP energy per Si atom -5588.816675 kJ/mol
# Density = 2.835716 g / cm^3
# Si number density = 28.421853 Si / 1000 Ang^3
#
#
#
# Elastic Constant Matrix: (Units=GPa)
#
#
# Indices 1 2 3 4 5 6 
#
# 1 295.3957 72.5473 44.6527 -15.1439 29.3911 -72.9270
# 2 72.5473 127.4912 25.2367 8.8673 10.8603 -27.1503
# 3 44.6527 25.2367 106.4952 -7.3786 -9.3226 -11.5610
# 4 -15.1439 8.8673 -7.3786 37.7641 -5.4048 11.6816
# 5 29.3911 10.8603 -9.3226 -5.4048 39.9764 -8.0136
# 6 -72.9270 -27.1503 -11.5610 11.6816 -8.0136 71.2301
#
#
#
# Elastic Compliance Matrix: (Units=1/GPa)
#
#
# Indices 1 2 3 4 5 6 
#
# 1 0.005400 -0.001625 -0.001649 0.000489 -0.003001 0.004224
# 2 -0.001625 0.010158 -0.001965 -0.004464 -0.002149 0.002379
# 3 -0.001649 -0.001965 0.011080 0.002802 0.004593 -0.000582
# 4 0.000489 -0.004464 0.002802 0.030549 0.004587 -0.005240
# 5 -0.003001 -0.002149 0.004593 0.004587 0.029377 -0.000593
# 6 0.004224 0.002379 -0.000582 -0.005240 -0.000593 0.019969
#
#
# Mechanical properties :
#
#
# Convention : Reuss Voigt Hill
#
# Bulk Modulus (GPa) = 61.88446 90.47286 76.17866
# Shear Modulus (GPa) = 40.85015 55.59049 48.22032
#
# Velocity S-wave (km/s) = 3.79526 4.42736 4.12344
# Velocity P-wave (km/s) = 6.40517 7.61818 7.03785
#
# Compressibility (1/GPa) = 0.01615915
#
# Stress axis : x y z
#
# Youngs Moduli (GPa) = 185.17945 98.44702 90.25044
#
# Poissons Ratio (x) = 0.16001 0.14885
# Poissons Ratio (y) = 0.30097 0.17733
# Poissons Ratio (z) = 0.30543 0.19343
#
# Static dielectric constant tensor:
#      x y z
#    x 2.321370 0.056200 -0.020660 
#    y 0.056200 2.231950 -0.101940 
#    z -0.020660 -0.101940 2.433380 
# 
# From -- ./inp_files/147963.got.cif
#   From: 2010.05.17/outbox.cif.g08.bks.cpg/sg2_74_cif.got.tgz:147963.got - 2010.06.03 11:33:40.
