data_PCOD9088242
_publ_section_title
;
Structure prediction by ZEFSAII (Michael W. Deem and Ramdas Pophale) SiO2 
 PCOD9088242
Probable space group: P -1
;
_chemical_formula_sum "Si O2"
_cell_formula_units_Z 16
_cell_length_a 7.557571
_cell_length_b 8.941242
_cell_length_c 16.502514
_cell_angle_alpha 56.917582
_cell_angle_beta 109.557989
_cell_angle_gamma 136.762126
_cell_volume 636.210599
_symmetry_space_group_name_H-M "P -1"
_symmetry_group_IT_number 2
_symmetry_cell_setting 'triclinic'
loop_
_space_group_symop_operation_xyz
x,y,z
-x,-y,-z
loop_
_atom_site_type_symbol
_atom_site_label
_atom_site_fract_x
_atom_site_fract_y
_atom_site_fract_z
Si Si1 0.277165 0.846305 0.405756
Si Si2 0.423837 0.814321 0.942810
Si Si3 0.660662 0.171610 0.242530
Si Si4 0.106592 0.309105 0.082535
Si Si5 0.854197 0.636410 0.511477
Si Si6 0.981357 0.298343 0.888182
Si Si7 0.536883 0.679056 0.334727
Si Si8 0.921919 0.811763 0.234779
O O1 0.269889 0.627304 0.467357
O O2 0.065716 0.765638 0.328632
O O3 0.157137 0.832855 0.476058
O O4 0.538037 0.101960 0.333563
O O5 0.476590 0.806522 0.857683
O O6 0.157186 0.752419 0.920830
O O7 0.677725 0.086820 0.924347
O O8 0.356321 0.597410 0.049957
O O9 0.940323 0.446935 0.197136
O O10 0.595968 0.927710 0.277527
O O11 0.074431 0.099604 0.180987
O O12 0.106665 0.296939 0.988285
O O13 0.722438 0.712598 0.421802
O O14 0.753346 0.562343 0.609757
O O15 0.066752 0.245285 0.838268
O O16 0.636931 0.664684 0.270354
#
# Coordination Sequence:
#
# PCOD9088242 Si02
#       8
#     2   2   2   2   2   2   2   2
#     4   9  17  33  59  86 115 150 189 231 292 341
#     4  10  20  40  59  81 113 159 192 235 286 329
#     4  10  19  37  60  84 117 155 191 234 277 345
#     4  10  22  38  58  82 119 151 197 237 276 334
#     4   8  16  31  59  90 107 147 196 230 286 349
#     4  11  23  37  57  87 120 151 191 236 287 329
#     4   9  17  33  61  86 113 150 193 234 284 342
#     4  11  20  35  57  86 117 154 190 236 282 337
#
# _framework density 25.148904999999999
#
# number of rings (size 3 to 8) (size 9 to 14) (size 15 to 20)
#    0.000    2.250    2.500    0.750    0.000    0.500 
#    2.250    1.250    0.000   28.500    0.000    0.000 
#    0.000    0.000    0.000    0.000    0.000    0.000 
#
# Total GULP energy -89330.087541 kJ/mol
# GULP energy per Si atom -5583.130471 kJ/mol
# Density = 2.509167 g / cm^3
# Si number density = 25.148905 Si / 1000 Ang^3
#
#
#
# Elastic Constant Matrix: (Units=GPa)
#
#
# Indices 1 2 3 4 5 6 
#
# 1 73.2557 6.7926 36.6696 3.8689 -32.3158 -9.1370
# 2 6.7926 39.2429 31.9243 -8.5562 -20.6640 4.3761
# 3 36.6696 31.9243 151.7810 -21.1993 -30.8203 0.9807
# 4 3.8689 -8.5562 -21.1993 33.2108 -2.4971 -9.2314
# 5 -32.3158 -20.6640 -30.8203 -2.4971 56.3221 2.3973
# 6 -9.1370 4.3761 0.9807 -9.2314 2.3973 21.2206
#
#
#
# Elastic Compliance Matrix: (Units=1/GPa)
#
#
# Indices 1 2 3 4 5 6 
#
# 1 0.021046 0.004511 -0.003955 -0.001150 0.011237 0.006545
# 2 0.004511 0.038350 -0.005482 0.005557 0.014113 -0.004890
# 3 -0.003955 -0.005482 0.009742 0.005730 0.001248 0.001329
# 4 -0.001150 0.005557 0.005730 0.039873 0.005653 0.014801
# 5 0.011237 0.014113 0.001248 0.005653 0.030275 0.000909
# 6 0.006545 -0.004890 0.001329 0.014801 0.000909 0.057225
#
#
# Mechanical properties :
#
#
# Convention : Reuss Voigt Hill
#
# Bulk Modulus (GPa) = 16.86761 46.11696 31.49229
# Shear Modulus (GPa) = 22.11156 34.74357 28.42757
#
# Velocity S-wave (km/s) = 2.96839 3.72090 3.36574
# Velocity P-wave (km/s) = 4.29769 6.06939 5.25869
#
# Compressibility (1/GPa) = 0.05928521
#
# Stress axis : x y z
#
# Youngs Moduli (GPa) = 47.51447 26.07586 102.64653
#
# Poissons Ratio (x) = -0.11762 0.40592
# Poissons Ratio (y) = -0.21432 0.56276
# Poissons Ratio (z) = 0.18790 0.14296
#
# Static dielectric constant tensor:
#      x y z
#    x 2.057550 0.007780 -0.083410 
#    y 0.007780 2.059250 0.000400 
#    z -0.083410 0.000400 1.985460 
# 
# From -- ./inp_files/340341.got.cif
#   From: 2010.05.17/outbox.cif.g08.bks.cpg/sg2_171_cif.got.tgz:340341.got - 2010.06.03 11:33:40.
