data_PCOD9088646
_publ_section_title
;
Structure prediction by ZEFSAII (Michael W. Deem and Ramdas Pophale) SiO2 
 PCOD9088646
Probable space group: P -1
;
_chemical_formula_sum "Si O2"
_cell_formula_units_Z 16
_cell_length_a 7.742031
_cell_length_b 9.778793
_cell_length_c 14.060882
_cell_angle_alpha 61.852251
_cell_angle_beta 137.184771
_cell_angle_gamma 116.714215
_cell_volume 628.336052
_symmetry_space_group_name_H-M "P -1"
_symmetry_group_IT_number 2
_symmetry_cell_setting 'triclinic'
loop_
_space_group_symop_operation_xyz
x,y,z
-x,-y,-z
loop_
_atom_site_type_symbol
_atom_site_label
_atom_site_fract_x
_atom_site_fract_y
_atom_site_fract_z
Si Si1 0.593900 0.215084 0.563256
Si Si2 0.252776 0.260771 0.670744
Si Si3 0.670172 0.795840 0.934851
Si Si4 0.923679 0.091089 0.212255
Si Si5 0.495043 0.861042 0.652047
Si Si6 0.133176 0.379806 0.774903
Si Si7 0.907422 0.685340 0.620917
Si Si8 0.751780 0.153013 0.923937
O O1 0.652560 0.215986 0.473891
O O2 0.869343 0.249574 0.712614
O O3 0.393910 0.331446 0.463456
O O4 0.447681 0.039492 0.589058
O O5 0.104742 0.265557 0.510451
O O6 0.555370 0.262049 0.772500
O O7 0.218001 0.387022 0.696291
O O8 0.170982 0.089854 0.742022
O O9 0.650863 0.676358 0.053636
O O10 0.956763 0.792870 0.010543
O O11 0.487868 0.769491 0.777568
O O12 0.669668 0.973034 0.913442
O O13 0.209502 0.110883 0.275984
O O14 0.945896 0.191002 0.284712
O O15 0.755384 0.148006 0.041780
O O16 0.031332 0.530396 0.723388
#
# Coordination Sequence:
#
# PCOD9088646 Si02
#       8
#     2   2   2   2   2   2   2   2
#     4  10  19  38  61  86 118 149 196 243 284 335
#     4  12  22  39  61  85 114 157 197 237 288 339
#     4  10  19  37  62  90 115 146 192 240 291 338
#     4  10  20  39  60  88 115 147 197 244 283 337
#     4   9  18  35  63  93 113 142 197 252 280 326
#     4  12  23  39  57  87 123 154 190 236 293 350
#     4  11  25  39  57  84 121 159 192 235 290 346
#     4  10  20  37  64  90 110 146 196 247 283 337
#
# _framework density 25.464081
#
# number of rings (size 3 to 8) (size 9 to 14) (size 15 to 20)
#    0.000    1.500    2.500    4.500    0.000    0.000 
#    2.250    7.500    0.000    0.000    0.000    0.000 
#    0.000    0.000    0.000    0.000    0.000    0.000 
#
# Total GULP energy -89658.974959 kJ/mol
# GULP energy per Si atom -5603.685935 kJ/mol
# Density = 2.540612 g / cm^3
# Si number density = 25.464081 Si / 1000 Ang^3
#
#
#
# Elastic Constant Matrix: (Units=GPa)
#
#
# Indices 1 2 3 4 5 6 
#
# 1 90.9138 19.7402 22.6009 1.3582 2.9816 -28.7021
# 2 19.7402 85.4232 37.5408 -4.2879 -2.9804 -35.6226
# 3 22.6009 37.5408 162.5681 16.2200 -38.0143 -20.0410
# 4 1.3582 -4.2879 16.2200 33.8092 -15.3391 6.4702
# 5 2.9816 -2.9804 -38.0143 -15.3391 38.2645 -2.3709
# 6 -28.7021 -35.6226 -20.0410 6.4702 -2.3709 34.7922
#
#
#
# Elastic Compliance Matrix: (Units=1/GPa)
#
#
# Indices 1 2 3 4 5 6 
#
# 1 0.015923 0.003448 -0.001219 -0.004041 -0.002780 0.016525
# 2 0.003448 0.022025 -0.002477 -0.000676 0.000209 0.024108
# 3 -0.001219 -0.002477 0.009452 -0.001262 0.008956 0.002747
# 4 -0.004041 -0.000676 -0.001262 0.038631 0.013813 -0.010995
# 5 -0.002780 0.000209 0.008956 0.013813 0.041007 0.003305
# 6 0.016525 0.024108 0.002747 -0.010995 0.003305 0.070910
#
#
# Mechanical properties :
#
#
# Convention : Reuss Voigt Hill
#
# Bulk Modulus (GPa) = 21.32121 55.40766 38.36444
# Shear Modulus (GPa) = 23.35588 38.64139 30.99863
#
# Velocity S-wave (km/s) = 3.03183 3.89972 3.49284
# Velocity P-wave (km/s) = 4.54392 6.48718 5.60048
#
# Compressibility (1/GPa) = 0.04690165
#
# Stress axis : x y z
#
# Youngs Moduli (GPa) = 62.80374 45.40288 105.80093
#
# Poissons Ratio (x) = -0.15654 0.12901
# Poissons Ratio (y) = -0.21654 0.26210
# Poissons Ratio (z) = 0.07658 0.11247
#
# Static dielectric constant tensor:
#      x y z
#    x 2.070880 0.018120 0.009560 
#    y 0.018120 1.971170 0.029230 
#    z 0.009560 0.029230 1.997400 
# 
# From -- ./inp_files/226479.got.cif
#   From: 2010.05.17/outbox.cif.g08.bks.cpg/sg2_114_cif.got.tgz:226479.got - 2010.06.03 11:33:40.
