data_PCOD9088438
_publ_section_title
;
Structure prediction by ZEFSAII (Michael W. Deem and Ramdas Pophale) SiO2 
 PCOD9088438
Probable space group: P -1
;
_chemical_formula_sum "Si O2"
_cell_formula_units_Z 16
_cell_length_a 10.858611
_cell_length_b 21.319991
_cell_length_c 14.525468
_cell_angle_alpha 32.237697
_cell_angle_beta 28.884365
_cell_angle_gamma 36.299011
_cell_volume 838.172600
_symmetry_space_group_name_H-M "P -1"
_symmetry_group_IT_number 2
_symmetry_cell_setting 'triclinic'
loop_
_space_group_symop_operation_xyz
x,y,z
-x,-y,-z
loop_
_atom_site_type_symbol
_atom_site_label
_atom_site_fract_x
_atom_site_fract_y
_atom_site_fract_z
Si Si1 0.170440 0.132523 0.804238
Si Si2 0.205103 0.037524 0.107459
Si Si3 0.131820 0.285227 0.914171
Si Si4 0.780393 0.422855 0.133546
Si Si5 0.206366 0.378238 0.547798
Si Si6 0.887234 0.679916 0.777246
Si Si7 0.370885 0.877217 0.921655
Si Si8 0.279668 0.789108 0.296808
O O1 0.219615 0.265872 0.608438
O O2 0.872831 0.138529 0.960829
O O3 0.210120 0.087131 0.939592
O O4 0.349576 0.021510 0.765577
O O5 0.937124 0.846522 0.882990
O O6 0.133065 0.909891 0.301112
O O7 0.500000 0.000000 0.000000
O O8 0.121753 0.338592 0.752259
O O9 0.431640 0.262976 0.783375
O O10 0.938925 0.372807 0.000284
O O11 0.491840 0.402381 0.342522
O O12 0.941857 0.349326 0.204807
O O13 0.776072 0.563383 0.975362
O O14 0.000000 0.500000 0.500000
O O15 0.091171 0.699538 0.541574
O O16 0.644195 0.796299 0.805562
O O17 0.323108 0.828245 0.115854
#
# Coordination Sequence:
#
# PCOD9088438 Si02
#       8
#     2   2   2   2   2   2   2   2
#     4   9  20  38  62  89 120 156 193 237 295 353
#     4   8  17  34  60  87 116 150 192 239 290 344
#     4  10  20  39  59  86 119 150 194 247 287 349
#     4  11  24  38  57  88 118 155 203 238 287 351
#     4  11  23  41  61  85 122 159 192 240 294 347
#     4  11  23  37  58  89 119 153 199 245 287 347
#     4  10  20  40  62  88 121 152 192 244 296 345
#     4  10  19  37  61  87 114 155 193 238 302 341
#
# _framework density 19.089147000000001
#
# number of rings (size 3 to 8) (size 9 to 14) (size 15 to 20)
#    0.000    2.000    2.500    0.750    0.000    4.000 
#    0.000    9.375    0.000    0.000    0.000    0.000 
#    0.000    0.000    0.000    0.000    0.000    0.000 
#
# Total GULP energy -89233.241086 kJ/mol
# GULP energy per Si atom -5577.077568 kJ/mol
# Density = 1.904570 g / cm^3
# Si number density = 19.089147 Si / 1000 Ang^3
#
#
#
# Elastic Constant Matrix: (Units=GPa)
#
#
# Indices 1 2 3 4 5 6 
#
# 1 86.1671 31.3380 2.6891 -10.3730 -2.6130 -2.9320
# 2 31.3380 108.2576 8.9343 -2.3439 -6.9157 -4.2426
# 3 2.6891 8.9343 31.8751 -4.9864 0.3047 4.1314
# 4 -10.3730 -2.3439 -4.9864 25.9745 5.2448 4.6101
# 5 -2.6130 -6.9157 0.3047 5.2448 25.3127 -7.1292
# 6 -2.9320 -4.2426 4.1314 4.6101 -7.1292 23.7138
#
#
#
# Elastic Compliance Matrix: (Units=1/GPa)
#
#
# Indices 1 2 3 4 5 6 
#
# 1 0.013650 -0.003994 0.000924 0.005574 -0.001010 -0.000575
# 2 -0.003994 0.011083 -0.003795 -0.002931 0.004408 0.004045
# 3 0.000924 -0.003795 0.035356 0.009992 -0.006422 -0.010598
# 4 0.005574 -0.002931 0.009992 0.048047 -0.014613 -0.015310
# 5 -0.001010 0.004408 -0.006422 -0.014613 0.049177 0.019408
# 6 -0.000575 0.004045 -0.010598 -0.015310 0.019408 0.053479
#
#
# Mechanical properties :
#
#
# Convention : Reuss Voigt Hill
#
# Bulk Modulus (GPa) = 21.57014 34.69139 28.13076
# Shear Modulus (GPa) = 20.83548 27.22276 24.02912
#
# Velocity S-wave (km/s) = 3.30734 3.78045 3.55178
# Velocity P-wave (km/s) = 5.09008 6.10480 5.62039
#
# Compressibility (1/GPa) = 0.04636039
#
# Stress axis : x y z
#
# Youngs Moduli (GPa) = 73.26049 90.22644 28.28362
#
# Poissons Ratio (x) = 0.36036 -0.02614
# Poissons Ratio (y) = 0.29260 0.10733
# Poissons Ratio (z) = -0.06771 0.34238
#
# Static dielectric constant tensor:
#      x y z
#    x 1.651190 0.023950 -0.002200 
#    y 0.023950 1.677340 -0.045510 
#    z -0.002200 -0.045510 1.659450 
# 
# From -- ./inp_files/524036.got.cif
#   From: 2010.05.17/outbox.cif.g08.bks.cpg/sg2_263_cif.got.tgz:524036.got - 2010.06.03 11:33:40.
