data_PCOD9088960
_publ_section_title
;
Structure prediction by ZEFSAII (Michael W. Deem and Ramdas Pophale) SiO2 
 PCOD9088960
Probable space group: P -1
;
_chemical_formula_sum "Si O2"
_cell_formula_units_Z 16
_cell_length_a 11.277485
_cell_length_b 19.663930
_cell_length_c 18.706953
_cell_angle_alpha 21.247241
_cell_angle_beta 143.758513
_cell_angle_gamma 152.023747
_cell_volume 701.877402
_symmetry_space_group_name_H-M "P -1"
_symmetry_group_IT_number 2
_symmetry_cell_setting 'triclinic'
loop_
_space_group_symop_operation_xyz
x,y,z
-x,-y,-z
loop_
_atom_site_type_symbol
_atom_site_label
_atom_site_fract_x
_atom_site_fract_y
_atom_site_fract_z
Si Si1 0.313317 0.513718 0.191262
Si Si2 0.475626 0.637854 0.670059
Si Si3 0.589818 0.912458 0.227018
Si Si4 0.761270 0.102683 0.268629
Si Si5 0.416247 0.259036 0.229389
Si Si6 0.632059 0.355682 0.753822
Si Si7 0.043736 0.540398 0.397145
Si Si8 0.119908 0.771853 0.499697
O O1 0.485920 0.492253 0.244175
O O2 0.406792 0.558396 0.274635
O O3 0.027421 0.273811 0.272080
O O4 0.313875 0.729838 0.954058
O O5 0.656318 0.729369 0.736496
O O6 0.190575 0.458041 0.737428
O O7 0.553521 0.880541 0.434217
O O8 0.562983 0.757583 0.297460
O O9 0.311584 0.757529 0.282413
O O10 0.770560 0.994134 0.304047
O O11 0.650371 0.148762 0.990122
O O12 0.643109 0.234969 0.367633
O O13 0.200712 0.026866 0.308905
O O14 0.500000 0.500000 0.000000
O O15 0.899110 0.573426 0.638350
O O16 0.976211 0.311116 0.546568
O O17 0.000000 0.500000 0.500000
#
# Coordination Sequence:
#
# PCOD9088960 Si02
#       8
#     2   2   2   2   2   2   2   2
#     4  10  22  36  59  93 120 158 203 255 308 368
#     4  11  22  37  62  87 123 155 203 256 303 371
#     4   9  18  35  63  88 117 171 206 251 307 370
#     4  10  20  37  59  86 122 161 201 247 316 359
#     4  10  22  38  59  92 122 156 206 256 311 368
#     4   9  18  37  60  86 124 158 212 247 305 371
#     4  10  19  37  64  87 121 165 209 255 310 363
#     4   9  20  38  64  86 118 167 200 251 310 369
#
# _framework density 22.796005999999998
#
# number of rings (size 3 to 8) (size 9 to 14) (size 15 to 20)
#    0.000    2.250    1.250    1.125    0.000    6.000 
#    0.000    3.125   16.500    0.000    0.000    0.000 
#    0.000    0.000    0.000    0.000    0.000    0.000 
#
# Total GULP energy -89289.823735 kJ/mol
# GULP energy per Si atom -5580.613983 kJ/mol
# Density = 2.274412 g / cm^3
# Si number density = 22.796006 Si / 1000 Ang^3
#
#
#
# Elastic Constant Matrix: (Units=GPa)
#
#
# Indices 1 2 3 4 5 6 
#
# 1 150.8622 56.8825 43.5276 -21.3722 0.9117 -40.4054
# 2 56.8825 72.2078 62.9490 -27.8842 3.4041 -23.6668
# 3 43.5276 62.9490 99.3738 -15.3785 -16.7004 -29.1026
# 4 -21.3722 -27.8842 -15.3785 32.5879 -8.8498 5.8013
# 5 0.9117 3.4041 -16.7004 -8.8498 29.8981 -3.8769
# 6 -40.4054 -23.6668 -29.1026 5.8013 -3.8769 55.3619
#
#
#
# Elastic Compliance Matrix: (Units=1/GPa)
#
#
# Indices 1 2 3 4 5 6 
#
# 1 0.011006 -0.010682 0.004487 0.000266 0.004256 0.006095
# 2 -0.010682 0.062636 -0.035489 0.025159 -0.019660 -0.003689
# 3 0.004487 -0.035489 0.036591 -0.005343 0.024003 0.009580
# 4 0.000266 0.025159 -0.005343 0.051970 0.009966 0.003393
# 5 0.004256 -0.019660 0.024003 0.009966 0.053210 0.010002
# 6 0.006095 -0.003689 0.009580 0.003393 0.010002 0.026315
#
#
# Mechanical properties :
#
#
# Convention : Reuss Voigt Hill
#
# Bulk Modulus (GPa) = 37.22319 72.12910 54.67614
# Shear Modulus (GPa) = 14.96785 34.17524 24.57154
#
# Velocity S-wave (km/s) = 2.56520 3.87612 3.28668
# Velocity P-wave (km/s) = 5.01377 7.19321 6.20001
#
# Compressibility (1/GPa) = 0.02686498
#
# Stress axis : x y z
#
# Youngs Moduli (GPa) = 90.85931 15.96533 27.32944
#
# Poissons Ratio (x) = 0.17055 -0.12264
# Poissons Ratio (y) = 0.97058 0.96989
# Poissons Ratio (z) = -0.40773 0.56659
#
# Static dielectric constant tensor:
#      x y z
#    x 1.870220 -0.023440 0.024220 
#    y -0.023440 1.992630 -0.000190 
#    z 0.024220 -0.000190 1.836600 
# 
# From -- ./inp_files/568178.got.cif
#   From: 2010.05.17/outbox.cif.g08.bks.cpg/sg2_285_cif.got.tgz:568178.got - 2010.06.03 11:33:40.
