data_PCOD9088533
_publ_section_title
;
Structure prediction by ZEFSAII (Michael W. Deem and Ramdas Pophale) SiO2 
 PCOD9088533
Probable space group: P -1
;
_chemical_formula_sum "Si O2"
_cell_formula_units_Z 14
_cell_length_a 15.308236
_cell_length_b 10.165371
_cell_length_c 8.898897
_cell_angle_alpha 109.043949
_cell_angle_beta 132.639005
_cell_angle_gamma 106.098471
_cell_volume 671.630086
_symmetry_space_group_name_H-M "P -1"
_symmetry_group_IT_number 2
_symmetry_cell_setting 'triclinic'
loop_
_space_group_symop_operation_xyz
x,y,z
-x,-y,-z
loop_
_atom_site_type_symbol
_atom_site_label
_atom_site_fract_x
_atom_site_fract_y
_atom_site_fract_z
Si Si1 0.093895 0.709774 0.116606
Si Si2 0.350500 0.730237 0.248753
Si Si3 0.127536 0.222552 0.168678
Si Si4 0.498846 0.585817 0.879323
Si Si5 0.408925 0.949505 0.123970
Si Si6 0.320545 0.387671 0.166158
Si Si7 0.331082 0.979327 0.744640
O O1 0.228301 0.749988 0.176270
O O2 0.177213 0.869303 0.408670
O O3 0.000000 0.500000 0.000000
O O4 0.963260 0.705264 0.887939
O O5 0.368362 0.777701 0.109946
O O6 0.296120 0.530168 0.153092
O O7 0.526950 0.895443 0.610722
O O8 0.314141 0.396756 0.524207
O O9 0.172282 0.225131 0.048202
O O10 0.000000 0.000000 0.000000
O O11 0.652128 0.665200 0.978938
O O12 0.500000 0.500000 0.000000
O O13 0.540318 0.783082 0.019292
O O14 0.571001 0.062173 0.245530
O O15 0.281642 0.898838 0.828791
O O16 0.500000 0.500000 0.500000
#
# Coordination Sequence:
#
# PCOD9088533 Si02
#       7
#     2   2   2   2   2   2   2
#     4  11  23  41  65  89 130 168 205 262 328 382
#     4  10  19  37  61  94 121 166 210 259 315 383
#     4  11  24  42  66  96 129 172 214 260 327 386
#     4  11  23  41  67  93 127 167 218 265 313 381
#     4   9  19  33  61  89 121 155 214 262 302 371
#     4  10  21  38  64  88 127 168 217 254 314 381
#     4  10  21  37  61  91 124 163 211 261 316 371
#
# _framework density 20.844809999999999
#
# number of rings (size 3 to 8) (size 9 to 14) (size 15 to 20)
#    0.000    1.714    1.429    3.429    4.000    6.857 
#    0.000    5.000    0.000    0.000    0.000    0.000 
#    0.000    0.000    0.000    0.000    0.000    0.000 
#
# Total GULP energy -77969.429581 kJ/mol
# GULP energy per Si atom -5569.244970 kJ/mol
# Density = 2.079737 g / cm^3
# Si number density = 20.844810 Si / 1000 Ang^3
#
#
#
# Elastic Constant Matrix: (Units=GPa)
#
#
# Indices 1 2 3 4 5 6 
#
# 1 98.2632 45.2268 27.3871 -10.9974 -2.9717 10.8460
# 2 45.2268 144.4363 34.3601 0.6789 -5.0583 20.4058
# 3 27.3871 34.3601 64.0547 -2.4116 -4.1565 9.6779
# 4 -10.9974 0.6789 -2.4116 40.2806 4.9150 -1.1916
# 5 -2.9717 -5.0583 -4.1565 4.9150 24.6509 -7.2604
# 6 10.8460 20.4058 9.6779 -1.1916 -7.2604 39.1782
#
#
#
# Elastic Compliance Matrix: (Units=1/GPa)
#
#
# Indices 1 2 3 4 5 6 
#
# 1 0.013130 -0.003116 -0.003687 0.003469 -0.000701 -0.001126
# 2 -0.003116 0.009092 -0.003107 -0.001320 0.000320 -0.003086
# 3 -0.003687 -0.003107 0.019233 -0.000056 0.001639 -0.001810
# 4 0.003469 -0.001320 -0.000056 0.026420 -0.005257 -0.000429
# 5 -0.000701 0.000320 0.001639 -0.005257 0.044122 0.007639
# 6 -0.001126 -0.003086 -0.001810 -0.000429 0.007639 0.029293
#
#
# Mechanical properties :
#
#
# Convention : Reuss Voigt Hill
#
# Bulk Modulus (GPa) = 46.22530 57.85580 52.04055
# Shear Modulus (GPa) = 29.70499 34.14061 31.92280
#
# Velocity S-wave (km/s) = 3.77908 4.05142 3.91762
# Velocity P-wave (km/s) = 6.42387 7.04990 6.74415
#
# Compressibility (1/GPa) = 0.02163318
#
# Stress axis : x y z
#
# Youngs Moduli (GPa) = 76.16253 109.98913 51.99489
#
# Poissons Ratio (x) = 0.34273 0.19171
# Poissons Ratio (y) = 0.23732 0.16157
# Poissons Ratio (z) = 0.28082 0.34178
#
# Static dielectric constant tensor:
#      x y z
#    x 1.824730 -0.003200 0.011530 
#    y -0.003200 1.769820 -0.040660 
#    z 0.011530 -0.040660 1.834860 
# 
# From -- ./inp_files/294538.got.cif
#   From: 2010.05.17/outbox.cif.g08.bks.cpg/sg2_148_cif.got.tgz:294538.got - 2010.06.03 11:33:40.
