data_PCOD9088260
_publ_section_title
;
Structure prediction by ZEFSAII (Michael W. Deem and Ramdas Pophale) SiO2 
 PCOD9088260
Probable space group: P -1
;
_chemical_formula_sum "Si O2"
_cell_formula_units_Z 15
_cell_length_a 8.938817
_cell_length_b 12.349153
_cell_length_c 13.962607
_cell_angle_alpha 149.009662
_cell_angle_beta 124.934870
_cell_angle_gamma 66.316738
_cell_volume 635.895768
_symmetry_space_group_name_H-M "P -1"
_symmetry_group_IT_number 2
_symmetry_cell_setting 'triclinic'
loop_
_space_group_symop_operation_xyz
x,y,z
-x,-y,-z
loop_
_atom_site_type_symbol
_atom_site_label
_atom_site_fract_x
_atom_site_fract_y
_atom_site_fract_z
Si Si1 0.180672 0.329427 0.606910
Si Si2 0.295540 0.969134 0.953014
Si Si3 0.522898 0.106273 0.857774
Si Si4 0.727802 0.366028 0.965779
Si Si5 0.854221 0.659823 0.929020
Si Si6 0.000000 0.500000 0.500000
Si Si7 0.101413 0.021799 0.653888
Si Si8 0.547208 0.430521 0.749270
O O1 0.285955 0.426551 0.817007
O O2 0.084417 0.488418 0.630426
O O3 0.341650 0.278495 0.557503
O O4 0.024601 0.134934 0.437276
O O5 0.155838 0.735577 0.715201
O O6 0.204264 0.156748 0.018083
O O7 0.347382 0.000744 0.108066
O O8 0.500000 0.000000 0.000000
O O9 0.308719 0.984583 0.687941
O O10 0.610483 0.169809 0.834920
O O11 0.506023 0.335467 0.075002
O O12 0.654539 0.366745 0.832375
O O13 0.948920 0.380405 0.060892
O O14 0.883458 0.748248 0.116105
O O15 0.679025 0.461415 0.728486
O O16 0.000000 0.000000 0.500000
#
# Coordination Sequence:
#
# PCOD9088260 Si02
#       8
#     2   2   2   2   2   1   2   2
#     4  11  20  37  62  88 114 158 211 252 298 368
#     4  12  20  41  66  90 122 161 219 254 301 376
#     4  10  20  38  61  88 117 168 204 249 305 374
#     4  11  22  38  60  90 124 158 203 253 320 369
#     4  11  23  38  61  91 122 162 197 260 318 360
#     4  12  20  36  66  90 118 154 220 258 290 362
#     4  11  21  37  62  88 118 158 211 252 298 372
#     4  10  19  37  60  85 117 163 207 243 298 382
#
# _framework density 23.588771999999999
#
# number of rings (size 3 to 8) (size 9 to 14) (size 15 to 20)
#    0.000    1.067    6.667    4.400    0.000    0.533 
#    0.000    4.000    0.000    4.000    0.000    0.000 
#    0.000    0.000    0.000    0.000    0.000    0.000 
#
# Total GULP energy -83512.109072 kJ/mol
# GULP energy per Si atom -5567.473938 kJ/mol
# Density = 2.353508 g / cm^3
# Si number density = 23.588772 Si / 1000 Ang^3
#
#
#
# Elastic Constant Matrix: (Units=GPa)
#
#
# Indices 1 2 3 4 5 6 
#
# 1 107.1588 43.0317 37.3219 27.1452 54.8199 7.5116
# 2 43.0317 128.4850 29.1451 -14.6921 25.4376 23.3476
# 3 37.3219 29.1451 75.7261 7.5108 27.3017 14.0996
# 4 27.1452 -14.6921 7.5108 36.4638 11.4707 10.3383
# 5 54.8199 25.4376 27.3017 11.4707 54.1058 13.9329
# 6 7.5116 23.3476 14.0996 10.3383 13.9329 34.2278
#
#
#
# Elastic Compliance Matrix: (Units=1/GPa)
#
#
# Indices 1 2 3 4 5 6 
#
# 1 0.036126 -0.013077 -0.003993 -0.028953 -0.028188 0.022856
# 2 -0.013077 0.016269 -0.000935 0.019113 0.006174 -0.016129
# 3 -0.003993 -0.000935 0.017511 0.001409 -0.003432 -0.004728
# 4 -0.028953 0.019113 0.001409 0.060671 0.014931 -0.031667
# 5 -0.028188 0.006174 -0.003432 0.014931 0.048029 -0.020672
# 6 0.022856 -0.016129 -0.004728 -0.031667 -0.020672 0.055129
#
#
# Mechanical properties :
#
#
# Convention : Reuss Voigt Hill
#
# Bulk Modulus (GPa) = 29.50225 58.92971 44.21598
# Shear Modulus (GPa) = 17.79076 38.41756 28.10416
#
# Velocity S-wave (km/s) = 2.74926 4.04002 3.45544
# Velocity P-wave (km/s) = 4.75520 6.84095 5.89112
#
# Compressibility (1/GPa) = 0.03389572
#
# Stress axis : x y z
#
# Youngs Moduli (GPa) = 27.68056 61.46711 57.10594
#
# Poissons Ratio (x) = 0.80380 0.22805
# Poissons Ratio (y) = 0.36198 0.05340
# Poissons Ratio (z) = 0.11054 0.05747
#
# Static dielectric constant tensor:
#      x y z
#    x 1.963900 0.010440 0.044780 
#    y 0.010440 1.895950 0.036270 
#    z 0.044780 0.036270 2.015140 
# 
# From -- ./inp_files/212669.got.cif
#   From: 2010.05.17/outbox.cif.g08.bks.cpg/sg2_107_cif.got.tgz:212669.got - 2010.06.03 11:33:40.
