data_PCOD9088555
_publ_section_title
;
Structure prediction by ZEFSAII (Michael W. Deem and Ramdas Pophale) SiO2 
 PCOD9088555
Probable space group: P -1
;
_chemical_formula_sum "Si O2"
_cell_formula_units_Z 15
_cell_length_a 17.959357
_cell_length_b 8.947259
_cell_length_c 11.382809
_cell_angle_alpha 70.877001
_cell_angle_beta 158.253486
_cell_angle_gamma 109.173450
_cell_volume 638.751321
_symmetry_space_group_name_H-M "P -1"
_symmetry_group_IT_number 2
_symmetry_cell_setting 'triclinic'
loop_
_space_group_symop_operation_xyz
x,y,z
-x,-y,-z
loop_
_atom_site_type_symbol
_atom_site_label
_atom_site_fract_x
_atom_site_fract_y
_atom_site_fract_z
Si Si1 0.688075 0.810378 0.612431
Si Si2 0.481501 0.386932 0.244092
Si Si3 0.000000 0.000000 0.000000
Si Si4 0.718351 0.931059 0.865543
Si Si5 0.826900 0.364687 0.309690
Si Si6 0.208768 0.683176 0.453825
Si Si7 0.776928 0.175776 0.076634
Si Si8 0.181495 0.524823 0.101464
O O1 0.808994 0.913313 0.870197
O O2 0.698731 0.630561 0.713268
O O3 0.464516 0.853506 0.258516
O O4 0.843166 0.866807 0.727222
O O5 0.333029 0.242993 0.111648
O O6 0.567922 0.349001 0.253043
O O7 0.680126 0.395216 0.614492
O O8 0.376666 0.551794 0.046707
O O9 0.155695 0.855076 0.290149
O O10 0.500000 0.000000 0.500000
O O11 0.832207 0.043925 0.097897
O O12 0.819064 0.329253 0.444307
O O13 0.856370 0.209016 0.315063
O O14 0.000000 0.500000 0.500000
O O15 0.044614 0.550200 0.194042
O O16 0.821424 0.345131 0.036510
#
# Coordination Sequence:
#
# PCOD9088555 Si02
#       8
#     2   2   1   2   2   2   2   2
#     4  10  19  37  61  99 128 175 217 288 332 396
#     4  12  23  43  69 102 137 180 230 290 341 403
#     4  10  24  40  70  98 136 172 236 278 348 400
#     4  10  20  34  66  94 133 169 227 277 338 393
#     4  12  26  45  69  97 144 187 230 276 345 419
#     4  11  25  44  69 103 139 180 225 290 348 405
#     4  11  20  38  64 100 128 180 231 277 336 401
#     4  11  20  37  71  98 129 172 239 279 333 406
#
# _framework density 23.483317
#
# number of rings (size 3 to 8) (size 9 to 14) (size 15 to 20)
#    0.000    1.067    5.333    3.600    1.867    0.000 
#    0.000    3.333    5.867    0.000    0.000    0.000 
#    0.000    0.000    0.000    0.000    0.000    0.000 
#
# Total GULP energy -83610.145215 kJ/mol
# GULP energy per Si atom -5574.009681 kJ/mol
# Density = 2.342987 g / cm^3
# Si number density = 23.483317 Si / 1000 Ang^3
#
#
#
# Elastic Constant Matrix: (Units=GPa)
#
#
# Indices 1 2 3 4 5 6 
#
# 1 97.2053 27.6642 23.4168 12.5435 -21.1549 1.8686
# 2 27.6642 109.5017 25.0820 12.8031 -22.3024 8.4813
# 3 23.4168 25.0820 46.3904 1.7722 1.2371 1.8376
# 4 12.5435 12.8031 1.7722 42.8045 -9.2198 -3.4462
# 5 -21.1549 -22.3024 1.2371 -9.2198 30.0461 4.1287
# 6 1.8686 8.4813 1.8376 -3.4462 4.1287 41.8554
#
#
#
# Elastic Compliance Matrix: (Units=1/GPa)
#
#
# Indices 1 2 3 4 5 6 
#
# 1 0.014621 0.000656 -0.007879 -0.001978 0.010726 -0.001661
# 2 0.000656 0.013378 -0.007633 -0.001879 0.010625 -0.003608
# 3 -0.007879 -0.007633 0.029886 0.000825 -0.012449 0.001882
# 4 -0.001978 -0.001879 0.000825 0.025664 0.004768 0.002076
# 5 0.010726 0.010625 -0.012449 0.004768 0.051629 -0.006786
# 6 -0.001661 -0.003608 0.001882 0.002076 -0.006786 0.025455
#
#
# Mechanical properties :
#
#
# Convention : Reuss Voigt Hill
#
# Bulk Modulus (GPa) = 35.49614 45.04701 40.27158
# Shear Modulus (GPa) = 25.03296 34.73684 29.88490
#
# Velocity S-wave (km/s) = 3.26849 3.85023 3.57122
# Velocity P-wave (km/s) = 5.42147 6.24419 5.84732
#
# Compressibility (1/GPa) = 0.02817207
#
# Stress axis : x y z
#
# Youngs Moduli (GPa) = 68.39675 74.74824 33.46017
#
# Poissons Ratio (x) = -0.04901 0.26364
# Poissons Ratio (y) = -0.04484 0.25540
# Poissons Ratio (z) = 0.53892 0.57054
#
# Static dielectric constant tensor:
#      x y z
#    x 4.444370 1.459720 0.568470 
#    y 1.459720 2.857310 0.371510 
#    z 0.568470 0.371510 2.046630 
# 
# From -- ./inp_files/469969.got.cif
#   From: 2010.05.17/outbox.cif.g08.bks.cpg/sg2_235_cif.got.tgz:469969.got - 2010.06.03 11:33:40.
