data_PCOD9088969
_publ_section_title
;
Structure prediction by ZEFSAII (Michael W. Deem and Ramdas Pophale) SiO2 
 PCOD9088969
Probable space group: P -1
;
_chemical_formula_sum "Si O2"
_cell_formula_units_Z 16
_cell_length_a 8.857528
_cell_length_b 16.095371
_cell_length_c 17.504462
_cell_angle_alpha 161.647099
_cell_angle_beta 64.732660
_cell_angle_gamma 105.788775
_cell_volume 628.257270
_symmetry_space_group_name_H-M "P -1"
_symmetry_group_IT_number 2
_symmetry_cell_setting 'triclinic'
loop_
_space_group_symop_operation_xyz
x,y,z
-x,-y,-z
loop_
_atom_site_type_symbol
_atom_site_label
_atom_site_fract_x
_atom_site_fract_y
_atom_site_fract_z
Si Si1 0.684330 0.862711 0.155107
Si Si2 0.272655 0.351733 0.871580
Si Si3 0.581404 0.344040 0.006193
Si Si4 0.122723 0.195646 0.627683
Si Si5 0.692434 0.544606 0.283608
Si Si6 0.169682 0.431580 0.345694
Si Si7 0.694251 0.266096 0.296008
Si Si8 0.052393 0.619949 0.776585
O O1 0.669731 0.805981 0.198021
O O2 0.624351 0.628348 0.926158
O O3 0.881551 0.824625 0.048977
O O4 0.510217 0.174265 0.441713
O O5 0.193346 0.180212 0.684777
O O6 0.415902 0.403759 0.831175
O O7 0.099895 0.681427 0.216146
O O8 0.737398 0.057468 0.678707
O O9 0.649979 0.296373 0.037660
O O10 0.151302 0.465288 0.819080
O O11 0.770924 0.544921 0.349389
O O12 0.282714 0.581572 0.496668
O O13 0.000000 0.500000 0.500000
O O14 0.044180 0.547189 0.395905
O O15 0.286888 0.067387 0.991115
O O16 0.500000 0.500000 0.500000
O O17 0.866704 0.231447 0.172637
#
# Coordination Sequence:
#
# PCOD9088969 Si02
#       8
#     2   2   2   2   2   2   2   2
#     4  11  24  42  62  96 134 177 230 285 360 408
#     4  10  19  37  64  88 129 177 229 295 337 416
#     4  10  22  39  61  94 126 178 241 280 344 417
#     4   9  19  38  63  87 126 173 235 280 347 406
#     4  10  23  44  59  97 132 178 226 286 350 409
#     4  10  23  49  77 113 146 194 241 285 359 443
#     4  11  25  49  82 116 147 191 245 293 356 443
#     4  11  24  46  70  97 146 180 222 295 354 425
#
# _framework density 25.467274
#
# number of rings (size 3 to 8) (size 9 to 14) (size 15 to 20)
#    0.000    1.750    1.250    2.625    1.750    6.500 
#   20.250    0.000    0.000    0.000    0.000    0.000 
#    0.000    0.000    0.000    0.000    0.000    0.000 
#
# Total GULP energy -89199.508433 kJ/mol
# GULP energy per Si atom -5574.969277 kJ/mol
# Density = 2.540931 g / cm^3
# Si number density = 25.467274 Si / 1000 Ang^3
#
#
#
# Elastic Constant Matrix: (Units=GPa)
#
#
# Indices 1 2 3 4 5 6 
#
# 1 120.1714 64.8594 52.5346 4.5260 6.1743 -29.3591
# 2 64.8594 88.2987 17.3030 -7.1801 10.2360 -28.9419
# 3 52.5346 17.3030 104.6855 -7.5259 2.7937 -17.5480
# 4 4.5260 -7.1801 -7.5259 22.3521 -4.9645 -4.6875
# 5 6.1743 10.2360 2.7937 -4.9645 43.8349 -15.2582
# 6 -29.3591 -28.9419 -17.5480 -4.6875 -15.2582 75.4272
#
#
#
# Elastic Compliance Matrix: (Units=1/GPa)
#
#
# Indices 1 2 3 4 5 6 
#
# 1 0.020051 -0.014071 -0.008634 -0.011677 -0.000457 -0.000422
# 2 -0.014071 0.023591 0.005039 0.013172 -0.000451 0.005475
# 3 -0.008634 0.005039 0.014104 0.008901 0.001061 0.002622
# 4 -0.011677 0.013172 0.008901 0.057516 0.007162 0.007603
# 5 -0.000457 -0.000451 0.001061 0.007162 0.025651 0.005530
# 6 -0.000422 0.005475 0.002622 0.007603 0.005530 0.017396
#
#
# Mechanical properties :
#
#
# Convention : Reuss Voigt Hill
#
# Bulk Modulus (GPa) = 44.61792 64.72773 54.67282
# Shear Modulus (GPa) = 24.86164 40.22008 32.54086
#
# Velocity S-wave (km/s) = 3.12784 3.97833 3.57844
# Velocity P-wave (km/s) = 5.53193 6.82452 6.21194
#
# Compressibility (1/GPa) = 0.02241252
#
# Stress axis : x y z
#
# Youngs Moduli (GPa) = 49.87332 42.38828 70.90376
#
# Poissons Ratio (x) = 0.59644 0.61221
# Poissons Ratio (y) = 0.70176 -0.35726
# Poissons Ratio (z) = 0.43062 -0.21358
#
# Static dielectric constant tensor:
#      x y z
#    x 2.173030 0.027030 0.165240 
#    y 0.027030 2.065820 0.097160 
#    z 0.165240 0.097160 2.179920 
# 
# From -- ./inp_files/561963.got.cif
#   From: 2010.05.17/outbox.cif.g08.bks.cpg/sg2_281_cif.got.tgz:561963.got - 2010.06.03 11:33:40.
