data_PCOD9088353
_publ_section_title
;
Structure prediction by ZEFSAII (Michael W. Deem and Ramdas Pophale) SiO2 
 PCOD9088353
Probable space group: P -1
;
_chemical_formula_sum "Si O2"
_cell_formula_units_Z 14
_cell_length_a 9.112236
_cell_length_b 15.265501
_cell_length_c 25.093225
_cell_angle_alpha 18.586221
_cell_angle_beta 140.479913
_cell_angle_gamma 140.316463
_cell_volume 695.152631
_symmetry_space_group_name_H-M "P -1"
_symmetry_group_IT_number 2
_symmetry_cell_setting 'triclinic'
loop_
_space_group_symop_operation_xyz
x,y,z
-x,-y,-z
loop_
_atom_site_type_symbol
_atom_site_label
_atom_site_fract_x
_atom_site_fract_y
_atom_site_fract_z
Si Si1 0.111243 0.004281 0.593301
Si Si2 0.771142 0.544485 0.254298
Si Si3 0.752660 0.678485 0.452555
Si Si4 0.782793 0.650835 0.354537
Si Si5 0.146841 0.576254 0.770428
Si Si6 0.603567 0.608616 0.676338
Si Si7 0.842263 0.088435 0.023900
O O1 0.841582 0.834254 0.618941
O O2 0.247225 0.821717 0.698752
O O3 0.079092 0.298364 0.387843
O O4 0.208530 0.060272 0.646955
O O5 0.730781 0.480486 0.217422
O O6 0.566798 0.370602 0.333662
O O7 0.023949 0.473745 0.384366
O O8 0.769799 0.866066 0.084190
O O9 0.500000 0.500000 0.500000
O O10 0.749830 0.745281 0.350854
O O11 0.563237 0.419278 0.405944
O O12 0.000000 0.500000 0.500000
O O13 0.844816 0.900074 0.185375
O O14 0.069882 0.296887 0.944298
O O15 0.677606 0.305033 0.868953
#
# Coordination Sequence:
#
# PCOD9088353 Si02
#       7
#     2   2   2   2   2   2   2
#     4   9  21  40  60  88 118 162 206 243 300 359
#     4  10  19  37  60  97 115 154 203 250 296 350
#     4  11  24  38  60  91 124 160 200 246 307 360
#     4  11  21  40  60  92 122 159 201 248 301 357
#     4   9  19  34  58  85 119 154 196 247 285 347
#     4  10  21  39  66  92 119 158 204 250 299 355
#     4  10  20  38  62  92 123 155 203 249 297 357
#
# _framework density 20.139462999999999
#
# number of rings (size 3 to 8) (size 9 to 14) (size 15 to 20)
#    0.000    2.000    2.857    2.143   10.000    2.286 
#    2.571    2.857    0.000    7.714    0.000    0.000 
#    0.000    0.000    0.000    0.000    0.000    0.000 
#
# Total GULP energy -77966.526910 kJ/mol
# GULP energy per Si atom -5569.037636 kJ/mol
# Density = 2.009362 g / cm^3
# Si number density = 20.139463 Si / 1000 Ang^3
#
#
#
# Elastic Constant Matrix: (Units=GPa)
#
#
# Indices 1 2 3 4 5 6 
#
# 1 158.2591 73.9966 30.4214 0.5829 -9.0710 -40.0371
# 2 73.9966 127.3000 31.2510 -5.3227 -13.2812 -27.0145
# 3 30.4214 31.2510 55.3918 -9.1978 -9.6617 3.6855
# 4 0.5829 -5.3227 -9.1978 20.7426 0.5968 5.3931
# 5 -9.0710 -13.2812 -9.6617 0.5968 29.3439 7.7037
# 6 -40.0371 -27.0145 3.6855 5.3931 7.7037 52.7137
#
#
#
# Elastic Compliance Matrix: (Units=1/GPa)
#
#
# Indices 1 2 3 4 5 6 
#
# 1 0.011091 -0.003848 -0.005775 -0.005817 -0.002134 0.007763
# 2 -0.003848 0.012126 -0.004565 0.000282 0.001923 0.003301
# 3 -0.005775 -0.004565 0.028355 0.014284 0.008178 -0.011365
# 4 -0.005817 0.000282 0.014284 0.057732 0.004984 -0.011907
# 5 -0.002134 0.001923 0.008178 0.004984 0.038821 -0.007390
# 6 0.007763 0.003301 -0.011365 -0.011907 -0.007390 0.029651
#
#
# Mechanical properties :
#
#
# Convention : Reuss Voigt Hill
#
# Bulk Modulus (GPa) = 43.11183 68.03211 55.57197
# Shear Modulus (GPa) = 23.37733 34.24550 28.81141
#
# Velocity S-wave (km/s) = 3.41071 4.12809 3.78642
# Velocity P-wave (km/s) = 6.07978 7.52165 6.83882
#
# Compressibility (1/GPa) = 0.02319549
#
# Stress axis : x y z
#
# Youngs Moduli (GPa) = 90.16485 82.46909 35.26734
#
# Poissons Ratio (x) = 0.31732 0.20366
# Poissons Ratio (y) = 0.34693 0.16101
# Poissons Ratio (z) = 0.52069 0.37650
#
# Static dielectric constant tensor:
#      x y z
#    x 1.792510 0.003000 -0.016380 
#    y 0.003000 1.805480 0.025560 
#    z -0.016380 0.025560 1.759300 
# 
# From -- ./inp_files/328906.got.cif
#   From: 2010.05.17/outbox.cif.g08.bks.cpg/sg2_165_cif.got.tgz:328906.got - 2010.06.03 11:33:40.
