data_PCOD9088691
_publ_section_title
;
Structure prediction by ZEFSAII (Michael W. Deem and Ramdas Pophale) SiO2 
 PCOD9088691
Probable space group: P -1
;
_chemical_formula_sum "Si O2"
_cell_formula_units_Z 15
_cell_length_a 11.978748
_cell_length_b 8.800430
_cell_length_c 8.908426
_cell_angle_alpha 94.090226
_cell_angle_beta 132.280958
_cell_angle_gamma 71.636846
_cell_volume 646.066006
_symmetry_space_group_name_H-M "P -1"
_symmetry_group_IT_number 2
_symmetry_cell_setting 'triclinic'
loop_
_space_group_symop_operation_xyz
x,y,z
-x,-y,-z
loop_
_atom_site_type_symbol
_atom_site_label
_atom_site_fract_x
_atom_site_fract_y
_atom_site_fract_z
Si Si1 0.622734 0.755884 0.195305
Si Si2 0.694738 0.613477 0.944437
Si Si3 0.585730 0.160939 0.444423
Si Si4 0.721963 0.055569 0.266654
Si Si5 0.000000 0.500000 0.000000
Si Si6 0.113239 0.947451 0.881863
Si Si7 0.160821 0.142059 0.213542
Si Si8 0.562794 0.339758 0.737784
O O1 0.586214 0.680433 0.309336
O O2 0.709276 0.885865 0.297509
O O3 0.714792 0.630186 0.140484
O O4 0.444401 0.851234 0.968922
O O5 0.588884 0.792247 0.790683
O O6 0.860173 0.527663 0.002986
O O7 0.582003 0.508050 0.808620
O O8 0.705743 0.157082 0.413156
O O9 0.563975 0.296098 0.561429
O O10 0.664845 0.987208 0.588516
O O11 0.861685 0.026842 0.268728
O O12 0.877937 0.667281 0.813924
O O13 0.962566 0.899822 0.789452
O O14 0.271624 0.797097 0.064428
O O15 0.112371 0.095782 0.999709
#
# Coordination Sequence:
#
# PCOD9088691 Si02
#       8
#     2   2   2   2   1   2   2   2
#     4   9  19  34  60  87 120 159 210 245 298 356
#     4  11  22  39  60  92 120 163 202 257 301 362
#     4  10  23  38  63  92 123 156 204 254 314 350
#     4   9  18  35  58  91 120 159 202 254 294 367
#     4  12  24  38  64  88 124 156 210 250 302 360
#     4   9  18  37  63  84 122 166 212 234 300 374
#     4  10  21  38  61  90 117 166 203 255 297 365
#     4  10  19  37  62  93 122 160 204 256 297 367
#
# _framework density 23.217441000000001
#
# number of rings (size 3 to 8) (size 9 to 14) (size 15 to 20)
#    0.000    2.133    1.333    1.600    0.000    5.867 
#    0.000    0.000    0.000    2.400    0.000    0.000 
#    0.000    0.000    0.000    0.000    0.000    0.000 
#
# Total GULP energy -83519.356008 kJ/mol
# GULP energy per Si atom -5567.957067 kJ/mol
# Density = 2.316460 g / cm^3
# Si number density = 23.217441 Si / 1000 Ang^3
#
#
#
# Elastic Constant Matrix: (Units=GPa)
#
#
# Indices 1 2 3 4 5 6 
#
# 1 189.9284 32.8492 29.2779 30.5151 -30.3816 -18.4584
# 2 32.8492 56.6714 10.6334 5.9536 -13.7109 -2.8117
# 3 29.2779 10.6334 59.0408 10.3913 -20.7975 -8.9325
# 4 30.5151 5.9536 10.3913 32.3465 -21.2551 1.4692
# 5 -30.3816 -13.7109 -20.7975 -21.2551 32.1486 3.6176
# 6 -18.4584 -2.8117 -8.9325 1.4692 3.6176 21.8704
#
#
#
# Elastic Compliance Matrix: (Units=1/GPa)
#
#
# Indices 1 2 3 4 5 6 
#
# 1 0.007628 -0.003188 -0.001093 -0.006350 0.000274 0.005964
# 2 -0.003188 0.021231 -0.000011 0.005856 0.010136 -0.002035
# 3 -0.001093 -0.000011 0.023266 0.003686 0.015808 0.005716
# 4 -0.006350 0.005856 0.003686 0.062974 0.042126 -0.014299
# 5 0.000274 0.010136 0.015808 0.042126 0.074572 -0.007175
# 6 0.005964 -0.002035 0.005716 -0.014299 -0.007175 0.054977
#
#
# Mechanical properties :
#
#
# Convention : Reuss Voigt Hill
#
# Bulk Modulus (GPa) = 22.96605 50.12906 36.54756
# Shear Modulus (GPa) = 18.67443 32.79846 25.73645
#
# Velocity S-wave (km/s) = 2.83914 3.76262 3.33302
# Velocity P-wave (km/s) = 4.54542 6.36509 5.53061
#
# Compressibility (1/GPa) = 0.04354253
#
# Stress axis : x y z
#
# Youngs Moduli (GPa) = 131.08846 47.09999 42.98185
#
# Poissons Ratio (x) = 0.15014 0.04696
# Poissons Ratio (y) = 0.41786 0.00048
# Poissons Ratio (z) = 0.14323 0.00053
#
# Static dielectric constant tensor:
#      x y z
#    x 1.899350 0.002850 -0.026700 
#    y 0.002850 1.894400 0.010330 
#    z -0.026700 0.010330 1.928620 
# 
# From -- ./inp_files/240023.got.cif
#   From: 2010.05.17/outbox.cif.g08.bks.cpg/sg2_121_cif.got.tgz:240023.got - 2010.06.03 11:33:40.
