data_PCOD9088767
_publ_section_title
;
Structure prediction by ZEFSAII (Michael W. Deem and Ramdas Pophale) SiO2 
 PCOD9088767
Probable space group: P -1
;
_chemical_formula_sum "Si O2"
_cell_formula_units_Z 16
_cell_length_a 9.905210
_cell_length_b 7.880139
_cell_length_c 14.909469
_cell_angle_alpha 44.678438
_cell_angle_beta 93.234191
_cell_angle_gamma 65.156766
_cell_volume 616.876634
_symmetry_space_group_name_H-M "P -1"
_symmetry_group_IT_number 2
_symmetry_cell_setting 'triclinic'
loop_
_space_group_symop_operation_xyz
x,y,z
-x,-y,-z
loop_
_atom_site_type_symbol
_atom_site_label
_atom_site_fract_x
_atom_site_fract_y
_atom_site_fract_z
Si Si1 0.560552 0.920716 0.929558
Si Si2 0.128235 0.475455 0.319602
Si Si3 0.277463 0.571084 0.124507
Si Si4 0.812788 0.501727 0.323518
Si Si5 0.710350 0.270951 0.118109
Si Si6 0.213120 0.653991 0.431763
Si Si7 0.674933 0.182740 0.339262
Si Si8 0.628120 0.060622 0.710766
O O1 0.360786 0.128196 0.802297
O O2 0.627058 0.067217 0.817006
O O3 0.500000 0.000000 0.000000
O O4 0.706148 0.543505 0.061488
O O5 0.161401 0.619435 0.185549
O O6 0.124202 0.631577 0.352679
O O7 0.961262 0.495055 0.288583
O O8 0.285296 0.093297 0.492004
O O9 0.462330 0.463715 0.210213
O O10 0.330903 0.256219 0.198385
O O11 0.203968 0.812233 0.946849
O O12 0.874168 0.333486 0.485119
O O13 0.754254 0.330082 0.332869
O O14 0.748985 0.061810 0.285213
O O15 0.500000 0.500000 0.000000
O O16 0.427812 0.347170 0.559294
O O17 0.222513 0.931255 0.321268
#
# Coordination Sequence:
#
# PCOD9088767 Si02
#       8
#     2   2   2   2   2   2   2   2
#     4  10  19  37  63  86 112 154 203 247 288 353
#     4  12  24  37  60  90 127 157 193 248 304 355
#     4  10  21  38  61  90 116 155 206 246 286 354
#     4  11  24  38  58  90 124 155 194 245 308 354
#     4   9  20  37  63  91 113 149 206 250 288 340
#     4  10  21  36  57  85 120 152 196 250 297 347
#     4  11  21  38  63  90 117 161 200 241 294 357
#     4   9  19  34  60  88 111 148 207 251 284 335
#
# _framework density 25.937113
#
# number of rings (size 3 to 8) (size 9 to 14) (size 15 to 20)
#    0.000    1.750    2.500    1.875    7.000    0.000 
#    0.000    0.625    2.750    3.750    0.000    0.000 
#    0.000    0.000    0.000    0.000    0.000    0.000 
#
# Total GULP energy -89416.075872 kJ/mol
# GULP energy per Si atom -5588.504742 kJ/mol
# Density = 2.587808 g / cm^3
# Si number density = 25.937113 Si / 1000 Ang^3
#
#
#
# Elastic Constant Matrix: (Units=GPa)
#
#
# Indices 1 2 3 4 5 6 
#
# 1 131.5086 38.4372 40.5652 24.8257 -16.2646 6.6014
# 2 38.4372 83.4508 35.2609 36.7334 -3.2575 11.3908
# 3 40.5652 35.2609 109.2274 31.8348 -23.4396 -10.3742
# 4 24.8257 36.7334 31.8348 53.0802 -12.5113 -9.5267
# 5 -16.2646 -3.2575 -23.4396 -12.5113 32.7785 10.9757
# 6 6.6014 11.3908 -10.3742 -9.5267 10.9757 46.2901
#
#
#
# Elastic Compliance Matrix: (Units=1/GPa)
#
#
# Indices 1 2 3 4 5 6 
#
# 1 0.009743 -0.002805 -0.001847 -0.001059 0.003559 -0.002175
# 2 -0.002805 0.021874 -0.003627 -0.014111 -0.004654 -0.007596
# 3 -0.001847 -0.003627 0.013423 -0.002759 0.006588 0.002035
# 4 -0.001059 -0.014111 -0.002759 0.033723 0.006127 0.008493
# 5 0.003559 -0.004654 0.006588 0.006127 0.040984 -0.006343
# 6 -0.002175 -0.007596 0.002035 0.008493 -0.006343 0.027490
#
#
# Mechanical properties :
#
#
# Convention : Reuss Voigt Hill
#
# Bulk Modulus (GPa) = 35.11049 61.41259 48.26154
# Shear Modulus (GPa) = 28.85345 40.42468 34.63906
#
# Velocity S-wave (km/s) = 3.33894 3.95215 3.65842
# Velocity P-wave (km/s) = 5.33206 6.67494 6.04093
#
# Compressibility (1/GPa) = 0.02848152
#
# Stress axis : x y z
#
# Youngs Moduli (GPa) = 102.63839 45.71612 74.49922
#
# Poissons Ratio (x) = 0.12824 0.13759
# Poissons Ratio (y) = 0.28790 0.27023
# Poissons Ratio (z) = 0.18957 0.16583
#
# Static dielectric constant tensor:
#      x y z
#    x 2.054490 0.004810 -0.022530 
#    y 0.004810 2.167560 -0.016320 
#    z -0.022530 -0.016320 2.100550 
# 
# From -- ./inp_files/202068.got.cif
#   From: 2010.05.17/outbox.cif.g08.bks.cpg/sg2_102_cif.got.tgz:202068.got - 2010.06.03 11:33:40.
