data_PCOD9088094
_publ_section_title
;
Structure prediction by ZEFSAII (Michael W. Deem and Ramdas Pophale) SiO2 
 PCOD9088094
Probable space group: P -1
;
_chemical_formula_sum "Si O2"
_cell_formula_units_Z 16
_cell_length_a 7.966519
_cell_length_b 14.365682
_cell_length_c 8.192269
_cell_angle_alpha 114.563795
_cell_angle_beta 51.934400
_cell_angle_gamma 110.747604
_cell_volume 665.033217
_symmetry_space_group_name_H-M "P -1"
_symmetry_group_IT_number 2
_symmetry_cell_setting 'triclinic'
loop_
_space_group_symop_operation_xyz
x,y,z
-x,-y,-z
loop_
_atom_site_type_symbol
_atom_site_label
_atom_site_fract_x
_atom_site_fract_y
_atom_site_fract_z
Si Si1 0.444491 0.115564 0.338611
Si Si2 0.778799 0.925934 0.871292
Si Si3 0.355985 0.509774 0.930107
Si Si4 0.218631 0.057726 0.757214
Si Si5 0.787218 0.679939 0.342549
Si Si6 0.684918 0.681197 0.755504
Si Si7 0.894511 0.229493 0.045955
Si Si8 0.984500 0.574626 0.715089
O O1 0.309349 0.044356 0.230125
O O2 0.396318 0.075598 0.523028
O O3 0.338614 0.221706 0.496745
O O4 0.676426 0.152321 0.145152
O O5 0.706415 0.803255 0.831204
O O6 0.700621 0.959770 0.120484
O O7 0.034921 0.963148 0.749931
O O8 0.350322 0.411482 0.743829
O O9 0.450954 0.614936 0.861609
O O10 0.500000 0.500000 0.000000
O O11 0.113200 0.496892 0.130710
O O12 0.080799 0.156133 0.922930
O O13 0.798598 0.647077 0.499403
O O14 0.009562 0.720610 0.145410
O O15 0.809469 0.646340 0.811048
O O16 0.847918 0.330955 0.252309
O O17 0.000000 0.500000 0.500000
#
# Coordination Sequence:
#
# PCOD9088094 Si02
#       8
#     2   2   2   2   2   2   2   2
#     4  10  22  38  64  91 120 159 201 242 304 360
#     4  10  21  40  63  91 117 158 206 243 302 358
#     4   9  19  33  57  78 109 152 195 227 292 358
#     4  10  21  42  65  84 125 160 193 254 301 352
#     4   9  20  38  57  85 121 155 189 251 295 344
#     4  10  19  37  59  81 113 155 198 240 297 354
#     4  10  21  40  60  88 121 155 199 243 298 361
#     4  10  21  36  55  84 117 153 192 244 297 352
#
# _framework density 24.058948999999998
#
# number of rings (size 3 to 8) (size 9 to 14) (size 15 to 20)
#    0.000    2.250    1.250    0.750    5.250    0.500 
#    6.750    3.750    0.000    0.000    0.000    0.000 
#    0.000    0.000    0.000    0.000    0.000    0.000 
#
# Total GULP energy -89165.265477 kJ/mol
# GULP energy per Si atom -5572.829092 kJ/mol
# Density = 2.400419 g / cm^3
# Si number density = 24.058949 Si / 1000 Ang^3
#
#
#
# Elastic Constant Matrix: (Units=GPa)
#
#
# Indices 1 2 3 4 5 6 
#
# 1 52.4562 23.1664 23.6503 -6.1429 20.6776 10.5502
# 2 23.1664 161.2739 73.0757 -8.6045 17.9313 14.7427
# 3 23.6503 73.0757 120.0060 0.0185 10.6237 21.5652
# 4 -6.1429 -8.6045 0.0185 46.1213 -7.6034 5.5912
# 5 20.6776 17.9313 10.6237 -7.6034 40.8260 9.9765
# 6 10.5502 14.7427 21.5652 5.5912 9.9765 29.7868
#
#
#
# Elastic Compliance Matrix: (Units=1/GPa)
#
#
# Indices 1 2 3 4 5 6 
#
# 1 0.025956 -0.000694 -0.003138 0.001940 -0.010856 -0.003307
# 2 -0.000694 0.008903 -0.005103 0.001247 -0.001991 -0.000034
# 3 -0.003138 -0.005103 0.013036 -0.000277 0.001951 -0.006403
# 4 0.001940 0.001247 -0.000277 0.023820 0.004727 -0.007158
# 5 -0.010856 -0.001991 0.001951 0.004727 0.033351 -0.008640
# 6 -0.003307 -0.000034 -0.006403 -0.007158 -0.008640 0.043633
#
#
# Mechanical properties :
#
#
# Convention : Reuss Voigt Hill
#
# Bulk Modulus (GPa) = 33.30345 63.72455 48.51400
# Shear Modulus (GPa) = 28.31624 37.60309 32.95966
#
# Velocity S-wave (km/s) = 3.43440 3.95771 3.70530
# Velocity P-wave (km/s) = 5.44052 6.88687 6.20598
#
# Compressibility (1/GPa) = 0.03002692
#
# Stress axis : x y z
#
# Youngs Moduli (GPa) = 38.52657 112.31717 76.70829
#
# Poissons Ratio (x) = 0.07794 0.24070
# Poissons Ratio (y) = 0.02673 0.39142
# Poissons Ratio (z) = 0.12089 0.57312
#
# Static dielectric constant tensor:
#      x y z
#    x 2.005300 -0.039130 -0.026240 
#    y -0.039130 2.066920 0.048850 
#    z -0.026240 0.048850 1.965790 
# 
# From -- ./inp_files/218193.got.cif
#   From: 2010.05.17/outbox.cif.g08.bks.cpg/sg2_110_cif.got.tgz:218193.got - 2010.06.03 11:33:40.
