data_PCOD9088380
_publ_section_title
;
Structure prediction by ZEFSAII (Michael W. Deem and Ramdas Pophale) SiO2 
 PCOD9088380
Probable space group: P -1
;
_chemical_formula_sum "Si O2"
_cell_formula_units_Z 12
_cell_length_a 12.292218
_cell_length_b 6.409403
_cell_length_c 16.375312
_cell_angle_alpha 96.859695
_cell_angle_beta 142.714075
_cell_angle_gamma 105.545713
_cell_volume 618.670317
_symmetry_space_group_name_H-M "P -1"
_symmetry_group_IT_number 2
_symmetry_cell_setting 'triclinic'
loop_
_space_group_symop_operation_xyz
x,y,z
-x,-y,-z
loop_
_atom_site_type_symbol
_atom_site_label
_atom_site_fract_x
_atom_site_fract_y
_atom_site_fract_z
Si Si1 0.958470 0.779644 0.902600
Si Si2 0.238479 0.047319 0.329900
Si Si3 0.430283 0.809798 0.326083
Si Si4 0.236914 0.407889 0.907891
Si Si5 0.443042 0.918835 0.160597
Si Si6 0.438880 0.751957 0.899545
O O1 0.792869 0.490482 0.828914
O O2 0.835398 0.791661 0.750849
O O3 0.198280 0.852504 0.025517
O O4 0.000000 0.000000 0.000000
O O5 0.359325 0.978830 0.334099
O O6 0.010721 0.774312 0.211704
O O7 0.399637 0.183460 0.510161
O O8 0.531171 0.924438 0.302858
O O9 0.246559 0.498333 0.824724
O O10 0.390806 0.672191 0.066270
O O11 0.351879 0.261377 0.974251
O O12 0.590391 0.182258 0.206322
O O13 0.500000 0.000000 0.000000
#
# Coordination Sequence:
#
# PCOD9088380 Si02
#       6
#     2   2   2   2   2   2
#     4  12  21  35  57  85 113 153 194 227 273 333
#     4  11  22  38  56  83 123 152 179 228 291 337
#     4  11  24  36  53  89 122 149 181 230 285 339
#     4  10  19  37  61  82 110 148 189 239 277 328
#     4  11  20  35  58  85 111 146 195 233 272 329
#     4   9  20  35  59  87 106 138 198 241 277 321
#
# _framework density 19.396436999999999
#
# number of rings (size 3 to 8) (size 9 to 14) (size 15 to 20)
#    0.000    1.333    5.000    2.000    0.000    0.000 
#    0.000    0.833    0.000    9.000    0.000    0.000 
#    0.000    0.000    0.000    0.000    0.000    0.000 
#
# Total GULP energy -66995.446137 kJ/mol
# GULP energy per Si atom -5582.953845 kJ/mol
# Density = 1.935229 g / cm^3
# Si number density = 19.396437 Si / 1000 Ang^3
#
#
#
# Elastic Constant Matrix: (Units=GPa)
#
#
# Indices 1 2 3 4 5 6 
#
# 1 73.8284 23.4952 14.1031 -9.0511 -24.5165 10.1570
# 2 23.4952 75.9014 18.8232 -13.8622 -20.0256 9.3075
# 3 14.1031 18.8232 55.8517 -19.5995 -20.7612 3.5910
# 4 -9.0511 -13.8622 -19.5995 26.5809 4.9223 -3.4127
# 5 -24.5165 -20.0256 -20.7612 4.9223 22.8059 -10.1139
# 6 10.1570 9.3075 3.5910 -3.4127 -10.1139 54.5550
#
#
#
# Elastic Compliance Matrix: (Units=1/GPa)
#
#
# Indices 1 2 3 4 5 6 
#
# 1 0.023382 0.000610 0.009192 0.009195 0.032758 0.001586
# 2 0.000610 0.018601 0.003701 0.009260 0.018578 0.000493
# 3 0.009192 0.003701 0.041036 0.027308 0.046976 0.005373
# 4 0.009195 0.009260 0.027308 0.060404 0.031878 0.004599
# 5 0.032758 0.018578 0.046976 0.031878 0.138009 0.015219
# 6 0.001586 0.000493 0.005373 0.004599 0.015219 0.020706
#
#
# Mechanical properties :
#
#
# Convention : Reuss Voigt Hill
#
# Bulk Modulus (GPa) = 9.08898 35.38052 22.23475
# Shear Modulus (GPa) = 16.03551 30.73237 23.38394
#
# Velocity S-wave (km/s) = 2.87840 3.98481 3.47591
# Velocity P-wave (km/s) = 3.96774 6.28108 5.25333
#
# Compressibility (1/GPa) = 0.11002339
#
# Stress axis : x y z
#
# Youngs Moduli (GPa) = 42.76786 53.76186 24.36886
#
# Poissons Ratio (x) = -0.03281 -0.22399
# Poissons Ratio (y) = -0.02610 -0.09018
# Poissons Ratio (z) = -0.39311 -0.19895
#
# Static dielectric constant tensor:
#      x y z
#    x 1.688050 0.028620 -0.025860 
#    y 0.028620 1.691520 -0.019550 
#    z -0.025860 -0.019550 1.665630 
# 
# From -- ./inp_files/18299.got.cif
#   From: 2010.05.17/outbox.cif.g08.bks.cpg/sg2_10_cif.got.tgz:18299.got - 2010.06.03 11:33:40.
