data_PCOD9088556
_publ_section_title
;
Structure prediction by ZEFSAII (Michael W. Deem and Ramdas Pophale) SiO2 
 PCOD9088556
Probable space group: P -1
;
_chemical_formula_sum "Si O2"
_cell_formula_units_Z 15
_cell_length_a 8.432016
_cell_length_b 13.925631
_cell_length_c 8.867571
_cell_angle_alpha 77.400531
_cell_angle_beta 63.664119
_cell_angle_gamma 122.907861
_cell_volume 620.647540
_symmetry_space_group_name_H-M "P -1"
_symmetry_group_IT_number 2
_symmetry_cell_setting 'triclinic'
loop_
_space_group_symop_operation_xyz
x,y,z
-x,-y,-z
loop_
_atom_site_type_symbol
_atom_site_label
_atom_site_fract_x
_atom_site_fract_y
_atom_site_fract_z
Si Si1 0.682053 0.458309 0.737648
Si Si2 0.082225 0.684063 0.946895
Si Si3 0.392458 0.611462 0.869814
Si Si4 0.286546 0.743676 0.303460
Si Si5 0.500000 0.500000 0.500000
Si Si6 0.982254 0.891345 0.453019
Si Si7 0.315934 0.869735 0.507947
Si Si8 0.923624 0.177498 0.842587
O O1 0.617742 0.318093 0.782299
O O2 0.544486 0.459767 0.660886
O O3 0.991748 0.602036 0.535472
O O4 0.608276 0.442211 0.949230
O O5 0.267267 0.669583 0.924513
O O6 0.139694 0.728948 0.734432
O O7 0.127784 0.805883 0.970918
O O8 0.793214 0.519066 0.129786
O O9 0.680498 0.739177 0.642951
O O10 0.449312 0.852248 0.336639
O O11 0.257984 0.818313 0.169892
O O12 0.780114 0.666765 0.347885
O O13 0.148471 0.879254 0.480692
O O14 0.080739 0.922236 0.226337
O O15 0.000000 0.000000 0.500000
O O16 0.500000 0.000000 0.500000
#
# Coordination Sequence:
#
# PCOD9088556 Si02
#       8
#     2   2   2   2   1   2   2   2
#     4  10  19  37  62 100 135 171 213 273 330 396
#     4  11  23  41  70 105 128 173 226 272 330 402
#     4  11  23  40  71 101 139 167 222 282 329 396
#     4   9  19  39  62  89 131 171 215 266 327 388
#     4  10  22  32  64  98 136 170 208 270 338 382
#     4  11  26  47  65  92 138 181 217 281 341 386
#     4  11  24  43  67  94 131 178 226 271 331 400
#     4  10  21  41  61  95 127 173 219 267 329 397
#
# _framework density 24.168308
#
# number of rings (size 3 to 8) (size 9 to 14) (size 15 to 20)
#    0.000    1.600    2.667    1.600    1.867    2.667 
#    2.400    2.667    0.000    0.000    0.000    0.000 
#    0.000    0.000    0.000    0.000    0.000    0.000 
#
# Total GULP energy -83523.810643 kJ/mol
# GULP energy per Si atom -5568.254043 kJ/mol
# Density = 2.411330 g / cm^3
# Si number density = 24.168308 Si / 1000 Ang^3
#
#
#
# Elastic Constant Matrix: (Units=GPa)
#
#
# Indices 1 2 3 4 5 6 
#
# 1 93.4529 42.6318 25.2138 19.7424 -0.2317 1.4452
# 2 42.6318 150.4070 28.1144 29.3393 -9.4812 0.4560
# 3 25.2138 28.1144 47.2996 17.6708 2.9148 10.9376
# 4 19.7424 29.3393 17.6708 44.7629 6.9809 -2.3763
# 5 -0.2317 -9.4812 2.9148 6.9809 29.2824 1.6394
# 6 1.4452 0.4560 10.9376 -2.3763 1.6394 35.8249
#
#
#
# Elastic Compliance Matrix: (Units=1/GPa)
#
#
# Indices 1 2 3 4 5 6 
#
# 1 0.013704 -0.002422 -0.005189 -0.002418 0.000368 0.000885
# 2 -0.002422 0.008959 -0.002744 -0.004354 0.004174 0.000342
# 3 -0.005189 -0.002744 0.031036 -0.008453 -0.001459 -0.009725
# 4 -0.002418 -0.004354 -0.008453 0.031168 -0.008308 0.005181
# 5 0.000368 0.004174 -0.001459 -0.008308 0.037737 -0.001900
# 6 0.000885 0.000342 -0.009725 0.005181 -0.001900 0.031273
#
#
# Mechanical properties :
#
#
# Convention : Reuss Voigt Hill
#
# Bulk Modulus (GPa) = 30.31360 53.67551 41.99455
# Shear Modulus (GPa) = 26.94210 34.98733 30.96471
#
# Velocity S-wave (km/s) = 3.34244 3.80893 3.58328
# Velocity P-wave (km/s) = 5.24078 6.44990 5.87652
#
# Compressibility (1/GPa) = 0.03298850
#
# Stress axis : x y z
#
# Youngs Moduli (GPa) = 72.97350 111.61539 32.22078
#
# Poissons Ratio (x) = 0.27033 0.16720
# Poissons Ratio (y) = 0.17674 0.08841
# Poissons Ratio (z) = 0.37867 0.30627
#
# Static dielectric constant tensor:
#      x y z
#    x 1.894030 -0.022540 -0.032940 
#    y -0.022540 2.009370 0.057560 
#    z -0.032940 0.057560 1.969670 
# 
# From -- ./inp_files/206869.got.cif
#   From: 2010.05.17/outbox.cif.g08.bks.cpg/sg2_104_cif.got.tgz:206869.got - 2010.06.03 11:33:40.
