data_PCOD9088812
_publ_section_title
;
Structure prediction by ZEFSAII (Michael W. Deem and Ramdas Pophale) SiO2 
 PCOD9088812
Probable space group: P -1
;
_chemical_formula_sum "Si O2"
_cell_formula_units_Z 16
_cell_length_a 7.896287
_cell_length_b 9.547861
_cell_length_c 12.335022
_cell_angle_alpha 120.225331
_cell_angle_beta 107.809785
_cell_angle_gamma 85.093675
_cell_volume 762.382344
_symmetry_space_group_name_H-M "P -1"
_symmetry_group_IT_number 2
_symmetry_cell_setting 'triclinic'
loop_
_space_group_symop_operation_xyz
x,y,z
-x,-y,-z
loop_
_atom_site_type_symbol
_atom_site_label
_atom_site_fract_x
_atom_site_fract_y
_atom_site_fract_z
Si Si1 0.669964 0.440243 0.634112
Si Si2 0.049867 0.961341 0.736578
Si Si3 0.408041 0.567014 0.790475
Si Si4 0.177074 0.556616 0.942710
Si Si5 0.652346 0.882797 0.009997
Si Si6 0.836485 0.358207 0.419995
Si Si7 0.871966 0.280523 0.795700
Si Si8 0.094582 0.229231 0.154693
O O1 0.492756 0.446984 0.674817
O O2 0.687274 0.386959 0.492780
O O3 0.790992 0.329581 0.685813
O O4 0.764570 0.622844 0.724392
O O5 0.082287 0.812571 0.605823
O O6 0.978498 0.866686 0.793164
O O7 0.239721 0.058824 0.839678
O O8 0.914095 0.094670 0.734695
O O9 0.311309 0.505587 0.857069
O O10 0.264121 0.648873 0.718210
O O11 0.559949 0.700642 0.915703
O O12 0.056869 0.394379 0.889346
O O13 0.052246 0.683527 0.909553
O O14 0.244249 0.654070 0.101806
O O15 0.800556 0.886600 0.946442
O O16 0.500000 0.000000 0.000000
O O17 0.000000 0.500000 0.500000
#
# Coordination Sequence:
#
# PCOD9088812 Si02
#       8
#     2   2   2   2   2   2   2   2
#     4  10  23  42  60  92 129 168 212 254 310 373
#     4  12  22  38  65  98 124 164 211 262 308 374
#     4  11  23  39  67  95 123 165 210 270 315 366
#     4  10  19  40  62  89 128 164 207 248 318 389
#     4  11  21  34  57 101 132 149 195 277 336 350
#     4  12  22  42  69  89 119 174 224 256 297 371
#     4  10  23  38  62  94 128 167 206 254 315 391
#     4  10  19  37  63  89 122 161 213 259 299 378
#
# _framework density 20.986844999999999
#
# number of rings (size 3 to 8) (size 9 to 14) (size 15 to 20)
#    0.000    1.250    5.000    1.500    3.500    1.000 
#    0.000    0.000    0.000    1.500    0.000    0.000 
#    0.000    0.000    0.000    0.000    0.000    0.000 
#
# Total GULP energy -89298.965214 kJ/mol
# GULP energy per Si atom -5581.185326 kJ/mol
# Density = 2.093908 g / cm^3
# Si number density = 20.986845 Si / 1000 Ang^3
#
#
#
# Elastic Constant Matrix: (Units=GPa)
#
#
# Indices 1 2 3 4 5 6 
#
# 1 75.8180 16.7308 24.2967 7.4300 -26.1221 5.8131
# 2 16.7308 85.3313 21.0901 14.4844 -14.0344 -8.7978
# 3 24.2967 21.0901 75.7214 0.4392 -27.2023 4.4566
# 4 7.4300 14.4844 0.4392 24.4507 -5.5363 -12.6852
# 5 -26.1221 -14.0344 -27.2023 -5.5363 38.5251 -5.0077
# 6 5.8131 -8.7978 4.4566 -12.6852 -5.0077 27.3836
#
#
#
# Elastic Compliance Matrix: (Units=1/GPa)
#
#
# Indices 1 2 3 4 5 6 
#
# 1 0.018055 -0.001184 -0.001871 -0.005045 0.009171 -0.004569
# 2 -0.001184 0.014353 -0.003147 -0.006270 0.001663 0.002774
# 3 -0.001871 -0.003147 0.018817 0.005210 0.011735 0.000883
# 4 -0.005045 -0.006270 0.005210 0.064081 0.011072 0.029918
# 5 0.009171 0.001663 0.011735 0.011072 0.043938 0.009841
# 6 -0.004569 0.002774 0.000883 0.029918 0.009841 0.053895
#
#
# Mechanical properties :
#
#
# Convention : Reuss Voigt Hill
#
# Bulk Modulus (GPa) = 25.75941 40.12286 32.94113
# Shear Modulus (GPa) = 20.96595 29.72208 25.34402
#
# Velocity S-wave (km/s) = 3.16413 3.76736 3.47884
# Velocity P-wave (km/s) = 5.06455 6.17119 5.64505
#
# Compressibility (1/GPa) = 0.03882076
#
# Stress axis : x y z
#
# Youngs Moduli (GPa) = 55.38731 69.67219 53.14467
#
# Poissons Ratio (x) = 0.08249 0.09942
# Poissons Ratio (y) = 0.06557 0.16725
# Poissons Ratio (z) = 0.10361 0.21927
#
# Static dielectric constant tensor:
#      x y z
#    x 1.829600 -0.023220 -0.033020 
#    y -0.023220 1.730570 0.020460 
#    z -0.033020 0.020460 1.796110 
# 
# From -- ./inp_files/380400.got.cif
#   From: 2010.05.17/outbox.cif.g08.bks.cpg/sg2_191_cif.got.tgz:380400.got - 2010.06.03 11:33:40.
