data_PCOD9088602
_publ_section_title
;
Structure prediction by ZEFSAII (Michael W. Deem and Ramdas Pophale) SiO2 
 PCOD9088602
Probable space group: P -1
;
_chemical_formula_sum "Si O2"
_cell_formula_units_Z 16
_cell_length_a 18.896737
_cell_length_b 18.300085
_cell_length_c 11.347746
_cell_angle_alpha 152.795042
_cell_angle_beta 39.275354
_cell_angle_gamma 156.720231
_cell_volume 688.808718
_symmetry_space_group_name_H-M "P -1"
_symmetry_group_IT_number 2
_symmetry_cell_setting 'triclinic'
loop_
_space_group_symop_operation_xyz
x,y,z
-x,-y,-z
loop_
_atom_site_type_symbol
_atom_site_label
_atom_site_fract_x
_atom_site_fract_y
_atom_site_fract_z
Si Si1 0.288209 0.545363 0.979230
Si Si2 0.291867 0.942389 0.855942
Si Si3 0.675040 0.084066 0.877163
Si Si4 0.539446 0.753997 0.157601
Si Si5 0.223647 0.804680 0.356447
Si Si6 0.850294 0.477803 0.414584
Si Si7 0.383209 0.508556 0.380140
Si Si8 0.717399 0.727726 0.578532
O O1 0.207718 0.305834 0.666301
O O2 0.349434 0.567973 0.064906
O O3 0.186353 0.596378 0.172551
O O4 0.488776 0.813953 0.043789
O O5 0.200995 0.670879 0.612590
O O6 0.311736 0.003459 0.779788
O O7 0.212083 0.011215 0.119594
O O8 0.580798 0.804239 0.590770
O O9 0.768607 0.220629 0.827753
O O10 0.500000 0.000000 0.000000
O O11 0.805549 0.283952 0.100791
O O12 0.582568 0.898896 0.427102
O O13 0.577849 0.610784 0.909202
O O14 0.065874 0.751807 0.515471
O O15 0.731473 0.494273 0.551841
O O16 0.276746 0.347806 0.408636
O O17 0.500000 0.500000 0.500000
#
# Coordination Sequence:
#
# PCOD9088602 Si02
#       8
#     2   2   2   2   2   2   2   2
#     4   9  17  34  59  81 109 149 196 235 274 324
#     4   8  18  35  60  85 108 148 203 224 280 341
#     4  10  21  37  61  82 107 149 198 236 283 338
#     4   9  22  36  63  82 114 157 198 233 275 338
#     4  12  23  37  54  88 126 148 186 241 293 341
#     4  11  22  35  60  88 119 152 183 240 292 340
#     4  10  19  37  62  87 109 152 202 231 279 343
#     4   9  14  31  62  85 104 135 197 247 264 317
#
# _framework density 23.22851
#
# number of rings (size 3 to 8) (size 9 to 14) (size 15 to 20)
#    0.750    1.500    1.250    5.250    0.000    1.500 
#    0.000    0.625    5.500    0.000    0.000    0.000 
#    0.000    0.000    0.000    0.000    0.000    0.000 
#
# Total GULP energy -89271.290330 kJ/mol
# GULP energy per Si atom -5579.455646 kJ/mol
# Density = 2.317564 g / cm^3
# Si number density = 23.228510 Si / 1000 Ang^3
#
#
#
# Elastic Constant Matrix: (Units=GPa)
#
#
# Indices 1 2 3 4 5 6 
#
# 1 88.6116 21.5785 26.1777 -2.6497 -30.3456 3.0590
# 2 21.5785 43.4793 6.6023 4.8045 -6.7941 3.0393
# 3 26.1777 6.6023 69.7111 -11.5435 -15.0933 2.2153
# 4 -2.6497 4.8045 -11.5435 21.9302 -1.6823 -4.1320
# 5 -30.3456 -6.7941 -15.0933 -1.6823 33.7119 0.8106
# 6 3.0590 3.0393 2.2153 -4.1320 0.8106 14.6534
#
#
#
# Elastic Compliance Matrix: (Units=1/GPa)
#
#
# Indices 1 2 3 4 5 6 
#
# 1 0.018950 -0.006904 -0.002707 0.003116 0.014659 -0.002047
# 2 -0.006904 0.027909 -0.001730 -0.009230 -0.001667 -0.006596
# 3 -0.002707 -0.001730 0.018526 0.010401 0.006010 0.000724
# 4 0.003116 -0.009230 0.010401 0.056977 0.008077 0.015311
# 5 0.014659 -0.001667 0.006010 0.008077 0.045710 -0.003874
# 6 -0.002047 -0.006596 0.000724 0.015311 -0.003874 0.074462
#
#
# Mechanical properties :
#
#
# Convention : Reuss Voigt Hill
#
# Bulk Modulus (GPa) = 23.41825 34.50212 28.96018
# Shear Modulus (GPa) = 17.89214 23.88865 20.89040
#
# Velocity S-wave (km/s) = 2.77838 3.21038 3.00216
# Velocity P-wave (km/s) = 4.51620 5.35048 4.95094
#
# Compressibility (1/GPa) = 0.04270174
#
# Stress axis : x y z
#
# Youngs Moduli (GPa) = 52.76953 35.83026 53.97801
#
# Poissons Ratio (x) = 0.24739 0.14614
# Poissons Ratio (y) = 0.36434 0.09340
# Poissons Ratio (z) = 0.14286 0.06200
#
# Static dielectric constant tensor:
#      x y z
#    x 1.874340 -0.013410 0.010120 
#    y -0.013410 1.914550 0.022110 
#    z 0.010120 0.022110 1.898900 
# 
# From -- ./inp_files/466652.got.cif
#   From: 2010.05.17/outbox.cif.g08.bks.cpg/sg2_234_cif.got.tgz:466652.got - 2010.06.03 11:33:40.
