data_PCOD9088355
_publ_section_title
;
Structure prediction by ZEFSAII (Michael W. Deem and Ramdas Pophale) SiO2 
 PCOD9088355
Probable space group: P -1
;
_chemical_formula_sum "Si O2"
_cell_formula_units_Z 14
_cell_length_a 5.506649
_cell_length_b 12.944113
_cell_length_c 11.443419
_cell_angle_alpha 104.874734
_cell_angle_beta 50.848632
_cell_angle_gamma 86.037476
_cell_volume 581.532444
_symmetry_space_group_name_H-M "P -1"
_symmetry_group_IT_number 2
_symmetry_cell_setting 'triclinic'
loop_
_space_group_symop_operation_xyz
x,y,z
-x,-y,-z
loop_
_atom_site_type_symbol
_atom_site_label
_atom_site_fract_x
_atom_site_fract_y
_atom_site_fract_z
Si Si1 0.015791 0.150217 0.912705
Si Si2 0.318998 0.131564 0.071862
Si Si3 0.494058 0.934164 0.601213
Si Si4 0.938373 0.795068 0.589372
Si Si5 0.718141 0.600983 0.678843
Si Si6 0.337479 0.279165 0.671691
Si Si7 0.786631 0.477229 0.305848
O O1 0.140663 0.155778 0.008380
O O2 0.157590 0.229497 0.810618
O O3 0.627875 0.179126 0.014628
O O4 0.183429 0.019152 0.785582
O O5 0.053255 0.174524 0.267845
O O6 0.500000 0.000000 0.000000
O O7 0.779650 0.911817 0.605216
O O8 0.594406 0.807967 0.482219
O O9 0.500000 0.000000 0.500000
O O10 0.720964 0.711398 0.640066
O O11 0.288059 0.731149 0.409245
O O12 0.369876 0.579456 0.764635
O O13 0.000000 0.500000 0.500000
O O14 0.877525 0.595999 0.757287
O O15 0.176018 0.405854 0.715997
O O16 0.500000 0.500000 0.500000
#
# Coordination Sequence:
#
# PCOD9088355 Si02
#       7
#     2   2   2   2   2   2   2
#     4  11  27  45  63  95 141 177 213 274 337 392
#     4  12  26  47  66  92 137 185 221 262 323 407
#     4  10  23  38  62  97 131 165 220 276 326 385
#     4  12  24  38  73  96 128 174 230 272 324 391
#     4  10  20  36  60  99 125 156 215 281 319 370
#     4  11  24  39  70  99 130 174 220 283 335 383
#     4  10  19  37  60  97 129 158 210 275 333 376
#
# _framework density 24.074324000000001
#
# number of rings (size 3 to 8) (size 9 to 14) (size 15 to 20)
#    0.000    1.143    4.286    3.000    6.000    1.143 
#    0.000    0.000    0.000    5.143    0.000    0.000 
#    0.000    0.000    0.000    0.000    0.000    0.000 
#
# Total GULP energy -78171.706737 kJ/mol
# GULP energy per Si atom -5583.693338 kJ/mol
# Density = 2.401953 g / cm^3
# Si number density = 24.074324 Si / 1000 Ang^3
#
#
#
# Elastic Constant Matrix: (Units=GPa)
#
#
# Indices 1 2 3 4 5 6 
#
# 1 186.1188 63.7976 56.3920 -21.8307 5.9656 -17.1785
# 2 63.7976 156.0640 31.8004 -29.0127 2.0806 -18.2165
# 3 56.3920 31.8004 94.1459 -20.3464 1.0674 -13.6005
# 4 -21.8307 -29.0127 -20.3464 33.9108 -4.2179 -2.7375
# 5 5.9656 2.0806 1.0674 -4.2179 30.1950 0.5787
# 6 -17.1785 -18.2165 -13.6005 -2.7375 0.5787 43.2199
#
#
#
# Elastic Compliance Matrix: (Units=1/GPa)
#
#
# Indices 1 2 3 4 5 6 
#
# 1 0.007312 -0.001990 -0.003329 0.000962 -0.001076 0.001095
# 2 -0.001990 0.008827 0.000143 0.006712 0.000652 0.003391
# 3 -0.003329 0.000143 0.014663 0.007216 0.001065 0.003794
# 4 0.000962 0.006712 0.007216 0.041417 0.004724 0.008042
# 5 -0.001076 0.000652 0.001065 0.004724 0.033907 0.000027
# 6 0.001095 0.003391 0.003794 0.008042 0.000027 0.026705
#
#
# Mechanical properties :
#
#
# Convention : Reuss Voigt Hill
#
# Bulk Modulus (GPa) = 48.89913 82.25652 65.57782
# Shear Modulus (GPa) = 33.33340 40.42106 36.87723
#
# Velocity S-wave (km/s) = 3.72506 4.10202 3.91808
# Velocity P-wave (km/s) = 6.23356 7.52843 6.91139
#
# Compressibility (1/GPa) = 0.02045026
#
# Stress axis : x y z
#
# Youngs Moduli (GPa) = 136.75851 113.29365 68.19796
#
# Poissons Ratio (x) = 0.22542 0.22706
# Poissons Ratio (y) = 0.27211 -0.00977
# Poissons Ratio (z) = 0.45534 -0.01624
#
# Static dielectric constant tensor:
#      x y z
#    x 2.263950 -0.081070 0.012550 
#    y -0.081070 1.742370 0.003460 
#    z 0.012550 0.003460 1.875200 
# 
# From -- ./inp_files/72792.got.cif
#   From: 2010.05.17/outbox.cif.g08.bks.cpg/sg2_37_cif.got.tgz:72792.got - 2010.06.03 11:33:40.
