data_PCOD9088384
_publ_section_title
;
Structure prediction by ZEFSAII (Michael W. Deem and Ramdas Pophale) SiO2 
 PCOD9088384
Probable space group: P -1
;
_chemical_formula_sum "Si O2"
_cell_formula_units_Z 16
_cell_length_a 12.730155
_cell_length_b 12.622755
_cell_length_c 8.198454
_cell_angle_alpha 86.338386
_cell_angle_beta 146.754650
_cell_angle_gamma 101.971840
_cell_volume 691.611002
_symmetry_space_group_name_H-M "P -1"
_symmetry_group_IT_number 2
_symmetry_cell_setting 'triclinic'
loop_
_space_group_symop_operation_xyz
x,y,z
-x,-y,-z
loop_
_atom_site_type_symbol
_atom_site_label
_atom_site_fract_x
_atom_site_fract_y
_atom_site_fract_z
Si Si1 0.078294 0.276263 0.438593
Si Si2 0.555354 0.473584 0.884877
Si Si3 0.262327 0.740974 0.512151
Si Si4 0.828162 0.505912 0.653359
Si Si5 0.167092 0.301936 0.910161
Si Si6 0.726470 0.866432 0.717476
Si Si7 0.159562 0.885825 0.107242
Si Si8 0.498596 0.238782 0.870265
O O1 0.083608 0.402171 0.381584
O O2 0.067547 0.250945 0.616596
O O3 0.290313 0.256902 0.663709
O O4 0.904258 0.190129 0.125479
O O5 0.350348 0.447969 0.516422
O O6 0.627359 0.364143 0.984896
O O7 0.500000 0.500000 0.000000
O O8 0.708830 0.576852 0.993711
O O9 0.294138 0.620727 0.535438
O O10 0.290290 0.828509 0.395307
O O11 0.022919 0.701307 0.227810
O O12 0.386973 0.795905 0.826874
O O13 0.000000 0.500000 0.000000
O O14 0.295138 0.230376 0.168913
O O15 0.564814 0.834024 0.365744
O O16 0.738751 0.984967 0.797886
O O17 0.946130 0.878220 0.920500
#
# Coordination Sequence:
#
# PCOD9088384 Si02
#       8
#     2   2   2   2   2   2   2   2
#     4  10  19  37  61  82 115 153 188 221 288 347
#     4  11  20  38  58  82 117 153 183 219 286 354
#     4  11  21  35  60  89 115 144 191 238 278 325
#     4  11  20  36  59  88 112 151 185 225 284 348
#     4  11  22  37  57  88 117 145 188 237 277 334
#     4   9  21  38  56  83 113 150 195 233 279 327
#     4   9  19  38  60  79 111 155 193 230 278 341
#     4  10  20  38  59  83 115 155 184 227 283 344
#
# _framework density 23.134395000000001
#
# number of rings (size 3 to 8) (size 9 to 14) (size 15 to 20)
#    0.000    1.750    5.000    0.000    1.750    3.500 
#    2.250    0.000    0.000    3.750    0.000    0.000 
#    0.000    0.000    0.000    0.000    0.000    0.000 
#
# Total GULP energy -89338.108779 kJ/mol
# GULP energy per Si atom -5583.631799 kJ/mol
# Density = 2.308174 g / cm^3
# Si number density = 23.134395 Si / 1000 Ang^3
#
#
#
# Elastic Constant Matrix: (Units=GPa)
#
#
# Indices 1 2 3 4 5 6 
#
# 1 15.6600 4.9623 -2.1434 1.6336 4.0773 6.8415
# 2 4.9623 71.4555 22.9458 19.6436 -15.5952 -1.2560
# 3 -2.1434 22.9458 136.0841 -10.4911 -25.7189 2.3184
# 4 1.6336 19.6436 -10.4911 31.2506 -5.6243 1.1435
# 5 4.0773 -15.5952 -25.7189 -5.6243 38.5068 1.1519
# 6 6.8415 -1.2560 2.3184 1.1435 1.1519 15.4766
#
#
#
# Elastic Compliance Matrix: (Units=1/GPa)
#
#
# Indices 1 2 3 4 5 6 
#
# 1 0.086884 -0.010197 0.001903 0.002022 -0.010600 -0.038881
# 2 -0.010197 0.020765 -0.003919 -0.013258 0.004714 0.007409
# 3 0.001903 -0.003919 0.009721 0.006802 0.005804 -0.003550
# 4 0.002022 -0.013258 0.006802 0.043752 0.005548 -0.006634
# 5 -0.010600 0.004714 0.005804 0.005548 0.033649 0.001285
# 6 -0.038881 0.007409 -0.003550 -0.006634 0.001285 0.083329
#
#
# Mechanical properties :
#
#
# Convention : Reuss Voigt Hill
#
# Bulk Modulus (GPa) = 10.75942 30.52545 20.64243
# Shear Modulus (GPa) = 14.99209 30.20912 22.60061
#
# Velocity S-wave (km/s) = 2.54843 3.61752 3.12897
# Velocity P-wave (km/s) = 3.64969 5.53824 4.69001
#
# Compressibility (1/GPa) = 0.09294180
#
# Stress axis : x y z
#
# Youngs Moduli (GPa) = 11.50962 48.15734 102.87096
#
# Poissons Ratio (x) = 0.49108 -0.19574
# Poissons Ratio (y) = 0.11737 0.40319
# Poissons Ratio (z) = -0.02190 0.18875
#
# Static dielectric constant tensor:
#      x y z
#    x 1.958090 -0.011160 0.005110 
#    y -0.011160 1.875410 -0.008240 
#    z 0.005110 -0.008240 1.917820 
# 
# From -- ./inp_files/201929.got.cif
#   From: 2010.05.17/outbox.cif.g08.bks.cpg/sg2_101_cif.got.tgz:201929.got - 2010.06.03 11:33:40.
