data_PCOD9088379
_publ_section_title
;
Structure prediction by ZEFSAII (Michael W. Deem and Ramdas Pophale) SiO2 
 PCOD9088379
Probable space group: P -1
;
_chemical_formula_sum "Si O2"
_cell_formula_units_Z 16
_cell_length_a 19.691583
_cell_length_b 17.707107
_cell_length_c 13.384451
_cell_angle_alpha 148.684600
_cell_angle_beta 20.677939
_cell_angle_gamma 157.842435
_cell_volume 618.933386
_symmetry_space_group_name_H-M "P -1"
_symmetry_group_IT_number 2
_symmetry_cell_setting 'triclinic'
loop_
_space_group_symop_operation_xyz
x,y,z
-x,-y,-z
loop_
_atom_site_type_symbol
_atom_site_label
_atom_site_fract_x
_atom_site_fract_y
_atom_site_fract_z
Si Si1 0.823811 0.810028 0.455017
Si Si2 0.806853 0.242369 0.691575
Si Si3 0.147436 0.070038 0.660186
Si Si4 0.695352 0.905789 0.228265
Si Si5 0.101060 0.687668 0.135562
Si Si6 0.335218 0.911386 0.864719
Si Si7 0.541390 0.524785 0.693610
Si Si8 0.809350 0.654615 0.858063
O O1 0.773721 0.878685 0.505080
O O2 0.584498 0.616968 0.629511
O O3 0.038242 0.799824 0.116992
O O4 0.000000 0.000000 0.500000
O O5 0.796430 0.300021 0.882241
O O6 0.080632 0.405781 0.439059
O O7 0.831857 0.080820 0.497044
O O8 0.570418 0.150220 0.834069
O O9 0.372907 0.288274 0.647001
O O10 0.847653 0.972642 0.986386
O O11 0.447280 0.860223 0.568658
O O12 0.656621 0.714996 0.091741
O O13 0.934275 0.123796 0.199403
O O14 0.838918 0.650990 0.466159
O O15 0.300405 0.854069 0.966772
O O16 0.000000 0.500000 0.000000
O O17 0.368049 0.512687 0.002199
#
# Coordination Sequence:
#
# PCOD9088379 Si02
#       8
#     2   2   2   2   2   2   2   2
#     4  11  24  38  53  79 114 154 191 224 270 330
#     4  10  20  36  60  85 109 145 184 229 280 326
#     4  10  19  37  61  82 109 144 187 229 277 331
#     4   8  15  30  57  85 107 137 178 231 281 325
#     4  11  21  31  49  82 117 144 180 227 273 323
#     4  10  20  36  56  80 110 144 186 229 276 326
#     4  10  20  35  56  80 110 145 184 230 276 327
#     4   8  15  31  56  85 110 135 179 231 279 325
#
# _framework density 25.850923999999999
#
# number of rings (size 3 to 8) (size 9 to 14) (size 15 to 20)
#    0.000    2.250    0.000    6.000    0.000    2.000 
#    0.000    1.250    0.000    6.750    0.000    0.000 
#    0.000    0.000    0.000    0.000    0.000    0.000 
#
# Total GULP energy -89216.255926 kJ/mol
# GULP energy per Si atom -5576.015995 kJ/mol
# Density = 2.579209 g / cm^3
# Si number density = 25.850924 Si / 1000 Ang^3
#
#
#
# Elastic Constant Matrix: (Units=GPa)
#
#
# Indices 1 2 3 4 5 6 
#
# 1 64.3491 11.9601 22.4576 -18.2838 32.8577 -16.1596
# 2 11.9601 58.9837 43.5789 -7.3320 15.8087 1.5183
# 3 22.4576 43.5789 175.9754 -37.0508 24.5077 -24.5575
# 4 -18.2838 -7.3320 -37.0508 33.8573 -7.1771 11.6386
# 5 32.8577 15.8087 24.5077 -7.1771 30.2527 -9.1393
# 6 -16.1596 1.5183 -24.5575 11.6386 -9.1393 28.9439
#
#
#
# Elastic Compliance Matrix: (Units=1/GPa)
#
#
# Indices 1 2 3 4 5 6 
#
# 1 0.043823 0.001781 0.005059 0.017331 -0.046384 0.007051
# 2 0.001781 0.024580 -0.005727 0.000533 -0.012861 -0.009429
# 3 0.005059 -0.005727 0.010145 0.009122 -0.006766 0.005928
# 4 0.017331 0.000533 0.009122 0.047832 -0.017357 -0.007327
# 5 -0.046384 -0.012861 -0.006766 -0.017357 0.093158 0.005433
# 6 0.007051 -0.009429 0.005928 -0.007327 0.005433 0.048672
#
#
# Mechanical properties :
#
#
# Convention : Reuss Voigt Hill
#
# Bulk Modulus (GPa) = 12.38017 50.58903 31.48460
# Shear Modulus (GPa) = 17.07017 33.36490 25.21754
#
# Velocity S-wave (km/s) = 2.57248 3.59648 3.12669
# Velocity P-wave (km/s) = 3.69093 6.07110 5.02400
#
# Compressibility (1/GPa) = 0.08077436
#
# Stress axis : x y z
#
# Youngs Moduli (GPa) = 22.81911 40.68360 98.56725
#
# Poissons Ratio (x) = -0.07245 -0.49866
# Poissons Ratio (y) = -0.04064 0.56448
# Poissons Ratio (z) = -0.11544 0.23299
#
# Static dielectric constant tensor:
#      x y z
#    x 2.072410 -0.027090 0.002960 
#    y -0.027090 2.316500 -0.118120 
#    z 0.002960 -0.118120 2.255170 
# 
# From -- ./inp_files/419376.got.cif
#   From: 2010.05.17/outbox.cif.g08.bks.cpg/sg2_210_cif.got.tgz:419376.got - 2010.06.03 11:33:40.
