data_PCOD9088636
_publ_section_title
;
Structure prediction by ZEFSAII (Michael W. Deem and Ramdas Pophale) SiO2 
 PCOD9088636
Probable space group: P -1
;
_chemical_formula_sum "Si O2"
_cell_formula_units_Z 16
_cell_length_a 25.959803
_cell_length_b 5.441374
_cell_length_c 12.080958
_cell_angle_alpha 116.270978
_cell_angle_beta 30.854939
_cell_angle_gamma 128.059393
_cell_volume 673.084328
_symmetry_space_group_name_H-M "P -1"
_symmetry_group_IT_number 2
_symmetry_cell_setting 'triclinic'
loop_
_space_group_symop_operation_xyz
x,y,z
-x,-y,-z
loop_
_atom_site_type_symbol
_atom_site_label
_atom_site_fract_x
_atom_site_fract_y
_atom_site_fract_z
Si Si1 0.858397 0.603695 0.285990
Si Si2 0.889038 0.323791 0.776690
Si Si3 0.958613 0.339294 0.225269
Si Si4 0.488087 0.675253 0.321601
Si Si5 0.177313 0.359627 0.213364
Si Si6 0.378033 0.634656 0.045304
Si Si7 0.333631 0.639591 0.791608
Si Si8 0.606442 0.322563 0.726035
O O1 0.901331 0.515616 0.301793
O O2 0.722386 0.335084 0.470926
O O3 0.875243 0.957594 0.322539
O O4 0.938607 0.610677 0.039006
O O5 0.982787 0.502763 0.735451
O O6 0.102996 0.484044 0.311559
O O7 0.879606 0.989583 0.702702
O O8 0.763892 0.270798 0.044160
O O9 0.388492 0.547419 0.572340
O O10 0.430849 0.541402 0.280491
O O11 0.558960 0.059262 0.282883
O O12 0.585988 0.583028 0.132257
O O13 0.264013 0.605854 0.194131
O O14 0.258557 0.365815 0.963173
O O15 0.357895 0.522907 0.187624
O O16 0.490389 0.984843 0.895255
#
# Coordination Sequence:
#
# PCOD9088636 Si02
#       8
#     2   2   2   2   2   2   2   2
#     4  10  23  40  62  92 124 161 209 262 315 367
#     4  10  19  37  62  89 119 159 198 255 325 368
#     4  10  21  41  64  91 124 156 206 269 322 374
#     4  11  20  38  56  91 125 166 208 255 309 383
#     4  10  20  38  58  93 122 164 202 256 313 371
#     4  11  23  40  60  88 132 171 217 247 303 383
#     4   9  21  32  59  92 126 159 199 264 313 379
#     4  11  24  40  61  89 126 177 213 252 304 384
#
# _framework density 23.771165
#
# number of rings (size 3 to 8) (size 9 to 14) (size 15 to 20)
#    0.750    1.000    2.500    1.875    1.750    2.500 
#    0.000    0.000    0.000    4.500    0.000    0.000 
#    0.000    0.000    0.000    0.000    0.000    0.000 
#
# Total GULP energy -89319.300572 kJ/mol
# GULP energy per Si atom -5582.456286 kJ/mol
# Density = 2.371706 g / cm^3
# Si number density = 23.771165 Si / 1000 Ang^3
#
#
#
# Elastic Constant Matrix: (Units=GPa)
#
#
# Indices 1 2 3 4 5 6 
#
# 1 179.4924 43.7089 33.4719 -6.6345 -11.3673 -13.4184
# 2 43.7089 70.5366 12.0568 -12.0648 2.0351 -14.1618
# 3 33.4719 12.0568 86.6878 -13.1428 9.6367 -11.1752
# 4 -6.6345 -12.0648 -13.1428 26.1940 2.9722 -2.9837
# 5 -11.3673 2.0351 9.6367 2.9722 21.8235 -5.3265
# 6 -13.4184 -14.1618 -11.1752 -2.9837 -5.3265 30.7556
#
#
#
# Elastic Compliance Matrix: (Units=1/GPa)
#
#
# Indices 1 2 3 4 5 6 
#
# 1 0.007702 -0.004636 -0.003306 -0.002473 0.006461 0.000904
# 2 -0.004636 0.020334 0.002199 0.010783 -0.004707 0.008371
# 3 -0.003306 0.002199 0.015536 0.009510 -0.008963 0.004585
# 4 -0.002473 0.010783 0.009510 0.049681 -0.010745 0.010300
# 5 0.006461 -0.004707 -0.008963 -0.010745 0.056548 0.006146
# 6 0.000904 0.008371 0.004585 0.010300 0.006146 0.040493
#
#
# Mechanical properties :
#
#
# Convention : Reuss Voigt Hill
#
# Bulk Modulus (GPa) = 31.16561 57.24356 44.20459
# Shear Modulus (GPa) = 23.53231 32.25323 27.89277
#
# Velocity S-wave (km/s) = 3.14976 3.68750 3.42919
# Velocity P-wave (km/s) = 5.13490 6.50105 5.85793
#
# Compressibility (1/GPa) = 0.03208665
#
# Stress axis : x y z
#
# Youngs Moduli (GPa) = 129.83821 49.17790 64.36842
#
# Poissons Ratio (x) = 0.22797 0.21279
# Poissons Ratio (y) = 0.60187 -0.14154
# Poissons Ratio (z) = 0.42923 -0.10813
#
# Static dielectric constant tensor:
#      x y z
#    x 1.905880 0.005230 -0.014010 
#    y 0.005230 1.915260 -0.015420 
#    z -0.014010 -0.015420 1.933380 
# 
# From -- ./inp_files/476028.got.cif
#   From: 2010.05.17/outbox.cif.g08.bks.cpg/sg2_239_cif.got.tgz:476028.got - 2010.06.03 11:33:40.
