data_PCOD9088607
_publ_section_title
;
Structure prediction by ZEFSAII (Michael W. Deem and Ramdas Pophale) SiO2 
 PCOD9088607
Probable space group: P -1
;
_chemical_formula_sum "Si O2"
_cell_formula_units_Z 16
_cell_length_a 12.335779
_cell_length_b 15.022664
_cell_length_c 8.889848
_cell_angle_alpha 110.467958
_cell_angle_beta 51.831750
_cell_angle_gamma 142.291940
_cell_volume 758.274164
_symmetry_space_group_name_H-M "P -1"
_symmetry_group_IT_number 2
_symmetry_cell_setting 'triclinic'
loop_
_space_group_symop_operation_xyz
x,y,z
-x,-y,-z
loop_
_atom_site_type_symbol
_atom_site_label
_atom_site_fract_x
_atom_site_fract_y
_atom_site_fract_z
Si Si1 0.189710 0.865761 0.054802
Si Si2 0.428752 0.243126 0.540021
Si Si3 0.043885 0.483117 0.289829
Si Si4 0.490323 0.733244 0.161082
Si Si5 0.351185 0.997154 0.315343
Si Si6 0.101319 0.464749 0.802841
Si Si7 0.952686 0.027574 0.898073
Si Si8 0.689330 0.164166 0.511957
O O1 0.116803 0.899471 0.007523
O O2 0.001037 0.686746 0.140163
O O3 0.238168 0.947309 0.219641
O O4 0.415975 0.931157 0.868011
O O5 0.487807 0.287081 0.694188
O O6 0.405221 0.121728 0.433450
O O7 0.634746 0.394478 0.358626
O O8 0.178631 0.145021 0.680633
O O9 0.295425 0.584288 0.139785
O O10 0.000000 0.500000 0.500000
O O11 0.998883 0.554081 0.278564
O O12 0.862982 0.302435 0.326042
O O13 0.421429 0.806489 0.289088
O O14 0.723484 0.852996 0.947351
O O15 0.209592 0.852171 0.460042
O O16 0.000000 0.500000 0.000000
O O17 0.000000 0.000000 0.000000
O O18 0.500000 0.000000 0.500000
#
# Coordination Sequence:
#
# PCOD9088607 Si02
#       8
#     2   2   2   2   2   2   2   2
#     4  11  24  38  63  92 129 165 211 264 324 381
#     4  11  22  41  61  90 129 173 208 259 321 385
#     4  10  20  34  60  91 121 164 203 264 319 364
#     4  10  19  37  62  87 120 162 215 257 312 367
#     4  11  22  37  62  98 122 159 219 272 315 372
#     4  12  23  38  61  99 133 160 207 272 328 379
#     4  10  24  42  64  90 125 175 217 258 315 395
#     4  11  18  32  62  93 123 152 207 264 311 365
#
# _framework density 21.100546999999999
#
# number of rings (size 3 to 8) (size 9 to 14) (size 15 to 20)
#    0.000    1.250    6.250    1.500    1.750    1.000 
#    0.000    0.000    0.000    2.250    0.000    0.000 
#    0.000    0.000    0.000    0.000    0.000    0.000 
#
# Total GULP energy -89097.421748 kJ/mol
# GULP energy per Si atom -5568.588859 kJ/mol
# Density = 2.105252 g / cm^3
# Si number density = 21.100547 Si / 1000 Ang^3
#
#
#
# Elastic Constant Matrix: (Units=GPa)
#
#
# Indices 1 2 3 4 5 6 
#
# 1 77.4610 32.9427 20.5604 -16.8070 -6.0857 -6.0934
# 2 32.9427 113.6973 28.5629 -39.0261 -10.7936 2.6909
# 3 20.5604 28.5629 67.7689 -29.3784 -18.7317 7.3745
# 4 -16.8070 -39.0261 -29.3784 46.4878 12.8831 -2.3837
# 5 -6.0857 -10.7936 -18.7317 12.8831 35.5209 -15.8249
# 6 -6.0934 2.6909 7.3745 -2.3837 -15.8249 28.9882
#
#
#
# Elastic Compliance Matrix: (Units=1/GPa)
#
#
# Indices 1 2 3 4 5 6 
#
# 1 0.016023 -0.003629 -0.003117 0.000391 0.002477 0.005882
# 2 -0.003629 0.013232 -0.000348 0.009791 -0.001090 -0.001692
# 3 -0.003117 -0.000348 0.022597 0.010981 0.006418 -0.001965
# 4 0.000391 0.009791 0.010981 0.038549 -0.007068 -0.004309
# 5 0.002477 -0.001090 0.006418 -0.007068 0.044245 0.022562
# 6 0.005882 -0.001692 -0.001965 -0.004309 0.022562 0.048353
#
#
# Mechanical properties :
#
#
# Convention : Reuss Voigt Hill
#
# Bulk Modulus (GPa) = 26.55217 47.00660 36.77938
# Shear Modulus (GPa) = 23.83877 33.99012 28.91445
#
# Velocity S-wave (km/s) = 3.36485 4.01791 3.70580
# Velocity P-wave (km/s) = 5.26377 6.62198 5.98155
#
# Compressibility (1/GPa) = 0.03766171
#
# Stress axis : x y z
#
# Youngs Moduli (GPa) = 62.41110 75.57702 44.25350
#
# Poissons Ratio (x) = 0.27427 0.13795
# Poissons Ratio (y) = 0.22649 0.01542
# Poissons Ratio (z) = 0.19456 0.02633
#
# Static dielectric constant tensor:
#      x y z
#    x 1.606430 0.040360 -0.127940 
#    y 0.040360 1.844620 -0.056040 
#    z -0.127940 -0.056040 1.727660 
# 
# From -- ./inp_files/270452.got.cif
#   From: 2010.05.17/outbox.cif.g08.bks.cpg/sg2_136_cif.got.tgz:270452.got - 2010.06.03 11:33:40.
