data_PCOD9088267
_publ_section_title
;
Structure prediction by ZEFSAII (Michael W. Deem and Ramdas Pophale) SiO2 
 PCOD9088267
Probable space group: P -1
;
_chemical_formula_sum "Si O2"
_cell_formula_units_Z 15
_cell_length_a 5.182583
_cell_length_b 4.870410
_cell_length_c 23.151258
_cell_angle_alpha 100.584317
_cell_angle_beta 63.521040
_cell_angle_gamma 92.987783
_cell_volume 513.872542
_symmetry_space_group_name_H-M "P -1"
_symmetry_group_IT_number 2
_symmetry_cell_setting 'triclinic'
loop_
_space_group_symop_operation_xyz
x,y,z
-x,-y,-z
loop_
_atom_site_type_symbol
_atom_site_label
_atom_site_fract_x
_atom_site_fract_y
_atom_site_fract_z
Si Si1 0.500000 0.500000 0.500000
Si Si2 0.908995 0.191846 0.405566
Si Si3 0.470430 0.747740 0.874953
Si Si4 0.762237 0.300501 0.989212
Si Si5 0.153916 0.235101 0.261064
Si Si6 0.643474 0.109795 0.573041
Si Si7 0.991125 0.353199 0.854689
Si Si8 0.638758 0.614240 0.278030
O O1 0.837982 0.518186 0.432660
O O2 0.654295 0.359464 0.537508
O O3 0.055330 0.107849 0.327051
O O4 0.560848 0.131045 0.443155
O O5 0.086174 0.050007 0.432829
O O6 0.348082 0.879724 0.952534
O O7 0.644109 0.912718 0.814616
O O8 0.710975 0.516484 0.863436
O O9 0.207633 0.586882 0.866197
O O10 0.500000 0.500000 0.000000
O O11 0.906206 0.172761 0.911903
O O12 0.000000 0.500000 0.000000
O O13 0.366736 0.476619 0.270377
O O14 0.869018 0.378864 0.267698
O O15 0.466402 0.216544 0.650316
O O16 0.180962 0.212544 0.779722
#
# Coordination Sequence:
#
# PCOD9088267 Si02
#       8
#     1   2   2   2   2   2   2   2
#     4  12  28  50  72  92 134 158 202 258 314 354
#     4  12  27  45  69  98 124 163 208 249 309 374
#     4   8  14  23  43  71 106 149 192 238 293 343
#     4   8  12  20  34  66 106 140 188 243 281 338
#     4  10  19  37  60  85 120 162 200 249 305 355
#     4  12  27  45  69  98 124 163 208 249 309 374
#     4   8  14  23  43  71 106 149 192 238 293 343
#     4  10  19  37  60  85 120 162 200 249 305 355
#
# _framework density 29.190118999999999
#
# number of rings (size 3 to 8) (size 9 to 14) (size 15 to 20)
#    0.000    2.133    1.333    2.400    0.000    1.067 
#    0.000    0.000    0.000    0.000    0.000    1.867 
#    0.000    0.000    0.000    0.000    0.000    0.267 
#
# Total GULP energy -83931.442098 kJ/mol
# GULP energy per Si atom -5595.429473 kJ/mol
# Density = 2.912368 g / cm^3
# Si number density = 29.190119 Si / 1000 Ang^3
#
#
#
# Elastic Constant Matrix: (Units=GPa)
#
#
# Indices 1 2 3 4 5 6 
#
# 1 183.9066 84.5043 13.7587 -6.2416 -3.7097 -34.7413
# 2 84.5043 104.1660 54.1549 -3.7666 -6.6472 -13.0510
# 3 13.7587 54.1549 277.7617 -18.6945 10.4161 -31.5979
# 4 -6.2416 -3.7666 -18.6945 37.6508 -0.9525 1.4535
# 5 -3.7097 -6.6472 10.4161 -0.9525 42.4790 -5.5818
# 6 -34.7413 -13.0510 -31.5979 1.4535 -5.5818 46.1253
#
#
#
# Elastic Compliance Matrix: (Units=1/GPa)
#
#
# Indices 1 2 3 4 5 6 
#
# 1 0.010720 -0.008858 0.002099 0.001665 -0.000014 0.006952
# 2 -0.008858 0.018384 -0.003746 -0.001283 0.002508 -0.003692
# 3 0.002099 -0.003746 0.004828 0.002203 -0.001060 0.003631
# 4 0.001665 -0.001283 0.002203 0.027747 0.000231 0.001554
# 5 -0.000014 0.002508 -0.001060 0.000231 0.024584 0.002941
# 6 0.006952 -0.003692 0.003631 0.001554 0.002941 0.028666
#
#
# Mechanical properties :
#
#
# Convention : Reuss Voigt Hill
#
# Bulk Modulus (GPa) = 77.37901 96.74112 87.06007
# Shear Modulus (GPa) = 35.65165 52.81209 44.23187
#
# Velocity S-wave (km/s) = 3.49859 4.25814 3.89691
# Velocity P-wave (km/s) = 6.54877 7.57557 7.08081
#
# Compressibility (1/GPa) = 0.01292340
#
# Stress axis : x y z
#
# Youngs Moduli (GPa) = 93.28256 54.39365 207.13958
#
# Poissons Ratio (x) = 0.48181 -0.43487
# Poissons Ratio (y) = 0.82628 0.77596
# Poissons Ratio (z) = -0.19584 0.20376
#
# Static dielectric constant tensor:
#      x y z
#    x 2.355820 0.214040 0.043830 
#    y 0.214040 2.487770 0.144980 
#    z 0.043830 0.144980 2.451730 
# 
# From -- ./inp_files/603242.got.cif
#   From: 2010.05.17/outbox.cif.g08.bks.cpg/sg2_302_cif.got.tgz:603242.got - 2010.06.03 11:33:40.
