data_PCOD9088965
_publ_section_title
;
Structure prediction by ZEFSAII (Michael W. Deem and Ramdas Pophale) SiO2 
 PCOD9088965
Probable space group: P -1
;
_chemical_formula_sum "Si O2"
_cell_formula_units_Z 16
_cell_length_a 12.221468
_cell_length_b 9.269145
_cell_length_c 8.352772
_cell_angle_alpha 120.744961
_cell_angle_beta 96.394438
_cell_angle_gamma 69.681847
_cell_volume 760.060680
_symmetry_space_group_name_H-M "P -1"
_symmetry_group_IT_number 2
_symmetry_cell_setting 'triclinic'
loop_
_space_group_symop_operation_xyz
x,y,z
-x,-y,-z
loop_
_atom_site_type_symbol
_atom_site_label
_atom_site_fract_x
_atom_site_fract_y
_atom_site_fract_z
Si Si1 0.501647 0.005119 0.309087
Si Si2 0.741113 0.753957 0.728966
Si Si3 0.251642 0.555490 0.203213
Si Si4 0.454809 0.657936 0.455906
Si Si5 0.103167 0.463278 0.625965
Si Si6 0.961653 0.835830 0.947372
Si Si7 0.985582 0.686461 0.193585
Si Si8 0.588069 0.600519 0.125389
O O1 0.375669 0.090119 0.253451
O O2 0.565957 0.147354 0.362204
O O3 0.500000 0.000000 0.500000
O O4 0.556151 0.798037 0.157388
O O5 0.728567 0.627861 0.799937
O O6 0.782390 0.621389 0.508284
O O7 0.845664 0.826785 0.834877
O O8 0.338967 0.646950 0.344907
O O9 0.115511 0.670371 0.260586
O O10 0.288561 0.509760 0.997667
O O11 0.500000 0.500000 0.500000
O O12 0.558152 0.623432 0.320862
O O13 0.000000 0.500000 0.500000
O O14 0.068185 0.654563 0.814392
O O15 0.093193 0.317578 0.669690
O O16 0.939974 0.832444 0.132338
O O17 0.000000 0.000000 0.000000
O O18 0.000000 0.500000 0.000000
O O19 0.500000 0.500000 0.000000
#
# Coordination Sequence:
#
# PCOD9088965 Si02
#       8
#     2   2   2   2   2   2   2   2
#     4  10  22  40  62  89 124 156 207 258 299 370
#     4  11  21  40  65  86 122 167 201 249 311 361
#     4  11  20  38  65  87 122 164 206 246 310 366
#     4  10  20  38  59  89 119 155 204 255 295 359
#     4   9  18  38  65  86 116 163 205 241 311 366
#     4  10  22  38  59  92 126 153 205 260 296 362
#     4  10  19  37  64  88 118 159 205 246 302 371
#     4   9  22  40  62  88 121 165 202 248 312 362
#
# _framework density 21.050951000000001
#
# number of rings (size 3 to 8) (size 9 to 14) (size 15 to 20)
#    0.000    2.000    5.000    0.000    0.000    7.500 
#    0.000    5.000    5.500    0.000    0.000    0.000 
#    0.000    0.000    0.000    0.000    0.000    0.000 
#
# Total GULP energy -89233.544467 kJ/mol
# GULP energy per Si atom -5577.096529 kJ/mol
# Density = 2.100304 g / cm^3
# Si number density = 21.050951 Si / 1000 Ang^3
#
#
#
# Elastic Constant Matrix: (Units=GPa)
#
#
# Indices 1 2 3 4 5 6 
#
# 1 99.8923 30.5875 35.0009 2.9901 30.9422 5.9788
# 2 30.5875 116.6882 36.7148 -1.1929 18.1789 24.3048
# 3 35.0009 36.7148 58.1055 -2.7257 2.4431 10.1213
# 4 2.9901 -1.1929 -2.7257 36.9742 10.2915 3.9427
# 5 30.9422 18.1789 2.4431 10.2915 39.8365 -8.6049
# 6 5.9788 24.3048 10.1213 3.9427 -8.6049 37.1962
#
#
#
# Elastic Compliance Matrix: (Units=1/GPa)
#
#
# Indices 1 2 3 4 5 6 
#
# 1 0.018574 0.002443 -0.010848 0.003123 -0.016954 -0.005883
# 2 0.002443 0.014534 -0.008120 0.003985 -0.011380 -0.010735
# 3 -0.010848 -0.008120 0.028030 -0.000598 0.011005 0.002031
# 4 0.003123 0.003985 -0.000598 0.031965 -0.014561 -0.009700
# 5 -0.016954 -0.011380 0.011005 -0.014561 0.050980 0.020504
# 6 -0.005883 -0.010735 0.002031 -0.009700 0.020504 0.040064
#
#
# Mechanical properties :
#
#
# Convention : Reuss Voigt Hill
#
# Bulk Modulus (GPa) = 35.60076 53.25473 44.42775
# Shear Modulus (GPa) = 22.06927 34.29356 28.18141
#
# Velocity S-wave (km/s) = 3.24137 4.04056 3.66283
# Velocity P-wave (km/s) = 5.56391 6.86448 6.24813
#
# Compressibility (1/GPa) = 0.02808928
#
# Stress axis : x y z
#
# Youngs Moduli (GPa) = 53.83892 68.80442 35.67562
#
# Poissons Ratio (x) = -0.16809 0.38700
# Poissons Ratio (y) = -0.13153 0.28968
# Poissons Ratio (z) = 0.58403 0.55867
#
# Static dielectric constant tensor:
#      x y z
#    x 1.767900 0.008260 -0.044500 
#    y 0.008260 1.730510 0.026900 
#    z -0.044500 0.026900 1.772830 
# 
# From -- ./inp_files/216001.got.cif
#   From: 2010.05.17/outbox.cif.g08.bks.cpg/sg2_109_cif.got.tgz:216001.got - 2010.06.03 11:33:40.
