data_PCOD9088501
_publ_section_title
;
Structure prediction by ZEFSAII (Michael W. Deem and Ramdas Pophale) SiO2 
 PCOD9088501
Probable space group: P -1
;
_chemical_formula_sum "Si O2"
_cell_formula_units_Z 16
_cell_length_a 12.443216
_cell_length_b 12.134782
_cell_length_c 11.748681
_cell_angle_alpha 31.799737
_cell_angle_beta 121.728217
_cell_angle_gamma 102.276536
_cell_volume 677.790587
_symmetry_space_group_name_H-M "P -1"
_symmetry_group_IT_number 2
_symmetry_cell_setting 'triclinic'
loop_
_space_group_symop_operation_xyz
x,y,z
-x,-y,-z
loop_
_atom_site_type_symbol
_atom_site_label
_atom_site_fract_x
_atom_site_fract_y
_atom_site_fract_z
Si Si1 0.665753 0.967081 0.489840
Si Si2 0.061294 0.144233 0.980168
Si Si3 0.607522 0.101415 0.959279
Si Si4 0.463999 0.448978 0.364240
Si Si5 0.911786 0.050842 0.574350
Si Si6 0.615864 0.017018 0.685982
Si Si7 0.935296 0.654146 0.566690
Si Si8 0.153493 0.528452 0.106883
O O1 0.751705 0.109954 0.388841
O O2 0.645921 0.962483 0.617954
O O3 0.500980 0.058086 0.270776
O O4 0.779018 0.686252 0.760847
O O5 0.074957 0.047181 0.202600
O O6 0.222740 0.085056 0.081260
O O7 0.968392 0.439601 0.683820
O O8 0.000000 0.000000 0.000000
O O9 0.778714 0.895772 0.239542
O O10 0.915460 0.561692 0.758166
O O11 0.500000 0.000000 0.000000
O O12 0.557413 0.289011 0.871146
O O13 0.523321 0.307766 0.403735
O O14 0.303152 0.500884 0.261930
O O15 0.427464 0.736060 0.316272
O O16 0.943743 0.268086 0.416642
O O17 0.037241 0.818655 0.774495
#
# Coordination Sequence:
#
# PCOD9088501 Si02
#       8
#     2   2   2   2   2   2   2   2
#     4   9  19  39  65  85 116 163 208 246 303 352
#     4  10  24  40  61  89 126 162 198 245 303 367
#     4  11  22  36  59  91 124 160 201 247 301 361
#     4  10  21  36  62  88 123 161 197 248 302 354
#     4  10  21  39  61  90 119 159 204 252 303 350
#     4   9  20  40  62  87 119 164 204 241 299 363
#     4  11  23  38  60  93 124 155 206 248 304 361
#     4  10  19  37  61  90 120 154 201 258 299 351
#
# _framework density 23.606110999999999
#
# number of rings (size 3 to 8) (size 9 to 14) (size 15 to 20)
#    0.000    2.000    2.500    0.375    3.500    1.000 
#    0.000    0.625    0.000    0.000    0.000    0.000 
#    0.000    0.000    0.000    0.000    0.000    0.000 
#
# Total GULP energy -89348.518990 kJ/mol
# GULP energy per Si atom -5584.282437 kJ/mol
# Density = 2.355238 g / cm^3
# Si number density = 23.606111 Si / 1000 Ang^3
#
#
#
# Elastic Constant Matrix: (Units=GPa)
#
#
# Indices 1 2 3 4 5 6 
#
# 1 103.8050 65.9253 63.8197 -14.2728 17.4287 24.9540
# 2 65.9253 147.3166 60.4663 -37.9587 15.0947 33.3302
# 3 63.8197 60.4663 107.4225 -15.6126 13.1533 20.0937
# 4 -14.2728 -37.9587 -15.6126 45.1172 2.3846 3.3028
# 5 17.4287 15.0947 13.1533 2.3846 34.0458 -1.3785
# 6 24.9540 33.3302 20.0937 3.3028 -1.3785 53.4529
#
#
#
# Elastic Compliance Matrix: (Units=1/GPa)
#
#
# Indices 1 2 3 4 5 6 
#
# 1 0.018351 -0.003604 -0.007448 0.000737 -0.005120 -0.003698
# 2 -0.003604 0.014234 -0.002428 0.010754 -0.004567 -0.007063
# 3 -0.007448 -0.002428 0.015603 0.001139 -0.001258 -0.000977
# 4 0.000737 0.010754 0.001139 0.032990 -0.008290 -0.009730
# 5 -0.005120 -0.004567 -0.001258 -0.008290 0.035374 0.007136
# 6 -0.003698 -0.007063 -0.000977 -0.009730 0.007136 0.025991
#
#
# Mechanical properties :
#
#
# Convention : Reuss Voigt Hill
#
# Bulk Modulus (GPa) = 47.10635 82.10742 64.60688
# Shear Modulus (GPa) = 28.31586 37.74538 33.03062
#
# Velocity S-wave (km/s) = 3.46716 4.00305 3.74470
# Velocity P-wave (km/s) = 6.00223 7.49824 6.79155
#
# Compressibility (1/GPa) = 0.02122856
#
# Stress axis : x y z
#
# Youngs Moduli (GPa) = 54.49155 70.25259 64.09095
#
# Poissons Ratio (x) = 0.25320 0.47736
# Poissons Ratio (y) = 0.19640 0.15559
# Poissons Ratio (z) = 0.40586 0.17055
#
# Static dielectric constant tensor:
#      x y z
#    x 1.928470 0.036190 -0.030410 
#    y 0.036190 2.005880 -0.000710 
#    z -0.030410 -0.000710 1.897950 
# 
# From -- ./inp_files/532275.got.cif
#   From: 2010.05.17/outbox.cif.g08.bks.cpg/sg2_267_cif.got.tgz:532275.got - 2010.06.03 11:33:40.
