data_PCOD9088824
_publ_section_title
;
Structure prediction by ZEFSAII (Michael W. Deem and Ramdas Pophale) SiO2 
 PCOD9088824
Probable space group: P -1
;
_chemical_formula_sum "Si O2"
_cell_formula_units_Z 14
_cell_length_a 8.525366
_cell_length_b 12.121100
_cell_length_c 8.302549
_cell_angle_alpha 61.137452
_cell_angle_beta 91.129049
_cell_angle_gamma 61.581679
_cell_volume 625.229977
_symmetry_space_group_name_H-M "P -1"
_symmetry_group_IT_number 2
_symmetry_cell_setting 'triclinic'
loop_
_space_group_symop_operation_xyz
x,y,z
-x,-y,-z
loop_
_atom_site_type_symbol
_atom_site_label
_atom_site_fract_x
_atom_site_fract_y
_atom_site_fract_z
Si Si1 0.251409 0.295606 0.507572
Si Si2 0.139137 0.100838 0.496198
Si Si3 0.070262 0.560833 0.815459
Si Si4 0.552935 0.120369 0.893277
Si Si5 0.520043 0.343091 0.973176
Si Si6 0.186473 0.897045 0.353368
Si Si7 0.494648 0.612807 0.695451
O O1 0.273515 0.139698 0.562784
O O2 0.367528 0.259200 0.699288
O O3 0.357048 0.342841 0.356808
O O4 0.032934 0.420927 0.372194
O O5 0.000960 0.262963 0.286375
O O6 0.018991 0.069083 0.640783
O O7 0.223886 0.973063 0.452450
O O8 0.293030 0.451785 0.889570
O O9 0.000000 0.500000 0.000000
O O10 0.579312 0.186004 0.010288
O O11 0.738778 0.061827 0.829304
O O12 0.500000 0.000000 0.000000
O O13 0.584218 0.435563 0.806578
O O14 0.581925 0.338724 0.159270
O O15 0.325603 0.715516 0.498753
#
# Coordination Sequence:
#
# PCOD9088824 Si02
#       7
#     2   2   2   2   2   2   2
#     4   9  21  38  63  87 117 160 206 242 304 349
#     4   9  20  39  66  87 117 158 214 243 294 363
#     4  10  19  37  63  90 118 153 205 257 284 360
#     4  11  27  40  58  92 127 164 194 256 313 356
#     4  11  22  38  61  90 128 152 205 247 308 362
#     4  10  21  40  64  86 121 162 203 254 300 358
#     4  10  20  37  64  92 111 166 203 252 292 357
#
# _framework density 22.391762
#
# number of rings (size 3 to 8) (size 9 to 14) (size 15 to 20)
#    0.857    1.143    2.857    0.000    6.000    4.000 
#    0.000    0.714    0.000    0.000    0.000    0.000 
#    0.000    0.000    0.000    0.000    0.000    0.000 
#
# Total GULP energy -78010.435006 kJ/mol
# GULP energy per Si atom -5572.173929 kJ/mol
# Density = 2.234080 g / cm^3
# Si number density = 22.391762 Si / 1000 Ang^3
#
#
#
# Elastic Constant Matrix: (Units=GPa)
#
#
# Indices 1 2 3 4 5 6 
#
# 1 83.4974 12.4371 20.2525 -4.1685 -19.7097 12.1076
# 2 12.4371 63.0990 16.9251 -9.5437 -19.8125 16.3531
# 3 20.2525 16.9251 76.1968 -13.1383 -18.8288 0.7788
# 4 -4.1685 -9.5437 -13.1383 18.5463 6.6266 1.0570
# 5 -19.7097 -19.8125 -18.8288 6.6266 47.0037 -11.0495
# 6 12.1076 16.3531 0.7788 1.0570 -11.0495 30.8271
#
#
#
# Elastic Compliance Matrix: (Units=1/GPa)
#
#
# Indices 1 2 3 4 5 6 
#
# 1 0.014159 0.000327 -0.002785 0.000218 0.003926 -0.004264
# 2 0.000327 0.021839 -0.002142 0.008638 0.004866 -0.010211
# 3 -0.002785 -0.002142 0.016808 0.008518 0.004169 0.003007
# 4 0.000218 0.008638 0.008518 0.066468 -0.004270 -0.008692
# 5 0.003926 0.004866 0.004169 -0.004270 0.028703 0.006206
# 6 -0.004264 -0.010211 0.003007 -0.008692 0.006206 0.041977
#
#
# Mechanical properties :
#
#
# Convention : Reuss Voigt Hill
#
# Bulk Modulus (GPa) = 22.93165 35.78029 29.35597
# Shear Modulus (GPa) = 23.39853 30.82064 27.10959
#
# Velocity S-wave (km/s) = 3.23609 3.71405 3.48328
# Velocity P-wave (km/s) = 4.92203 5.86567 5.41445
#
# Compressibility (1/GPa) = 0.04360785
#
# Stress axis : x y z
#
# Youngs Moduli (GPa) = 70.62545 45.78970 59.49609
#
# Poissons Ratio (x) = -0.01498 0.16567
# Poissons Ratio (y) = -0.02311 0.12742
# Poissons Ratio (z) = 0.19666 0.09807
#
# Static dielectric constant tensor:
#      x y z
#    x 1.845340 0.005420 0.022810 
#    y 0.005420 1.829130 -0.025770 
#    z 0.022810 -0.025770 1.889870 
# 
# From -- ./inp_files/185027.got.cif
#   From: 2010.05.17/outbox.cif.g08.bks.cpg/sg2_93_cif.got.tgz:185027.got - 2010.06.03 11:33:40.
