data_PCOD9088236
_publ_section_title
;
Structure prediction by ZEFSAII (Michael W. Deem and Ramdas Pophale) SiO2 
 PCOD9088236
Probable space group: P -1
;
_chemical_formula_sum "Si O2"
_cell_formula_units_Z 16
_cell_length_a 21.263647
_cell_length_b 5.841772
_cell_length_c 8.027358
_cell_angle_alpha 121.847777
_cell_angle_beta 50.663580
_cell_angle_gamma 104.948745
_cell_volume 650.659815
_symmetry_space_group_name_H-M "P -1"
_symmetry_group_IT_number 2
_symmetry_cell_setting 'triclinic'
loop_
_space_group_symop_operation_xyz
x,y,z
-x,-y,-z
loop_
_atom_site_type_symbol
_atom_site_label
_atom_site_fract_x
_atom_site_fract_y
_atom_site_fract_z
Si Si1 0.122717 0.679266 0.382736
Si Si2 0.919089 0.759391 0.306124
Si Si3 0.382976 0.522201 0.803648
Si Si4 0.544626 0.442340 0.675164
Si Si5 0.679909 0.975803 0.395128
Si Si6 0.040671 0.381122 0.159443
Si Si7 0.358267 0.133089 0.199565
Si Si8 0.782731 0.410914 0.478806
O O1 0.116767 0.454792 0.167207
O O2 0.190264 0.640967 0.396470
O O3 0.032241 0.691055 0.626643
O O4 0.124765 0.980558 0.426121
O O5 0.860198 0.525638 0.311933
O O6 0.999320 0.645989 0.229244
O O7 0.933971 0.821277 0.111391
O O8 0.449996 0.419491 0.791688
O O9 0.421545 0.507699 0.547963
O O10 0.318188 0.304243 0.816099
O O11 0.362529 0.841551 0.994563
O O12 0.560543 0.710887 0.856239
O O13 0.599191 0.177685 0.552919
O O14 0.671879 0.914459 0.580449
O O15 0.754896 0.155150 0.329883
O O16 0.292782 0.355625 0.312221
#
# Coordination Sequence:
#
# PCOD9088236 Si02
#       8
#     2   2   2   2   2   2   2   2
#     4  10  19  37  60  84 115 147 189 235 285 341
#     4  10  19  37  60  84 117 149 186 234 288 338
#     4  10  20  37  62  86 113 149 192 242 294 341
#     4   9  20  37  59  89 115 142 189 249 297 340
#     4  10  21  38  56  81 117 153 194 238 285 343
#     4   9  20  35  60  91 110 141 188 241 287 333
#     4  10  21  38  57  82 117 154 193 238 287 343
#     4  10  22  39  54  78 121 160 191 234 280 339
#
# _framework density 24.590423999999999
#
# number of rings (size 3 to 8) (size 9 to 14) (size 15 to 20)
#    0.000    2.250    0.000    2.250    0.000    2.500 
#    0.000   16.250    0.000    0.000    0.000    0.000 
#    0.000    0.000    0.000    0.000    0.000    0.000 
#
# Total GULP energy -89446.380302 kJ/mol
# GULP energy per Si atom -5590.398769 kJ/mol
# Density = 2.453446 g / cm^3
# Si number density = 24.590424 Si / 1000 Ang^3
#
#
#
# Elastic Constant Matrix: (Units=GPa)
#
#
# Indices 1 2 3 4 5 6 
#
# 1 161.0712 50.9113 30.7496 34.7258 10.9463 15.0693
# 2 50.9113 74.7431 36.0096 34.2386 21.7219 24.7310
# 3 30.7496 36.0096 68.9270 31.3658 21.3344 12.7193
# 4 34.7258 34.2386 31.3658 47.0010 9.3458 8.2998
# 5 10.9463 21.7219 21.3344 9.3458 22.9651 8.4713
# 6 15.0693 24.7310 12.7193 8.2998 8.4713 29.9279
#
#
#
# Elastic Compliance Matrix: (Units=1/GPa)
#
#
# Indices 1 2 3 4 5 6 
#
# 1 0.008254 -0.004811 -0.000730 -0.002595 0.002275 0.000205
# 2 -0.004811 0.034154 -0.000657 -0.014503 -0.017384 -0.016579
# 3 -0.000730 -0.000657 0.027133 -0.013146 -0.018216 -0.001819
# 4 -0.002595 -0.014503 -0.013146 0.039804 0.009018 0.005287
# 5 0.002275 -0.017384 -0.018216 0.009018 0.072964 -0.002192
# 6 0.000205 -0.016579 -0.001819 0.005287 -0.002192 0.046938
#
#
# Mechanical properties :
#
#
# Convention : Reuss Voigt Hill
#
# Bulk Modulus (GPa) = 17.49930 60.00916 38.75423
# Shear Modulus (GPa) = 19.17974 32.45017 25.81495
#
# Velocity S-wave (km/s) = 2.79582 3.63661 3.24357
# Velocity P-wave (km/s) = 4.18974 6.48765 5.46093
#
# Compressibility (1/GPa) = 0.05714514
#
# Stress axis : x y z
#
# Youngs Moduli (GPa) = 121.15182 29.27930 36.85537
#
# Poissons Ratio (x) = 0.14085 0.02690
# Poissons Ratio (y) = 0.58283 0.02423
# Poissons Ratio (z) = 0.08843 0.01925
#
# Static dielectric constant tensor:
#      x y z
#    x 1.935480 0.030770 -0.012400 
#    y 0.030770 1.983270 -0.032610 
#    z -0.012400 -0.032610 1.946110 
# 
# From -- ./inp_files/51789.got.cif
#   From: 2010.05.17/outbox.cif.g08.bks.cpg/sg2_26_cif.got.tgz:51789.got - 2010.06.03 11:33:40.
