data_PCOD9088060
_publ_section_title
;
Structure prediction by ZEFSAII (Michael W. Deem and Ramdas Pophale) SiO2 
 PCOD9088060
Probable space group: P -1
;
_chemical_formula_sum "Si O2"
_cell_formula_units_Z 16
_cell_length_a 12.342040
_cell_length_b 8.150146
_cell_length_c 23.339638
_cell_angle_alpha 58.742915
_cell_angle_beta 28.789188
_cell_angle_gamma 50.620887
_cell_volume 869.578019
_symmetry_space_group_name_H-M "P -1"
_symmetry_group_IT_number 2
_symmetry_cell_setting 'triclinic'
loop_
_space_group_symop_operation_xyz
x,y,z
-x,-y,-z
loop_
_atom_site_type_symbol
_atom_site_label
_atom_site_fract_x
_atom_site_fract_y
_atom_site_fract_z
Si Si1 0.813790 0.153321 0.605423
Si Si2 0.469603 0.405538 0.400394
Si Si3 0.461917 0.210399 0.014159
Si Si4 0.080943 0.634840 0.746494
Si Si5 0.835935 0.827641 0.463131
Si Si6 0.882552 0.341244 0.753855
Si Si7 0.730403 0.818992 0.776723
Si Si8 0.361998 0.273097 0.596994
O O1 0.616074 0.361635 0.627894
O O2 0.987041 0.213382 0.557028
O O3 0.692728 0.017592 0.719295
O O4 0.000000 0.000000 0.500000
O O5 0.769124 0.293886 0.290739
O O6 0.338562 0.295302 0.441458
O O7 0.371802 0.397137 0.511852
O O8 0.040170 0.214295 0.279948
O O9 0.168122 0.374683 0.112591
O O10 0.654009 0.297016 0.888461
O O11 0.500000 0.000000 0.000000
O O12 0.281792 0.418690 0.663818
O O13 0.373612 0.928201 0.484811
O O14 0.020651 0.751729 0.336722
O O15 0.519367 0.841332 0.917035
O O16 0.125911 0.224002 0.702604
O O17 0.804844 0.595550 0.749722
#
# Coordination Sequence:
#
# PCOD9088060 Si02
#       8
#     2   2   2   2   2   2   2   2
#     4  12  22  36  56  81 119 157 190 228 288 350
#     4  11  21  34  54  86 119 149 184 231 288 342
#     4  10  21  34  62  87 114 147 194 241 282 330
#     4   9  20  36  56  85 116 144 194 229 286 331
#     4  11  23  35  58  88 119 148 189 241 287 340
#     4  10  19  37  58  90 114 145 196 241 284 328
#     4   9  21  36  58  84 113 153 190 237 278 334
#     4  10  20  34  58  86 118 150 183 241 286 337
#
# _framework density 18.399729000000001
#
# number of rings (size 3 to 8) (size 9 to 14) (size 15 to 20)
#    0.750    1.000    0.000    7.125    3.500    0.000 
#    0.000    0.000    0.000    3.750    3.250    0.000 
#    0.000    0.000    0.000    0.000    0.000    0.000 
#
# Total GULP energy -89132.183579 kJ/mol
# GULP energy per Si atom -5570.761474 kJ/mol
# Density = 1.835785 g / cm^3
# Si number density = 18.399729 Si / 1000 Ang^3
#
#
#
# Elastic Constant Matrix: (Units=GPa)
#
#
# Indices 1 2 3 4 5 6 
#
# 1 80.1067 25.3317 31.1642 -0.7754 -9.8376 4.5324
# 2 25.3317 79.5167 29.7054 -3.9634 6.0203 -10.6565
# 3 31.1642 29.7054 110.8439 -8.6132 -20.9863 -3.8344
# 4 -0.7754 -3.9634 -8.6132 24.1741 9.6303 6.9727
# 5 -9.8376 6.0203 -20.9863 9.6303 26.8743 -1.2375
# 6 4.5324 -10.6565 -3.8344 6.9727 -1.2375 29.3519
#
#
#
# Elastic Compliance Matrix: (Units=1/GPa)
#
#
# Indices 1 2 3 4 5 6 
#
# 1 0.015978 -0.005342 -0.002251 -0.002431 0.005981 -0.003871
# 2 -0.005342 0.017810 -0.004846 0.003819 -0.010855 0.005293
# 3 -0.002251 -0.004846 0.012949 -0.000777 0.010695 0.000915
# 4 -0.002431 0.003819 -0.000777 0.053997 -0.022260 -0.012105
# 5 0.005981 -0.010855 0.010695 -0.022260 0.058356 0.004281
# 6 -0.003871 0.005293 0.000915 -0.012105 0.004281 0.039764
#
#
# Mechanical properties :
#
#
# Convention : Reuss Voigt Hill
#
# Bulk Modulus (GPa) = 45.74847 49.20776 47.47811
# Shear Modulus (GPa) = 21.64308 28.36446 25.00377
#
# Velocity S-wave (km/s) = 3.43340 3.93054 3.69035
# Velocity P-wave (km/s) = 6.37458 6.88482 6.63461
#
# Compressibility (1/GPa) = 0.02185865
#
# Stress axis : x y z
#
# Youngs Moduli (GPa) = 62.58438 56.14913 77.22315
#
# Poissons Ratio (x) = 0.29995 0.17385
# Poissons Ratio (y) = 0.33433 0.37424
# Poissons Ratio (z) = 0.14089 0.27211
#
# Static dielectric constant tensor:
#      x y z
#    x 1.669320 0.036400 -0.030160 
#    y 0.036400 1.675140 -0.020290 
#    z -0.030160 -0.020290 1.670120 
# 
# From -- ./inp_files/609562.got.cif
#   From: 2010.05.17/outbox.cif.g08.bks.cpg/sg2_305_cif.got.tgz:609562.got - 2010.06.03 11:33:40.
