data_PCOD9088459
_publ_section_title
;
Structure prediction by ZEFSAII (Michael W. Deem and Ramdas Pophale) SiO2 
 PCOD9088459
Probable space group: P -1
;
_chemical_formula_sum "Si O2"
_cell_formula_units_Z 16
_cell_length_a 15.476634
_cell_length_b 17.002376
_cell_length_c 5.001956
_cell_angle_alpha 76.055258
_cell_angle_beta 82.683393
_cell_angle_gamma 136.580998
_cell_volume 782.614552
_symmetry_space_group_name_H-M "P -1"
_symmetry_group_IT_number 2
_symmetry_cell_setting 'triclinic'
loop_
_space_group_symop_operation_xyz
x,y,z
-x,-y,-z
loop_
_atom_site_type_symbol
_atom_site_label
_atom_site_fract_x
_atom_site_fract_y
_atom_site_fract_z
Si Si1 0.786938 0.621616 0.711223
Si Si2 0.669408 0.123195 0.837361
Si Si3 0.058938 0.904052 0.503238
Si Si4 0.839087 0.405976 0.706985
Si Si5 0.339127 0.395295 0.712039
Si Si6 0.134602 0.473951 0.892182
Si Si7 0.174908 0.831001 0.776289
Si Si8 0.874902 0.892970 0.933201
O O1 0.718749 0.577151 0.484354
O O2 0.798306 0.548459 0.938603
O O3 0.948777 0.770978 0.480390
O O4 0.696530 0.611429 0.960066
O O5 0.733894 0.256341 0.799312
O O6 0.731451 0.142390 0.511804
O O7 0.738603 0.111728 0.031693
O O8 0.500000 0.000000 0.000000
O O9 0.136249 0.894960 0.662040
O O10 0.949928 0.884820 0.709207
O O11 0.161528 0.044533 0.213143
O O12 0.844527 0.434896 0.990918
O O13 0.000000 0.500000 0.500000
O O14 0.807252 0.457018 0.475100
O O15 0.500000 0.500000 0.500000
O O16 0.255173 0.252042 0.784147
O O17 0.973145 0.326551 0.028533
O O18 0.000000 0.000000 0.000000
#
# Coordination Sequence:
#
# PCOD9088459 Si02
#       8
#     2   2   2   2   2   2   2   2
#     4  10  21  38  59  89 120 151 197 248 294 339
#     4  12  26  42  61  87 127 163 197 242 307 367
#     4   9  21  35  62  92 116 152 201 253 292 343
#     4  12  21  39  64  91 115 152 202 243 296 352
#     4  11  22  38  59  85 122 163 193 233 297 358
#     4  11  21  37  66  94 115 147 206 260 291 341
#     4  11  22  40  64  91 119 158 203 250 301 354
#     4  10  19  37  61  88 119 152 199 246 291 343
#
# _framework density 20.444292999999998
#
# number of rings (size 3 to 8) (size 9 to 14) (size 15 to 20)
#    0.000    1.250    3.750    2.625    1.750    2.000 
#    0.000    3.750    0.000    0.000    0.000    0.000 
#    0.000    0.000    0.000    0.000    0.000    0.000 
#
# Total GULP energy -89283.997731 kJ/mol
# GULP energy per Si atom -5580.249858 kJ/mol
# Density = 2.039776 g / cm^3
# Si number density = 20.444293 Si / 1000 Ang^3
#
#
#
# Elastic Constant Matrix: (Units=GPa)
#
#
# Indices 1 2 3 4 5 6 
#
# 1 60.3507 17.0235 25.4644 -27.0641 27.6892 6.7754
# 2 17.0235 73.4265 26.2331 -17.8404 4.0739 11.3375
# 3 25.4644 26.2331 77.6908 -7.5829 16.7121 10.0194
# 4 -27.0641 -17.8404 -7.5829 42.6873 -3.0930 -2.8017
# 5 27.6892 4.0739 16.7121 -3.0930 38.8841 2.1916
# 6 6.7754 11.3375 10.0194 -2.8017 2.1916 26.5626
#
#
#
# Elastic Compliance Matrix: (Units=1/GPa)
#
#
# Indices 1 2 3 4 5 6 
#
# 1 0.040942 -0.000029 -0.005322 0.022942 -0.024816 -0.003956
# 2 -0.000029 0.017615 -0.004904 0.006215 0.001064 -0.005094
# 3 -0.005322 -0.004904 0.017049 -0.002817 -0.003078 -0.003023
# 4 0.022942 0.006215 -0.002817 0.039010 -0.012546 -0.002293
# 5 -0.024816 0.001064 -0.003078 -0.012546 0.043483 0.002126
# 6 -0.003956 -0.005094 -0.003023 -0.002293 0.002126 0.041553
#
#
# Mechanical properties :
#
#
# Convention : Reuss Voigt Hill
#
# Bulk Modulus (GPa) = 18.14988 38.76779 28.45883
# Shear Modulus (GPa) = 20.96204 31.14326 26.05265
#
# Velocity S-wave (km/s) = 3.20554 3.90721 3.57364
# Velocity P-wave (km/s) = 4.75370 6.27367 5.56581
#
# Compressibility (1/GPa) = 0.05509677
#
# Stress axis : x y z
#
# Youngs Moduli (GPa) = 24.42486 56.76853 58.65533
#
# Poissons Ratio (x) = 0.00163 0.31216
# Poissons Ratio (y) = 0.00070 0.28764
# Poissons Ratio (z) = 0.12999 0.27839
#
# Static dielectric constant tensor:
#      x y z
#    x 1.803420 -0.100250 0.031330 
#    y -0.100250 1.751390 0.015650 
#    z 0.031330 0.015650 1.779220 
# 
# From -- ./inp_files/83774.got.cif
#   From: 2010.05.17/outbox.cif.g08.bks.cpg/sg2_42_cif.got.tgz:83774.got - 2010.06.03 11:33:40.
