data_PCOD9088074
_publ_section_title
;
Structure prediction by ZEFSAII (Michael W. Deem and Ramdas Pophale) SiO2 
 PCOD9088074
Probable space group: P -1
;
_chemical_formula_sum "Si O2"
_cell_formula_units_Z 16
_cell_length_a 21.986382
_cell_length_b 5.486497
_cell_length_c 17.099090
_cell_angle_alpha 78.488583
_cell_angle_beta 160.063591
_cell_angle_gamma 110.035007
_cell_volume 610.528599
_symmetry_space_group_name_H-M "P -1"
_symmetry_group_IT_number 2
_symmetry_cell_setting 'triclinic'
loop_
_space_group_symop_operation_xyz
x,y,z
-x,-y,-z
loop_
_atom_site_type_symbol
_atom_site_label
_atom_site_fract_x
_atom_site_fract_y
_atom_site_fract_z
Si Si1 0.334294 0.655434 0.912142
Si Si2 0.039502 0.022249 0.906121
Si Si3 0.607109 0.458870 0.712210
Si Si4 0.075746 0.676467 0.459803
Si Si5 0.046447 0.856558 0.754581
Si Si6 0.668191 0.087592 0.629725
Si Si7 0.549021 0.814165 0.882061
Si Si8 0.662752 0.513710 0.495728
O O1 0.255857 0.718680 0.732432
O O2 0.132330 0.488493 0.731578
O O3 0.421982 0.433869 0.023493
O O4 0.465980 0.949348 0.097957
O O5 0.086008 0.891960 0.892824
O O6 0.155690 0.359398 0.020877
O O7 0.803140 0.844766 0.639492
O O8 0.154377 0.965964 0.120257
O O9 0.500000 0.500000 0.500000
O O10 0.548327 0.571300 0.711430
O O11 0.486209 0.132382 0.604043
O O12 0.078947 0.967779 0.421216
O O13 0.059174 0.460624 0.385213
O O14 0.248102 0.013415 0.935801
O O15 0.758963 0.390863 0.683163
O O16 0.500000 0.000000 0.500000
O O17 0.372702 0.639784 0.618978
#
# Coordination Sequence:
#
# PCOD9088074 Si02
#       8
#     2   2   2   2   2   2   2   2
#     4   9  18  34  59  95 120 167 212 267 319 391
#     4  11  24  42  63  95 127 169 220 264 325 386
#     4  10  22  43  63  88 123 167 212 270 320 382
#     4   9  18  33  62  90 126 161 218 261 324 388
#     4  10  19  37  58  92 126 170 207 270 321 384
#     4  11  22  43  66  89 128 169 214 270 327 383
#     4  10  20  35  61  88 131 164 213 265 325 381
#     4  12  24  42  63  93 128 170 218 267 321 390
#
# _framework density 26.206797000000002
#
# number of rings (size 3 to 8) (size 9 to 14) (size 15 to 20)
#    0.000    1.750    3.750    1.125    1.750    7.000 
#    4.500    0.000    0.000    4.500    0.000    0.000 
#    0.000    0.000    0.000    0.000    0.000    0.000 
#
# Total GULP energy -89406.287807 kJ/mol
# GULP energy per Si atom -5587.892988 kJ/mol
# Density = 2.614715 g / cm^3
# Si number density = 26.206797 Si / 1000 Ang^3
#
#
#
# Elastic Constant Matrix: (Units=GPa)
#
#
# Indices 1 2 3 4 5 6 
#
# 1 65.8190 19.4219 26.1732 8.2570 4.8274 -2.6574
# 2 19.4219 95.7800 33.0901 4.6862 -2.1538 -5.5972
# 3 26.1732 33.0901 93.9387 24.9402 -6.4245 11.4261
# 4 8.2570 4.6862 24.9402 43.9733 2.2013 -5.6919
# 5 4.8274 -2.1538 -6.4245 2.2013 32.1265 7.1278
# 6 -2.6574 -5.5972 11.4261 -5.6919 7.1278 28.3092
#
#
#
# Elastic Compliance Matrix: (Units=1/GPa)
#
#
# Indices 1 2 3 4 5 6 
#
# 1 0.018469 -0.001577 -0.005859 0.000976 -0.005299 0.005317
# 2 -0.001577 0.012870 -0.005664 0.002943 -0.001488 0.005649
# 3 -0.005859 -0.005664 0.019654 -0.011681 0.008349 -0.014053
# 4 0.000976 0.002943 -0.011681 0.030984 -0.007399 0.013481
# 5 -0.005299 -0.001488 0.008349 -0.007399 0.037339 -0.015051
# 6 0.005317 0.005649 -0.014053 0.013481 -0.015051 0.049112
#
#
# Mechanical properties :
#
#
# Convention : Reuss Voigt Hill
#
# Bulk Modulus (GPa) = 40.33369 45.87870 43.10619
# Shear Modulus (GPa) = 24.64337 32.67195 28.65766
#
# Velocity S-wave (km/s) = 3.06983 3.53469 3.31043
# Velocity P-wave (km/s) = 5.29047 5.84834 5.57639
#
# Compressibility (1/GPa) = 0.02479317
#
# Stress axis : x y z
#
# Youngs Moduli (GPa) = 54.14430 77.70019 50.87946
#
# Poissons Ratio (x) = 0.12255 0.29809
# Poissons Ratio (y) = 0.08540 0.28819
# Poissons Ratio (z) = 0.31721 0.44011
#
# Static dielectric constant tensor:
#      x y z
#    x 2.260440 -0.210970 -0.189100 
#    y -0.210970 2.264040 0.134980 
#    z -0.189100 0.134980 2.235990 
# 
# From -- ./inp_files/578711.got.cif
#   From: 2010.05.17/outbox.cif.g08.bks.cpg/sg2_290_cif.got.tgz:578711.got - 2010.06.03 11:33:40.
