data_PCOD9088772
_publ_section_title
;
Structure prediction by ZEFSAII (Michael W. Deem and Ramdas Pophale) SiO2 
 PCOD9088772
Probable space group: P -1
;
_chemical_formula_sum "Si O2"
_cell_formula_units_Z 14
_cell_length_a 7.631393
_cell_length_b 11.439608
_cell_length_c 8.481344
_cell_angle_alpha 87.556738
_cell_angle_beta 123.890834
_cell_angle_gamma 71.661048
_cell_volume 560.620498
_symmetry_space_group_name_H-M "P -1"
_symmetry_group_IT_number 2
_symmetry_cell_setting 'triclinic'
loop_
_space_group_symop_operation_xyz
x,y,z
-x,-y,-z
loop_
_atom_site_type_symbol
_atom_site_label
_atom_site_fract_x
_atom_site_fract_y
_atom_site_fract_z
Si Si1 0.579313 0.817221 0.912032
Si Si2 0.801392 0.116996 0.699471
Si Si3 0.063125 0.675836 0.660767
Si Si4 0.922811 0.561580 0.130117
Si Si5 0.955353 0.846118 0.877254
Si Si6 0.238554 0.089275 0.707579
Si Si7 0.312800 0.627584 0.468972
O O1 0.778345 0.808062 0.888334
O O2 0.357185 0.938743 0.728372
O O3 0.606563 0.871895 0.094161
O O4 0.656365 0.665798 0.987141
O O5 0.618235 0.254320 0.544008
O O6 0.016318 0.099327 0.695122
O O7 0.792199 0.980839 0.707378
O O8 0.871629 0.134666 0.912191
O O9 0.254222 0.631554 0.622857
O O10 0.030306 0.552651 0.715321
O O11 0.107500 0.743349 0.833436
O O12 0.847190 0.796348 0.469142
O O13 0.079203 0.635286 0.263932
O O14 0.000000 0.500000 0.000000
O O15 0.500000 0.500000 0.500000
#
# Coordination Sequence:
#
# PCOD9088772 Si02
#       7
#     2   2   2   2   2   2   2
#     4  10  19  39  59  88 122 158 208 247 307 366
#     4   9  19  41  59  81 129 161 200 256 315 363
#     4  11  22  40  65  90 124 164 210 260 312 364
#     4  12  22  44  65  89 130 169 202 257 316 376
#     4  10  19  37  63  86 118 166 202 251 314 363
#     4   9  20  36  61  86 117 159 207 256 298 365
#     4  11  24  43  62  93 126 163 209 262 312 369
#
# _framework density 24.972329999999999
#
# number of rings (size 3 to 8) (size 9 to 14) (size 15 to 20)
#    0.000    1.714    5.714    0.429    0.000    4.000 
#   12.857    1.429    0.000    0.000    0.000    0.000 
#    0.000    0.000    0.000    0.000    0.000    0.000 
#
# Total GULP energy -78193.857154 kJ/mol
# GULP energy per Si atom -5585.275511 kJ/mol
# Density = 2.491549 g / cm^3
# Si number density = 24.972330 Si / 1000 Ang^3
#
#
#
# Elastic Constant Matrix: (Units=GPa)
#
#
# Indices 1 2 3 4 5 6 
#
# 1 36.4722 40.0502 47.1020 -3.9343 -11.3752 -13.0730
# 2 40.0502 174.9514 53.3917 -29.3836 -12.9832 -31.5967
# 3 47.1020 53.3917 102.1319 -28.6075 -25.3424 1.8412
# 4 -3.9343 -29.3836 -28.6075 63.3075 3.9769 -4.7758
# 5 -11.3752 -12.9832 -25.3424 3.9769 33.9345 -5.0167
# 6 -13.0730 -31.5967 1.8412 -4.7758 -5.0167 46.8887
#
#
#
# Elastic Compliance Matrix: (Units=1/GPa)
#
#
# Indices 1 2 3 4 5 6 
#
# 1 0.112743 -0.007819 -0.053400 -0.018823 0.001039 0.026456
# 2 -0.007819 0.008995 0.000257 0.004063 0.001189 0.004412
# 3 -0.053400 0.000257 0.040497 0.013493 0.008792 -0.013990
# 4 -0.018823 0.004063 0.013493 0.022409 0.002625 -0.000476
# 5 0.001039 0.001189 0.008792 0.002625 0.037269 0.005000
# 6 0.026456 0.004412 -0.013990 -0.000476 0.005000 0.032712
#
#
# Mechanical properties :
#
#
# Convention : Reuss Voigt Hill
#
# Bulk Modulus (GPa) = 24.80591 66.07148 45.43869
# Shear Modulus (GPa) = 12.82097 40.36025 26.59061
#
# Velocity S-wave (km/s) = 2.26831 4.02456 3.26667
# Velocity P-wave (km/s) = 4.10064 6.93624 5.69766
#
# Compressibility (1/GPa) = 0.04031298
#
# Stress axis : x y z
#
# Youngs Moduli (GPa) = 8.86969 111.17510 24.69302
#
# Poissons Ratio (x) = 0.86930 1.31860
# Poissons Ratio (y) = 0.06935 -0.00636
# Poissons Ratio (z) = 0.47364 -0.02863
#
# Static dielectric constant tensor:
#      x y z
#    x 2.011250 0.068880 0.096450 
#    y 0.068880 2.074870 -0.023400 
#    z 0.096450 -0.023400 2.118020 
# 
# From -- ./inp_files/178030.got.cif
#   From: 2010.05.17/outbox.cif.g08.bks.cpg/sg2_90_cif.got.tgz:178030.got - 2010.06.03 11:33:40.
