data_PCOD9088492
_publ_section_title
;
Structure prediction by ZEFSAII (Michael W. Deem and Ramdas Pophale) SiO2 
 PCOD9088492
Probable space group: P -1
;
_chemical_formula_sum "Si O2"
_cell_formula_units_Z 14
_cell_length_a 8.572854
_cell_length_b 18.394125
_cell_length_c 10.541621
_cell_angle_alpha 149.311122
_cell_angle_beta 62.293230
_cell_angle_gamma 134.379739
_cell_volume 562.307689
_symmetry_space_group_name_H-M "P -1"
_symmetry_group_IT_number 2
_symmetry_cell_setting 'triclinic'
loop_
_space_group_symop_operation_xyz
x,y,z
-x,-y,-z
loop_
_atom_site_type_symbol
_atom_site_label
_atom_site_fract_x
_atom_site_fract_y
_atom_site_fract_z
Si Si1 0.791542 0.274193 0.264960
Si Si2 0.434515 0.255230 0.236576
Si Si3 0.287538 0.068912 0.629819
Si Si4 0.257534 0.586200 0.022612
Si Si5 0.167487 0.236795 0.511910
Si Si6 0.495548 0.231516 0.549085
Si Si7 0.215876 0.297451 0.147472
O O1 0.590784 0.197943 0.118599
O O2 0.648039 0.230573 0.384274
O O3 0.000000 0.500000 0.500000
O O4 0.947385 0.213800 0.125433
O O5 0.208083 0.145804 0.249370
O O6 0.321658 0.242342 0.127788
O O7 0.618050 0.476055 0.548836
O O8 0.553935 0.199949 0.778666
O O9 0.318571 0.053561 0.445797
O O10 0.241206 0.215853 0.887651
O O11 0.084855 0.887742 0.514140
O O12 0.333213 0.605289 0.168288
O O13 0.243408 0.430626 0.721989
O O14 0.000000 0.500000 0.000000
O O15 0.346502 0.273520 0.602536
#
# Coordination Sequence:
#
# PCOD9088492 Si02
#       7
#     2   2   2   2   2   2   2
#     4   9  19  34  61  91 119 161 209 250 306 371
#     4   9  19  34  61  86 124 164 208 249 316 361
#     4  10  23  38  64  93 122 163 208 248 318 365
#     4  10  23  37  62  89 123 158 203 250 311 363
#     4  11  20  40  64  89 124 163 205 259 303 376
#     4   9  21  40  60  92 124 157 208 258 306 365
#     4  10  19  37  61  89 125 162 206 261 300 372
#
# _framework density 24.897400000000001
#
# number of rings (size 3 to 8) (size 9 to 14) (size 15 to 20)
#    0.857    1.429    1.429    0.857    2.000    2.286 
#    0.000    2.857    3.143    1.714    0.000    0.000 
#    0.000    0.000    0.000    0.000    0.000    0.000 
#
# Total GULP energy -77974.716274 kJ/mol
# GULP energy per Si atom -5569.622591 kJ/mol
# Density = 2.484073 g / cm^3
# Si number density = 24.897400 Si / 1000 Ang^3
#
#
#
# Elastic Constant Matrix: (Units=GPa)
#
#
# Indices 1 2 3 4 5 6 
#
# 1 132.9462 76.6255 33.2411 -17.9468 -0.3154 32.7602
# 2 76.6255 155.8196 24.7553 -17.3871 -1.3344 21.4424
# 3 33.2411 24.7553 60.4584 -1.2798 -12.6829 3.5295
# 4 -17.9468 -17.3871 -1.2798 40.1456 5.9279 -4.2619
# 5 -0.3154 -1.3344 -12.6829 5.9279 17.4308 -3.8591
# 6 32.7602 21.4424 3.5295 -4.2619 -3.8591 45.7688
#
#
#
# Elastic Compliance Matrix: (Units=1/GPa)
#
#
# Indices 1 2 3 4 5 6 
#
# 1 0.014554 -0.004388 -0.007513 0.004833 -0.008974 -0.008089
# 2 -0.004388 0.009171 -0.001539 0.002068 -0.001414 -0.000964
# 3 -0.007513 -0.001539 0.025343 -0.005797 0.021354 0.005405
# 4 0.004833 0.002068 -0.005797 0.029677 -0.014607 -0.002449
# 5 -0.008974 -0.001414 0.021354 -0.014607 0.080001 0.010824
# 6 -0.008089 -0.000964 0.005405 -0.002449 0.010824 0.028358
#
#
# Mechanical properties :
#
#
# Convention : Reuss Voigt Hill
#
# Bulk Modulus (GPa) = 45.07118 68.71867 56.89493
# Shear Modulus (GPa) = 22.58554 34.97586 28.78070
#
# Velocity S-wave (km/s) = 3.01515 3.75213 3.40365
# Velocity P-wave (km/s) = 5.50123 6.81410 6.19256
#
# Compressibility (1/GPa) = 0.02218713
#
# Stress axis : x y z
#
# Youngs Moduli (GPa) = 68.71148 109.03641 39.45874
#
# Poissons Ratio (x) = 0.47842 0.29646
# Poissons Ratio (y) = 0.30149 0.06074
# Poissons Ratio (z) = 0.51624 0.16785
#
# Static dielectric constant tensor:
#      x y z
#    x 1.993260 0.002570 -0.003680 
#    y 0.002570 2.042680 0.020010 
#    z -0.003680 0.020010 1.986830 
# 
# From -- ./inp_files/405044.got.cif
#   From: 2010.05.17/outbox.cif.g08.bks.cpg/sg2_203_cif.got.tgz:405044.got - 2010.06.03 11:33:40.
