data_PCOD9088302
_publ_section_title
;
Structure prediction by ZEFSAII (Michael W. Deem and Ramdas Pophale) SiO2 
 PCOD9088302
Probable space group: P -1
;
_chemical_formula_sum "Si O2"
_cell_formula_units_Z 16
_cell_length_a 23.500817
_cell_length_b 19.914631
_cell_length_c 5.389290
_cell_angle_alpha 82.223465
_cell_angle_beta 83.415878
_cell_angle_gamma 19.842721
_cell_volume 847.677691
_symmetry_space_group_name_H-M "P -1"
_symmetry_group_IT_number 2
_symmetry_cell_setting 'triclinic'
loop_
_space_group_symop_operation_xyz
x,y,z
-x,-y,-z
loop_
_atom_site_type_symbol
_atom_site_label
_atom_site_fract_x
_atom_site_fract_y
_atom_site_fract_z
Si Si1 0.442257 0.027837 0.264953
Si Si2 0.949661 0.519143 0.765598
Si Si3 0.212436 0.624908 0.581328
Si Si4 0.995874 0.842116 0.081005
Si Si5 0.706083 0.263929 0.014994
Si Si6 0.900131 0.425315 0.837277
Si Si7 0.311349 0.362543 0.663054
Si Si8 0.666501 0.364395 0.484552
O O1 0.247610 0.254684 0.248853
O O2 0.500000 0.000000 0.500000
O O3 0.514552 0.871327 0.307060
O O4 0.500000 0.000000 0.000000
O O5 0.000965 0.383241 0.807897
O O6 0.000000 0.500000 0.500000
O O7 0.000000 0.500000 0.000000
O O8 0.096745 0.752813 0.825202
O O9 0.313250 0.441861 0.622445
O O10 0.339428 0.547677 0.556448
O O11 0.096745 0.752813 0.325240
O O12 0.997326 0.758765 0.121955
O O13 0.806033 0.082186 0.055891
O O14 0.760514 0.240101 0.249713
O O15 0.500000 0.500000 0.000000
O O16 0.760514 0.240101 0.749673
O O17 0.788349 0.548096 0.581189
O O18 0.788349 0.548096 0.082365
O O19 0.500000 0.500000 0.500000
#
# Coordination Sequence:
#
# PCOD9088302 Si02
#       8
#     2   2   2   2   2   2   2   2
#     4  12  21  38  65  89 115 164 209 243 300 362
#     4  12  24  38  57  91 127 156 199 251 303 359
#     4  10  21  35  58  88 117 144 199 250 285 344
#     4  10  21  36  59  86 111 151 199 243 293 342
#     4  10  21  37  55  80 111 151 195 229 294 356
#     4  10  20  38  59  82 118 155 192 243 303 352
#     4  10  19  37  60  88 111 153 203 246 289 347
#     4  10  21  37  55  80 114 154 184 231 301 350
#
# _framework density 18.875098000000001
#
# number of rings (size 3 to 8) (size 9 to 14) (size 15 to 20)
#    0.000    1.500    2.500    3.000    0.000    3.000 
#    0.000    5.000    0.000    0.000    0.000    0.000 
#    0.000    0.000    0.000    0.000    0.000    0.000 
#
# Total GULP energy -89116.335907 kJ/mol
# GULP energy per Si atom -5569.770994 kJ/mol
# Density = 1.883214 g / cm^3
# Si number density = 18.875098 Si / 1000 Ang^3
#
#
#
# Elastic Constant Matrix: (Units=GPa)
#
#
# Indices 1 2 3 4 5 6 
#
# 1 145.4455 36.0786 50.4770 -1.1813 -9.5554 19.0243
# 2 36.0786 90.4375 21.2655 -5.4235 -3.2279 18.3359
# 3 50.4770 21.2655 179.1688 6.5085 13.5339 1.5073
# 4 -1.1813 -5.4235 6.5085 16.0578 5.0359 -3.5185
# 5 -9.5554 -3.2279 13.5339 5.0359 26.4847 -2.9159
# 6 19.0243 18.3359 1.5073 -3.5185 -2.9159 31.1988
#
#
#
# Elastic Compliance Matrix: (Units=1/GPa)
#
#
# Indices 1 2 3 4 5 6 
#
# 1 0.009055 -0.002155 -0.002529 -0.001170 0.004092 -0.003883
# 2 -0.002155 0.013656 -0.001095 0.003498 0.000093 -0.006256
# 3 -0.002529 -0.001095 0.006782 -0.001758 -0.004036 0.001283
# 4 -0.001170 0.003498 -0.001758 0.068911 -0.011603 0.005430
# 5 0.004092 0.000093 -0.004036 -0.011603 0.043559 0.000408
# 6 -0.003883 -0.006256 0.001283 0.005430 0.000408 0.038685
#
#
# Mechanical properties :
#
#
# Convention : Reuss Voigt Hill
#
# Bulk Modulus (GPa) = 55.75845 70.07712 62.91778
# Shear Modulus (GPa) = 25.22910 35.23031 30.22971
#
# Velocity S-wave (km/s) = 3.65997 4.32498 4.00630
# Velocity P-wave (km/s) = 6.88951 7.88340 7.40315
#
# Compressibility (1/GPa) = 0.01793450
#
# Stress axis : x y z
#
# Youngs Moduli (GPa) = 110.43902 73.22874 147.45333
#
# Poissons Ratio (x) = 0.15777 0.37294
# Poissons Ratio (y) = 0.23794 0.16150
# Poissons Ratio (z) = 0.27932 0.08020
#
# Static dielectric constant tensor:
#      x y z
#    x 1.654150 0.029150 -0.002680 
#    y 0.029150 1.614280 -0.002680 
#    z -0.002680 -0.002680 1.649100 
# 
# From -- ./inp_files/120042.got.cif
#   From: 2010.05.17/outbox.cif.g08.bks.cpg/sg2_61_cif.got.tgz:120042.got - 2010.06.03 11:33:40.
