data_PCOD9088915
_publ_section_title
;
Structure prediction by ZEFSAII (Michael W. Deem and Ramdas Pophale) SiO2 
 PCOD9088915
Probable space group: P -1
;
_chemical_formula_sum "Si O2"
_cell_formula_units_Z 16
_cell_length_a 9.050067
_cell_length_b 17.106900
_cell_length_c 14.846494
_cell_angle_alpha 27.816686
_cell_angle_beta 139.072204
_cell_angle_gamma 138.994436
_cell_volume 674.001762
_symmetry_space_group_name_H-M "P -1"
_symmetry_group_IT_number 2
_symmetry_cell_setting 'triclinic'
loop_
_space_group_symop_operation_xyz
x,y,z
-x,-y,-z
loop_
_atom_site_type_symbol
_atom_site_label
_atom_site_fract_x
_atom_site_fract_y
_atom_site_fract_z
Si Si1 0.929840 0.910582 0.838599
Si Si2 0.730142 0.545873 0.347211
Si Si3 0.439226 0.645389 0.712962
Si Si4 0.523507 0.984452 0.698485
Si Si5 0.845344 0.546533 0.077722
Si Si6 0.187246 0.802431 0.225367
Si Si7 0.793688 0.504161 0.830123
Si Si8 0.023943 0.889789 0.534207
O O1 0.723559 0.951327 0.760842
O O2 0.985955 0.023007 0.657509
O O3 0.844123 0.710371 0.971594
O O4 0.132753 0.905476 0.008745
O O5 0.718643 0.448568 0.345223
O O6 0.748381 0.379306 0.586027
O O7 0.483107 0.589937 0.196665
O O8 0.947507 0.719532 0.259357
O O9 0.546006 0.847708 0.542547
O O10 0.274028 0.621472 0.747663
O O11 0.649304 0.557023 0.904426
O O12 0.628753 0.058345 0.768717
O O13 0.272096 0.843804 0.713911
O O14 0.097538 0.556795 0.146838
O O15 0.817413 0.710063 0.624426
O O16 0.000000 0.500000 0.000000
O O17 0.000000 0.000000 0.500000
#
# Coordination Sequence:
#
# PCOD9088915 Si02
#       8
#     2   2   2   2   2   2   2   2
#     4  12  24  44  68 104 134 184 235 285 342 402
#     4  10  21  44  71  96 137 178 236 280 339 405
#     4  10  19  37  63  97 133 174 221 287 327 404
#     4  11  24  42  70 102 138 181 228 287 347 405
#     4  11  22  35  64 101 134 170 230 280 341 397
#     4  10  23  44  73 101 136 186 234 282 334 416
#     4  12  25  42  69 103 134 181 225 288 350 408
#     4  12  26  45  69 105 144 176 224 296 355 407
#
# _framework density 23.738809
#
# number of rings (size 3 to 8) (size 9 to 14) (size 15 to 20)
#    0.000    1.000    3.750    3.750    5.250    0.000 
#    0.000    3.125    2.750    0.000    0.000    0.000 
#    0.000    0.000    0.000    0.000    0.000    0.000 
#
# Total GULP energy -89301.740303 kJ/mol
# GULP energy per Si atom -5581.358769 kJ/mol
# Density = 2.368478 g / cm^3
# Si number density = 23.738809 Si / 1000 Ang^3
#
#
#
# Elastic Constant Matrix: (Units=GPa)
#
#
# Indices 1 2 3 4 5 6 
#
# 1 85.2097 4.5466 44.0204 18.5952 16.7587 3.7844
# 2 4.5466 68.0969 14.3307 7.9848 -12.7004 10.8184
# 3 44.0204 14.3307 92.5414 21.2951 -14.0600 3.3865
# 4 18.5952 7.9848 21.2951 32.3797 -0.8219 6.8620
# 5 16.7587 -12.7004 -14.0600 -0.8219 30.4670 2.6840
# 6 3.7844 10.8184 3.3865 6.8620 2.6840 36.2188
#
#
#
# Elastic Compliance Matrix: (Units=1/GPa)
#
#
# Indices 1 2 3 4 5 6 
#
# 1 0.023432 -0.002299 -0.012634 -0.005500 -0.019998 0.001944
# 2 -0.002299 0.017540 0.000407 -0.001904 0.009185 -0.005357
# 3 -0.012634 0.000407 0.020639 -0.005816 0.016562 -0.000857
# 4 -0.005500 -0.001904 -0.005816 0.039617 0.001136 -0.005903
# 5 -0.019998 0.009185 0.016562 0.001136 0.055903 -0.006561
# 6 0.001944 -0.005357 -0.000857 -0.005903 -0.006561 0.030692
#
#
# Mechanical properties :
#
#
# Convention : Reuss Voigt Hill
#
# Bulk Modulus (GPa) = 30.71316 41.29369 36.00343
# Shear Modulus (GPa) = 21.95599 32.00978 26.98288
#
# Velocity S-wave (km/s) = 3.04451 3.67606 3.37509
# Velocity P-wave (km/s) = 5.03237 5.95405 5.51251
#
# Compressibility (1/GPa) = 0.03255933
#
# Stress axis : x y z
#
# Youngs Moduli (GPa) = 42.67587 57.01204 48.45227
#
# Poissons Ratio (x) = 0.13109 0.61215
# Poissons Ratio (y) = 0.09812 -0.01973
# Poissons Ratio (z) = 0.53917 -0.02322
#
# Static dielectric constant tensor:
#      x y z
#    x 1.945420 0.021530 -0.048520 
#    y 0.021530 1.904460 0.041550 
#    z -0.048520 0.041550 2.026090 
# 
# From -- ./inp_files/274587.got.cif
#   From: 2010.05.17/outbox.cif.g08.bks.cpg/sg2_138_cif.got.tgz:274587.got - 2010.06.03 11:33:40.
