data_PCOD9088619
_publ_section_title
;
Structure prediction by ZEFSAII (Michael W. Deem and Ramdas Pophale) SiO2 
 PCOD9088619
Probable space group: P -1
;
_chemical_formula_sum "Si O2"
_cell_formula_units_Z 15
_cell_length_a 13.689673
_cell_length_b 9.136465
_cell_length_c 11.741469
_cell_angle_alpha 77.642559
_cell_angle_beta 148.851070
_cell_angle_gamma 85.943874
_cell_volume 641.561269
_symmetry_space_group_name_H-M "P -1"
_symmetry_group_IT_number 2
_symmetry_cell_setting 'triclinic'
loop_
_space_group_symop_operation_xyz
x,y,z
-x,-y,-z
loop_
_atom_site_type_symbol
_atom_site_label
_atom_site_fract_x
_atom_site_fract_y
_atom_site_fract_z
Si Si1 0.949253 0.229104 0.500009
Si Si2 0.103116 0.393578 0.809188
Si Si3 0.481514 0.734446 0.862226
Si Si4 0.327028 0.858629 0.029763
Si Si5 0.500000 0.000000 0.000000
Si Si6 0.239926 0.043229 0.130222
Si Si7 0.992593 0.262139 0.279832
Si Si8 0.202813 0.966302 0.353077
O O1 0.699115 0.277076 0.241187
O O2 0.059948 0.202730 0.489847
O O3 0.967774 0.357943 0.585135
O O4 0.100844 0.036165 0.736043
O O5 0.993750 0.565516 0.745594
O O6 0.279018 0.417267 0.904810
O O7 0.208301 0.223964 0.022027
O O8 0.366924 0.798289 0.615042
O O9 0.522730 0.881536 0.931548
O O10 0.491298 0.851895 0.100357
O O11 0.383093 0.895794 0.205078
O O12 0.248451 0.718192 0.975479
O O13 0.296448 0.999027 0.325685
O O14 0.004055 0.054784 0.880379
O O15 0.127643 0.123512 0.341115
#
# Coordination Sequence:
#
# PCOD9088619 Si02
#       8
#     2   2   2   2   1   2   2   2
#     4  11  20  41  60  83 125 161 200 242 298 365
#     4  11  24  38  58  91 128 156 193 251 312 356
#     4  12  22  37  65  91 117 160 200 250 298 360
#     4  10  19  37  62  88 115 156 200 255 281 353
#     4  12  20  34  62  94 116 148 206 244 292 352
#     4   9  19  41  62  86 116 159 209 249 289 354
#     4  11  21  36  61  90 122 161 196 247 309 354
#     4  10  21  38  69  85 109 167 213 243 292 351
#
# _framework density 23.380465999999998
#
# number of rings (size 3 to 8) (size 9 to 14) (size 15 to 20)
#    0.000    1.333    8.000    1.600    0.000    1.600 
#    0.000    0.000    0.000    7.200    0.000    0.000 
#    0.000    0.000    0.000    0.000    0.000    0.000 
#
# Total GULP energy -83593.611551 kJ/mol
# GULP energy per Si atom -5572.907437 kJ/mol
# Density = 2.332725 g / cm^3
# Si number density = 23.380466 Si / 1000 Ang^3
#
#
#
# Elastic Constant Matrix: (Units=GPa)
#
#
# Indices 1 2 3 4 5 6 
#
# 1 134.1209 7.3403 25.5740 14.7978 -22.5513 12.7323
# 2 7.3403 112.5051 7.0086 24.1823 -5.2382 1.4791
# 3 25.5740 7.0086 33.2376 13.3649 -8.1915 0.3477
# 4 14.7978 24.1823 13.3649 21.4398 3.9013 -2.8654
# 5 -22.5513 -5.2382 -8.1915 3.9013 55.3018 6.6915
# 6 12.7323 1.4791 0.3477 -2.8654 6.6915 25.4337
#
#
#
# Elastic Compliance Matrix: (Units=1/GPa)
#
#
# Indices 1 2 3 4 5 6 
#
# 1 0.010788 0.001971 -0.003292 -0.009745 0.005764 -0.008084
# 2 0.001971 0.013381 0.005711 -0.021700 0.005130 -0.005637
# 3 -0.003292 0.005711 0.048868 -0.037236 0.009805 -0.006127
# 4 -0.009745 -0.021700 -0.037236 0.108393 -0.022180 0.024697
# 5 0.005764 0.005130 0.009805 -0.022180 0.025450 -0.012512
# 6 -0.008084 -0.005637 -0.006127 0.024697 -0.012512 0.049851
#
#
# Mechanical properties :
#
#
# Convention : Reuss Voigt Hill
#
# Bulk Modulus (GPa) = 12.22243 39.96771 26.09507
# Shear Modulus (GPa) = 18.16695 36.43108 27.29902
#
# Velocity S-wave (km/s) = 2.79052 3.95167 3.42072
# Velocity P-wave (km/s) = 3.95242 6.16056 5.17562
#
# Compressibility (1/GPa) = 0.08181681
#
# Stress axis : x y z
#
# Youngs Moduli (GPa) = 92.69824 74.73012 20.46312
#
# Poissons Ratio (x) = -0.14727 0.06737
# Poissons Ratio (y) = -0.18267 -0.11687
# Poissons Ratio (z) = 0.30518 -0.42680
#
# Static dielectric constant tensor:
#      x y z
#    x 1.976510 -0.008760 0.201260 
#    y -0.008760 1.897620 -0.029580 
#    z 0.201260 -0.029580 2.512190 
# 
# From -- ./inp_files/334044.got.cif
#   From: 2010.05.17/outbox.cif.g08.bks.cpg/sg2_168_cif.got.tgz:334044.got - 2010.06.03 11:33:40.
