data_PCOD9088209
_publ_section_title
;
Structure prediction by ZEFSAII (Michael W. Deem and Ramdas Pophale) SiO2 
 PCOD9088209
Probable space group: P -1
;
_chemical_formula_sum "Si O2"
_cell_formula_units_Z 16
_cell_length_a 22.856456
_cell_length_b 16.703766
_cell_length_c 7.706439
_cell_angle_alpha 50.474790
_cell_angle_beta 46.334458
_cell_angle_gamma 16.377376
_cell_volume 595.216556
_symmetry_space_group_name_H-M "P -1"
_symmetry_group_IT_number 2
_symmetry_cell_setting 'triclinic'
loop_
_space_group_symop_operation_xyz
x,y,z
-x,-y,-z
loop_
_atom_site_type_symbol
_atom_site_label
_atom_site_fract_x
_atom_site_fract_y
_atom_site_fract_z
Si Si1 0.872564 0.490008 0.944628
Si Si2 0.785877 0.376901 0.392427
Si Si3 0.629957 0.434328 0.924279
Si Si4 0.813390 0.945370 0.545921
Si Si5 0.749152 0.799374 0.033555
Si Si6 0.361365 0.536637 0.777083
Si Si7 0.704659 0.618641 0.746534
Si Si8 0.324832 0.948143 0.682026
O O1 0.933008 0.299920 0.148133
O O2 0.732382 0.721305 0.050072
O O3 0.759895 0.614132 0.817118
O O4 0.108995 0.267155 0.743815
O O5 0.811922 0.272014 0.651230
O O6 0.737828 0.356404 0.359352
O O7 0.550066 0.718129 0.447885
O O8 0.432442 0.757077 0.884901
O O9 0.500000 0.500000 0.000000
O O10 0.715614 0.305205 0.117381
O O11 0.776937 0.000308 0.337941
O O12 0.077524 0.635124 0.471709
O O13 0.628276 0.235145 0.623123
O O14 0.736724 0.920220 0.782141
O O15 0.546680 0.046552 0.245346
O O16 0.000000 0.500000 0.000000
O O17 0.306089 0.488037 0.029511
#
# Coordination Sequence:
#
# PCOD9088209 Si02
#       8
#     2   2   2   2   2   2   2   2
#     4  10  19  37  60  80 118 164 201 237 289 353
#     4   8  19  37  58  84 114 158 193 233 305 344
#     4  10  21  38  62  91 117 147 196 247 302 366
#     4   9  19  39  57  79 119 164 195 236 293 342
#     4  11  24  32  53  92 124 152 206 253 279 339
#     4   9  18  37  61  83 118 154 195 243 294 353
#     4   9  20  37  59  81 114 163 206 235 287 354
#     4   8  19  36  59  83 112 155 200 236 293 354
#
# _framework density 26.880972
#
# number of rings (size 3 to 8) (size 9 to 14) (size 15 to 20)
#    0.750    2.000    0.000    1.125    3.500    5.000 
#    0.000    0.625    0.000    2.250    0.000    0.000 
#    0.000    0.000    0.000    0.000    0.000    0.000 
#
# Total GULP energy -89237.453830 kJ/mol
# GULP energy per Si atom -5577.340864 kJ/mol
# Density = 2.681979 g / cm^3
# Si number density = 26.880972 Si / 1000 Ang^3
#
#
#
# Elastic Constant Matrix: (Units=GPa)
#
#
# Indices 1 2 3 4 5 6 
#
# 1 91.4022 14.5611 27.8809 0.6861 12.3438 1.8167
# 2 14.5611 79.9705 34.2639 28.0354 -4.3025 -14.9665
# 3 27.8809 34.2639 131.5959 9.8087 7.5125 -3.5506
# 4 0.6861 28.0354 9.8087 42.7405 -5.5231 -4.7886
# 5 12.3438 -4.3025 7.5125 -5.5231 35.9000 4.5484
# 6 1.8167 -14.9665 -3.5506 -4.7886 4.5484 19.8311
#
#
#
# Elastic Compliance Matrix: (Units=1/GPa)
#
#
# Indices 1 2 3 4 5 6 
#
# 1 0.012458 -0.002447 -0.001933 0.001120 -0.003720 -0.002210
# 2 -0.002447 0.020905 -0.003795 -0.011306 0.000830 0.012401
# 3 -0.001933 -0.003795 0.009057 0.000164 -0.001576 -0.000664
# 4 0.001120 -0.011306 0.000164 0.030965 0.003226 -0.001869
# 5 -0.003720 0.000830 -0.001576 0.003226 0.030768 -0.005593
# 6 -0.002210 0.012401 -0.000664 -0.001869 -0.005593 0.060700
#
#
# Mechanical properties :
#
#
# Convention : Reuss Voigt Hill
#
# Bulk Modulus (GPa) = 38.35772 50.70892 44.53332
# Shear Modulus (GPa) = 26.33076 34.77852 30.55464
#
# Velocity S-wave (km/s) = 3.13314 3.60084 3.37510
# Velocity P-wave (km/s) = 5.23347 6.01608 5.63837
#
# Compressibility (1/GPa) = 0.02607037
#
# Stress axis : x y z
#
# Youngs Moduli (GPa) = 80.26983 47.83550 110.41786
#
# Poissons Ratio (x) = 0.11703 0.21346
# Poissons Ratio (y) = 0.19638 0.41902
# Poissons Ratio (z) = 0.15518 0.18153
#
# Static dielectric constant tensor:
#      x y z
#    x 2.149050 -0.000300 0.002020 
#    y -0.000300 2.140040 0.024260 
#    z 0.002020 0.024260 2.080560 
# 
# From -- ./inp_files/354810.got.cif
#   From: 2010.05.17/outbox.cif.g08.bks.cpg/sg2_178_cif.got.tgz:354810.got - 2010.06.03 11:33:40.
