data_PCOD9088919
_publ_section_title
;
Structure prediction by ZEFSAII (Michael W. Deem and Ramdas Pophale) SiO2 
 PCOD9088919
Probable space group: P -1
;
_chemical_formula_sum "Si O2"
_cell_formula_units_Z 14
_cell_length_a 5.073119
_cell_length_b 9.888753
_cell_length_c 14.005262
_cell_angle_alpha 74.670038
_cell_angle_beta 84.034244
_cell_angle_gamma 107.538134
_cell_volume 633.094695
_symmetry_space_group_name_H-M "P -1"
_symmetry_group_IT_number 2
_symmetry_cell_setting 'triclinic'
loop_
_space_group_symop_operation_xyz
x,y,z
-x,-y,-z
loop_
_atom_site_type_symbol
_atom_site_label
_atom_site_fract_x
_atom_site_fract_y
_atom_site_fract_z
Si Si1 0.211278 0.474457 0.570985
Si Si2 0.391938 0.418641 0.239090
Si Si3 0.009807 0.160115 0.743355
Si Si4 0.824797 0.985434 0.409519
Si Si5 0.551335 0.229809 0.402687
Si Si6 0.441546 0.733745 0.186546
Si Si7 0.021537 0.511233 0.109902
O O1 0.500000 0.500000 0.500000
O O2 0.106310 0.314466 0.652042
O O3 0.240695 0.603147 0.622882
O O4 0.000000 0.500000 0.500000
O O5 0.339382 0.270390 0.330952
O O6 0.381705 0.567639 0.267280
O O7 0.155926 0.394545 0.171391
O O8 0.705537 0.476478 0.169057
O O9 0.030454 0.041078 0.687103
O O10 0.227016 0.184980 0.819540
O O11 0.702637 0.152934 0.788796
O O12 0.569287 0.833362 0.477155
O O13 0.687519 0.113084 0.381558
O O14 0.000000 0.000000 0.500000
O O15 0.260780 0.667202 0.108770
O O16 0.000000 0.500000 0.000000
#
# Coordination Sequence:
#
# PCOD9088919 Si02
#       7
#     2   2   2   2   2   2   2
#     4  12  22  33  55  78 106 148 203 250 300 336
#     4  10  21  36  59  91 124 150 190 243 304 362
#     4  12  22  38  56  83 115 161 201 253 295 341
#     4  11  27  40  56  78 124 176 225 250 283 342
#     4  11  24  41  53  86 121 165 212 255 292 349
#     4  10  20  35  58  87 117 146 191 241 301 360
#     4  10  19  37  63  98 126 143 179 247 322 384
#
# _framework density 22.113596999999999
#
# number of rings (size 3 to 8) (size 9 to 14) (size 15 to 20)
#    0.857    0.286    4.286    2.143    6.000    0.000 
#    0.000    0.000    0.000    0.000    0.000    6.000 
#    0.000    0.000    0.000    0.000    0.000    0.000 
#
# Total GULP energy -78016.673202 kJ/mol
# GULP energy per Si atom -5572.619514 kJ/mol
# Density = 2.206327 g / cm^3
# Si number density = 22.113597 Si / 1000 Ang^3
#
#
#
# Elastic Constant Matrix: (Units=GPa)
#
#
# Indices 1 2 3 4 5 6 
#
# 1 127.2379 13.4583 24.1114 5.1515 18.6257 -27.4958
# 2 13.4583 111.1291 18.5801 11.9089 13.6018 -29.2263
# 3 24.1114 18.5801 63.8136 18.7793 19.6424 -13.7607
# 4 5.1515 11.9089 18.7793 21.1374 0.9148 1.2623
# 5 18.6257 13.6018 19.6424 0.9148 32.5068 -2.3783
# 6 -27.4958 -29.2263 -13.7607 1.2623 -2.3783 36.9783
#
#
#
# Elastic Compliance Matrix: (Units=1/GPa)
#
#
# Indices 1 2 3 4 5 6 
#
# 1 0.010859 0.002674 0.001163 -0.005495 -0.007132 0.010350
# 2 0.002674 0.014362 0.004762 -0.013483 -0.008943 0.014997
# 3 0.001163 0.004762 0.033569 -0.032901 -0.020780 0.016907
# 4 -0.005495 -0.013483 -0.032901 0.086124 0.024172 -0.028372
# 5 -0.007132 -0.008943 -0.020780 0.024172 0.049168 -0.017767
# 6 0.010350 0.014997 0.016907 -0.028372 -0.017767 0.052709
#
#
# Mechanical properties :
#
#
# Convention : Reuss Voigt Hill
#
# Bulk Modulus (GPa) = 13.15990 46.05338 29.60664
# Shear Modulus (GPa) = 19.61383 34.52655 27.07019
#
# Velocity S-wave (km/s) = 2.98141 3.95565 3.50257
# Velocity P-wave (km/s) = 4.22087 6.46018 5.45663
#
# Compressibility (1/GPa) = 0.07598843
#
# Stress axis : x y z
#
# Youngs Moduli (GPa) = 92.08860 69.62804 29.78923
#
# Poissons Ratio (x) = -0.18620 -0.03463
# Poissons Ratio (y) = -0.24627 -0.14187
# Poissons Ratio (z) = -0.10705 -0.33159
#
# Static dielectric constant tensor:
#      x y z
#    x 1.630720 -0.019600 -0.169490 
#    y -0.019600 1.852210 -0.002700 
#    z -0.169490 -0.002700 1.755160 
# 
# From -- ./inp_files/480280.got.cif
#   From: 2010.05.17/outbox.cif.g08.bks.cpg/sg2_241_cif.got.tgz:480280.got - 2010.06.03 11:33:40.
