data_PCOD9088715
_publ_section_title
;
Structure prediction by ZEFSAII (Michael W. Deem and Ramdas Pophale) SiO2 
 PCOD9088715
Probable space group: P -1
;
_chemical_formula_sum "Si O2"
_cell_formula_units_Z 16
_cell_length_a 8.558627
_cell_length_b 12.965487
_cell_length_c 11.376340
_cell_angle_alpha 56.379749
_cell_angle_beta 127.010611
_cell_angle_gamma 85.574956
_cell_volume 660.425442
_symmetry_space_group_name_H-M "P -1"
_symmetry_group_IT_number 2
_symmetry_cell_setting 'triclinic'
loop_
_space_group_symop_operation_xyz
x,y,z
-x,-y,-z
loop_
_atom_site_type_symbol
_atom_site_label
_atom_site_fract_x
_atom_site_fract_y
_atom_site_fract_z
Si Si1 0.733522 0.199527 0.554042
Si Si2 0.773828 0.430819 0.215673
Si Si3 0.749810 0.650257 0.468812
Si Si4 0.776389 0.852809 0.180429
Si Si5 0.640763 0.017991 0.781835
Si Si6 0.470005 0.472956 0.701596
Si Si7 0.838205 0.205576 0.203722
Si Si8 0.629934 0.110279 0.346997
O O1 0.788625 0.058146 0.746039
O O2 0.571625 0.365931 0.444600
O O3 0.560956 0.227950 0.347607
O O4 0.996099 0.155720 0.660084
O O5 0.700916 0.470570 0.294220
O O6 0.909056 0.269581 0.303181
O O7 0.978797 0.460113 0.276728
O O8 0.500000 0.500000 0.000000
O O9 0.792941 0.708671 0.328414
O O10 0.566253 0.813729 0.354510
O O11 0.627378 0.571550 0.420903
O O12 0.500000 0.000000 0.000000
O O13 0.792670 0.881194 0.033463
O O14 0.517013 0.958814 0.686143
O O15 0.728306 0.320337 0.969078
O O16 0.642984 0.182362 0.185665
O O17 0.088644 0.035022 0.400272
#
# Coordination Sequence:
#
# PCOD9088715 Si02
#       8
#     2   2   2   2   2   2   2   2
#     4  12  25  43  64  95 136 172 209 270 331 393
#     4  10  19  37  62  96 128 158 207 273 319 368
#     4  11  21  41  66  96 126 168 219 271 318 380
#     4  10  23  41  67  95 123 165 223 272 315 375
#     4  11  25  42  64  93 134 173 215 264 327 396
#     4  11  23  38  65  98 132 165 215 269 330 378
#     4  10  21  38  67 100 126 165 220 277 316 372
#     4  11  22  40  69  95 129 169 223 267 321 378
#
# _framework density 24.226808999999999
#
# number of rings (size 3 to 8) (size 9 to 14) (size 15 to 20)
#    0.000    1.250    3.750    1.875    8.750    0.500 
#    0.000    0.625    0.000    0.000    0.000    0.000 
#    0.000    0.000    0.000    0.000    0.000    0.000 
#
# Total GULP energy -89173.106296 kJ/mol
# GULP energy per Si atom -5573.319144 kJ/mol
# Density = 2.417167 g / cm^3
# Si number density = 24.226809 Si / 1000 Ang^3
#
#
#
# Elastic Constant Matrix: (Units=GPa)
#
#
# Indices 1 2 3 4 5 6 
#
# 1 46.8417 28.8634 12.1600 4.6196 -15.6858 16.1473
# 2 28.8634 163.7766 28.8525 20.6069 6.7511 23.4712
# 3 12.1600 28.8525 85.1071 5.3007 3.8626 9.3295
# 4 4.6196 20.6069 5.3007 31.2402 6.4047 -5.8715
# 5 -15.6858 6.7511 3.8626 6.4047 24.8416 -6.1445
# 6 16.1473 23.4712 9.3295 -5.8715 -6.1445 33.9638
#
#
#
# Elastic Compliance Matrix: (Units=1/GPa)
#
#
# Indices 1 2 3 4 5 6 
#
# 1 0.038326 -0.004403 -0.003310 -0.009569 0.025585 -0.011295
# 2 -0.004403 0.008669 -0.001199 -0.004834 -0.005018 -0.005312
# 3 -0.003310 -0.001199 0.013069 -0.000461 -0.004178 -0.002023
# 4 -0.009569 -0.004834 -0.000461 0.041633 -0.012173 0.013012
# 5 0.025585 -0.005018 -0.004178 -0.012173 0.061946 0.001554
# 6 -0.011295 -0.005312 -0.002023 0.013012 0.001554 0.041570
#
#
# Mechanical properties :
#
#
# Convention : Reuss Voigt Hill
#
# Bulk Modulus (GPa) = 23.67421 48.38637 36.03029
# Shear Modulus (GPa) = 21.08654 33.06576 27.07615
#
# Velocity S-wave (km/s) = 2.95342 3.69838 3.34670
# Velocity P-wave (km/s) = 4.62854 6.18490 5.46243
#
# Compressibility (1/GPa) = 0.04224006
#
# Stress axis : x y z
#
# Youngs Moduli (GPa) = 26.09206 115.34907 76.51445
#
# Poissons Ratio (x) = 0.50790 0.25328
# Poissons Ratio (y) = 0.11489 0.09173
# Poissons Ratio (z) = 0.08637 0.13829
#
# Static dielectric constant tensor:
#      x y z
#    x 2.015070 -0.015930 -0.100320 
#    y -0.015930 1.987840 -0.000890 
#    z -0.100320 -0.000890 2.116700 
# 
# From -- ./inp_files/392382.got.cif
#   From: 2010.05.17/outbox.cif.g08.bks.cpg/sg2_197_cif.got.tgz:392382.got - 2010.06.03 11:33:40.
