data_PCOD9088983
_publ_section_title
;
Structure prediction by ZEFSAII (Michael W. Deem and Ramdas Pophale) SiO2 
 PCOD9088983
Probable space group: P -1
;
_chemical_formula_sum "Si O2"
_cell_formula_units_Z 14
_cell_length_a 17.992771
_cell_length_b 21.249648
_cell_length_c 9.174598
_cell_angle_alpha 144.606014
_cell_angle_beta 143.554301
_cell_angle_gamma 18.100636
_cell_volume 622.643669
_symmetry_space_group_name_H-M "P -1"
_symmetry_group_IT_number 2
_symmetry_cell_setting 'triclinic'
loop_
_space_group_symop_operation_xyz
x,y,z
-x,-y,-z
loop_
_atom_site_type_symbol
_atom_site_label
_atom_site_fract_x
_atom_site_fract_y
_atom_site_fract_z
Si Si1 0.835397 0.504151 0.515709
Si Si2 0.562208 0.523574 0.285275
Si Si3 0.593238 0.344477 0.236617
Si Si4 0.288884 0.868991 0.720197
Si Si5 0.686078 0.746460 0.174551
Si Si6 0.941867 0.321199 0.053364
Si Si7 0.337884 0.195380 0.406345
O O1 0.707100 0.521428 0.458641
O O2 0.658874 0.708422 0.520671
O O3 0.034402 0.438765 0.767638
O O4 0.971357 0.320240 0.270983
O O5 0.695576 0.339415 0.256165
O O6 0.335943 0.740799 0.432314
O O7 0.500000 0.500000 0.000000
O O8 0.500000 0.500000 0.500000
O O9 0.754907 0.145492 0.213710
O O10 0.343356 0.473838 0.036116
O O11 0.080760 0.111609 0.819994
O O12 0.543877 0.744688 0.900047
O O13 0.654196 0.777861 0.359818
O O14 0.544694 0.951169 0.260664
O O15 0.085175 0.318554 0.212696
#
# Coordination Sequence:
#
# PCOD9088983 Si02
#       7
#     2   2   2   2   2   2   2
#     4  11  20  36  61  86 125 156 181 246 301 345
#     4  11  24  41  56  86 124 161 196 239 298 346
#     4  10  21  39  61  82 115 158 204 237 281 346
#     4  10  22  40  66  86 117 152 200 253 282 351
#     4   9  18  34  59  96 112 146 201 236 293 357
#     4  10  19  37  64  91 113 153 202 239 294 353
#     4   9  18  33  61  92 119 146 189 247 295 351
#
# _framework density 22.484770000000001
#
# number of rings (size 3 to 8) (size 9 to 14) (size 15 to 20)
#    0.000    2.000    1.429    4.286    0.000    2.857 
#    0.000    7.857    0.000    0.000    0.000    0.000 
#    0.000    0.000    0.000    0.000    0.000    0.000 
#
# Total GULP energy -78101.048743 kJ/mol
# GULP energy per Si atom -5578.646339 kJ/mol
# Density = 2.243359 g / cm^3
# Si number density = 22.484770 Si / 1000 Ang^3
#
#
#
# Elastic Constant Matrix: (Units=GPa)
#
#
# Indices 1 2 3 4 5 6 
#
# 1 157.4733 37.4376 35.1074 -4.3498 15.3506 17.3846
# 2 37.4376 61.3413 16.3013 0.9393 9.6565 16.9630
# 3 35.1074 16.3013 89.9895 -1.3130 2.3348 8.5381
# 4 -4.3498 0.9393 -1.3130 34.4226 -7.6234 13.6943
# 5 15.3506 9.6565 2.3348 -7.6234 30.0362 1.5563
# 6 17.3846 16.9630 8.5381 13.6943 1.5563 19.4433
#
#
#
# Elastic Compliance Matrix: (Units=1/GPa)
#
#
# Indices 1 2 3 4 5 6 
#
# 1 0.008432 -0.002496 -0.002121 0.003132 -0.002212 -0.006459
# 2 -0.002496 0.025413 -0.001060 0.008084 -0.003471 -0.024889
# 3 -0.002121 -0.001060 0.012548 0.002258 0.001250 -0.004379
# 4 0.003132 0.008084 0.002258 0.050555 0.010908 -0.047325
# 5 -0.002212 -0.003471 0.001250 0.010908 0.038538 -0.006311
# 6 -0.006459 -0.024889 -0.004379 -0.047325 -0.006311 0.114681
#
#
# Mechanical properties :
#
#
# Convention : Reuss Voigt Hill
#
# Bulk Modulus (GPa) = 28.54085 54.05518 41.29802
# Shear Modulus (GPa) = 18.30155 31.44428 24.87291
#
# Velocity S-wave (km/s) = 2.85608 3.74367 3.32958
# Velocity P-wave (km/s) = 4.85770 6.54062 5.76095
#
# Compressibility (1/GPa) = 0.03503749
#
# Stress axis : x y z
#
# Youngs Moduli (GPa) = 118.59798 39.35053 79.69319
#
# Poissons Ratio (x) = 0.09821 0.16907
# Poissons Ratio (y) = 0.29601 0.08449
# Poissons Ratio (z) = 0.25160 0.04172
#
# Static dielectric constant tensor:
#      x y z
#    x 1.893380 0.015920 0.057700 
#    y 0.015920 1.869300 -0.006260 
#    z 0.057700 -0.006260 1.936540 
# 
# From -- ./inp_files/215469.got.cif
#   From: 2010.05.17/outbox.cif.g08.bks.cpg/sg2_108_cif.got.tgz:215469.got - 2010.06.03 11:33:40.
