data_PCOD9088560
_publ_section_title
;
Structure prediction by ZEFSAII (Michael W. Deem and Ramdas Pophale) SiO2 
 PCOD9088560
Probable space group: P -1
;
_chemical_formula_sum "Si O2"
_cell_formula_units_Z 14
_cell_length_a 9.773129
_cell_length_b 18.859989
_cell_length_c 9.850069
_cell_angle_alpha 135.666035
_cell_angle_beta 44.534850
_cell_angle_gamma 135.285301
_cell_volume 811.792849
_symmetry_space_group_name_H-M "P -1"
_symmetry_group_IT_number 2
_symmetry_cell_setting 'triclinic'
loop_
_space_group_symop_operation_xyz
x,y,z
-x,-y,-z
loop_
_atom_site_type_symbol
_atom_site_label
_atom_site_fract_x
_atom_site_fract_y
_atom_site_fract_z
Si Si1 0.228191 0.424851 0.843376
Si Si2 0.469162 0.680168 0.024403
Si Si3 0.851687 0.230780 0.727553
Si Si4 0.449523 0.154454 0.287978
Si Si5 0.176935 0.898637 0.163826
Si Si6 0.292851 0.291987 0.384616
Si Si7 0.306805 0.264017 0.770062
O O1 0.292010 0.553860 0.990767
O O2 0.340740 0.398595 0.594792
O O3 0.295762 0.371255 0.850911
O O4 0.979467 0.345453 0.880897
O O5 0.615406 0.684082 0.797054
O O6 0.348976 0.759923 0.187089
O O7 0.604203 0.712688 0.110531
O O8 0.803546 0.133391 0.737219
O O9 0.034465 0.231870 0.495975
O O10 0.390383 0.216256 0.290514
O O11 0.449488 0.222739 0.516001
O O12 0.266116 0.030271 0.262226
O O13 0.668425 0.142819 0.087146
O O14 0.933044 0.831583 0.200449
#
# Coordination Sequence:
#
# PCOD9088560 Si02
#       7
#     2   2   2   2   2   2   2
#     4   8  19  37  53  76 106 148 181 202 250 326
#     4  12  19  35  54  79 119 134 165 231 266 289
#     4   9  20  33  56  82 100 140 186 211 248 321
#     4  10  19  37  62  75  99 143 184 213 258 322
#     4  10  19  37  62  75  99 143 184 213 258 322
#     4   9  20  33  56  82 100 140 186 211 248 321
#     4  10  22  34  54  85 107 136 173 223 265 311
#
# _framework density 17.24578
#
# number of rings (size 3 to 8) (size 9 to 14) (size 15 to 20)
#    0.857    1.429    2.857    1.714    0.000    1.143 
#    0.000    1.429    0.000    5.143    0.000    0.000 
#    0.000    0.000    0.000    0.000    0.000    0.000 
#
# Total GULP energy -77979.720035 kJ/mol
# GULP energy per Si atom -5569.980003 kJ/mol
# Density = 1.720653 g / cm^3
# Si number density = 17.245780 Si / 1000 Ang^3
#
#
#
# Elastic Constant Matrix: (Units=GPa)
#
#
# Indices 1 2 3 4 5 6 
#
# 1 90.7815 -3.5012 24.4109 -6.9196 19.0854 -14.2874
# 2 -3.5012 34.1106 1.4192 -5.4033 11.0047 -9.9642
# 3 24.4109 1.4192 37.5471 -8.4075 10.0450 -3.4661
# 4 -6.9196 -5.4033 -8.4075 21.6800 -6.9189 -4.5007
# 5 19.0854 11.0047 10.0450 -6.9189 22.4439 -8.5351
# 6 -14.2874 -9.9642 -3.4661 -4.5007 -8.5351 11.0359
#
#
#
# Elastic Compliance Matrix: (Units=1/GPa)
#
#
# Indices 1 2 3 4 5 6 
#
# 1 0.026313 0.027026 -0.006021 0.027954 0.002175 0.069659
# 2 0.027026 0.079951 0.003946 0.061867 0.008423 0.140159
# 3 -0.006021 0.003946 0.035472 0.012346 -0.006152 0.007186
# 4 0.027954 0.061867 0.012346 0.132291 0.054041 0.191672
# 5 0.002175 0.008423 -0.006152 0.054041 0.098596 0.106781
# 6 0.069659 0.140159 0.007186 0.191672 0.106781 0.470350
#
#
# Mechanical properties :
#
#
# Convention : Reuss Voigt Hill
#
# Bulk Modulus (GPa) = 5.21816 23.01077 14.11446
# Shear Modulus (GPa) = 5.83463 20.37264 13.10363
#
# Velocity S-wave (km/s) = 1.84135 3.44075 2.75947
# Velocity P-wave (km/s) = 2.74829 5.39971 4.28427
#
# Compressibility (1/GPa) = 0.19163848
#
# Stress axis : x y z
#
# Youngs Moduli (GPa) = 38.00376 12.50761 28.19103
#
# Poissons Ratio (x) = -0.33803 0.16973
# Poissons Ratio (y) = -1.02709 -0.11123
# Poissons Ratio (z) = 0.22881 -0.04935
#
# Static dielectric constant tensor:
#      x y z
#    x 1.559280 -0.002110 -0.016680 
#    y -0.002110 1.585580 -0.008970 
#    z -0.016680 -0.008970 1.580200 
# 
# From -- ./inp_files/195483.got.cif
#   From: 2010.05.17/outbox.cif.g08.bks.cpg/sg2_98_cif.got.tgz:195483.got - 2010.06.03 11:33:40.
