data_PCOD9088593
_publ_section_title
;
Structure prediction by ZEFSAII (Michael W. Deem and Ramdas Pophale) SiO2 
 PCOD9088593
Probable space group: P -1
;
_chemical_formula_sum "Si O2"
_cell_formula_units_Z 12
_cell_length_a 11.622709
_cell_length_b 14.811426
_cell_length_c 14.358719
_cell_angle_alpha 33.259141
_cell_angle_beta 153.157934
_cell_angle_gamma 149.636545
_cell_volume 539.829343
_symmetry_space_group_name_H-M "P -1"
_symmetry_group_IT_number 2
_symmetry_cell_setting 'triclinic'
loop_
_space_group_symop_operation_xyz
x,y,z
-x,-y,-z
loop_
_atom_site_type_symbol
_atom_site_label
_atom_site_fract_x
_atom_site_fract_y
_atom_site_fract_z
Si Si1 0.977886 0.610945 0.278177
Si Si2 0.833067 0.689013 0.391763
Si Si3 0.806161 0.602577 0.849989
Si Si4 0.845750 0.609372 0.667642
Si Si5 0.589749 0.701295 0.781743
Si Si6 0.173522 0.944706 0.249003
O O1 0.709695 0.488460 0.258784
O O2 0.090790 0.477011 0.433610
O O3 0.210172 0.788019 0.351195
O O4 0.831326 0.672235 0.039090
O O5 0.487328 0.591583 0.214906
O O6 0.942197 0.739922 0.533162
O O7 0.980217 0.847433 0.284075
O O8 0.911449 0.695059 0.745002
O O9 0.715060 0.720335 0.752237
O O10 0.024866 0.536718 0.109625
O O11 0.500000 0.500000 0.500000
O O12 0.575437 0.863309 0.694129
O O13 0.000000 0.000000 0.000000
#
# Coordination Sequence:
#
# PCOD9088593 Si02
#       6
#     2   2   2   2   2   2
#     4  10  20  37  57  87 123 159 195 235 292 350
#     4  11  20  37  61  86 121 156 197 242 289 351
#     4  10  19  37  62  86 115 153 198 245 297 343
#     4   9  20  36  63  89 108 153 204 244 294 350
#     4  10  20  36  59  85 122 160 192 238 295 349
#     4  10  22  35  54  90 126 157 192 238 291 350
#
# _framework density 22.229247999999998
#
# number of rings (size 3 to 8) (size 9 to 14) (size 15 to 20)
#    0.000    2.000    3.333    0.500    0.000    0.667 
#    0.000    0.833    0.000    9.000    0.000    0.000 
#    0.000    0.000    0.000    0.000    0.000    0.000 
#
# Total GULP energy -66935.775100 kJ/mol
# GULP energy per Si atom -5577.981258 kJ/mol
# Density = 2.217865 g / cm^3
# Si number density = 22.229248 Si / 1000 Ang^3
#
#
#
# Elastic Constant Matrix: (Units=GPa)
#
#
# Indices 1 2 3 4 5 6 
#
# 1 148.4763 17.5740 41.5632 -7.5063 -20.2696 -16.3230
# 2 17.5740 67.9491 14.3704 11.4846 0.0728 -19.0075
# 3 41.5632 14.3704 91.1565 12.9921 -12.7207 0.1360
# 4 -7.5063 11.4846 12.9921 31.8375 5.7943 -0.0638
# 5 -20.2696 0.0728 -12.7207 5.7943 47.7107 -1.9928
# 6 -16.3230 -19.0075 0.1360 -0.0638 -1.9928 27.4765
#
#
#
# Elastic Compliance Matrix: (Units=1/GPa)
#
#
# Indices 1 2 3 4 5 6 
#
# 1 0.009087 -0.000629 -0.004221 0.003645 0.002509 0.005175
# 2 -0.000629 0.020242 -0.001878 -0.006764 0.000594 0.013666
# 3 -0.004221 -0.001878 0.014544 -0.006762 0.002754 -0.003695
# 4 0.003645 -0.006764 -0.006762 0.038376 -0.005020 -0.002755
# 5 0.002509 0.000594 0.002754 -0.005020 0.023518 0.003582
# 6 0.005175 0.013666 -0.003695 -0.002755 0.003582 0.049194
#
#
# Mechanical properties :
#
#
# Convention : Reuss Voigt Hill
#
# Bulk Modulus (GPa) = 32.87538 50.51079 41.69309
# Shear Modulus (GPa) = 28.00216 37.00989 32.50603
#
# Velocity S-wave (km/s) = 3.55307 4.08477 3.82816
# Velocity P-wave (km/s) = 5.62617 6.70963 6.19164
#
# Compressibility (1/GPa) = 0.03041790
#
# Stress axis : x y z
#
# Youngs Moduli (GPa) = 110.04832 49.40186 68.75488
#
# Poissons Ratio (x) = 0.03106 0.29023
# Poissons Ratio (y) = 0.06920 0.12911
# Poissons Ratio (z) = 0.46454 0.09277
#
# Static dielectric constant tensor:
#      x y z
#    x 1.857110 -0.016420 -0.021210 
#    y -0.016420 1.817340 0.005020 
#    z -0.021210 0.005020 1.936740 
# 
# From -- ./inp_files/379201.got.cif
#   From: 2010.05.17/outbox.cif.g08.bks.cpg/sg2_190_cif.got.tgz:379201.got - 2010.06.03 11:33:40.
