data_PCOD9088092
_publ_section_title
;
Structure prediction by ZEFSAII (Michael W. Deem and Ramdas Pophale) SiO2 
 PCOD9088092
Probable space group: P -1
;
_chemical_formula_sum "Si O2"
_cell_formula_units_Z 16
_cell_length_a 26.795782
_cell_length_b 20.694999
_cell_length_c 8.890040
_cell_angle_alpha 41.072722
_cell_angle_beta 30.660204
_cell_angle_gamma 20.431596
_cell_volume 838.997697
_symmetry_space_group_name_H-M "P -1"
_symmetry_group_IT_number 2
_symmetry_cell_setting 'triclinic'
loop_
_space_group_symop_operation_xyz
x,y,z
-x,-y,-z
loop_
_atom_site_type_symbol
_atom_site_label
_atom_site_fract_x
_atom_site_fract_y
_atom_site_fract_z
Si Si1 0.432309 0.308913 0.253266
Si Si2 0.560572 0.679882 0.139349
Si Si3 0.815183 0.318276 0.274815
Si Si4 0.876224 0.429837 0.175912
Si Si5 0.776938 0.657901 0.790353
Si Si6 0.644469 0.293924 0.920263
Si Si7 0.688759 0.934443 0.407182
Si Si8 0.226295 0.980064 0.705976
O O1 0.216182 0.499682 0.545175
O O2 0.536049 0.117859 0.371539
O O3 0.446634 0.311019 0.035740
O O4 0.540878 0.303308 0.067892
O O5 0.630672 0.516003 0.315482
O O6 0.356974 0.878271 0.399315
O O7 0.719830 0.621094 0.887374
O O8 0.839475 0.366807 0.274683
O O9 0.793772 0.226766 0.551150
O O10 0.996868 0.178962 0.940262
O O11 0.756692 0.621170 0.067588
O O12 0.104159 0.250847 0.890164
O O13 0.654618 0.857097 0.703736
O O14 0.000000 0.500000 0.500000
O O15 0.500000 0.500000 0.000000
O O16 0.727328 0.160518 0.078293
O O17 0.718578 0.981107 0.389309
#
# Coordination Sequence:
#
# PCOD9088092 Si02
#       8
#     2   2   2   2   2   2   2   2
#     4  11  23  35  53  84 117 148 177 224 285 328
#     4  11  23  37  53  83 121 145 175 226 285 331
#     4  10  19  37  59  81 108 147 191 231 263 319
#     4   9  18  35  58  80 107 142 188 231 267 318
#     4   9  18  37  62  83 104 143 192 228 269 326
#     4  11  18  37  62  81 106 146 193 231 267 321
#     4   9  19  36  57  81 106 141 189 231 266 323
#     4  10  21  36  59  84 108 143 190 231 271 321
#
# _framework density 19.070373
#
# number of rings (size 3 to 8) (size 9 to 14) (size 15 to 20)
#    0.000    2.000    2.500    3.375    0.000    4.000 
#    0.000    3.125    0.000    0.000    0.000    0.000 
#    0.000    0.000    0.000    0.000    0.000    0.000 
#
# Total GULP energy -89194.180052 kJ/mol
# GULP energy per Si atom -5574.636253 kJ/mol
# Density = 1.902697 g / cm^3
# Si number density = 19.070373 Si / 1000 Ang^3
#
#
#
# Elastic Constant Matrix: (Units=GPa)
#
#
# Indices 1 2 3 4 5 6 
#
# 1 50.3225 19.2096 36.6154 7.3794 28.1436 0.4480
# 2 19.2096 73.8969 21.1296 -3.6130 8.1858 12.8368
# 3 36.6154 21.1296 97.0161 12.1044 20.8659 11.4883
# 4 7.3794 -3.6130 12.1044 41.7590 13.2416 -3.8706
# 5 28.1436 8.1858 20.8659 13.2416 34.7454 0.0692
# 6 0.4480 12.8368 11.4883 -3.8706 0.0692 12.1644
#
#
#
# Elastic Compliance Matrix: (Units=1/GPa)
#
#
# Indices 1 2 3 4 5 6 
#
# 1 0.050784 -0.009298 -0.013537 0.006908 -0.033494 0.023115
# 2 -0.009298 0.018958 0.001345 0.000263 0.002199 -0.020863
# 3 -0.013537 0.001345 0.017574 -0.005005 0.002040 -0.019122
# 4 0.006908 0.000263 -0.005005 0.029948 -0.014093 0.013804
# 5 -0.033494 0.002199 0.002040 -0.014093 0.059554 -0.007836
# 6 0.023115 -0.020863 -0.019122 0.013804 -0.007836 0.125868
#
#
# Mechanical properties :
#
#
# Convention : Reuss Voigt Hill
#
# Bulk Modulus (GPa) = 22.55503 41.68273 32.11888
# Shear Modulus (GPa) = 13.87179 27.35250 20.61215
#
# Velocity S-wave (km/s) = 2.69996 3.79131 3.29119
# Velocity P-wave (km/s) = 4.64464 6.40860 5.59656
#
# Compressibility (1/GPa) = 0.04433600
#
# Stress axis : x y z
#
# Youngs Moduli (GPa) = 19.69130 52.74750 56.90305
#
# Poissons Ratio (x) = 0.49045 0.77030
# Poissons Ratio (y) = 0.18309 -0.07654
# Poissons Ratio (z) = 0.26656 -0.07095
#
# Static dielectric constant tensor:
#      x y z
#    x 1.613190 0.010720 -0.013760 
#    y 0.010720 1.711390 0.012850 
#    z -0.013760 0.012850 1.713410 
# 
# From -- ./inp_files/268227.got.cif
#   From: 2010.05.17/outbox.cif.g08.bks.cpg/sg2_135_cif.got.tgz:268227.got - 2010.06.03 11:33:40.
