data_PCOD9088690
_publ_section_title
;
Structure prediction by ZEFSAII (Michael W. Deem and Ramdas Pophale) SiO2 
 PCOD9088690
Probable space group: P -1
;
_chemical_formula_sum "Si O2"
_cell_formula_units_Z 16
_cell_length_a 12.824337
_cell_length_b 20.203104
_cell_length_c 16.694360
_cell_angle_alpha 30.596922
_cell_angle_beta 142.006016
_cell_angle_gamma 159.411774
_cell_volume 770.385016
_symmetry_space_group_name_H-M "P -1"
_symmetry_group_IT_number 2
_symmetry_cell_setting 'triclinic'
loop_
_space_group_symop_operation_xyz
x,y,z
-x,-y,-z
loop_
_atom_site_type_symbol
_atom_site_label
_atom_site_fract_x
_atom_site_fract_y
_atom_site_fract_z
Si Si1 0.391773 0.956902 0.608903
Si Si2 0.796488 0.947107 0.299446
Si Si3 0.554845 0.557085 0.879164
Si Si4 0.753237 0.411606 0.136429
Si Si5 0.249313 0.368090 0.419899
Si Si6 0.504573 0.951096 0.241353
Si Si7 0.857426 0.475399 0.319893
Si Si8 0.384983 0.734020 0.116964
O O1 0.429250 0.837177 0.720979
O O2 0.065677 0.804474 0.546468
O O3 0.372343 0.939507 0.711235
O O4 0.655033 0.220934 0.472966
O O5 0.776746 0.784006 0.484202
O O6 0.722605 0.998792 0.271976
O O7 0.557420 0.825084 0.210862
O O8 0.121487 0.177942 0.218804
O O9 0.308773 0.507160 0.758030
O O10 0.500000 0.500000 0.000000
O O11 0.567059 0.421212 0.990217
O O12 0.865088 0.502264 0.200691
O O13 0.052778 0.578870 0.092728
O O14 0.500000 0.500000 0.500000
O O15 0.343059 0.563384 0.232479
O O16 0.191417 0.678208 0.342048
O O17 0.451107 0.053801 0.056600
#
# Coordination Sequence:
#
# PCOD9088690 Si02
#       8
#     2   2   2   2   2   2   2   2
#     4  11  24  41  60  94 129 164 205 252 316 369
#     4  11  19  39  62  92 122 160 213 255 302 368
#     4  10  20  35  62  91 117 156 210 261 300 353
#     4  10  20  38  64  90 118 160 209 260 305 360
#     4   9  21  38  62  88 123 156 201 262 304 362
#     4  12  24  38  65  91 129 167 202 255 308 372
#     4  11  22  42  61  89 124 168 209 251 302 374
#     4  10  19  37  62  93 120 154 211 252 309 361
#
# _framework density 20.768834999999999
#
# number of rings (size 3 to 8) (size 9 to 14) (size 15 to 20)
#    0.000    1.500    3.750    2.625    0.000    2.500 
#    0.000    0.625    0.000    0.000    0.000    0.000 
#    0.000    0.000    0.000    0.000    0.000    0.000 
#
# Total GULP energy -89333.329437 kJ/mol
# GULP energy per Si atom -5583.333090 kJ/mol
# Density = 2.072156 g / cm^3
# Si number density = 20.768835 Si / 1000 Ang^3
#
#
#
# Elastic Constant Matrix: (Units=GPa)
#
#
# Indices 1 2 3 4 5 6 
#
# 1 67.2816 28.3671 34.3961 10.0346 22.8715 7.1235
# 2 28.3671 68.4197 18.5179 -15.4830 4.5918 9.8811
# 3 34.3961 18.5179 82.3173 -8.4544 34.3904 7.3855
# 4 10.0346 -15.4830 -8.4544 16.6541 3.6374 -1.8842
# 5 22.8715 4.5918 34.3904 3.6374 35.3005 3.9480
# 6 7.1235 9.8811 7.3855 -1.8842 3.9480 21.2320
#
#
#
# Elastic Compliance Matrix: (Units=1/GPa)
#
#
# Indices 1 2 3 4 5 6 
#
# 1 0.046787 -0.028505 -0.019116 -0.064272 -0.001219 -0.001259
# 2 -0.028505 0.037513 0.010816 0.057316 -0.002164 -0.006168
# 3 -0.019116 0.010816 0.032968 0.043709 -0.025479 -0.001472
# 4 -0.064272 0.057316 0.043709 0.180233 -0.027046 0.000709
# 5 -0.001219 -0.002164 -0.025479 -0.027046 0.057319 -0.002779
# 6 -0.001259 -0.006168 -0.001472 0.000709 -0.002779 0.051483
#
#
# Mechanical properties :
#
#
# Convention : Reuss Voigt Hill
#
# Bulk Modulus (GPa) = 22.90529 42.28674 32.59602
# Shear Modulus (GPa) = 10.11190 23.75316 16.93253
#
# Velocity S-wave (km/s) = 2.20893 3.38552 2.85842
# Velocity P-wave (km/s) = 4.19028 5.97388 5.15973
#
# Compressibility (1/GPa) = 0.04365804
#
# Stress axis : x y z
#
# Youngs Moduli (GPa) = 21.37323 26.65744 30.33218
#
# Poissons Ratio (x) = 0.75988 0.57984
# Poissons Ratio (y) = 0.60925 -0.32808
# Poissons Ratio (z) = 0.40858 -0.28834
#
# Static dielectric constant tensor:
#      x y z
#    x 1.731460 0.008540 0.019500 
#    y 0.008540 1.733610 0.004490 
#    z 0.019500 0.004490 1.797440 
# 
# From -- ./inp_files/243391.got.cif
#   From: 2010.05.17/outbox.cif.g08.bks.cpg/sg2_122_cif.got.tgz:243391.got - 2010.06.03 11:33:40.
