data_PCOD9088069
_publ_section_title
;
Structure prediction by ZEFSAII (Michael W. Deem and Ramdas Pophale) SiO2 
 PCOD9088069
Probable space group: P -1
;
_chemical_formula_sum "Si O2"
_cell_formula_units_Z 12
_cell_length_a 8.940999
_cell_length_b 13.246404
_cell_length_c 10.661493
_cell_angle_alpha 147.960702
_cell_angle_beta 115.539067
_cell_angle_gamma 46.389866
_cell_volume 444.570066
_symmetry_space_group_name_H-M "P -1"
_symmetry_group_IT_number 2
_symmetry_cell_setting 'triclinic'
loop_
_space_group_symop_operation_xyz
x,y,z
-x,-y,-z
loop_
_atom_site_type_symbol
_atom_site_label
_atom_site_fract_x
_atom_site_fract_y
_atom_site_fract_z
Si Si1 0.973512 0.084643 0.271684
Si Si2 0.046712 0.749022 0.294634
Si Si3 0.877841 0.757094 0.994788
Si Si4 0.610137 0.744629 0.426470
Si Si5 0.456000 0.760902 0.133986
Si Si6 0.215607 0.440277 0.450493
O O1 0.988342 0.220020 0.537183
O O2 0.861251 0.291795 0.339182
O O3 0.234793 0.830238 0.075717
O O4 0.850327 0.989388 0.170453
O O5 0.887410 0.753844 0.146602
O O6 0.306619 0.498023 0.100528
O O7 0.000000 0.000000 0.500000
O O8 0.730542 0.722974 0.826905
O O9 0.137317 0.499971 0.785791
O O10 0.458634 0.754212 0.280032
O O11 0.597495 0.706295 0.528069
O O12 0.571906 0.998094 0.661979
O O13 0.000000 0.500000 0.500000
#
# Coordination Sequence:
#
# PCOD9088069 Si02
#       6
#     2   2   2   2   2   2
#     4  11  21  37  69  85 115 168 193 239 315 335
#     4   9  21  37  59  93 120 148 205 250 286 361
#     4   9  19  36  59  90 118 152 203 243 286 362
#     4   9  19  36  57  87 125 148 196 253 285 346
#     4  10  19  39  63  87 118 156 200 251 288 354
#     4  10  19  37  58  91 123 155 198 245 292 362
#
# _framework density 26.992370000000001
#
# number of rings (size 3 to 8) (size 9 to 14) (size 15 to 20)
#    0.000    2.333    3.333    0.000    0.000    9.333 
#    0.000    0.833    0.000    2.000    0.000    0.000 
#    0.000    0.000    0.000    0.000    0.000    0.000 
#
# Total GULP energy -67272.993290 kJ/mol
# GULP energy per Si atom -5606.082774 kJ/mol
# Density = 2.693093 g / cm^3
# Si number density = 26.992370 Si / 1000 Ang^3
#
#
#
# Elastic Constant Matrix: (Units=GPa)
#
#
# Indices 1 2 3 4 5 6 
#
# 1 96.5883 38.1927 40.5193 21.2917 4.0713 9.6768
# 2 38.1927 225.6087 66.2524 -3.7513 9.5446 24.1287
# 3 40.5193 66.2524 125.7780 2.8182 6.2903 7.1129
# 4 21.2917 -3.7513 2.8182 58.6866 7.4634 7.0732
# 5 4.0713 9.5446 6.2903 7.4634 33.6501 8.2955
# 6 9.6768 24.1287 7.1129 7.0732 8.2955 33.5257
#
#
#
# Elastic Compliance Matrix: (Units=1/GPa)
#
#
# Indices 1 2 3 4 5 6 
#
# 1 0.013472 -0.001187 -0.003565 -0.004714 0.000783 -0.001477
# 2 -0.001187 0.005773 -0.002469 0.001398 -0.000489 -0.003462
# 3 -0.003565 -0.002469 0.010400 0.000693 -0.001148 0.000737
# 4 -0.004714 0.001398 0.000693 0.019626 -0.003556 -0.003053
# 5 0.000783 -0.000489 -0.001148 -0.003556 0.032469 -0.006915
# 6 -0.001477 -0.003462 0.000737 -0.003053 -0.006915 0.034944
#
#
# Mechanical properties :
#
#
# Convention : Reuss Voigt Hill
#
# Bulk Modulus (GPa) = 65.78085 81.98934 73.88509
# Shear Modulus (GPa) = 36.71208 45.37318 41.04263
#
# Velocity S-wave (km/s) = 3.69194 4.10440 3.90362
# Velocity P-wave (km/s) = 6.52664 7.27341 6.91012
#
# Compressibility (1/GPa) = 0.01520199
#
# Stress axis : x y z
#
# Youngs Moduli (GPa) = 74.22668 173.22619 96.15642
#
# Poissons Ratio (x) = 0.20570 0.34276
# Poissons Ratio (y) = 0.08814 0.23744
# Poissons Ratio (z) = 0.26459 0.42775
#
# Static dielectric constant tensor:
#      x y z
#    x 2.045810 0.003690 -0.028970 
#    y 0.003690 2.136100 -0.047870 
#    z -0.028970 -0.047870 2.191740 
# 
# From -- ./inp_files/198439.got.cif
#   From: 2010.05.17/outbox.cif.g08.bks.cpg/sg2_100_cif.got.tgz:198439.got - 2010.06.03 11:33:40.
