data_PCOD9088138
_publ_section_title
;
Structure prediction by ZEFSAII (Michael W. Deem and Ramdas Pophale) SiO2 
 PCOD9088138
Probable space group: P -1
;
_chemical_formula_sum "Si O2"
_cell_formula_units_Z 16
_cell_length_a 18.392731
_cell_length_b 13.696589
_cell_length_c 7.892585
_cell_angle_alpha 108.213621
_cell_angle_beta 82.501525
_cell_angle_gamma 155.297825
_cell_volume 727.913405
_symmetry_space_group_name_H-M "P -1"
_symmetry_group_IT_number 2
_symmetry_cell_setting 'triclinic'
loop_
_space_group_symop_operation_xyz
x,y,z
-x,-y,-z
loop_
_atom_site_type_symbol
_atom_site_label
_atom_site_fract_x
_atom_site_fract_y
_atom_site_fract_z
Si Si1 0.169411 0.014334 0.401041
Si Si2 0.045040 0.471562 0.751927
Si Si3 0.962326 0.162657 0.155320
Si Si4 0.177917 0.361164 0.526811
Si Si5 0.396976 0.284914 0.798507
Si Si6 0.826698 0.382923 0.823505
Si Si7 0.752526 0.742923 0.761606
Si Si8 0.576378 0.137293 0.232962
O O1 0.293082 0.203413 0.627791
O O2 0.277370 0.188076 0.294272
O O3 0.111546 0.820828 0.339721
O O4 0.967941 0.810697 0.368878
O O5 0.225409 0.667818 0.692100
O O6 0.936101 0.434618 0.716874
O O7 0.133808 0.594823 0.980264
O O8 0.085534 0.295720 0.353963
O O9 0.076859 0.384026 0.117730
O O10 0.773445 0.977501 0.178993
O O11 0.898254 0.973468 0.982709
O O12 0.198230 0.271895 0.410481
O O13 0.362743 0.664428 0.681613
O O14 0.574721 0.459072 0.753662
O O15 0.500000 0.500000 0.000000
O O16 0.601922 0.102057 0.718211
O O17 0.500000 0.000000 0.000000
#
# Coordination Sequence:
#
# PCOD9088138 Si02
#       8
#     2   2   2   2   2   2   2   2
#     4  10  19  37  59  86 119 154 201 248 297 362
#     4   9  19  36  61  90 116 153 200 253 295 356
#     4  10  21  40  58  86 124 158 195 249 310 363
#     4  10  22  37  59  87 122 157 196 250 306 364
#     4   9  21  37  54  82 122 154 194 249 292 356
#     4  10  19  37  64  84 120 159 196 245 310 357
#     4  11  20  37  63  87 117 159 203 245 302 361
#     4   9  20  39  58  88 121 153 202 255 291 358
#
# _framework density 21.980637999999999
#
# number of rings (size 3 to 8) (size 9 to 14) (size 15 to 20)
#    0.000    2.250    1.250    1.125    1.750    0.500 
#    2.250    5.625    0.000    0.000    0.000    0.000 
#    0.000    0.000    0.000    0.000    0.000    0.000 
#
# Total GULP energy -89083.071585 kJ/mol
# GULP energy per Si atom -5567.691974 kJ/mol
# Density = 2.193061 g / cm^3
# Si number density = 21.980638 Si / 1000 Ang^3
#
#
#
# Elastic Constant Matrix: (Units=GPa)
#
#
# Indices 1 2 3 4 5 6 
#
# 1 54.2250 35.0856 7.2214 10.5028 -17.0163 7.4308
# 2 35.0856 116.9883 14.7323 30.1710 -12.2422 13.7904
# 3 7.2214 14.7323 89.9551 16.9102 -2.0430 -4.8982
# 4 10.5028 30.1710 16.9102 29.5991 -2.3763 -2.6154
# 5 -17.0163 -12.2422 -2.0430 -2.3763 28.3513 0.5639
# 6 7.4308 13.7904 -4.8982 -2.6154 0.5639 7.8751
#
#
#
# Elastic Compliance Matrix: (Units=1/GPa)
#
#
# Indices 1 2 3 4 5 6 
#
# 1 0.031907 0.000078 -0.001881 -0.012069 0.018769 -0.036766
# 2 0.000078 0.021480 -0.001266 -0.024726 0.008098 -0.047267
# 3 -0.001881 -0.001266 0.012880 -0.004574 -0.001341 0.010581
# 4 -0.012069 -0.024726 -0.004574 0.071545 -0.013776 0.076589
# 5 0.018769 0.008098 -0.001341 -0.013776 0.049595 -0.040852
# 6 -0.036766 -0.047267 0.010581 0.076589 -0.040852 0.279389
#
#
# Mechanical properties :
#
#
# Convention : Reuss Voigt Hill
#
# Bulk Modulus (GPa) = 16.63080 41.69414 29.16247
# Shear Modulus (GPa) = 10.14246 26.77368 18.45807
#
# Velocity S-wave (km/s) = 2.15042 3.49385 2.90097
# Velocity P-wave (km/s) = 3.70786 5.94018 4.95147
#
# Compressibility (1/GPa) = 0.06012939
#
# Stress axis : x y z
#
# Youngs Moduli (GPa) = 31.34080 46.55550 77.63714
#
# Poissons Ratio (x) = -0.00364 0.14606
# Poissons Ratio (y) = -0.00245 0.09828
# Poissons Ratio (z) = 0.05896 0.05893
#
# Static dielectric constant tensor:
#      x y z
#    x 1.836640 0.075420 -0.039900 
#    y 0.075420 2.016040 -0.098180 
#    z -0.039900 -0.098180 1.885110 
# 
# From -- ./inp_files/177691.got.cif
#   From: 2010.05.17/outbox.cif.g08.bks.cpg/sg2_89_cif.got.tgz:177691.got - 2010.06.03 11:33:40.
