data_PCOD9088315
_publ_section_title
;
Structure prediction by ZEFSAII (Michael W. Deem and Ramdas Pophale) SiO2 
 PCOD9088315
Probable space group: P -1
;
_chemical_formula_sum "Si O2"
_cell_formula_units_Z 16
_cell_length_a 5.634048
_cell_length_b 11.239333
_cell_length_c 16.564092
_cell_angle_alpha 67.152175
_cell_angle_beta 128.701545
_cell_angle_gamma 81.071254
_cell_volume 628.308029
_symmetry_space_group_name_H-M "P -1"
_symmetry_group_IT_number 2
_symmetry_cell_setting 'triclinic'
loop_
_space_group_symop_operation_xyz
x,y,z
-x,-y,-z
loop_
_atom_site_type_symbol
_atom_site_label
_atom_site_fract_x
_atom_site_fract_y
_atom_site_fract_z
Si Si1 0.040347 0.735781 0.863251
Si Si2 0.944491 0.208105 0.325714
Si Si3 0.691960 0.000048 0.278636
Si Si4 0.315372 0.220809 0.555117
Si Si5 0.638133 0.814970 0.991983
Si Si6 0.678710 0.467763 0.879738
Si Si7 0.148824 0.749894 0.258368
Si Si8 0.822737 0.579856 0.318361
O O1 0.022314 0.718111 0.768807
O O2 0.314639 0.787478 0.932738
O O3 0.652753 0.879635 0.770573
O O4 0.186632 0.580902 0.987166
O O5 0.950116 0.060397 0.335887
O O6 0.541655 0.349308 0.233266
O O7 0.227731 0.169849 0.466343
O O8 0.504519 0.044832 0.139190
O O9 0.830113 0.834769 0.388700
O O10 0.729934 0.163477 0.678940
O O11 0.094193 0.405672 0.452524
O O12 0.971502 0.654465 0.066058
O O13 0.806422 0.837174 0.102098
O O14 0.380688 0.429468 0.801321
O O15 0.499031 0.667140 0.293079
O O16 0.054554 0.648100 0.320063
#
# Coordination Sequence:
#
# PCOD9088315 Si02
#       8
#     2   2   2   2   2   2   2   2
#     4  10  19  37  60  88 127 161 215 268 318 374
#     4  10  22  39  58  91 123 169 217 264 317 385
#     4  10  23  42  59  89 130 171 217 259 319 388
#     4  11  24  43  62  91 129 174 211 260 326 394
#     4   9  20  38  66  91 128 159 211 272 326 381
#     4   9  18  35  64  94 123 161 208 273 332 370
#     4  11  22  45  71 101 128 163 216 278 327 381
#     4  10  22  43  69 102 129 163 214 274 329 384
#
# _framework density 25.465218
#
# number of rings (size 3 to 8) (size 9 to 14) (size 15 to 20)
#    0.000    2.000    1.250    1.500    0.000    6.500 
#   18.000    0.625    0.000    0.000    0.000    0.000 
#    0.000    0.000    0.000    0.000    0.000    0.000 
#
# Total GULP energy -89516.787836 kJ/mol
# GULP energy per Si atom -5594.799240 kJ/mol
# Density = 2.540726 g / cm^3
# Si number density = 25.465218 Si / 1000 Ang^3
#
#
#
# Elastic Constant Matrix: (Units=GPa)
#
#
# Indices 1 2 3 4 5 6 
#
# 1 98.9284 52.9786 53.9081 -3.0137 -8.8373 6.6051
# 2 52.9786 121.3165 82.1670 31.6707 -17.9596 14.0895
# 3 53.9081 82.1670 171.8121 22.7587 -27.6299 -0.7045
# 4 -3.0137 31.6707 22.7587 57.4208 0.1853 -1.0836
# 5 -8.8373 -17.9596 -27.6299 0.1853 42.3124 -8.3481
# 6 6.6051 14.0895 -0.7045 -1.0836 -8.3481 37.9595
#
#
#
# Elastic Compliance Matrix: (Units=1/GPa)
#
#
# Indices 1 2 3 4 5 6 
#
# 1 0.014974 -0.006304 -0.002606 0.005291 -0.001364 -0.000463
# 2 -0.006304 0.017347 -0.004990 -0.008026 0.001783 -0.005271
# 3 -0.002606 -0.004990 0.009932 -0.001271 0.004508 0.003445
# 4 0.005291 -0.008026 -0.001271 0.022671 -0.002824 0.002061
# 5 -0.001364 0.001783 0.004508 -0.002824 0.028203 0.005781
# 6 -0.000463 -0.005271 0.003445 0.002061 0.005781 0.029775
#
#
# Mechanical properties :
#
#
# Convention : Reuss Voigt Hill
#
# Bulk Modulus (GPa) = 69.18504 85.57385 77.37944
# Shear Modulus (GPa) = 32.15050 41.07211 36.61131
#
# Velocity S-wave (km/s) = 3.55706 4.02041 3.79581
# Velocity P-wave (km/s) = 6.64061 7.43161 7.04721
#
# Compressibility (1/GPa) = 0.01445399
#
# Stress axis : x y z
#
# Youngs Moduli (GPa) = 66.78047 57.64789 100.68859
#
# Poissons Ratio (x) = 0.36341 0.26238
# Poissons Ratio (y) = 0.42098 0.50240
# Poissons Ratio (z) = 0.17402 0.28764
#
# Static dielectric constant tensor:
#      x y z
#    x 2.083170 0.001280 -0.019730 
#    y 0.001280 2.021960 -0.000930 
#    z -0.019730 -0.000930 1.968800 
# 
# From -- ./inp_files/367922.got.cif
#   From: 2010.05.17/outbox.cif.g08.bks.cpg/sg2_184_cif.got.tgz:367922.got - 2010.06.03 11:33:40.
