data_PCOD9088864
_publ_section_title
;
Structure prediction by ZEFSAII (Michael W. Deem and Ramdas Pophale) SiO2 
 PCOD9088864
Probable space group: P -1
;
_chemical_formula_sum "Si O2"
_cell_formula_units_Z 16
_cell_length_a 10.675007
_cell_length_b 12.342600
_cell_length_c 8.365167
_cell_angle_alpha 87.168135
_cell_angle_beta 120.562647
_cell_angle_gamma 130.921012
_cell_volume 645.376813
_symmetry_space_group_name_H-M "P -1"
_symmetry_group_IT_number 2
_symmetry_cell_setting 'triclinic'
loop_
_space_group_symop_operation_xyz
x,y,z
-x,-y,-z
loop_
_atom_site_type_symbol
_atom_site_label
_atom_site_fract_x
_atom_site_fract_y
_atom_site_fract_z
Si Si1 0.282526 0.191526 0.283878
Si Si2 0.855930 0.887990 0.149351
Si Si3 0.139234 0.673498 0.653681
Si Si4 0.682388 0.406680 0.710304
Si Si5 0.571057 0.315341 0.991256
Si Si6 0.449904 0.047802 0.311639
Si Si7 0.862996 0.657854 0.289681
Si Si8 0.101551 0.709820 0.120065
O O1 0.513884 0.361329 0.476995
O O2 0.344873 0.100164 0.301423
O O3 0.191964 0.182202 0.056611
O O4 0.079225 0.073056 0.278114
O O5 0.841760 0.774558 0.259403
O O6 0.649480 0.844795 0.065735
O O7 0.242816 0.673416 0.874540
O O8 0.345307 0.815886 0.671251
O O9 0.000000 0.500000 0.500000
O O10 0.976015 0.682659 0.525557
O O11 0.780457 0.339185 0.753155
O O12 0.545648 0.326133 0.789539
O O13 0.893279 0.585937 0.883370
O O14 0.657806 0.468824 0.133096
O O15 0.500000 0.000000 0.500000
O O16 0.265829 0.876865 0.123722
O O17 0.015838 0.710974 0.233110
#
# Coordination Sequence:
#
# PCOD9088864 Si02
#       8
#     2   2   2   2   2   2   2   2
#     4  11  22  37  65  92 120 166 213 264 305 371
#     4  11  22  38  64  93 120 164 224 254 301 375
#     4  10  20  35  61  95 123 158 207 262 315 361
#     4  10  22  40  60  94 132 165 196 265 338 364
#     4  10  22  38  60  88 132 166 199 255 325 384
#     4  12  18  35  68  94 115 159 221 264 295 364
#     4  10  19  37  63  92 120 162 213 266 300 366
#     4  10  20  36  65  91 122 160 212 258 317 370
#
# _framework density 24.791719000000001
#
# number of rings (size 3 to 8) (size 9 to 14) (size 15 to 20)
#    0.000    1.500    5.000    0.375    0.000    0.500 
#    0.000    3.125    2.750    0.000    0.000    0.000 
#    0.000    0.000    0.000    0.000    0.000    0.000 
#
# Total GULP energy -89389.850448 kJ/mol
# GULP energy per Si atom -5586.865653 kJ/mol
# Density = 2.473529 g / cm^3
# Si number density = 24.791719 Si / 1000 Ang^3
#
#
#
# Elastic Constant Matrix: (Units=GPa)
#
#
# Indices 1 2 3 4 5 6 
#
# 1 47.5769 1.8814 3.9357 10.9282 11.6845 17.0337
# 2 1.8814 79.9914 13.0747 13.1357 7.7536 26.0682
# 3 3.9357 13.0747 98.2683 9.4314 28.6577 1.3003
# 4 10.9282 13.1357 9.4314 43.7698 0.0567 21.9978
# 5 11.6845 7.7536 28.6577 0.0567 30.0303 0.8251
# 6 17.0337 26.0682 1.3003 21.9978 0.8251 40.8006
#
#
#
# Elastic Compliance Matrix: (Units=1/GPa)
#
#
# Indices 1 2 3 4 5 6 
#
# 1 0.030167 0.005445 0.003072 -0.002523 -0.015672 -0.014494
# 2 0.005445 0.017345 -0.000783 0.000350 -0.005482 -0.013408
# 3 0.003072 -0.000783 0.015060 -0.004498 -0.015396 0.001475
# 4 -0.002523 0.000350 -0.004498 0.032785 0.005584 -0.016816
# 5 -0.015672 -0.005482 -0.015396 0.005584 0.055319 0.006406
# 6 -0.014494 -0.013408 0.001475 -0.016816 0.006406 0.048016
#
#
# Mechanical properties :
#
#
# Convention : Reuss Voigt Hill
#
# Bulk Modulus (GPa) = 12.81430 29.29115 21.05272
# Shear Modulus (GPa) = 23.89635 36.71646 30.30640
#
# Velocity S-wave (km/s) = 3.10802 3.85255 3.50013
# Velocity P-wave (km/s) = 4.24967 5.62406 4.98446
#
# Compressibility (1/GPa) = 0.07803783
#
# Stress axis : x y z
#
# Youngs Moduli (GPa) = 33.14905 57.65459 66.40316
#
# Poissons Ratio (x) = -0.31394 -0.20396
# Poissons Ratio (y) = -0.18050 0.05202
# Poissons Ratio (z) = -0.10182 0.04516
#
# Static dielectric constant tensor:
#      x y z
#    x 1.956390 -0.014830 -0.016300 
#    y -0.014830 1.979170 0.030520 
#    z -0.016300 0.030520 2.071820 
# 
# From -- ./inp_files/270365.got.cif
#   From: 2010.05.17/outbox.cif.g08.bks.cpg/sg2_136_cif.got.tgz:270365.got - 2010.06.03 11:33:40.
