data_PCOD9088108
_publ_section_title
;
Structure prediction by ZEFSAII (Michael W. Deem and Ramdas Pophale) SiO2 
 PCOD9088108
Probable space group: P -1
;
_chemical_formula_sum "Si O2"
_cell_formula_units_Z 16
_cell_length_a 25.202666
_cell_length_b 20.264260
_cell_length_c 9.137777
_cell_angle_alpha 30.027674
_cell_angle_beta 24.440314
_cell_angle_gamma 17.188061
_cell_volume 570.288336
_symmetry_space_group_name_H-M "P -1"
_symmetry_group_IT_number 2
_symmetry_cell_setting 'triclinic'
loop_
_space_group_symop_operation_xyz
x,y,z
-x,-y,-z
loop_
_atom_site_type_symbol
_atom_site_label
_atom_site_fract_x
_atom_site_fract_y
_atom_site_fract_z
Si Si1 0.950788 0.763927 0.796801
Si Si2 0.997406 0.562806 0.624785
Si Si3 0.089545 0.038947 0.090111
Si Si4 0.364010 0.207571 0.154823
Si Si5 0.700016 0.469042 0.397134
Si Si6 0.552175 0.127945 0.321477
Si Si7 0.938385 0.899694 0.273126
Si Si8 0.417268 0.516743 0.833240
O O1 0.171378 0.632865 0.576609
O O2 0.858206 0.923670 0.587885
O O3 0.005119 0.564754 0.019881
O O4 0.753971 0.935544 0.075778
O O5 0.226051 0.355191 0.362983
O O6 0.962831 0.730908 0.464734
O O7 0.807457 0.697461 0.721352
O O8 0.901325 0.301638 0.096356
O O9 0.000000 0.000000 0.500000
O O10 0.108701 0.981999 0.984695
O O11 0.321350 0.906747 0.797954
O O12 0.522316 0.954494 0.281207
O O13 0.443731 0.281062 0.751253
O O14 0.558554 0.463794 0.709356
O O15 0.414309 0.360376 0.153521
O O16 0.173478 0.764458 0.983378
O O17 0.500000 0.500000 0.500000
#
# Coordination Sequence:
#
# PCOD9088108 Si02
#       8
#     2   2   2   2   2   2   2   2
#     4   9  22  35  61  90 121 152 198 252 294 350
#     4   9  15  32  58  90 117 149 201 242 295 345
#     4  11  18  34  62  82 110 155 210 236 270 350
#     4   9  15  32  62  90 104 154 209 250 268 345
#     4  10  19  37  59  83 124 157 200 237 301 354
#     4  10  20  38  63  90 113 153 209 244 288 351
#     4  12  21  36  60  93 123 152 193 250 309 348
#     4  12  23  38  61  87 121 159 198 243 301 360
#
# _framework density 28.055982
#
# number of rings (size 3 to 8) (size 9 to 14) (size 15 to 20)
#    0.000    1.750    5.000    1.875    0.000    0.500 
#    0.000   11.250    2.750    3.000    0.000    1.750 
#    0.000    0.000    0.000    0.000    0.000    0.000 
#
# Total GULP energy -89488.485586 kJ/mol
# GULP energy per Si atom -5593.030349 kJ/mol
# Density = 2.799213 g / cm^3
# Si number density = 28.055982 Si / 1000 Ang^3
#
#
#
# Elastic Constant Matrix: (Units=GPa)
#
#
# Indices 1 2 3 4 5 6 
#
# 1 129.5682 -3.2841 32.7433 -3.5350 20.7763 -8.8604
# 2 -3.2841 69.1563 28.6928 -29.5009 16.3575 -4.6141
# 3 32.7433 28.6928 140.9113 -51.1313 14.0155 5.6004
# 4 -3.5350 -29.5009 -51.1313 63.4735 -0.3833 -2.2624
# 5 20.7763 16.3575 14.0155 -0.3833 41.2780 -2.9034
# 6 -8.8604 -4.6141 5.6004 -2.2624 -2.9034 25.9076
#
#
#
# Elastic Compliance Matrix: (Units=1/GPa)
#
#
# Indices 1 2 3 4 5 6 
#
# 1 0.009428 0.002829 -0.002451 -0.000031 -0.004773 0.003720
# 2 0.002829 0.021551 -0.000822 0.009627 -0.009259 0.004786
# 3 -0.002451 -0.000822 0.011243 0.008419 -0.002387 -0.002947
# 4 -0.000031 0.009627 0.008419 0.027026 -0.006299 0.001538
# 5 -0.004773 -0.009259 -0.002387 -0.006299 0.031061 0.000166
# 6 0.003720 0.004786 -0.002947 0.001538 0.000166 0.041513
#
#
# Mechanical properties :
#
#
# Convention : Reuss Voigt Hill
#
# Bulk Modulus (GPa) = 24.19349 50.65998 37.42674
# Shear Modulus (GPa) = 31.95115 44.89740 38.42427
#
# Velocity S-wave (km/s) = 3.37832 4.00469 3.70477
# Velocity P-wave (km/s) = 4.88461 6.28326 5.62756
#
# Compressibility (1/GPa) = 0.04133343
#
# Stress axis : x y z
#
# Youngs Moduli (GPa) = 106.06798 46.40122 88.94380
#
# Poissons Ratio (x) = -0.13125 0.21801
# Poissons Ratio (y) = -0.30001 0.07309
# Poissons Ratio (z) = 0.25999 0.03813
#
# Static dielectric constant tensor:
#      x y z
#    x 2.166460 0.011690 -0.034000 
#    y 0.011690 2.281370 -0.121110 
#    z -0.034000 -0.121110 2.250070 
# 
# From -- ./inp_files/355242.got.cif
#   From: 2010.05.17/outbox.cif.g08.bks.cpg/sg2_178_cif.got.tgz:355242.got - 2010.06.03 11:33:40.
