data_PCOD9088137
_publ_section_title
;
Structure prediction by ZEFSAII (Michael W. Deem and Ramdas Pophale) SiO2 
 PCOD9088137
Probable space group: P -1
;
_chemical_formula_sum "Si O2"
_cell_formula_units_Z 12
_cell_length_a 14.991708
_cell_length_b 8.958275
_cell_length_c 9.405050
_cell_angle_alpha 133.070584
_cell_angle_beta 43.273785
_cell_angle_gamma 117.095070
_cell_volume 630.301927
_symmetry_space_group_name_H-M "P -1"
_symmetry_group_IT_number 2
_symmetry_cell_setting 'triclinic'
loop_
_space_group_symop_operation_xyz
x,y,z
-x,-y,-z
loop_
_atom_site_type_symbol
_atom_site_label
_atom_site_fract_x
_atom_site_fract_y
_atom_site_fract_z
Si Si1 0.640172 0.590300 0.622541
Si Si2 0.392905 0.730988 0.172267
Si Si3 0.493619 0.762418 0.382260
Si Si4 0.051071 0.224833 0.104607
Si Si5 0.184748 0.441756 0.334759
Si Si6 0.708312 0.790452 0.379961
O O1 0.627475 0.344004 0.476681
O O2 0.734305 0.640043 0.675149
O O3 0.685695 0.676309 0.478370
O O4 0.493609 0.682524 0.895326
O O5 0.479764 0.695897 0.191903
O O6 0.276328 0.583126 0.228344
O O7 0.331327 0.965765 0.394885
O O8 0.611902 0.714483 0.321728
O O9 0.500000 0.000000 0.500000
O O10 0.134174 0.265382 0.178125
O O11 0.933758 0.402513 0.368852
O O12 0.147264 0.247891 0.875595
O O13 0.000000 0.000000 0.000000
#
# Coordination Sequence:
#
# PCOD9088137 Si02
#       6
#     2   2   2   2   2   2
#     4  11  21  36  57  91 126 145 188 252 299 347
#     4  10  19  37  59  86 119 154 195 235 294 357
#     4   9  19  34  58  84 114 157 195 231 286 357
#     4  11  22  41  65  81 113 159 210 239 276 360
#     4  10  22  40  64  85 111 159 202 241 290 344
#     4  11  21  35  59  90 121 155 190 243 302 337
#
# _framework density 19.038492999999999
#
# number of rings (size 3 to 8) (size 9 to 14) (size 15 to 20)
#    0.000    1.667    1.667    5.000    0.000    0.667 
#    0.000    0.833    0.000    0.000    0.000    0.000 
#    0.000    0.000    0.000    0.000    0.000    0.000 
#
# Total GULP energy -66861.415988 kJ/mol
# GULP energy per Si atom -5571.784666 kJ/mol
# Density = 1.899516 g / cm^3
# Si number density = 19.038493 Si / 1000 Ang^3
#
#
#
# Elastic Constant Matrix: (Units=GPa)
#
#
# Indices 1 2 3 4 5 6 
#
# 1 84.6048 71.7740 53.2891 -10.2662 5.8938 8.8108
# 2 71.7740 143.6838 74.4708 -10.4332 27.1672 4.3599
# 3 53.2891 74.4708 135.5523 -21.0282 7.1899 -1.7797
# 4 -10.2662 -10.4332 -21.0282 45.0529 4.5553 11.8944
# 5 5.8938 27.1672 7.1899 4.5553 20.4734 1.2663
# 6 8.8108 4.3599 -1.7797 11.8944 1.2663 36.9237
#
#
#
# Elastic Compliance Matrix: (Units=1/GPa)
#
#
# Indices 1 2 3 4 5 6 
#
# 1 0.024059 -0.011962 -0.003243 0.001591 0.010062 -0.005343
# 2 -0.011962 0.019392 -0.004576 0.001616 -0.021075 0.000546
# 3 -0.003243 -0.004576 0.011551 0.003166 0.002196 0.000776
# 4 0.001591 0.001616 0.003166 0.027739 -0.009328 -0.009034
# 5 0.010062 -0.021075 0.002196 -0.009328 0.075179 0.000620
# 6 -0.005343 0.000546 0.000776 -0.009034 0.000620 0.031219
#
#
# Mechanical properties :
#
#
# Convention : Reuss Voigt Hill
#
# Bulk Modulus (GPa) = 64.76618 84.76764 74.76691
# Shear Modulus (GPa) = 21.38146 31.44377 26.41261
#
# Velocity S-wave (km/s) = 3.35485 4.06838 3.72872
# Velocity P-wave (km/s) = 7.00707 8.16639 7.60885
#
# Compressibility (1/GPa) = 0.01544016
#
# Stress axis : x y z
#
# Youngs Moduli (GPa) = 41.56468 51.56727 86.57381
#
# Poissons Ratio (x) = 0.61684 0.28080
# Poissons Ratio (y) = 0.49719 0.39612
# Poissons Ratio (z) = 0.13481 0.23595
#
# Static dielectric constant tensor:
#      x y z
#    x 1.650900 0.084170 -0.052640 
#    y 0.084170 1.509040 0.164120 
#    z -0.052640 0.164120 1.642770 
# 
# From -- ./inp_files/161813.got.cif
#   From: 2010.05.17/outbox.cif.g08.bks.cpg/sg2_81_cif.got.tgz:161813.got - 2010.06.03 11:33:40.
