data_PCOD9088810
_publ_section_title
;
Structure prediction by ZEFSAII (Michael W. Deem and Ramdas Pophale) SiO2 
 PCOD9088810
Probable space group: P -1
;
_chemical_formula_sum "Si O2"
_cell_formula_units_Z 16
_cell_length_a 14.211400
_cell_length_b 8.093509
_cell_length_c 8.458628
_cell_angle_alpha 57.629912
_cell_angle_beta 79.167721
_cell_angle_gamma 61.933265
_cell_volume 722.418329
_symmetry_space_group_name_H-M "P -1"
_symmetry_group_IT_number 2
_symmetry_cell_setting 'triclinic'
loop_
_space_group_symop_operation_xyz
x,y,z
-x,-y,-z
loop_
_atom_site_type_symbol
_atom_site_label
_atom_site_fract_x
_atom_site_fract_y
_atom_site_fract_z
Si Si1 0.471373 0.735157 0.455671
Si Si2 0.592422 0.293596 0.154453
Si Si3 0.875161 0.065841 0.529688
Si Si4 0.858164 0.440611 0.555327
Si Si5 0.731070 0.980995 0.831496
Si Si6 0.601590 0.901953 0.140095
Si Si7 0.774049 0.253366 0.933084
Si Si8 0.889272 0.858049 0.308419
O O1 0.500000 0.500000 0.500000
O O2 0.443901 0.735364 0.646624
O O3 0.363800 0.919825 0.316338
O O4 0.573204 0.764446 0.347263
O O5 0.607464 0.086001 0.153904
O O6 0.500000 0.500000 0.000000
O O7 0.695574 0.335167 0.065174
O O8 0.828307 0.310087 0.494157
O O9 0.842789 0.924866 0.737496
O O10 0.841088 0.008664 0.401485
O O11 0.000000 0.000000 0.500000
O O12 0.806324 0.421769 0.748383
O O13 0.840948 0.683527 0.395092
O O14 0.985101 0.290120 0.623464
O O15 0.718230 0.180212 0.848412
O O16 0.705176 0.819602 0.034485
O O17 0.500000 0.000000 0.000000
O O18 0.868032 0.023325 0.084180
#
# Coordination Sequence:
#
# PCOD9088810 Si02
#       8
#     2   2   2   2   2   2   2   2
#     4  11  21  38  59  82 116 156 194 246 301 357
#     4  11  22  39  58  86 118 151 201 246 300 362
#     4   9  18  36  60  85 121 157 192 248 299 358
#     4   9  20  38  60  89 122 158 197 253 309 356
#     4   9  19  37  55  83 117 148 197 241 296 354
#     4   9  19  37  57  81 113 151 194 241 297 349
#     4  10  20  38  58  88 118 155 200 251 301 361
#     4  10  19  37  63  89 119 159 205 245 306 370
#
# _framework density 22.147831
#
# number of rings (size 3 to 8) (size 9 to 14) (size 15 to 20)
#    0.000    2.250    0.000    3.750    0.000    0.000 
#   22.500    2.500    0.000   12.750    0.000    0.000 
#    0.000    0.000    0.000    0.000    0.000    0.000 
#
# Total GULP energy -89112.269698 kJ/mol
# GULP energy per Si atom -5569.516856 kJ/mol
# Density = 2.209742 g / cm^3
# Si number density = 22.147831 Si / 1000 Ang^3
#
#
#
# Elastic Constant Matrix: (Units=GPa)
#
#
# Indices 1 2 3 4 5 6 
#
# 1 49.5565 23.2034 44.2476 12.5565 -27.3316 -10.5005
# 2 23.2034 57.0830 39.6917 14.3072 -8.6440 7.7934
# 3 44.2476 39.6917 148.5950 34.1463 -23.9147 -7.6939
# 4 12.5565 14.3072 34.1463 39.5361 -8.9898 -1.4463
# 5 -27.3316 -8.6440 -23.9147 -8.9898 50.6142 5.3107
# 6 -10.5005 7.7934 -7.6939 -1.4463 5.3107 32.1047
#
#
#
# Elastic Compliance Matrix: (Units=1/GPa)
#
#
# Indices 1 2 3 4 5 6 
#
# 1 0.044037 -0.012792 -0.006356 0.000550 0.017310 0.013147
# 2 -0.012792 0.027293 -0.003764 -0.003775 -0.003510 -0.011301
# 3 -0.006356 -0.003764 0.011101 -0.006175 -0.000055 0.001226
# 4 0.000550 -0.003775 -0.006175 0.032392 0.002417 0.000676
# 5 0.017310 -0.003510 -0.000055 0.002417 0.028714 0.001860
# 6 0.013147 -0.011301 0.001226 0.000676 0.001860 0.038208
#
#
# Mechanical properties :
#
#
# Convention : Reuss Voigt Hill
#
# Bulk Modulus (GPa) = 27.31683 52.16886 39.74285
# Shear Modulus (GPa) = 20.85329 34.32380 27.58855
#
# Velocity S-wave (km/s) = 3.07180 3.94097 3.53321
# Velocity P-wave (km/s) = 4.99419 6.65690 5.88456
#
# Compressibility (1/GPa) = 0.03660747
#
# Stress axis : x y z
#
# Youngs Moduli (GPa) = 22.70821 36.63982 90.08094
#
# Poissons Ratio (x) = 0.46871 0.57252
# Poissons Ratio (y) = 0.29049 0.33902
# Poissons Ratio (z) = 0.14433 0.13790
#
# Static dielectric constant tensor:
#      x y z
#    x 1.895610 -0.015830 -0.079660 
#    y -0.015830 1.802320 0.042400 
#    z -0.079660 0.042400 1.839180 
# 
# From -- ./inp_files/326630.got.cif
#   From: 2010.05.17/outbox.cif.g08.bks.cpg/sg2_164_cif.got.tgz:326630.got - 2010.06.03 11:33:40.
