data_PCOD9088758
_publ_section_title
;
Structure prediction by ZEFSAII (Michael W. Deem and Ramdas Pophale) SiO2 
 PCOD9088758
Probable space group: P -1
;
_chemical_formula_sum "Si O2"
_cell_formula_units_Z 16
_cell_length_a 10.550857
_cell_length_b 12.833196
_cell_length_c 16.021406
_cell_angle_alpha 142.097204
_cell_angle_beta 144.842197
_cell_angle_gamma 62.815567
_cell_volume 649.703660
_symmetry_space_group_name_H-M "P -1"
_symmetry_group_IT_number 2
_symmetry_cell_setting 'triclinic'
loop_
_space_group_symop_operation_xyz
x,y,z
-x,-y,-z
loop_
_atom_site_type_symbol
_atom_site_label
_atom_site_fract_x
_atom_site_fract_y
_atom_site_fract_z
Si Si1 0.347498 0.145629 0.445054
Si Si2 0.729686 0.235001 0.129807
Si Si3 0.462497 0.132814 0.682290
Si Si4 0.641886 0.684918 0.124784
Si Si5 0.236892 0.632147 0.589979
Si Si6 0.011476 0.464201 0.779182
Si Si7 0.452641 0.536770 0.389327
Si Si8 0.823026 0.906805 0.927414
O O1 0.394309 0.196286 0.599185
O O2 0.442738 0.335457 0.558537
O O3 0.042977 0.980486 0.162946
O O4 0.517831 0.055600 0.448147
O O5 0.726615 0.230226 0.225457
O O6 0.673798 0.023763 0.932530
O O7 0.017137 0.408980 0.363866
O O8 0.540635 0.303630 0.035456
O O9 0.282484 0.126426 0.655401
O O10 0.756027 0.310191 0.975880
O O11 0.862696 0.652901 0.188351
O O12 0.500000 0.500000 0.000000
O O13 0.123300 0.647345 0.450512
O O14 0.502741 0.642881 0.718138
O O15 0.818883 0.488128 0.749948
O O16 0.647282 0.679782 0.658277
O O17 0.000000 0.000000 0.000000
#
# Coordination Sequence:
#
# PCOD9088758 Si02
#       8
#     2   2   2   2   2   2   2   2
#     4  10  21  36  63  90 114 162 203 255 287 362
#     4  11  21  36  62  92 114 153 215 254 286 344
#     4  10  21  38  60  90 122 153 210 247 298 348
#     4  10  20  35  59  83 119 157 198 243 296 350
#     4  11  22  36  62  91 119 154 207 258 290 350
#     4  11  24  39  61  89 129 160 190 251 311 367
#     4  11  23  39  63  89 125 160 203 240 318 359
#     4  10  19  37  63  85 116 156 209 245 293 353
#
# _framework density 24.626612000000002
#
# number of rings (size 3 to 8) (size 9 to 14) (size 15 to 20)
#    0.000    1.500    5.000    2.625    5.250    0.500 
#    0.000    3.125    2.750    0.000    0.000    0.000 
#    0.000    0.000    0.000    0.000    0.000    0.000 
#
# Total GULP energy -89462.659967 kJ/mol
# GULP energy per Si atom -5591.416248 kJ/mol
# Density = 2.457056 g / cm^3
# Si number density = 24.626612 Si / 1000 Ang^3
#
#
#
# Elastic Constant Matrix: (Units=GPa)
#
#
# Indices 1 2 3 4 5 6 
#
# 1 60.7301 21.8191 26.5871 -11.5821 -0.5167 -25.3271
# 2 21.8191 101.2060 25.7162 -18.7070 3.5976 -22.9864
# 3 26.5871 25.7162 60.8489 -8.9626 -12.5005 1.9215
# 4 -11.5821 -18.7070 -8.9626 40.1096 3.9663 3.1660
# 5 -0.5167 3.5976 -12.5005 3.9663 36.4653 -5.1562
# 6 -25.3271 -22.9864 1.9215 3.1660 -5.1562 43.5145
#
#
#
# Elastic Compliance Matrix: (Units=1/GPa)
#
#
# Indices 1 2 3 4 5 6 
#
# 1 0.031413 0.002712 -0.015251 0.005664 -0.002890 0.019635
# 2 0.002712 0.014246 -0.007348 0.005424 -0.003253 0.008648
# 3 -0.015251 -0.007348 0.028153 -0.001361 0.008484 -0.012897
# 4 0.005664 0.005424 -0.001361 0.028850 -0.003536 0.003704
# 5 -0.002890 -0.003253 0.008484 -0.003536 0.031019 0.000157
# 6 0.019635 0.008648 -0.012897 0.003704 0.000157 0.039297
#
#
# Mechanical properties :
#
#
# Convention : Reuss Voigt Hill
#
# Bulk Modulus (GPa) = 29.37916 41.22555 35.30235
# Shear Modulus (GPa) = 22.31166 33.92870 28.12018
#
# Velocity S-wave (km/s) = 3.01325 3.71580 3.38281
# Velocity P-wave (km/s) = 4.90530 5.93179 5.44280
#
# Compressibility (1/GPa) = 0.03403773
#
# Stress axis : x y z
#
# Youngs Moduli (GPa) = 31.83379 70.19630 35.51983
#
# Poissons Ratio (x) = -0.19039 0.54173
# Poissons Ratio (y) = -0.08634 0.26100
# Poissons Ratio (z) = 0.48551 0.51581
#
# Static dielectric constant tensor:
#      x y z
#    x 2.005750 0.049480 0.071830 
#    y 0.049480 2.041340 0.042500 
#    z 0.071830 0.042500 2.020860 
# 
# From -- ./inp_files/504565.got.cif
#   From: 2010.05.17/outbox.cif.g08.bks.cpg/sg2_253_cif.got.tgz:504565.got - 2010.06.03 11:33:40.
