data_PCOD9088587
_publ_section_title
;
Structure prediction by ZEFSAII (Michael W. Deem and Ramdas Pophale) SiO2 
 PCOD9088587
Probable space group: P -1
;
_chemical_formula_sum "Si O2"
_cell_formula_units_Z 16
_cell_length_a 9.212979
_cell_length_b 7.953056
_cell_length_c 19.277432
_cell_angle_alpha 41.009775
_cell_angle_beta 84.285451
_cell_angle_gamma 66.847601
_cell_volume 805.441499
_symmetry_space_group_name_H-M "P -1"
_symmetry_group_IT_number 2
_symmetry_cell_setting 'triclinic'
loop_
_space_group_symop_operation_xyz
x,y,z
-x,-y,-z
loop_
_atom_site_type_symbol
_atom_site_label
_atom_site_fract_x
_atom_site_fract_y
_atom_site_fract_z
Si Si1 0.529962 0.057016 0.759770
Si Si2 0.438507 0.422582 0.454179
Si Si3 0.840488 0.746328 0.250218
Si Si4 0.923885 0.155149 0.883062
Si Si5 0.048918 0.801881 0.343487
Si Si6 0.138924 0.183567 0.114460
Si Si7 0.993873 0.106178 0.388594
Si Si8 0.682167 0.852584 0.667421
O O1 0.524943 0.374877 0.663742
O O2 0.354174 0.089293 0.777057
O O3 0.689177 0.835913 0.864956
O O4 0.580616 0.939476 0.716258
O O5 0.500000 0.500000 0.500000
O O6 0.239771 0.543682 0.426226
O O7 0.545671 0.071279 0.550585
O O8 0.880747 0.454499 0.295543
O O9 0.913609 0.910895 0.149276
O O10 0.945127 0.693895 0.333520
O O11 0.795074 0.501778 0.772747
O O12 0.829025 0.010078 0.894654
O O13 0.000000 0.000000 0.000000
O O14 0.076228 0.044635 0.222331
O O15 0.958095 0.945537 0.376146
O O16 0.000000 0.500000 0.000000
O O17 0.176910 0.049440 0.375826
O O18 0.000000 0.000000 0.500000
#
# Coordination Sequence:
#
# PCOD9088587 Si02
#       8
#     2   2   2   2   2   2   2   2
#     4  10  19  39  62  90 124 158 206 250 306 370
#     4   9  16  33  64  81 118 168 200 241 302 364
#     4  10  24  39  61  94 124 159 210 258 306 373
#     4  10  22  40  62  92 122 157 210 261 309 371
#     4  10  21  41  60  91 125 167 209 249 313 379
#     4  10  20  39  70  88 113 171 207 247 319 373
#     4  11  21  37  61  90 128 166 205 252 308 364
#     4  10  19  37  62  85 123 164 200 257 306 359
#
# _framework density 19.864881
#
# number of rings (size 3 to 8) (size 9 to 14) (size 15 to 20)
#    0.000    2.000    3.750    1.500    3.500    0.500 
#    2.250   16.250    0.000    0.000    0.000    0.000 
#    0.000    0.000    0.000    0.000    0.000    0.000 
#
# Total GULP energy -89086.817861 kJ/mol
# GULP energy per Si atom -5567.926116 kJ/mol
# Density = 1.981967 g / cm^3
# Si number density = 19.864881 Si / 1000 Ang^3
#
#
#
# Elastic Constant Matrix: (Units=GPa)
#
#
# Indices 1 2 3 4 5 6 
#
# 1 87.3816 36.6333 31.4835 -7.4476 25.0498 -19.9408
# 2 36.6333 85.5798 28.6954 4.3458 9.8477 -8.7288
# 3 31.4835 28.6954 99.8666 -13.7090 29.3290 0.1191
# 4 -7.4476 4.3458 -13.7090 34.9886 -3.1745 6.4803
# 5 25.0498 9.8477 29.3290 -3.1745 24.5685 -0.5578
# 6 -19.9408 -8.7288 0.1191 6.4803 -0.5578 32.8586
#
#
#
# Elastic Compliance Matrix: (Units=1/GPa)
#
#
# Indices 1 2 3 4 5 6 
#
# 1 0.022642 -0.006646 0.001380 0.002161 -0.021536 0.011178
# 2 -0.006646 0.015881 -0.004765 -0.004994 0.005484 0.001281
# 3 0.001380 -0.004765 0.017632 0.006387 -0.019768 -0.002088
# 4 0.002161 -0.004994 0.006387 0.033054 -0.003707 -0.006620
# 5 -0.021536 0.005484 -0.019768 -0.003707 0.083368 -0.009395
# 6 0.011178 0.001281 -0.002088 -0.006620 -0.009395 0.038711
#
#
# Mechanical properties :
#
#
# Convention : Reuss Voigt Hill
#
# Bulk Modulus (GPa) = 27.70740 51.82806 39.76773
# Shear Modulus (GPa) = 20.54377 30.21751 25.38064
#
# Velocity S-wave (km/s) = 3.21935 3.90443 3.57832
# Velocity P-wave (km/s) = 5.27230 6.81711 6.09386
#
# Compressibility (1/GPa) = 0.03609144
#
# Stress axis : x y z
#
# Youngs Moduli (GPa) = 44.16553 62.96769 56.71375
#
# Poissons Ratio (x) = 0.41850 -0.07825
# Poissons Ratio (y) = 0.29354 0.27027
# Poissons Ratio (z) = -0.06093 0.30007
#
# Static dielectric constant tensor:
#      x y z
#    x 1.708650 0.050840 0.042100 
#    y 0.050840 1.769360 -0.057480 
#    z 0.042100 -0.057480 1.662740 
# 
# From -- ./inp_files/222490.got.cif
#   From: 2010.05.17/outbox.cif.g08.bks.cpg/sg2_112_cif.got.tgz:222490.got - 2010.06.03 11:33:40.
