data_PCOD9088500
_publ_section_title
;
Structure prediction by ZEFSAII (Michael W. Deem and Ramdas Pophale) SiO2 
 PCOD9088500
Probable space group: P -1
;
_chemical_formula_sum "Si O2"
_cell_formula_units_Z 14
_cell_length_a 9.009832
_cell_length_b 11.929452
_cell_length_c 17.340413
_cell_angle_alpha 147.476234
_cell_angle_beta 58.860845
_cell_angle_gamma 140.783613
_cell_volume 580.528667
_symmetry_space_group_name_H-M "P -1"
_symmetry_group_IT_number 2
_symmetry_cell_setting 'triclinic'
loop_
_space_group_symop_operation_xyz
x,y,z
-x,-y,-z
loop_
_atom_site_type_symbol
_atom_site_label
_atom_site_fract_x
_atom_site_fract_y
_atom_site_fract_z
Si Si1 0.860337 0.929563 0.673599
Si Si2 0.649242 0.172391 0.802796
Si Si3 0.114518 0.262491 0.009580
Si Si4 0.428856 0.035662 0.458433
Si Si5 0.402181 0.453892 0.895462
Si Si6 0.877518 0.681923 0.384830
Si Si7 0.612613 0.669738 0.756842
O O1 0.746943 0.045848 0.739444
O O2 0.172277 0.219286 0.760772
O O3 0.782225 0.674449 0.489559
O O4 0.754686 0.797490 0.710191
O O5 0.487131 0.983979 0.659104
O O6 0.888449 0.519844 0.907575
O O7 0.538910 0.246134 0.934874
O O8 0.258381 0.256174 0.899385
O O9 0.333175 0.439058 0.118296
O O10 0.828375 0.939802 0.914183
O O11 0.119437 0.751778 0.372849
O O12 0.500000 0.000000 0.500000
O O13 0.525445 0.358965 0.618034
O O14 0.639809 0.414939 0.239937
O O15 0.000000 0.000000 0.500000
#
# Coordination Sequence:
#
# PCOD9088500 Si02
#       7
#     2   2   2   2   2   2   2
#     4  11  19  36  67  93 114 159 201 251 284 356
#     4  10  19  37  61  90 119 157 199 239 297 361
#     4   8  18  36  57  86 124 150 190 250 292 345
#     4  11  25  42  60  83 124 166 196 240 305 367
#     4   8  18  33  60  88 125 153 191 244 309 334
#     4  10  21  39  59  84 125 162 189 235 316 354
#     4  10  21  40  62  89 117 155 206 251 291 342
#
# _framework density 24.115949000000001
#
# number of rings (size 3 to 8) (size 9 to 14) (size 15 to 20)
#    0.857    1.429    2.857    0.857    2.000    0.000 
#    2.571    2.857    0.000    0.000    0.000    0.000 
#    0.000    0.000    0.000    0.000    0.000    0.000 
#
# Total GULP energy -78009.618610 kJ/mol
# GULP energy per Si atom -5572.115615 kJ/mol
# Density = 2.406106 g / cm^3
# Si number density = 24.115949 Si / 1000 Ang^3
#
#
#
# Elastic Constant Matrix: (Units=GPa)
#
#
# Indices 1 2 3 4 5 6 
#
# 1 160.6181 37.9653 47.0060 17.9947 24.7757 1.3148
# 2 37.9653 77.2817 11.4274 2.7280 0.7049 -17.2091
# 3 47.0060 11.4274 66.8761 14.3016 16.0196 6.1068
# 4 17.9947 2.7280 14.3016 24.3401 6.0687 2.5996
# 5 24.7757 0.7049 16.0196 6.0687 45.8381 8.2673
# 6 1.3148 -17.2091 6.1068 2.5996 8.2673 38.1971
#
#
#
# Elastic Compliance Matrix: (Units=1/GPa)
#
#
# Indices 1 2 3 4 5 6 
#
# 1 0.009223 -0.003857 -0.004445 -0.003001 -0.002882 -0.000516
# 2 -0.003857 0.016672 -0.001159 0.000658 0.000772 0.007617
# 3 -0.004445 -0.001159 0.020991 -0.007798 -0.003442 -0.002450
# 4 -0.003001 0.000658 -0.007798 0.048405 -0.001846 -0.001248
# 5 -0.002882 0.000772 -0.003442 -0.001846 0.025606 -0.004419
# 6 -0.000516 0.007617 -0.002450 -0.001248 -0.004419 0.031063
#
#
# Mechanical properties :
#
#
# Convention : Reuss Voigt Hill
#
# Bulk Modulus (GPa) = 35.75890 55.28593 45.52242
# Shear Modulus (GPa) = 27.74663 35.56688 31.65675
#
# Velocity S-wave (km/s) = 3.39566 3.84452 3.62704
# Velocity P-wave (km/s) = 5.49855 6.53314 6.03804
#
# Compressibility (1/GPa) = 0.02796506
#
# Stress axis : x y z
#
# Youngs Moduli (GPa) = 108.42108 59.98205 47.63988
#
# Poissons Ratio (x) = 0.23133 0.21174
# Poissons Ratio (y) = 0.41814 0.05523
# Poissons Ratio (z) = 0.48188 0.06953
#
# Static dielectric constant tensor:
#      x y z
#    x 1.995960 0.031970 0.021870 
#    y 0.031970 2.032280 -0.081720 
#    z 0.021870 -0.081720 2.007910 
# 
# From -- ./inp_files/589218.got.cif
#   From: 2010.05.17/outbox.cif.g08.bks.cpg/sg2_295_cif.got.tgz:589218.got - 2010.06.03 11:33:40.
