data_PCOD9088280
_publ_section_title
;
Structure prediction by ZEFSAII (Michael W. Deem and Ramdas Pophale) SiO2 
 PCOD9088280
Probable space group: P -1
;
_chemical_formula_sum "Si O2"
_cell_formula_units_Z 16
_cell_length_a 6.175034
_cell_length_b 11.002810
_cell_length_c 13.586662
_cell_angle_alpha 102.869704
_cell_angle_beta 61.140327
_cell_angle_gamma 121.573246
_cell_volume 688.235463
_symmetry_space_group_name_H-M "P -1"
_symmetry_group_IT_number 2
_symmetry_cell_setting 'triclinic'
loop_
_space_group_symop_operation_xyz
x,y,z
-x,-y,-z
loop_
_atom_site_type_symbol
_atom_site_label
_atom_site_fract_x
_atom_site_fract_y
_atom_site_fract_z
Si Si1 0.825727 0.048894 0.913064
Si Si2 0.425876 0.368863 0.645823
Si Si3 0.600044 0.132947 0.576000
Si Si4 0.783243 0.477535 0.404302
Si Si5 0.214045 0.233621 0.390383
Si Si6 0.630177 0.990717 0.735608
Si Si7 0.716155 0.581943 0.773945
Si Si8 0.981495 0.809103 0.908665
O O1 0.822338 0.073832 0.802108
O O2 0.014815 0.173569 0.970911
O O3 0.892478 0.921282 0.902145
O O4 0.500000 0.000000 0.000000
O O5 0.437202 0.223283 0.617526
O O6 0.706658 0.470448 0.534989
O O7 0.195378 0.388953 0.638066
O O8 0.453000 0.440798 0.759701
O O9 0.576868 0.083209 0.684120
O O10 0.929263 0.223519 0.492171
O O11 0.500000 0.000000 0.500000
O O12 0.498647 0.340109 0.403169
O O13 0.034793 0.452224 0.312939
O O14 0.250578 0.290010 0.281095
O O15 0.208113 0.083341 0.364940
O O16 0.312455 0.868618 0.816125
O O17 0.777048 0.652539 0.880996
#
# Coordination Sequence:
#
# PCOD9088280 Si02
#       8
#     2   2   2   2   2   2   2   2
#     4   9  20  35  59  88 112 139 184 237 293 340
#     4  10  23  34  52  80 108 155 196 233 278 322
#     4  12  25  39  52  79 124 162 193 225 271 345
#     4  10  20  36  56  75 113 148 194 246 270 318
#     4  11  21  35  56  83 112 156 194 221 281 330
#     4  11  21  36  55  83 120 154 186 225 281 345
#     4  11  19  35  59  81 113 141 191 246 278 328
#     4  10  19  37  60  87 112 140 186 242 293 329
#
# _framework density 23.247855999999999
#
# number of rings (size 3 to 8) (size 9 to 14) (size 15 to 20)
#    0.000    1.500    3.750    2.250    3.500    0.000 
#    0.000    0.000    0.000    0.750    0.000    8.750 
#    0.000    0.000    0.000    0.000    0.000    0.000 
#
# Total GULP energy -89336.370552 kJ/mol
# GULP energy per Si atom -5583.523160 kJ/mol
# Density = 2.319494 g / cm^3
# Si number density = 23.247856 Si / 1000 Ang^3
#
#
#
# Elastic Constant Matrix: (Units=GPa)
#
#
# Indices 1 2 3 4 5 6 
#
# 1 106.3076 36.6267 35.8761 17.0877 16.8272 -14.3591
# 2 36.6267 83.0866 43.2276 26.3625 24.9525 -10.9081
# 3 35.8761 43.2276 89.4499 35.6673 35.0244 0.9888
# 4 17.0877 26.3625 35.6673 44.4764 13.2994 3.6829
# 5 16.8272 24.9525 35.0244 13.2994 54.5808 6.4296
# 6 -14.3591 -10.9081 0.9888 3.6829 6.4296 45.0723
#
#
#
# Elastic Compliance Matrix: (Units=1/GPa)
#
#
# Indices 1 2 3 4 5 6 
#
# 1 0.012077 -0.002946 -0.002923 -0.000603 -0.000749 0.003355
# 2 -0.002946 0.019390 -0.004024 -0.006218 -0.004446 0.004985
# 3 -0.002923 -0.004024 0.022461 -0.011871 -0.008759 -0.000178
# 4 -0.000603 -0.006218 -0.011871 0.035551 0.002537 -0.004703
# 5 -0.000749 -0.004446 -0.008759 0.002537 0.026184 -0.005065
# 6 0.003355 0.004985 -0.000178 -0.004703 -0.005065 0.025572
#
#
# Mechanical properties :
#
#
# Convention : Reuss Voigt Hill
#
# Bulk Modulus (GPa) = 29.28957 56.70056 42.99506
# Shear Modulus (GPa) = 29.00164 39.70013 34.35089
#
# Velocity S-wave (km/s) = 3.53582 4.13690 3.84812
# Velocity P-wave (km/s) = 5.41254 6.87468 6.18695
#
# Compressibility (1/GPa) = 0.03414185
#
# Stress axis : x y z
#
# Youngs Moduli (GPa) = 82.80284 51.57173 44.52081
#
# Poissons Ratio (x) = 0.15194 0.13015
# Poissons Ratio (y) = 0.24396 0.17914
# Poissons Ratio (z) = 0.24207 0.20752
#
# Static dielectric constant tensor:
#      x y z
#    x 1.885620 0.030510 0.047400 
#    y 0.030510 1.947920 0.023610 
#    z 0.047400 0.023610 1.920330 
# 
# From -- ./inp_files/93933.got.cif
#   From: 2010.05.17/outbox.cif.g08.bks.cpg/sg2_47_cif.got.tgz:93933.got - 2010.06.03 11:33:40.
