data_PCOD9088220
_publ_section_title
;
Structure prediction by ZEFSAII (Michael W. Deem and Ramdas Pophale) SiO2 
 PCOD9088220
Probable space group: P -1
;
_chemical_formula_sum "Si O2"
_cell_formula_units_Z 10
_cell_length_a 15.971879
_cell_length_b 5.229142
_cell_length_c 6.883060
_cell_angle_alpha 78.238845
_cell_angle_beta 98.722847
_cell_angle_gamma 124.448064
_cell_volume 463.635296
_symmetry_space_group_name_H-M "P -1"
_symmetry_group_IT_number 2
_symmetry_cell_setting 'triclinic'
loop_
_space_group_symop_operation_xyz
x,y,z
-x,-y,-z
loop_
_atom_site_type_symbol
_atom_site_label
_atom_site_fract_x
_atom_site_fract_y
_atom_site_fract_z
Si Si1 0.117306 0.304384 0.613095
Si Si2 0.613540 0.790407 0.462257
Si Si3 0.724451 0.242133 0.104644
Si Si4 0.930472 0.334672 0.186326
Si Si5 0.285965 0.585040 0.349312
O O1 0.169903 0.438027 0.403213
O O2 0.218727 0.477522 0.761258
O O3 0.054656 0.425128 0.677447
O O4 0.061859 0.937557 0.677711
O O5 0.500000 0.500000 0.500000
O O6 0.685004 0.660363 0.543542
O O7 0.645033 0.078096 0.573746
O O8 0.634511 0.943164 0.231896
O O9 0.813930 0.185926 0.101822
O O10 0.700175 0.351615 0.884288
O O11 0.000000 0.500000 0.000000
#
# Coordination Sequence:
#
# PCOD9088220 Si02
#       5
#     2   2   2   2   2
#     4   9  19  37  55  82 117 148 189 235 280 332
#     4  11  24  40  59  87 119 148 192 243 283 340
#     4   9  23  36  63  82 119 152 193 232 289 333
#     4  10  19  37  60  82 117 152 185 237 287 329
#     4  11  21  39  62  83 116 156 191 231 291 341
#
# _framework density 21.568677000000001
#
# number of rings (size 3 to 8) (size 9 to 14) (size 15 to 20)
#    1.200    0.800    2.000    1.200    2.800    1.600 
#    0.000    2.000    0.000    0.000    0.000    0.000 
#    0.000    0.000    0.000    0.000    0.000    0.000 
#
# Total GULP energy -55800.933487 kJ/mol
# GULP energy per Si atom -5580.093349 kJ/mol
# Density = 2.151959 g / cm^3
# Si number density = 21.568677 Si / 1000 Ang^3
#
#
#
# Elastic Constant Matrix: (Units=GPa)
#
#
# Indices 1 2 3 4 5 6 
#
# 1 34.3086 10.1586 20.5279 -7.4681 -17.4157 -3.3996
# 2 10.1586 103.6703 35.0385 -20.6491 -8.9760 -12.9624
# 3 20.5279 35.0385 161.7002 -28.7094 -19.2815 1.4371
# 4 -7.4681 -20.6491 -28.7094 30.2257 6.1590 -3.3841
# 5 -17.4157 -8.9760 -19.2815 6.1590 30.8719 -16.0537
# 6 -3.3996 -12.9624 1.4371 -3.3841 -16.0537 46.0389
#
#
#
# Elastic Compliance Matrix: (Units=1/GPa)
#
#
# Indices 1 2 3 4 5 6 
#
# 1 0.051154 0.002322 -0.001517 0.007365 0.036310 0.017681
# 2 0.002322 0.012640 -0.000976 0.007744 0.006207 0.006495
# 3 -0.001517 -0.000976 0.008028 0.006045 0.003137 0.000901
# 4 0.007365 0.007744 0.006045 0.045768 0.005031 0.007654
# 5 0.036310 0.006207 0.003137 0.005031 0.070944 0.029439
# 6 0.017681 0.006495 0.000901 0.007654 0.029439 0.035655
#
#
# Mechanical properties :
#
#
# Convention : Reuss Voigt Hill
#
# Bulk Modulus (GPa) = 13.99009 47.90324 30.94666
# Shear Modulus (GPa) = 20.13213 37.02424 28.57818
#
# Velocity S-wave (km/s) = 3.05847 4.14765 3.64398
# Velocity P-wave (km/s) = 4.35576 6.72274 5.66427
#
# Compressibility (1/GPa) = 0.07147917
#
# Stress axis : x y z
#
# Youngs Moduli (GPa) = 19.54865 79.11135 124.56919
#
# Poissons Ratio (x) = -0.18367 0.18896
# Poissons Ratio (y) = -0.04538 0.12163
# Poissons Ratio (z) = 0.02965 0.07724
#
# Static dielectric constant tensor:
#      x y z
#    x 1.836080 0.023680 0.025290 
#    y 0.023680 1.766380 0.035930 
#    z 0.025290 0.035930 1.777870 
# 
# From -- ./inp_files/2264.got.cif
#   From: 2010.05.17/outbox.cif.g08.bks.cpg/sg2_2_cif.got.tgz:2264.got - 2010.06.03 11:33:40.
