data_PCOD9088416
_publ_section_title
;
Structure prediction by ZEFSAII (Michael W. Deem and Ramdas Pophale) SiO2 
 PCOD9088416
Probable space group: P -1
;
_chemical_formula_sum "Si O2"
_cell_formula_units_Z 16
_cell_length_a 6.765442
_cell_length_b 15.726161
_cell_length_c 14.922156
_cell_angle_alpha 137.920073
_cell_angle_beta 57.840273
_cell_angle_gamma 133.816183
_cell_volume 767.173249
_symmetry_space_group_name_H-M "P -1"
_symmetry_group_IT_number 2
_symmetry_cell_setting 'triclinic'
loop_
_space_group_symop_operation_xyz
x,y,z
-x,-y,-z
loop_
_atom_site_type_symbol
_atom_site_label
_atom_site_fract_x
_atom_site_fract_y
_atom_site_fract_z
Si Si1 0.472915 0.834721 0.231403
Si Si2 0.041404 0.547184 0.673663
Si Si3 0.787527 0.122389 0.070345
Si Si4 0.588080 0.382575 0.515922
Si Si5 0.940006 0.625718 0.310650
Si Si6 0.176505 0.625256 0.983028
Si Si7 0.990081 0.843845 0.139729
Si Si8 0.436905 0.923229 0.724749
O O1 0.704139 0.824499 0.221443
O O2 0.184464 0.750698 0.288386
O O3 0.573748 0.000795 0.304765
O O4 0.417466 0.750601 0.082977
O O5 0.159012 0.711387 0.812807
O O6 0.286993 0.554426 0.562714
O O7 0.937897 0.419622 0.672465
O O8 0.793137 0.504855 0.633047
O O9 0.761626 0.083218 0.151637
O O10 0.988602 0.125540 0.948502
O O11 0.500000 0.000000 0.000000
O O12 0.279056 0.335690 0.571806
O O13 0.620634 0.240195 0.405558
O O14 0.768833 0.466969 0.175069
O O15 0.000000 0.500000 0.000000
O O16 0.014290 0.700075 0.040765
O O17 0.254115 0.976287 0.230498
#
# Coordination Sequence:
#
# PCOD9088416 Si02
#       8
#     2   2   2   2   2   2   2   2
#     4  10  23  37  59  90 120 160 203 238 300 358
#     4  10  21  40  61  90 115 154 206 238 298 359
#     4   9  18  36  63  86 116 152 192 249 299 345
#     4  10  23  40  62  85 121 157 199 252 287 347
#     4  11  22  37  60  88 121 160 193 247 298 352
#     4   9  20  35  54  87 123 149 191 242 295 353
#     4  10  19  37  61  85 119 158 196 249 298 349
#     4   9  21  41  56  85 123 152 204 251 290 345
#
# _framework density 20.855785000000001
#
# number of rings (size 3 to 8) (size 9 to 14) (size 15 to 20)
#    0.000    2.250    1.250    0.375    1.750    7.000 
#    0.000    8.750    0.000    0.000    0.000    0.000 
#    0.000    0.000    0.000    0.000    0.000    0.000 
#
# Total GULP energy -89141.781234 kJ/mol
# GULP energy per Si atom -5571.361327 kJ/mol
# Density = 2.080832 g / cm^3
# Si number density = 20.855785 Si / 1000 Ang^3
#
#
#
# Elastic Constant Matrix: (Units=GPa)
#
#
# Indices 1 2 3 4 5 6 
#
# 1 45.5885 17.0823 5.2659 -3.3415 -7.9728 9.3653
# 2 17.0823 104.5443 10.7688 0.7814 -7.9401 -9.6756
# 3 5.2659 10.7688 37.6392 4.2219 6.9159 3.7371
# 4 -3.3415 0.7814 4.2219 31.9310 1.7136 -7.3288
# 5 -7.9728 -7.9401 6.9159 1.7136 16.3708 -8.1739
# 6 9.3653 -9.6756 3.7371 -7.3288 -8.1739 25.5279
#
#
#
# Elastic Compliance Matrix: (Units=1/GPa)
#
#
# Indices 1 2 3 4 5 6 
#
# 1 0.027116 -0.004157 -0.003523 0.001123 0.008600 -0.007932
# 2 -0.004157 0.013132 -0.007131 0.002337 0.013349 0.012491
# 3 -0.003523 -0.007131 0.037189 -0.007778 -0.029290 -0.018466
# 4 0.001123 0.002337 -0.007778 0.035269 0.008493 0.014457
# 5 0.008600 0.013349 -0.029290 0.008493 0.104200 0.041995
# 6 -0.007932 0.012491 -0.018466 0.014457 0.041995 0.067118
#
#
# Mechanical properties :
#
#
# Convention : Reuss Voigt Hill
#
# Bulk Modulus (GPa) = 20.91396 28.22288 24.56842
# Shear Modulus (GPa) = 15.17076 25.07627 20.12352
#
# Velocity S-wave (km/s) = 2.69998 3.47128 3.10964
# Velocity P-wave (km/s) = 4.44630 5.44317 4.96979
#
# Compressibility (1/GPa) = 0.04781495
#
# Stress axis : x y z
#
# Youngs Moduli (GPa) = 36.87904 76.15243 26.88989
#
# Poissons Ratio (x) = 0.31657 0.09473
# Poissons Ratio (y) = 0.15331 0.19174
# Poissons Ratio (z) = 0.12992 0.54301
#
# Static dielectric constant tensor:
#      x y z
#    x 1.730390 -0.014850 0.021580 
#    y -0.014850 1.769070 -0.006910 
#    z 0.021580 -0.006910 1.793660 
# 
# From -- ./inp_files/94833.got.cif
#   From: 2010.05.17/outbox.cif.g08.bks.cpg/sg2_48_cif.got.tgz:94833.got - 2010.06.03 11:33:40.
