data_PCOD9088686
_publ_section_title
;
Structure prediction by ZEFSAII (Michael W. Deem and Ramdas Pophale) SiO2 
 PCOD9088686
Probable space group: P -1
;
_chemical_formula_sum "Si O2"
_cell_formula_units_Z 12
_cell_length_a 9.038527
_cell_length_b 16.279004
_cell_length_c 10.178760
_cell_angle_alpha 132.128555
_cell_angle_beta 113.728043
_cell_angle_gamma 36.979828
_cell_volume 637.548693
_symmetry_space_group_name_H-M "P -1"
_symmetry_group_IT_number 2
_symmetry_cell_setting 'triclinic'
loop_
_space_group_symop_operation_xyz
x,y,z
-x,-y,-z
loop_
_atom_site_type_symbol
_atom_site_label
_atom_site_fract_x
_atom_site_fract_y
_atom_site_fract_z
Si Si1 0.123925 0.366945 0.521771
Si Si2 0.688104 0.477167 0.625864
Si Si3 0.700910 0.670967 0.021635
Si Si4 0.383147 0.398819 0.831817
Si Si5 0.406280 0.022697 0.643295
Si Si6 0.828133 0.284955 0.741502
O O1 0.180979 0.431681 0.718034
O O2 0.000000 0.500000 0.500000
O O3 0.927802 0.378689 0.514444
O O4 0.391712 0.156640 0.393171
O O5 0.500000 0.500000 0.500000
O O6 0.753146 0.375639 0.671672
O O7 0.629114 0.631244 0.830601
O O8 0.536700 0.711556 0.128776
O O9 0.642667 0.830273 0.154730
O O10 0.000000 0.500000 0.000000
O O11 0.630513 0.293968 0.719139
O O12 0.242020 0.584518 0.033532
O O13 0.132513 0.106039 0.644603
O O14 0.500000 0.000000 0.500000
#
# Coordination Sequence:
#
# PCOD9088686 Si02
#       6
#     2   2   2   2   2   2
#     4  12  24  39  59  91 130 165 210 260 323 362
#     4  11  21  39  63  90 129 167 207 257 324 368
#     4  11  18  40  67  90 118 170 216 250 308 378
#     4  10  19  37  62  92 124 159 214 259 306 372
#     4  12  20  39  67  92 122 169 220 252 303 386
#     4  10  20  36  65  93 118 166 219 256 302 376
#
# _framework density 18.822094
#
# number of rings (size 3 to 8) (size 9 to 14) (size 15 to 20)
#    0.000    1.000    8.333    1.000    0.000    0.667 
#    0.000    4.167    0.000    0.000    0.000    0.000 
#    0.000    0.000    0.000    0.000    0.000    0.000 
#
# Total GULP energy -66816.865247 kJ/mol
# GULP energy per Si atom -5568.072104 kJ/mol
# Density = 1.877925 g / cm^3
# Si number density = 18.822094 Si / 1000 Ang^3
#
#
#
# Elastic Constant Matrix: (Units=GPa)
#
#
# Indices 1 2 3 4 5 6 
#
# 1 139.2999 35.3050 26.5753 2.4093 -14.9262 -27.1236
# 2 35.3050 104.1818 57.0814 13.1590 0.5414 -7.6238
# 3 26.5753 57.0814 84.7442 -4.6993 18.7720 -16.1135
# 4 2.4093 13.1590 -4.6993 17.5638 -5.5017 9.5702
# 5 -14.9262 0.5414 18.7720 -5.5017 42.5123 -4.6006
# 6 -27.1236 -7.6238 -16.1135 9.5702 -4.6006 32.1338
#
#
#
# Elastic Compliance Matrix: (Units=1/GPa)
#
#
# Indices 1 2 3 4 5 6 
#
# 1 0.010324 -0.001099 -0.002041 -0.004801 0.004954 0.009569
# 2 -0.001099 0.021054 -0.015227 -0.020129 0.003786 0.002969
# 3 -0.002041 -0.015227 0.026087 0.014452 -0.009953 0.002016
# 4 -0.004801 -0.020129 0.014452 0.092690 0.001042 -0.029037
# 5 0.004954 0.003786 -0.009953 0.001042 0.030188 0.004101
# 6 0.009569 0.002969 0.002016 -0.029037 0.004101 0.050147
#
#
# Mechanical properties :
#
#
# Convention : Reuss Voigt Hill
#
# Bulk Modulus (GPa) = 48.24140 62.90548 55.57344
# Shear Modulus (GPa) = 18.23920 32.39291 25.31605
#
# Velocity S-wave (km/s) = 3.11630 4.15300 3.67143
# Velocity P-wave (km/s) = 6.21565 7.51600 6.89654
#
# Compressibility (1/GPa) = 0.02072908
#
# Stress axis : x y z
#
# Youngs Moduli (GPa) = 96.86271 47.49661 38.33387
#
# Poissons Ratio (x) = 0.05221 0.07825
# Poissons Ratio (y) = 0.10647 0.58372
# Poissons Ratio (z) = 0.19773 0.72324
#
# Static dielectric constant tensor:
#      x y z
#    x 1.698630 0.016200 -0.007370 
#    y 0.016200 1.685810 0.062130 
#    z -0.007370 0.062130 1.756070 
# 
# From -- ./inp_files/172862.got.cif
#   From: 2010.05.17/outbox.cif.g08.bks.cpg/sg2_87_cif.got.tgz:172862.got - 2010.06.03 11:33:40.
