data_PCOD9088362
_publ_section_title
;
Structure prediction by ZEFSAII (Michael W. Deem and Ramdas Pophale) SiO2 
 PCOD9088362
Probable space group: P -1
;
_chemical_formula_sum "Si O2"
_cell_formula_units_Z 16
_cell_length_a 10.015188
_cell_length_b 14.449016
_cell_length_c 16.478819
_cell_angle_alpha 38.247069
_cell_angle_beta 63.321804
_cell_angle_gamma 34.428228
_cell_volume 686.903752
_symmetry_space_group_name_H-M "P -1"
_symmetry_group_IT_number 2
_symmetry_cell_setting 'triclinic'
loop_
_space_group_symop_operation_xyz
x,y,z
-x,-y,-z
loop_
_atom_site_type_symbol
_atom_site_label
_atom_site_fract_x
_atom_site_fract_y
_atom_site_fract_z
Si Si1 0.256420 0.001560 0.417443
Si Si2 0.086183 0.662458 0.148959
Si Si3 0.033613 0.354748 0.383577
Si Si4 0.284597 0.687907 0.727613
Si Si5 0.270113 0.921943 0.903723
Si Si6 0.308858 0.155086 0.150824
Si Si7 0.412356 0.917119 0.121796
Si Si8 0.293679 0.876539 0.737648
O O1 0.396625 0.970401 0.327233
O O2 0.227120 0.145341 0.398390
O O3 0.947462 0.217079 0.318075
O O4 0.363166 0.758418 0.597973
O O5 0.378763 0.413880 0.186815
O O6 0.042302 0.523878 0.275976
O O7 0.017787 0.802076 0.156814
O O8 0.830634 0.939391 0.969001
O O9 0.711403 0.580373 0.290570
O O10 0.154808 0.154398 0.561763
O O11 0.150131 0.877803 0.715243
O O12 0.546005 0.363611 0.906991
O O13 0.457750 0.912954 0.868527
O O14 0.258683 0.888095 0.835098
O O15 0.288720 0.069646 0.136449
O O16 0.000000 0.500000 0.000000
O O17 0.500000 0.000000 0.000000
#
# Coordination Sequence:
#
# PCOD9088362 Si02
#       8
#     2   2   2   2   2   2   2   2
#     4  10  21  39  71  95 130 175 225 280 340 389
#     4  11  23  40  69 102 136 173 220 286 342 394
#     4  10  20  42  63  98 135 166 215 289 339 382
#     4  10  23  43  63  94 137 185 221 269 333 406
#     4  12  23  42  69  97 135 176 226 278 333 403
#     4  12  20  35  68 106 123 167 227 284 334 392
#     4  10  19  37  61 100 132 157 212 287 336 376
#     4  11  25  42  65  94 139 189 221 258 340 420
#
# _framework density 23.292929000000001
#
# number of rings (size 3 to 8) (size 9 to 14) (size 15 to 20)
#    0.000    1.250    3.750    4.500    0.000    2.000 
#    4.500    0.000    2.750    3.000    0.000    0.000 
#    0.000    0.000    0.000    0.000    0.000    0.000 
#
# Total GULP energy -89409.488447 kJ/mol
# GULP energy per Si atom -5588.093028 kJ/mol
# Density = 2.323991 g / cm^3
# Si number density = 23.292929 Si / 1000 Ang^3
#
#
#
# Elastic Constant Matrix: (Units=GPa)
#
#
# Indices 1 2 3 4 5 6 
#
# 1 61.1511 31.3988 36.5383 7.6648 -9.6800 6.3759
# 2 31.3988 104.3920 65.2207 18.9484 6.6037 10.5980
# 3 36.5383 65.2207 162.5538 16.9204 1.8260 4.7504
# 4 7.6648 18.9484 16.9204 31.3262 0.9048 11.1537
# 5 -9.6800 6.6037 1.8260 0.9048 40.4667 -2.6679
# 6 6.3759 10.5980 4.7504 11.1537 -2.6679 31.8730
#
#
#
# Elastic Compliance Matrix: (Units=1/GPa)
#
#
# Indices 1 2 3 4 5 6 
#
# 1 0.021774 -0.004867 -0.002920 -0.000389 0.006034 -0.001661
# 2 -0.004867 0.015045 -0.004351 -0.004744 -0.003449 -0.002009
# 3 -0.002920 -0.004351 0.008708 -0.001832 -0.000251 0.001353
# 4 -0.000389 -0.004744 -0.001832 0.040262 -0.000943 -0.012240
# 5 0.006034 -0.003449 -0.000251 -0.000943 0.026919 0.002561
# 6 -0.001661 -0.002009 0.001353 -0.012240 0.002561 0.036671
#
#
# Mechanical properties :
#
#
# Convention : Reuss Voigt Hill
#
# Bulk Modulus (GPa) = 47.05890 66.04583 56.55237
# Shear Modulus (GPa) = 27.66430 33.72911 30.69671
#
# Velocity S-wave (km/s) = 3.45000 3.80944 3.63417
# Velocity P-wave (km/s) = 6.00973 6.91123 6.47619
#
# Compressibility (1/GPa) = 0.02124996
#
# Stress axis : x y z
#
# Youngs Moduli (GPa) = 45.92651 66.46754 114.83822
#
# Poissons Ratio (x) = 0.32351 0.33535
# Poissons Ratio (y) = 0.22353 0.49967
# Poissons Ratio (z) = 0.13411 0.28921
#
# Static dielectric constant tensor:
#      x y z
#    x 2.009830 -0.012470 0.118000 
#    y -0.012470 1.909000 0.057390 
#    z 0.118000 0.057390 2.082870 
# 
# From -- ./inp_files/522271.got.cif
#   From: 2010.05.17/outbox.cif.g08.bks.cpg/sg2_262_cif.got.tgz:522271.got - 2010.06.03 11:33:40.
