data_PCOD9088950
_publ_section_title
;
Structure prediction by ZEFSAII (Michael W. Deem and Ramdas Pophale) SiO2 
 PCOD9088950
Probable space group: P -1
;
_chemical_formula_sum "Si O2"
_cell_formula_units_Z 16
_cell_length_a 14.523290
_cell_length_b 8.851948
_cell_length_c 14.344810
_cell_angle_alpha 62.247349
_cell_angle_beta 31.228778
_cell_angle_gamma 61.340436
_cell_volume 832.701709
_symmetry_space_group_name_H-M "P -1"
_symmetry_group_IT_number 2
_symmetry_cell_setting 'triclinic'
loop_
_space_group_symop_operation_xyz
x,y,z
-x,-y,-z
loop_
_atom_site_type_symbol
_atom_site_label
_atom_site_fract_x
_atom_site_fract_y
_atom_site_fract_z
Si Si1 0.892185 0.253865 0.930158
Si Si2 0.570511 0.068013 0.201021
Si Si3 0.760053 0.692937 0.093414
Si Si4 0.592008 0.925088 0.848249
Si Si5 0.104229 0.908313 0.526406
Si Si6 0.156693 0.682600 0.829105
Si Si7 0.191590 0.024538 0.612905
Si Si8 0.847642 0.652920 0.819817
O O1 0.874093 0.447275 0.848908
O O2 0.060961 0.135172 0.768548
O O3 0.713891 0.172076 0.090151
O O4 0.908026 0.269013 0.023302
O O5 0.539051 0.120176 0.104804
O O6 0.373264 0.096597 0.410882
O O7 0.654080 0.863334 0.185130
O O8 0.723318 0.508447 0.214960
O O9 0.741555 0.702812 0.994710
O O10 0.973495 0.681052 0.930948
O O11 0.736748 0.757141 0.801591
O O12 0.690702 0.075704 0.677126
O O13 0.500000 0.000000 0.000000
O O14 0.034635 0.727238 0.645112
O O15 0.078541 0.006005 0.620487
O O16 0.000000 0.000000 0.500000
O O17 0.246711 0.831753 0.662632
#
# Coordination Sequence:
#
# PCOD9088950 Si02
#       8
#     2   2   2   2   2   2   2   2
#     4  11  24  40  59  86 130 163 188 238 303 359
#     4  11  23  39  61  89 121 158 197 242 304 350
#     4  10  19  37  64  87 115 153 204 254 286 343
#     4  10  20  36  63  89 111 150 202 248 295 346
#     4   9  19  36  61  86 108 150 205 241 289 340
#     4  10  21  38  63  88 115 161 205 238 298 344
#     4  11  22  40  60  88 123 156 200 243 292 359
#     4  10  19  39  62  88 117 156 196 247 298 344
#
# _framework density 19.214562999999998
#
# number of rings (size 3 to 8) (size 9 to 14) (size 15 to 20)
#    0.000    1.750    3.750    0.375    1.750    1.500 
#    2.250    5.625    0.000    0.000    0.000    0.000 
#    0.000    0.000    0.000    0.000    0.000    0.000 
#
# Total GULP energy -89215.661274 kJ/mol
# GULP energy per Si atom -5575.978830 kJ/mol
# Density = 1.917083 g / cm^3
# Si number density = 19.214563 Si / 1000 Ang^3
#
#
#
# Elastic Constant Matrix: (Units=GPa)
#
#
# Indices 1 2 3 4 5 6 
#
# 1 66.3506 34.8590 8.0779 -2.3862 8.0920 -5.7269
# 2 34.8590 96.4723 30.7436 -22.3874 -4.0644 5.5403
# 3 8.0779 30.7436 50.5410 -14.4683 -0.6279 4.0185
# 4 -2.3862 -22.3874 -14.4683 17.8692 -1.7428 1.7256
# 5 8.0920 -4.0644 -0.6279 -1.7428 24.0418 -3.1163
# 6 -5.7269 5.5403 4.0185 1.7256 -3.1163 23.3892
#
#
#
# Elastic Compliance Matrix: (Units=1/GPa)
#
#
# Indices 1 2 3 4 5 6 
#
# 1 0.023168 -0.012421 -0.001360 -0.015373 -0.009925 0.008660
# 2 -0.012421 0.022857 -0.003816 0.025560 0.008693 -0.008528
# 3 -0.001360 -0.003816 0.028032 0.018375 0.001171 -0.005445
# 4 -0.015373 0.025560 0.018375 0.104083 0.015104 -0.018642
# 5 -0.009925 0.008693 0.001171 0.015104 0.047599 0.000537
# 6 0.008660 -0.008528 -0.005445 -0.018642 0.000537 0.049278
#
#
# Mechanical properties :
#
#
# Convention : Reuss Voigt Hill
#
# Bulk Modulus (GPa) = 25.73112 40.08053 32.90583
# Shear Modulus (GPa) = 15.47199 22.37227 18.92213
#
# Velocity S-wave (km/s) = 2.84072 3.41594 3.14153
# Velocity P-wave (km/s) = 4.91733 6.03846 5.50650
#
# Compressibility (1/GPa) = 0.03886344
#
# Stress axis : x y z
#
# Youngs Moduli (GPa) = 43.16336 43.75006 35.67358
#
# Poissons Ratio (x) = 0.54342 0.04852
# Poissons Ratio (y) = 0.53613 0.13612
# Poissons Ratio (z) = 0.05871 0.16693
#
# Static dielectric constant tensor:
#      x y z
#    x 1.691810 -0.010760 -0.002130 
#    y -0.010760 1.680390 -0.019260 
#    z -0.002130 -0.019260 1.688720 
# 
# From -- ./inp_files/200275.got.cif
#   From: 2010.05.17/outbox.cif.g08.bks.cpg/sg2_101_cif.got.tgz:200275.got - 2010.06.03 11:33:40.
