data_PCOD9088314
_publ_section_title
;
Structure prediction by ZEFSAII (Michael W. Deem and Ramdas Pophale) SiO2 
 PCOD9088314
Probable space group: P -1
;
_chemical_formula_sum "Si O2"
_cell_formula_units_Z 12
_cell_length_a 13.833189
_cell_length_b 5.162537
_cell_length_c 9.547054
_cell_angle_alpha 45.529000
_cell_angle_beta 89.112332
_cell_angle_gamma 100.249624
_cell_volume 469.137716
_symmetry_space_group_name_H-M "P -1"
_symmetry_group_IT_number 2
_symmetry_cell_setting 'triclinic'
loop_
_space_group_symop_operation_xyz
x,y,z
-x,-y,-z
loop_
_atom_site_type_symbol
_atom_site_label
_atom_site_fract_x
_atom_site_fract_y
_atom_site_fract_z
Si Si1 0.263663 0.337280 0.096983
Si Si2 0.689131 0.771020 0.261135
Si Si3 0.038366 0.438234 0.370270
Si Si4 0.762201 0.729008 0.556083
Si Si5 0.869834 0.596921 0.155320
Si Si6 0.560904 0.722213 0.044603
O O1 0.268265 0.240583 0.295124
O O2 0.202307 0.242320 0.800120
O O3 0.329870 0.122959 0.087294
O O4 0.312153 0.790469 0.908404
O O5 0.681652 0.616068 0.477482
O O6 0.599169 0.542340 0.249934
O O7 0.844759 0.708951 0.956578
O O8 0.983530 0.645391 0.182973
O O9 0.000000 0.500000 0.500000
O O10 0.156943 0.512580 0.347383
O O11 0.000000 0.000000 0.500000
O O12 0.820976 0.148493 0.344245
O O13 0.500000 0.500000 0.000000
O O14 0.500000 0.000000 0.000000
#
# Coordination Sequence:
#
# PCOD9088314 Si02
#       6
#     2   2   2   2   2   2
#     4  10  22  39  64  96 121 160 208 255 306 366
#     4  10  20  39  65  88 127 159 202 251 317 359
#     4  10  19  37  60  88 126 169 208 244 297 356
#     4  10  21  38  63  93 125 165 208 254 297 361
#     4   9  20  37  60  86 131 170 203 245 306 354
#     4  11  22  43  67  88 122 162 198 254 320 375
#
# _framework density 25.578841000000001
#
# number of rings (size 3 to 8) (size 9 to 14) (size 15 to 20)
#    0.000    2.000    3.333    0.000    0.000    3.333 
#    0.000    2.500    0.000    0.000    0.000    0.000 
#    0.000    0.000    0.000    0.000    0.000    0.000 
#
# Total GULP energy -67074.445893 kJ/mol
# GULP energy per Si atom -5589.537158 kJ/mol
# Density = 2.552062 g / cm^3
# Si number density = 25.578841 Si / 1000 Ang^3
#
#
#
# Elastic Constant Matrix: (Units=GPa)
#
#
# Indices 1 2 3 4 5 6 
#
# 1 125.3280 57.3099 33.7671 25.3520 35.4638 -3.2227
# 2 57.3099 145.2953 63.5745 34.2224 27.4543 -8.8183
# 3 33.7671 63.5745 159.9777 36.8591 39.2935 18.3414
# 4 25.3520 34.2224 36.8591 70.9537 15.2028 11.4153
# 5 35.4638 27.4543 39.2935 15.2028 29.5656 11.0421
# 6 -3.2227 -8.8183 18.3414 11.4153 11.0421 54.6383
#
#
#
# Elastic Compliance Matrix: (Units=1/GPa)
#
#
# Indices 1 2 3 4 5 6 
#
# 1 0.014127 -0.002571 0.002549 -0.001778 -0.018394 0.003651
# 2 -0.002571 0.010500 -0.002668 -0.002680 -0.003096 0.003624
# 3 0.002549 -0.002668 0.010627 -0.002178 -0.013323 -0.000700
# 4 -0.001778 -0.002680 -0.002178 0.017780 -0.000339 -0.003453
# 5 -0.018394 -0.003096 -0.013323 -0.000339 0.081706 -0.013554
# 6 0.003651 0.003624 -0.000700 -0.003453 -0.013554 0.022798
#
#
# Mechanical properties :
#
#
# Convention : Reuss Voigt Hill
#
# Bulk Modulus (GPa) = 33.47360 82.21158 57.84259
# Shear Modulus (GPa) = 28.92244 49.42816 39.17530
#
# Velocity S-wave (km/s) = 3.36626 4.40066 3.91775
# Velocity P-wave (km/s) = 5.31261 7.61783 6.56716
#
# Compressibility (1/GPa) = 0.02987429
#
# Stress axis : x y z
#
# Youngs Moduli (GPa) = 70.78833 95.23669 94.09688
#
# Poissons Ratio (x) = 0.24489 -0.23986
# Poissons Ratio (y) = 0.18202 0.25101
# Poissons Ratio (z) = -0.18044 0.25405
#
# Static dielectric constant tensor:
#      x y z
#    x 2.054050 0.087420 -0.012560 
#    y 0.087420 2.112790 -0.010510 
#    z -0.012560 -0.010510 2.049450 
# 
# From -- ./inp_files/323158.got.cif
#   From: 2010.05.17/outbox.cif.g08.bks.cpg/sg2_162_cif.got.tgz:323158.got - 2010.06.03 11:33:40.
