data_PCOD9088473
_publ_section_title
;
Structure prediction by ZEFSAII (Michael W. Deem and Ramdas Pophale) SiO2 
 PCOD9088473
Probable space group: P -1
;
_chemical_formula_sum "Si O2"
_cell_formula_units_Z 16
_cell_length_a 6.822939
_cell_length_b 8.810100
_cell_length_c 24.704769
_cell_angle_alpha 145.381192
_cell_angle_beta 98.616169
_cell_angle_gamma 101.884520
_cell_volume 675.836070
_symmetry_space_group_name_H-M "P -1"
_symmetry_group_IT_number 2
_symmetry_cell_setting 'triclinic'
loop_
_space_group_symop_operation_xyz
x,y,z
-x,-y,-z
loop_
_atom_site_type_symbol
_atom_site_label
_atom_site_fract_x
_atom_site_fract_y
_atom_site_fract_z
Si Si1 0.053031 0.252842 0.812981
Si Si2 0.611437 0.342701 0.137989
Si Si3 0.500879 0.151844 0.602164
Si Si4 0.702454 0.498565 0.386573
Si Si5 0.105204 0.923563 0.033918
Si Si6 0.150280 0.168061 0.218900
Si Si7 0.521856 0.821642 0.612318
Si Si8 0.923935 0.739300 0.362316
O O1 0.284176 0.376091 0.820293
O O2 0.019427 0.021188 0.792380
O O3 0.799154 0.069289 0.716531
O O4 0.089194 0.591391 0.930866
O O5 0.832083 0.503798 0.237293
O O6 0.385250 0.242225 0.136048
O O7 0.500000 0.000000 0.000000
O O8 0.768199 0.494375 0.707018
O O9 0.282732 0.193374 0.613882
O O10 0.500000 0.000000 0.500000
O O11 0.476397 0.958854 0.598039
O O12 0.422727 0.295478 0.291207
O O13 0.664383 0.292505 0.378296
O O14 0.882364 0.542568 0.358873
O O15 0.833180 0.884992 0.523632
O O16 0.023682 0.919210 0.090101
O O17 0.000000 0.000000 0.000000
O O18 0.500000 0.500000 0.500000
#
# Coordination Sequence:
#
# PCOD9088473 Si02
#       8
#     2   2   2   2   2   2   2   2
#     4  10  22  36  64  91 120 166 214 257 314 369
#     4  10  21  38  62  93 126 166 212 256 312 372
#     4  11  22  36  59  88 128 167 211 255 316 371
#     4   9  19  34  60  88 119 163 203 254 315 372
#     4  11  21  39  64  89 123 168 212 260 317 373
#     4  10  20  41  61  88 125 162 208 259 310 381
#     4  11  21  37  58  91 125 161 214 255 312 386
#     4  10  19  37  61  88 130 163 207 260 316 374
#
# _framework density 23.674378999999998
#
# number of rings (size 3 to 8) (size 9 to 14) (size 15 to 20)
#    0.000    1.750    2.500    4.125    0.000    1.500 
#    0.000    0.625    0.000    0.000    0.000    0.000 
#    0.000    0.000    0.000    0.000    0.000    0.000 
#
# Total GULP energy -89103.567228 kJ/mol
# GULP energy per Si atom -5568.972952 kJ/mol
# Density = 2.362050 g / cm^3
# Si number density = 23.674379 Si / 1000 Ang^3
#
#
#
# Elastic Constant Matrix: (Units=GPa)
#
#
# Indices 1 2 3 4 5 6 
#
# 1 39.4519 24.9685 3.8610 4.1735 9.7336 -0.6710
# 2 24.9685 225.8210 38.2431 8.1730 2.8012 15.3234
# 3 3.8610 38.2431 126.6206 -10.4984 4.3880 2.2345
# 4 4.1735 8.1730 -10.4984 45.1751 4.9166 3.9533
# 5 9.7336 2.8012 4.3880 4.9166 21.2180 2.6435
# 6 -0.6710 15.3234 2.2345 3.9533 2.6435 38.7083
#
#
#
# Elastic Compliance Matrix: (Units=1/GPa)
#
#
# Indices 1 2 3 4 5 6 
#
# 1 0.031145 -0.003520 0.000479 -0.000854 -0.014092 0.002955
# 2 -0.003520 0.005240 -0.001582 -0.000999 0.001738 -0.002061
# 3 0.000479 -0.001582 0.008651 0.002508 -0.002386 0.000042
# 4 -0.000854 -0.000999 0.002508 0.023711 -0.005262 -0.001826
# 5 -0.014092 0.001738 -0.002386 -0.005262 0.055583 -0.004053
# 6 0.002955 -0.002061 0.000042 -0.001826 -0.004053 0.027162
#
#
# Mechanical properties :
#
#
# Convention : Reuss Voigt Hill
#
# Bulk Modulus (GPa) = 27.94058 58.44876 43.19467
# Shear Modulus (GPa) = 28.95736 42.67502 35.81619
#
# Velocity S-wave (km/s) = 3.50115 4.25029 3.89378
# Velocity P-wave (km/s) = 5.30771 6.98776 6.20486
#
# Compressibility (1/GPa) = 0.03579024
#
# Stress axis : x y z
#
# Youngs Moduli (GPa) = 32.10747 190.84803 115.59698
#
# Poissons Ratio (x) = 0.67170 -0.05533
# Poissons Ratio (y) = 0.11300 0.18287
# Poissons Ratio (z) = -0.01537 0.30192
#
# Static dielectric constant tensor:
#      x y z
#    x 2.008270 -0.023480 0.013310 
#    y -0.023480 1.958520 -0.023940 
#    z 0.013310 -0.023940 1.849940 
# 
# From -- ./inp_files/187880.got.cif
#   From: 2010.05.17/outbox.cif.g08.bks.cpg/sg2_94_cif.got.tgz:187880.got - 2010.06.03 11:33:40.
