data_PCOD9088977
_publ_section_title
;
Structure prediction by ZEFSAII (Michael W. Deem and Ramdas Pophale) SiO2 
 PCOD9088977
Probable space group: P -1
;
_chemical_formula_sum "Si O2"
_cell_formula_units_Z 14
_cell_length_a 8.170146
_cell_length_b 11.265850
_cell_length_c 8.689297
_cell_angle_alpha 46.487275
_cell_angle_beta 77.280871
_cell_angle_gamma 82.602449
_cell_volume 565.499972
_symmetry_space_group_name_H-M "P -1"
_symmetry_group_IT_number 2
_symmetry_cell_setting 'triclinic'
loop_
_space_group_symop_operation_xyz
x,y,z
-x,-y,-z
loop_
_atom_site_type_symbol
_atom_site_label
_atom_site_fract_x
_atom_site_fract_y
_atom_site_fract_z
Si Si1 0.275674 0.084751 0.344359
Si Si2 0.541920 0.359563 0.498904
Si Si3 0.419809 0.022583 0.825981
Si Si4 0.054400 0.620730 0.110366
Si Si5 0.835154 0.231752 0.762016
Si Si6 0.741302 0.529086 0.062031
Si Si7 0.032338 0.004661 0.720888
O O1 0.128305 0.985500 0.370222
O O2 0.449604 0.025011 0.291894
O O3 0.208683 0.049831 0.561348
O O4 0.278211 0.280128 0.141847
O O5 0.500000 0.500000 0.500000
O O6 0.400250 0.216696 0.646039
O O7 0.705303 0.279881 0.613545
O O8 0.583995 0.439774 0.254847
O O9 0.500000 0.000000 0.000000
O O10 0.263404 0.897777 0.988511
O O11 0.110556 0.614444 0.280543
O O12 0.891094 0.524639 0.163117
O O13 0.200196 0.567291 0.013471
O O14 0.015473 0.811848 0.930284
O O15 0.987184 0.134584 0.744342
#
# Coordination Sequence:
#
# PCOD9088977 Si02
#       7
#     2   2   2   2   2   2   2
#     4  10  19  37  64  90 118 166 209 249 301 374
#     4  11  23  39  64  91 125 165 207 249 313 375
#     4  10  19  38  62  86 120 163 208 247 301 367
#     4  10  23  39  62  92 129 159 204 260 311 362
#     4  11  23  40  64  93 126 162 211 258 302 364
#     4  10  22  40  62  89 129 165 203 249 318 372
#     4  10  20  36  63  90 123 157 210 255 302 364
#
# _framework density 24.756851999999999
#
# number of rings (size 3 to 8) (size 9 to 14) (size 15 to 20)
#    0.000    1.714    2.857    3.000    8.000    0.571 
#    0.000    5.714    0.000    0.000    0.000    0.000 
#    0.000    0.000    0.000    0.000    0.000    0.000 
#
# Total GULP energy -78281.055713 kJ/mol
# GULP energy per Si atom -5591.503980 kJ/mol
# Density = 2.470050 g / cm^3
# Si number density = 24.756852 Si / 1000 Ang^3
#
#
#
# Elastic Constant Matrix: (Units=GPa)
#
#
# Indices 1 2 3 4 5 6 
#
# 1 66.5010 32.1003 12.0459 10.6319 -13.4171 -2.3268
# 2 32.1003 156.1374 14.8107 23.5930 -15.4444 -7.0948
# 3 12.0459 14.8107 114.3860 5.8249 -41.4324 -0.3745
# 4 10.6319 23.5930 5.8249 23.6359 -8.6686 -1.2128
# 5 -13.4171 -15.4444 -41.4324 -8.6686 31.7449 9.1925
# 6 -2.3268 -7.0948 -0.3745 -1.2128 9.1925 42.7505
#
#
#
# Elastic Compliance Matrix: (Units=1/GPa)
#
#
# Indices 1 2 3 4 5 6 
#
# 1 0.018068 -0.002683 0.001347 -0.003057 0.007593 -0.001169
# 2 -0.002683 0.008055 -0.000309 -0.006596 0.000310 0.000934
# 3 0.001347 -0.000309 0.018179 0.004868 0.027067 -0.005501
# 4 -0.003057 -0.006596 0.004868 0.055499 0.018027 -0.003520
# 5 0.007593 0.000310 0.027067 0.018027 0.079724 -0.015930
# 6 -0.001169 0.000934 -0.005501 -0.003520 -0.015930 0.026760
#
#
# Mechanical properties :
#
#
# Convention : Reuss Voigt Hill
#
# Bulk Modulus (GPa) = 24.38315 50.54868 37.46592
# Shear Modulus (GPa) = 22.39680 38.16408 30.28044
#
# Velocity S-wave (km/s) = 3.01104 3.93053 3.50110
# Velocity P-wave (km/s) = 4.68603 6.40789 5.61338
#
# Compressibility (1/GPa) = 0.04101193
#
# Stress axis : x y z
#
# Youngs Moduli (GPa) = 55.34628 124.14222 55.00891
#
# Poissons Ratio (x) = 0.33302 -0.07409
# Poissons Ratio (y) = 0.14847 0.01702
# Poissons Ratio (z) = -0.07454 0.03841
#
# Static dielectric constant tensor:
#      x y z
#    x 2.048020 0.047170 0.070630 
#    y 0.047170 1.905660 0.024130 
#    z 0.070630 0.024130 1.999520 
# 
# From -- ./inp_files/174080.got.cif
#   From: 2010.05.17/outbox.cif.g08.bks.cpg/sg2_88_cif.got.tgz:174080.got - 2010.06.03 11:33:40.
