data_PCOD9088068
_publ_section_title
;
Structure prediction by ZEFSAII (Michael W. Deem and Ramdas Pophale) SiO2 
 PCOD9088068
Probable space group: P -1
;
_chemical_formula_sum "Si O2"
_cell_formula_units_Z 14
_cell_length_a 18.377915
_cell_length_b 11.182203
_cell_length_c 5.630012
_cell_angle_alpha 71.250863
_cell_angle_beta 78.636169
_cell_angle_gamma 134.126155
_cell_volume 617.582309
_symmetry_space_group_name_H-M "P -1"
_symmetry_group_IT_number 2
_symmetry_cell_setting 'triclinic'
loop_
_space_group_symop_operation_xyz
x,y,z
-x,-y,-z
loop_
_atom_site_type_symbol
_atom_site_label
_atom_site_fract_x
_atom_site_fract_y
_atom_site_fract_z
Si Si1 0.396189 0.803209 0.509029
Si Si2 0.735575 0.630897 0.919235
Si Si3 0.040767 0.159053 0.064871
Si Si4 0.725533 0.448633 0.653446
Si Si5 0.091118 0.487485 0.334365
Si Si6 0.177560 0.710874 0.642710
Si Si7 0.155531 0.964191 0.419935
O O1 0.405626 0.773516 0.244082
O O2 0.299797 0.788689 0.541291
O O3 0.500000 0.000000 0.500000
O O4 0.355225 0.604175 0.760692
O O5 0.880642 0.794241 0.799341
O O6 0.720635 0.579908 0.683620
O O7 0.737880 0.782325 0.878878
O O8 0.927685 0.089644 0.277240
O O9 0.157064 0.394224 0.710852
O O10 0.000000 0.000000 0.000000
O O11 0.783478 0.430441 0.814947
O O12 0.112537 0.592361 0.499826
O O13 0.957692 0.222318 0.582040
O O14 0.097021 0.568876 0.026541
O O15 0.210801 0.905412 0.491805
#
# Coordination Sequence:
#
# PCOD9088068 Si02
#       7
#     2   2   2   2   2   2   2
#     4  10  23  44  66  84 114 162 217 278 324 367
#     4  11  21  37  57  93 119 157 221 249 307 376
#     4  11  20  32  56  90 135 168 199 242 306 377
#     4  10  19  37  58  91 118 157 217 252 297 382
#     4  11  21  40  60  92 134 174 204 243 308 390
#     4  11  25  42  61  95 131 171 214 255 313 386
#     4  12  22  36  61  94 133 171 200 252 311 373
#
# _framework density 22.669042000000001
#
# number of rings (size 3 to 8) (size 9 to 14) (size 15 to 20)
#    0.000    1.143    4.286    3.857    0.000    2.857 
#    0.000    0.714    0.000    0.857    0.000    0.000 
#    0.000    0.000    0.000    0.000    0.000    0.000 
#
# Total GULP energy -77959.575962 kJ/mol
# GULP energy per Si atom -5568.541140 kJ/mol
# Density = 2.261745 g / cm^3
# Si number density = 22.669042 Si / 1000 Ang^3
#
#
#
# Elastic Constant Matrix: (Units=GPa)
#
#
# Indices 1 2 3 4 5 6 
#
# 1 80.7084 68.9959 24.3271 -0.9137 26.3687 -22.6388
# 2 68.9959 228.8337 43.8663 -2.6329 26.9994 -9.5324
# 3 24.3271 43.8663 54.0240 -3.7099 26.6069 -2.5124
# 4 -0.9137 -2.6329 -3.7099 47.2243 -11.6570 8.6473
# 5 26.3687 26.9994 26.6069 -11.6570 32.0129 -1.4475
# 6 -22.6388 -9.5324 -2.5124 8.6473 -1.4475 43.1247
#
#
#
# Elastic Compliance Matrix: (Units=1/GPa)
#
#
# Indices 1 2 3 4 5 6 
#
# 1 0.027810 -0.005862 0.003901 -0.007889 -0.023430 0.014326
# 2 -0.005862 0.006503 -0.004203 0.001057 0.003133 -0.001992
# 3 0.003901 -0.004203 0.035043 -0.005573 -0.030676 0.003248
# 4 -0.007889 0.001057 -0.005573 0.027163 0.019722 -0.009017
# 5 -0.023430 0.003133 -0.030676 0.019722 0.079908 -0.014667
# 6 0.014326 -0.001992 0.003248 -0.009017 -0.014667 0.031774
#
#
# Mechanical properties :
#
#
# Convention : Reuss Voigt Hill
#
# Bulk Modulus (GPa) = 17.53569 70.88273 44.20921
# Shear Modulus (GPa) = 20.87333 39.56417 30.21875
#
# Velocity S-wave (km/s) = 3.03774 4.18221 3.65504
# Velocity P-wave (km/s) = 4.47841 7.39307 6.11202
#
# Compressibility (1/GPa) = 0.05702654
#
# Stress axis : x y z
#
# Youngs Moduli (GPa) = 35.95795 153.77759 28.53647
#
# Poissons Ratio (x) = 0.90151 -0.11132
# Poissons Ratio (y) = 0.21080 0.11994
# Poissons Ratio (z) = -0.14027 0.64635
#
# Static dielectric constant tensor:
#      x y z
#    x 1.913900 0.008650 0.050590 
#    y 0.008650 1.921240 0.024420 
#    z 0.050590 0.024420 2.068400 
# 
# From -- ./inp_files/118117.got.cif
#   From: 2010.05.17/outbox.cif.g08.bks.cpg/sg2_60_cif.got.tgz:118117.got - 2010.06.03 11:33:40.
