data_PCOD9088393
_publ_section_title
;
Structure prediction by ZEFSAII (Michael W. Deem and Ramdas Pophale) SiO2 
 PCOD9088393
Probable space group: P -1
;
_chemical_formula_sum "Si O2"
_cell_formula_units_Z 16
_cell_length_a 9.578532
_cell_length_b 23.483443
_cell_length_c 22.087007
_cell_angle_alpha 160.823797
_cell_angle_beta 26.052834
_cell_angle_gamma 148.093123
_cell_volume 716.736938
_symmetry_space_group_name_H-M "P -1"
_symmetry_group_IT_number 2
_symmetry_cell_setting 'triclinic'
loop_
_space_group_symop_operation_xyz
x,y,z
-x,-y,-z
loop_
_atom_site_type_symbol
_atom_site_label
_atom_site_fract_x
_atom_site_fract_y
_atom_site_fract_z
Si Si1 0.145650 0.126743 0.141896
Si Si2 0.502424 0.842125 0.510274
Si Si3 0.900856 0.651786 0.985586
Si Si4 0.763074 0.254251 0.309556
Si Si5 0.788716 0.987201 0.420801
Si Si6 0.131085 0.277117 0.643791
Si Si7 0.462798 0.501593 0.913836
Si Si8 0.442044 0.468237 0.420201
O O1 0.314817 0.274534 0.263429
O O2 0.810055 0.081074 0.259666
O O3 0.058985 0.219344 0.204264
O O4 0.312145 0.942170 0.880580
O O5 0.636016 0.935356 0.492636
O O6 0.781851 0.831579 0.439904
O O7 0.414629 0.644848 0.326090
O O8 0.721700 0.635330 0.974324
O O9 0.202396 0.527817 0.742391
O O10 0.003658 0.840572 0.158430
O O11 0.658032 0.597866 0.078840
O O12 0.479822 0.330226 0.538096
O O13 0.777312 0.388610 0.383536
O O14 0.500000 0.000000 0.500000
O O15 0.977456 0.161644 0.534719
O O16 0.856267 0.413118 0.902163
O O17 0.500000 0.500000 0.500000
#
# Coordination Sequence:
#
# PCOD9088393 Si02
#       8
#     2   2   2   2   2   2   2   2
#     4  10  23  45  64  89 127 165 212 257 306 367
#     4  10  23  38  59  90 122 154 201 250 302 361
#     4  10  21  37  57  89 119 155 200 244 303 370
#     4  10  23  43  67  89 122 170 209 258 308 364
#     4  11  22  37  60  88 123 161 194 247 311 365
#     4  11  20  39  63  89 117 156 202 250 305 363
#     4  10  19  37  61  83 122 153 190 250 302 356
#     4  12  24  39  64  95 126 163 212 255 311 370
#
# _framework density 22.323392999999999
#
# number of rings (size 3 to 8) (size 9 to 14) (size 15 to 20)
#    0.000    1.500    2.500    2.625    0.000    2.500 
#    2.250    0.000    0.000    0.000    0.000    0.000 
#    0.000    0.000    0.000    0.000    0.000    0.000 
#
# Total GULP energy -89288.714449 kJ/mol
# GULP energy per Si atom -5580.544653 kJ/mol
# Density = 2.227258 g / cm^3
# Si number density = 22.323393 Si / 1000 Ang^3
#
#
#
# Elastic Constant Matrix: (Units=GPa)
#
#
# Indices 1 2 3 4 5 6 
#
# 1 87.1018 4.7840 9.3784 3.1595 7.3302 -0.0923
# 2 4.7840 18.6987 2.1955 5.7083 4.8784 1.3146
# 3 9.3784 2.1955 81.3387 -8.6038 -1.2987 -9.0573
# 4 3.1595 5.7083 -8.6038 24.6839 6.4942 5.9336
# 5 7.3302 4.8784 -1.2987 6.4942 32.2149 9.9939
# 6 -0.0923 1.3146 -9.0573 5.9336 9.9939 27.3770
#
#
#
# Elastic Compliance Matrix: (Units=1/GPa)
#
#
# Indices 1 2 3 4 5 6 
#
# 1 0.011992 -0.001968 -0.001394 -0.001102 -0.002523 0.000834
# 2 -0.001968 0.059932 -0.002728 -0.013190 -0.006530 0.001456
# 3 -0.001394 -0.002728 0.013453 0.004805 -0.000894 0.003862
# 4 -0.001102 -0.013190 0.004805 0.048298 -0.005340 -0.006299
# 5 -0.002523 -0.006530 -0.000894 -0.005340 0.037534 -0.012535
# 6 0.000834 0.001456 0.003862 -0.006299 -0.012535 0.043679
#
#
# Mechanical properties :
#
#
# Convention : Reuss Voigt Hill
#
# Bulk Modulus (GPa) = 13.66189 24.42834 19.04511
# Shear Modulus (GPa) = 19.88345 28.24059 24.06202
#
# Velocity S-wave (km/s) = 2.98770 3.56064 3.28668
# Velocity P-wave (km/s) = 4.24677 5.27929 4.79092
#
# Compressibility (1/GPa) = 0.07319629
#
# Stress axis : x y z
#
# Youngs Moduli (GPa) = 83.38751 16.68566 74.33498
#
# Poissons Ratio (x) = 0.03284 0.10359
# Poissons Ratio (y) = 0.16414 0.20279
# Poissons Ratio (z) = 0.11621 0.04552
#
# Static dielectric constant tensor:
#      x y z
#    x 1.832930 0.012180 -0.005710 
#    y 0.012180 1.878500 0.015410 
#    z -0.005710 0.015410 1.887630 
# 
# From -- ./inp_files/187640.got.cif
#   From: 2010.05.17/outbox.cif.g08.bks.cpg/sg2_94_cif.got.tgz:187640.got - 2010.06.03 11:33:40.
