data_PCOD9088096
_publ_section_title
;
Structure prediction by ZEFSAII (Michael W. Deem and Ramdas Pophale) SiO2 
 PCOD9088096
Probable space group: P -1
;
_chemical_formula_sum "Si O2"
_cell_formula_units_Z 12
_cell_length_a 8.950041
_cell_length_b 8.220989
_cell_length_c 12.257163
_cell_angle_alpha 47.536929
_cell_angle_beta 53.186124
_cell_angle_gamma 70.189103
_cell_volume 529.342528
_symmetry_space_group_name_H-M "P -1"
_symmetry_group_IT_number 2
_symmetry_cell_setting 'triclinic'
loop_
_space_group_symop_operation_xyz
x,y,z
-x,-y,-z
loop_
_atom_site_type_symbol
_atom_site_label
_atom_site_fract_x
_atom_site_fract_y
_atom_site_fract_z
Si Si1 0.798994 0.752620 0.471025
Si Si2 0.996885 0.906805 0.921638
Si Si3 0.615303 0.482652 0.846422
Si Si4 0.046309 0.442037 0.192604
Si Si5 0.812669 0.300172 0.547164
Si Si6 0.692547 0.879081 0.898488
O O1 0.834950 0.967177 0.281767
O O2 0.644447 0.699059 0.658077
O O3 0.766974 0.535346 0.506506
O O4 0.997722 0.749266 0.448827
O O5 0.801343 0.943463 0.932878
O O6 0.000000 0.000000 0.000000
O O7 0.008916 0.644796 0.041751
O O8 0.821726 0.449914 0.814797
O O9 0.500000 0.500000 0.000000
O O10 0.499284 0.278338 0.929539
O O11 0.864527 0.322915 0.387045
O O12 0.837599 0.734214 0.837101
O O13 0.669835 0.089194 0.736926
#
# Coordination Sequence:
#
# PCOD9088096 Si02
#       6
#     2   2   2   2   2   2
#     4   9  18  34  55  80 111 146 181 226 272 324
#     4  11  21  37  57  82 113 146 186 225 274 325
#     4   9  20  38  57  81 113 145 182 226 278 327
#     4  10  19  37  59  82 111 144 183 230 276 323
#     4   9  17  32  57  82 105 142 191 226 266 321
#     4  10  21  35  56  84 110 145 185 228 271 326
#
# _framework density 22.669633999999999
#
# number of rings (size 3 to 8) (size 9 to 14) (size 15 to 20)
#    0.000    2.333    1.667    1.000    2.333    2.000 
#    0.000    5.833    0.000    0.000    0.000    0.000 
#    0.000    0.000    0.000    0.000    0.000    0.000 
#
# Total GULP energy -66973.424229 kJ/mol
# GULP energy per Si atom -5581.118686 kJ/mol
# Density = 2.261804 g / cm^3
# Si number density = 22.669634 Si / 1000 Ang^3
#
#
#
# Elastic Constant Matrix: (Units=GPa)
#
#
# Indices 1 2 3 4 5 6 
#
# 1 31.4066 6.7279 33.6288 -4.0357 -1.3563 19.5082
# 2 6.7279 73.9981 31.0997 6.6385 9.4179 0.1281
# 3 33.6288 31.0997 189.0531 -0.1103 17.4865 3.4775
# 4 -4.0357 6.6385 -0.1103 37.6296 -1.9706 -0.8566
# 5 -1.3563 9.4179 17.4865 -1.9706 26.9393 -8.4319
# 6 19.5082 0.1281 3.4775 -0.8566 -8.4319 31.3332
#
#
#
# Elastic Compliance Matrix: (Units=1/GPa)
#
#
# Indices 1 2 3 4 5 6 
#
# 1 0.073442 -0.002123 -0.011765 0.007131 -0.001356 -0.044580
# 2 -0.002123 0.015290 -0.001724 -0.003163 -0.004518 0.000148
# 3 -0.011765 -0.001724 0.007884 -0.000990 -0.003458 0.005499
# 4 0.007131 -0.003163 -0.000990 0.028008 0.003325 -0.002656
# 5 -0.001356 -0.004518 -0.003458 0.003325 0.045359 0.013543
# 6 -0.044580 0.000148 0.005499 -0.002656 0.013543 0.062632
#
#
# Mechanical properties :
#
#
# Convention : Reuss Voigt Hill
#
# Bulk Modulus (GPa) = 15.29247 48.59672 31.94460
# Shear Modulus (GPa) = 17.50477 34.04717 25.77597
#
# Velocity S-wave (km/s) = 2.78181 3.87962 3.37564
# Velocity P-wave (km/s) = 4.13260 6.44609 5.41435
#
# Compressibility (1/GPa) = 0.06539165
#
# Stress axis : x y z
#
# Youngs Moduli (GPa) = 13.61626 65.40176 126.83758
#
# Poissons Ratio (x) = 0.13883 1.49225
# Poissons Ratio (y) = 0.02890 0.21871
# Poissons Ratio (z) = 0.16020 0.11278
#
# Static dielectric constant tensor:
#      x y z
#    x 1.848420 0.023840 -0.028550 
#    y 0.023840 1.920000 0.021060 
#    z -0.028550 0.021060 1.912710 
# 
# From -- ./inp_files/178266.got.cif
#   From: 2010.05.17/outbox.cif.g08.bks.cpg/sg2_90_cif.got.tgz:178266.got - 2010.06.03 11:33:40.
