data_PCOD9088600
_publ_section_title
;
Structure prediction by ZEFSAII (Michael W. Deem and Ramdas Pophale) SiO2 
 PCOD9088600
Probable space group: P -1
;
_chemical_formula_sum "Si O2"
_cell_formula_units_Z 14
_cell_length_a 9.599441
_cell_length_b 9.437107
_cell_length_c 15.010432
_cell_angle_alpha 42.758556
_cell_angle_beta 83.730630
_cell_angle_gamma 57.250697
_cell_volume 670.456032
_symmetry_space_group_name_H-M "P -1"
_symmetry_group_IT_number 2
_symmetry_cell_setting 'triclinic'
loop_
_space_group_symop_operation_xyz
x,y,z
-x,-y,-z
loop_
_atom_site_type_symbol
_atom_site_label
_atom_site_fract_x
_atom_site_fract_y
_atom_site_fract_z
Si Si1 0.448234 0.996199 0.791518
Si Si2 0.767521 0.191849 0.709002
Si Si3 0.603293 0.152117 0.567091
Si Si4 0.672808 0.680722 0.173384
Si Si5 0.905522 0.826855 0.346956
Si Si6 0.189301 0.904335 0.576871
Si Si7 0.830592 0.681081 0.000202
O O1 0.649742 0.738953 0.943784
O O2 0.515301 0.045525 0.674476
O O3 0.336843 0.262278 0.746712
O O4 0.291997 0.986328 0.780541
O O5 0.741879 0.123197 0.642881
O O6 0.576415 0.514934 0.590035
O O7 0.946738 0.162622 0.712494
O O8 0.778609 0.978703 0.868971
O O9 0.716670 0.018382 0.529505
O O10 0.667711 0.439799 0.268960
O O11 0.851271 0.576822 0.147271
O O12 0.500000 0.000000 0.000000
O O13 0.000000 0.500000 0.500000
O O14 0.860234 0.955123 0.389218
O O15 0.000000 0.000000 0.500000
O O16 0.000000 0.500000 0.000000
#
# Coordination Sequence:
#
# PCOD9088600 Si02
#       7
#     2   2   2   2   2   2   2
#     4  10  22  40  62  90 129 162 200 265 316 363
#     4  10  19  37  62  86 124 161 204 253 310 369
#     4  10  19  37  62  89 117 161 210 251 303 376
#     4  10  21  42  64  90 121 169 213 252 310 385
#     4  12  23  40  58  98 136 162 198 268 329 365
#     4  12  23  37  66  97 123 165 215 259 313 382
#     4  10  21  38  63  90 117 166 219 254 296 377
#
# _framework density 20.881309999999999
#
# number of rings (size 3 to 8) (size 9 to 14) (size 15 to 20)
#    0.000    1.429    2.857    5.143    2.000    0.571 
#    0.000    7.143    0.000    0.000    0.000    0.000 
#    0.000    0.000    0.000    0.000    0.000    0.000 
#
# Total GULP energy -78122.174286 kJ/mol
# GULP energy per Si atom -5580.155306 kJ/mol
# Density = 2.083378 g / cm^3
# Si number density = 20.881310 Si / 1000 Ang^3
#
#
#
# Elastic Constant Matrix: (Units=GPa)
#
#
# Indices 1 2 3 4 5 6 
#
# 1 138.1555 17.4400 21.0285 9.2125 -0.5823 -4.9612
# 2 17.4400 105.6063 9.9621 14.7963 0.0648 -7.0130
# 3 21.0285 9.9621 58.3213 4.7768 -7.0192 -10.6041
# 4 9.2125 14.7963 4.7768 28.2612 -15.5823 -12.2208
# 5 -0.5823 0.0648 -7.0192 -15.5823 23.0566 7.1309
# 6 -4.9612 -7.0130 -10.6041 -12.2208 7.1309 29.4893
#
#
#
# Elastic Compliance Matrix: (Units=1/GPa)
#
#
# Indices 1 2 3 4 5 6 
#
# 1 0.007974 -0.000551 -0.002962 -0.003787 -0.003045 -0.000688
# 2 -0.000551 0.010979 -0.001781 -0.009022 -0.006602 -0.000264
# 3 -0.002962 -0.001781 0.020239 0.005784 0.007883 0.006847
# 4 -0.003787 -0.009022 0.005784 0.073666 0.045667 0.018783
# 5 -0.003045 -0.006602 0.007883 0.045667 0.076188 0.001254
# 6 -0.000688 -0.000264 0.006847 0.018783 0.001254 0.043675
#
#
# Mechanical properties :
#
#
# Convention : Reuss Voigt Hill
#
# Bulk Modulus (GPa) = 34.96030 44.32714 39.64372
# Shear Modulus (GPa) = 19.77527 33.07159 26.42343
#
# Velocity S-wave (km/s) = 3.08073 3.98400 3.56112
# Velocity P-wave (km/s) = 5.42524 6.51439 5.99460
#
# Compressibility (1/GPa) = 0.02860388
#
# Stress axis : x y z
#
# Youngs Moduli (GPa) = 125.41391 91.08637 49.41073
#
# Poissons Ratio (x) = 0.05015 0.14637
# Poissons Ratio (y) = 0.06905 0.08798
# Poissons Ratio (z) = 0.37152 0.16218
#
# Static dielectric constant tensor:
#      x y z
#    x 1.753740 -0.038360 0.026900 
#    y -0.038360 1.775080 -0.007250 
#    z 0.026900 -0.007250 1.823310 
# 
# From -- ./inp_files/180021.got.cif
#   From: 2010.05.17/outbox.cif.g08.bks.cpg/sg2_91_cif.got.tgz:180021.got - 2010.06.03 11:33:40.
