data_PCOD9088107
_publ_section_title
;
Structure prediction by ZEFSAII (Michael W. Deem and Ramdas Pophale) SiO2 
 PCOD9088107
Probable space group: P -1
;
_chemical_formula_sum "Si O2"
_cell_formula_units_Z 12
_cell_length_a 7.918524
_cell_length_b 13.148436
_cell_length_c 23.418766
_cell_angle_alpha 21.637769
_cell_angle_beta 139.886581
_cell_angle_gamma 128.312881
_cell_volume 535.178941
_symmetry_space_group_name_H-M "P -1"
_symmetry_group_IT_number 2
_symmetry_cell_setting 'triclinic'
loop_
_space_group_symop_operation_xyz
x,y,z
-x,-y,-z
loop_
_atom_site_type_symbol
_atom_site_label
_atom_site_fract_x
_atom_site_fract_y
_atom_site_fract_z
Si Si1 0.723844 0.041530 0.079077
Si Si2 0.369653 0.190791 0.022160
Si Si3 0.929004 0.678349 0.574994
Si Si4 0.688604 0.118445 0.722843
Si Si5 0.514988 0.275157 0.198680
Si Si6 0.481213 0.706902 0.673609
O O1 0.604481 0.035289 0.115327
O O2 0.699910 0.380296 0.883757
O O3 0.042693 0.821645 0.261962
O O4 0.500000 0.000000 0.000000
O O5 0.488673 0.397156 0.983676
O O6 0.096392 0.420767 0.797758
O O7 0.287293 0.985512 0.151242
O O8 0.175842 0.686491 0.592991
O O9 0.639003 0.656791 0.488904
O O10 0.811213 0.010793 0.397519
O O11 0.694385 0.837655 0.830945
O O12 0.481146 0.271020 0.260135
O O13 0.500000 0.000000 0.500000
#
# Coordination Sequence:
#
# PCOD9088107 Si02
#       6
#     2   2   2   2   2   2
#     4  10  24  40  55  87 124 154 200 247 286 354
#     4  10  19  37  59  83 120 156 188 243 301 349
#     4   8  19  35  53  90 120 141 196 244 289 354
#     4  10  21  34  64  82 116 160 192 242 303 344
#     4   8  18  33  54  87 118 137 196 244 286 346
#     4  10  20  34  63  87 119 157 192 242 303 347
#
# _framework density 22.422407
#
# number of rings (size 3 to 8) (size 9 to 14) (size 15 to 20)
#    1.000    2.000    0.000    2.500    4.667    4.667 
#    0.000    3.333    0.000    8.000    0.000    0.000 
#    0.000    0.000    0.000    0.000    0.000    0.000 
#
# Total GULP energy -66859.021449 kJ/mol
# GULP energy per Si atom -5571.585121 kJ/mol
# Density = 2.237137 g / cm^3
# Si number density = 22.422407 Si / 1000 Ang^3
#
#
#
# Elastic Constant Matrix: (Units=GPa)
#
#
# Indices 1 2 3 4 5 6 
#
# 1 90.2147 40.6435 50.1392 10.4203 16.5333 4.9769
# 2 40.6435 72.8172 32.5878 18.3897 15.4361 16.0031
# 3 50.1392 32.5878 70.0965 8.7021 24.1685 8.5498
# 4 10.4203 18.3897 8.7021 42.9401 10.7137 13.9834
# 5 16.5333 15.4361 24.1685 10.7137 40.2299 2.5756
# 6 4.9769 16.0031 8.5498 13.9834 2.5756 20.2916
#
#
#
# Elastic Compliance Matrix: (Units=1/GPa)
#
#
# Indices 1 2 3 4 5 6 
#
# 1 0.021158 -0.007519 -0.013005 -0.002251 0.002122 0.007503
# 2 -0.007519 0.023214 -0.002522 -0.002599 -0.002761 -0.013260
# 3 -0.013005 -0.002522 0.029360 0.003990 -0.011848 -0.008438
# 4 -0.002251 -0.002599 0.003990 0.032857 -0.007898 -0.020719
# 5 0.002122 -0.002761 -0.011848 -0.007898 0.033766 0.007806
# 6 0.007503 -0.013260 -0.008438 -0.020719 0.007806 0.074741
#
#
# Mechanical properties :
#
#
# Convention : Reuss Voigt Hill
#
# Bulk Modulus (GPa) = 36.18120 53.31883 44.75002
# Shear Modulus (GPa) = 18.49101 28.00952 23.25027
#
# Velocity S-wave (km/s) = 2.87482 3.53820 3.22362
# Velocity P-wave (km/s) = 5.21446 6.36575 5.81865
#
# Compressibility (1/GPa) = 0.02763866
#
# Stress axis : x y z
#
# Youngs Moduli (GPa) = 47.26453 43.07672 34.05975
#
# Poissons Ratio (x) = 0.32390 0.44296
# Poissons Ratio (y) = 0.35539 0.08590
# Poissons Ratio (z) = 0.61470 0.10864
#
# Static dielectric constant tensor:
#      x y z
#    x 1.842020 0.002930 0.041260 
#    y 0.002930 1.932390 -0.033870 
#    z 0.041260 -0.033870 1.855410 
# 
# From -- ./inp_files/608349.got.cif
#   From: 2010.05.17/outbox.cif.g08.bks.cpg/sg2_305_cif.got.tgz:608349.got - 2010.06.03 11:33:40.
