data_PCOD9088018
_publ_section_title
;
Structure prediction by ZEFSAII (Michael W. Deem and Ramdas Pophale) SiO2 
 PCOD9088018
Probable space group: P -1
;
_chemical_formula_sum "Si O2"
_cell_formula_units_Z 16
_cell_length_a 11.954097
_cell_length_b 8.769995
_cell_length_c 15.585355
_cell_angle_alpha 62.838011
_cell_angle_beta 129.360755
_cell_angle_gamma 76.089362
_cell_volume 716.675389
_symmetry_space_group_name_H-M "P -1"
_symmetry_group_IT_number 2
_symmetry_cell_setting 'triclinic'
loop_
_space_group_symop_operation_xyz
x,y,z
-x,-y,-z
loop_
_atom_site_type_symbol
_atom_site_label
_atom_site_fract_x
_atom_site_fract_y
_atom_site_fract_z
Si Si1 0.010833 0.234815 0.019605
Si Si2 0.441847 0.378853 0.392398
Si Si3 0.059594 0.592974 0.437397
Si Si4 0.104025 0.506483 0.739800
Si Si5 0.827626 0.262630 0.407119
Si Si6 0.147719 0.476357 0.968963
Si Si7 0.471998 0.322001 0.609960
Si Si8 0.615589 0.109223 0.379661
O O1 0.972010 0.270562 0.094452
O O2 0.258627 0.946140 0.188852
O O3 0.008487 0.432544 0.933814
O O4 0.792502 0.355832 0.836535
O O5 0.395696 0.340572 0.472345
O O6 0.575836 0.432489 0.462669
O O7 0.575069 0.134344 0.455276
O O8 0.911508 0.670604 0.262631
O O9 0.041874 0.785334 0.432791
O O10 0.322175 0.358125 0.596146
O O11 0.000000 0.500000 0.500000
O O12 0.239634 0.509999 0.740722
O O13 0.173423 0.466661 0.882208
O O14 0.843960 0.812399 0.535373
O O15 0.637480 0.295705 0.327729
O O16 0.000000 0.000000 0.500000
O O17 0.397909 0.235703 0.193198
#
# Coordination Sequence:
#
# PCOD9088018 Si02
#       8
#     2   2   2   2   2   2   2   2
#     4  10  21  36  53  84 120 150 191 236 286 338
#     4  10  21  34  58  87 117 153 191 236 282 350
#     4  10  20  36  59  86 113 152 191 237 287 338
#     4  10  20  35  60  83 114 152 194 237 282 341
#     4   9  19  36  60  82 112 151 193 237 289 339
#     4  10  21  35  56  83 116 154 191 234 283 346
#     4  11  20  35  59  84 117 153 191 235 292 338
#     4  10  19  37  58  84 118 153 190 235 289 336
#
# _framework density 22.325310999999999
#
# number of rings (size 3 to 8) (size 9 to 14) (size 15 to 20)
#    0.000    2.000    1.250    2.625    0.000    0.500 
#    0.000    5.000    2.750   33.750    0.000    0.000 
#    0.000    0.000    0.000    0.000    0.000    0.000 
#
# Total GULP energy -89238.635425 kJ/mol
# GULP energy per Si atom -5577.414714 kJ/mol
# Density = 2.227450 g / cm^3
# Si number density = 22.325311 Si / 1000 Ang^3
#
#
#
# Elastic Constant Matrix: (Units=GPa)
#
#
# Indices 1 2 3 4 5 6 
#
# 1 80.9314 38.7449 13.1064 21.6650 -0.2322 -19.6214
# 2 38.7449 107.3057 18.6082 23.2754 9.2124 -6.2257
# 3 13.1064 18.6082 45.8829 17.1156 5.8172 -8.6035
# 4 21.6650 23.2754 17.1156 35.5081 -0.9708 2.8889
# 5 -0.2322 9.2124 5.8172 -0.9708 13.9428 2.3138
# 6 -19.6214 -6.2257 -8.6035 2.8889 2.3138 33.0936
#
#
#
# Elastic Compliance Matrix: (Units=1/GPa)
#
#
# Indices 1 2 3 4 5 6 
#
# 1 0.020430 -0.004414 0.003117 -0.012181 -0.001088 0.013233
# 2 -0.004414 0.013133 -0.000513 -0.005989 -0.009100 0.000879
# 3 0.003117 -0.000513 0.032722 -0.018860 -0.016745 0.013076
# 4 -0.012181 -0.005989 -0.018860 0.050653 0.018295 -0.018953
# 5 -0.001088 -0.009100 -0.016745 0.018295 0.088380 -0.014486
# 6 0.013233 0.000879 0.013076 -0.018953 -0.014486 0.044295
#
#
# Mechanical properties :
#
#
# Convention : Reuss Voigt Hill
#
# Bulk Modulus (GPa) = 15.95750 41.67101 28.81425
# Shear Modulus (GPa) = 18.24002 27.41961 22.82982
#
# Velocity S-wave (km/s) = 2.86144 3.50835 3.20128
# Velocity P-wave (km/s) = 4.25210 5.92598 5.15740
#
# Compressibility (1/GPa) = 0.06266646
#
# Stress axis : x y z
#
# Youngs Moduli (GPa) = 48.94665 76.14344 30.56013
#
# Poissons Ratio (x) = 0.33611 -0.09527
# Poissons Ratio (y) = 0.21606 0.01567
# Poissons Ratio (z) = -0.15258 0.03905
#
# Static dielectric constant tensor:
#      x y z
#    x 1.864780 -0.003280 -0.019390 
#    y -0.003280 1.903850 0.001500 
#    z -0.019390 0.001500 1.803420 
# 
# From -- ./inp_files/78675.got.cif
#   From: 2010.05.17/outbox.cif.g08.bks.cpg/sg2_40_cif.got.tgz:78675.got - 2010.06.03 11:33:40.
