data_PCOD9088785
_publ_section_title
;
Structure prediction by ZEFSAII (Michael W. Deem and Ramdas Pophale) SiO2 
 PCOD9088785
Probable space group: P -1
;
_chemical_formula_sum "Si O2"
_cell_formula_units_Z 16
_cell_length_a 5.529478
_cell_length_b 19.339878
_cell_length_c 15.273453
_cell_angle_alpha 156.578385
_cell_angle_beta 101.775159
_cell_angle_gamma 86.266425
_cell_volume 603.457591
_symmetry_space_group_name_H-M "P -1"
_symmetry_group_IT_number 2
_symmetry_cell_setting 'triclinic'
loop_
_space_group_symop_operation_xyz
x,y,z
-x,-y,-z
loop_
_atom_site_type_symbol
_atom_site_label
_atom_site_fract_x
_atom_site_fract_y
_atom_site_fract_z
Si Si1 0.094404 0.752036 0.968426
Si Si2 0.556145 0.042615 0.366805
Si Si3 0.918328 0.157836 0.370540
Si Si4 0.775481 0.363402 0.884064
Si Si5 0.632927 0.507119 0.212631
Si Si6 0.090328 0.144930 0.751734
Si Si7 0.729113 0.906262 0.922542
Si Si8 0.338481 0.571874 0.425834
O O1 0.203634 0.600324 0.846689
O O2 0.837069 0.604335 0.738507
O O3 0.334963 0.913992 0.135207
O O4 0.031934 0.876756 0.185812
O O5 0.631968 0.883646 0.241754
O O6 0.789435 0.151874 0.447637
O O7 0.571786 0.199380 0.623066
O O8 0.804371 0.282950 0.444465
O O9 0.220102 0.274076 0.528766
O O10 0.827806 0.957656 0.088747
O O11 0.970194 0.292855 0.876014
O O12 0.613776 0.442198 0.034790
O O13 0.000000 0.500000 0.000000
O O14 0.397593 0.490821 0.242880
O O15 0.000000 0.000000 0.500000
O O16 0.597881 0.696764 0.638689
O O17 0.500000 0.000000 0.000000
O O18 0.000000 0.000000 0.000000
#
# Coordination Sequence:
#
# PCOD9088785 Si02
#       8
#     2   2   2   2   2   2   2   2
#     4  10  22  37  58  86 125 170 215 256 327 401
#     4  11  22  40  61  90 134 169 214 267 330 396
#     4  10  21  37  62  96 126 165 219 276 326 389
#     4  10  20  38  64  96 129 160 221 274 317 388
#     4  10  19  37  63  87 124 163 216 265 319 382
#     4   9  21  38  61  83 125 176 211 256 327 387
#     4  10  20  39  67 101 134 173 221 285 342 400
#     4  10  21  38  63  94 124 168 220 265 335 394
#
# _framework density 26.513874000000001
#
# number of rings (size 3 to 8) (size 9 to 14) (size 15 to 20)
#    0.000    2.000    2.500    0.750    0.000    6.500 
#    0.000    1.250    0.000    3.000    0.000    2.625 
#    0.000    0.000    0.000    0.000    0.000    0.000 
#
# Total GULP energy -89110.256693 kJ/mol
# GULP energy per Si atom -5569.391043 kJ/mol
# Density = 2.645353 g / cm^3
# Si number density = 26.513874 Si / 1000 Ang^3
#
#
#
# Elastic Constant Matrix: (Units=GPa)
#
#
# Indices 1 2 3 4 5 6 
#
# 1 67.7340 0.8057 37.8265 1.0994 9.8272 0.0014
# 2 0.8057 41.8145 11.6726 -5.2682 0.6298 -2.8658
# 3 37.8265 11.6726 170.6097 -6.3966 23.1589 -3.6555
# 4 1.0994 -5.2682 -6.3966 47.3934 4.7887 -1.3113
# 5 9.8272 0.6298 23.1589 4.7887 49.4200 -0.2990
# 6 0.0014 -2.8658 -3.6555 -1.3113 -0.2990 29.6923
#
#
#
# Elastic Compliance Matrix: (Units=1/GPa)
#
#
# Indices 1 2 3 4 5 6 
#
# 1 0.017031 0.000596 -0.003630 -0.000666 -0.001631 -0.000436
# 2 0.000596 0.024859 -0.001705 0.002570 0.000128 0.002304
# 3 -0.003630 -0.001705 0.007215 0.001167 -0.002746 0.000748
# 4 -0.000666 0.002570 0.001167 0.021854 -0.002557 0.001331
# 5 -0.001631 0.000128 -0.002746 -0.002557 0.022091 -0.000216
# 6 -0.000436 0.002304 0.000748 0.001331 -0.000216 0.034050
#
#
# Mechanical properties :
#
#
# Convention : Reuss Voigt Hill
#
# Bulk Modulus (GPa) = 25.23413 42.30752 33.77083
# Shear Modulus (GPa) = 33.38085 40.62470 37.00278
#
# Velocity S-wave (km/s) = 3.55208 3.91859 3.73983
# Velocity P-wave (km/s) = 5.13430 6.03864 5.60474
#
# Compressibility (1/GPa) = 0.03962887
#
# Stress axis : x y z
#
# Youngs Moduli (GPa) = 58.71621 40.22637 138.59555
#
# Poissons Ratio (x) = -0.02397 0.50305
# Poissons Ratio (y) = -0.03499 0.23625
# Poissons Ratio (z) = 0.21312 0.06857
#
# Static dielectric constant tensor:
#      x y z
#    x 2.242340 -0.123130 0.054140 
#    y -0.123130 2.052300 -0.016120 
#    z 0.054140 -0.016120 2.154240 
# 
# From -- ./inp_files/551295.got.cif
#   From: 2010.05.17/outbox.cif.g08.bks.cpg/sg2_276_cif.got.tgz:551295.got - 2010.06.03 11:33:40.
