data_PCOD9088148
_publ_section_title
;
Structure prediction by ZEFSAII (Michael W. Deem and Ramdas Pophale) SiO2 
 PCOD9088148
Probable space group: P -1
;
_chemical_formula_sum "Si O2"
_cell_formula_units_Z 15
_cell_length_a 6.615847
_cell_length_b 18.209383
_cell_length_c 14.996568
_cell_angle_alpha 23.669625
_cell_angle_beta 106.187593
_cell_angle_gamma 114.522187
_cell_volume 633.966835
_symmetry_space_group_name_H-M "P -1"
_symmetry_group_IT_number 2
_symmetry_cell_setting 'triclinic'
loop_
_space_group_symop_operation_xyz
x,y,z
-x,-y,-z
loop_
_atom_site_type_symbol
_atom_site_label
_atom_site_fract_x
_atom_site_fract_y
_atom_site_fract_z
Si Si1 0.078507 0.841000 0.850285
Si Si2 0.832483 0.072672 0.041487
Si Si3 0.682034 0.269421 0.645381
Si Si4 0.989528 0.247855 0.398069
Si Si5 0.234824 0.344335 0.142826
Si Si6 0.500000 0.500000 0.500000
Si Si7 0.539315 0.941040 0.471361
Si Si8 0.934036 0.696931 0.462133
O O1 0.898334 0.683450 0.935530
O O2 0.087830 0.794502 0.007383
O O3 0.329046 0.903934 0.763431
O O4 0.010124 0.033379 0.635356
O O5 0.566957 0.911821 0.203262
O O6 0.968514 0.931621 0.198226
O O7 0.817041 0.190090 0.821540
O O8 0.631425 0.438588 0.501256
O O9 0.834029 0.320592 0.519424
O O10 0.720995 0.203324 0.426928
O O11 0.097368 0.362315 0.192902
O O12 0.123005 0.357714 0.380754
O O13 0.271174 0.144369 0.390257
O O14 0.500000 0.500000 0.000000
O O15 0.731613 0.570384 0.511837
O O16 0.500000 0.000000 0.500000
#
# Coordination Sequence:
#
# PCOD9088148 Si02
#       8
#     2   2   2   2   2   1   2   2
#     4  10  19  37  59  87 115 151 202 243 286 357
#     4   9  20  35  60  87 114 148 199 247 285 343
#     4  10  19  38  59  87 119 149 193 244 298 341
#     4  10  20  38  62  85 109 158 207 236 289 355
#     4  11  23  38  54  86 127 150 188 251 300 344
#     4  10  22  38  56  84 124 152 186 238 296 360
#     4  11  18  36  63  79 107 159 199 237 282 346
#     4  10  20  37  61  84 114 155 198 240 289 351
#
# _framework density 23.660544999999999
#
# number of rings (size 3 to 8) (size 9 to 14) (size 15 to 20)
#    0.000    1.867    2.667    2.400    0.000    1.600 
#    4.800    0.000    0.000    0.000    0.000    0.000 
#    0.000    0.000    0.000    0.000    0.000    0.000 
#
# Total GULP energy -83511.891282 kJ/mol
# GULP energy per Si atom -5567.459419 kJ/mol
# Density = 2.360669 g / cm^3
# Si number density = 23.660545 Si / 1000 Ang^3
#
#
#
# Elastic Constant Matrix: (Units=GPa)
#
#
# Indices 1 2 3 4 5 6 
#
# 1 129.8806 46.9465 26.3687 3.2767 -9.2513 -12.9709
# 2 46.9465 158.0845 -11.9911 -16.8547 -62.6768 -25.2502
# 3 26.3687 -11.9911 7.9718 -19.7475 -26.0386 -29.0583
# 4 3.2767 -16.8547 -19.7475 -8.0994 -14.8162 -27.5686
# 5 -9.2513 -62.6768 -26.0386 -14.8162 2.9928 -27.7134
# 6 -12.9709 -25.2502 -29.0583 -27.5686 -27.7134 24.1945
#
#
#
# Elastic Compliance Matrix: (Units=1/GPa)
#
#
# Indices 1 2 3 4 5 6 
#
# 1 0.009770 -0.001405 -0.005399 0.003036 0.002525 0.003639
# 2 -0.001405 0.008802 -0.003726 -0.019834 0.012830 -0.003947
# 3 -0.005399 -0.003726 0.028334 -0.019403 -0.010753 -0.007180
# 4 0.003036 -0.019834 -0.019403 0.106792 -0.071646 -0.002757
# 5 0.002525 0.012830 -0.010753 -0.071646 0.060027 -0.011052
# 6 0.003639 -0.003947 -0.007180 -0.002757 -0.011052 0.014738
#
#
# Mechanical properties :
#
#
# Convention : Reuss Voigt Hill
#
# Bulk Modulus (GPa) = 38.69150 46.50945 42.60047
# Shear Modulus (GPa) = 19.36934 19.45845 19.41390
#
# Velocity S-wave (km/s) = 2.86428 2.87086 2.86758
# Velocity P-wave (km/s) = 5.22753 5.53975 5.38590
#
# Compressibility (1/GPa) = 0.02584547
#
# Stress axis : x y z
#
# Youngs Moduli (GPa) = 102.35433 113.61242 35.29284
#
# Poissons Ratio (x) = 0.15962 0.19055
# Poissons Ratio (y) = 0.14380 0.13152
# Poissons Ratio (z) = 0.55261 0.42337
#
# Static dielectric constant tensor:
#      x y z
#    x 1.908700 -0.023030 0.078440 
#    y -0.023030 1.901050 -0.012700 
#    z 0.078440 -0.012700 2.124190 
# 
# From -- ./inp_files/35054.got.cif
#   From: 2010.05.17/outbox.cif.g08.bks.cpg/sg2_18_cif.got.tgz:35054.got - 2010.06.03 11:33:40.
