data_PCOD9088316
_publ_section_title
;
Structure prediction by ZEFSAII (Michael W. Deem and Ramdas Pophale) SiO2 
 PCOD9088316
Probable space group: P -1
;
_chemical_formula_sum "Si O2"
_cell_formula_units_Z 16
_cell_length_a 13.728379
_cell_length_b 20.461501
_cell_length_c 12.594277
_cell_angle_alpha 36.544461
_cell_angle_beta 145.596224
_cell_angle_gamma 158.454566
_cell_volume 722.966594
_symmetry_space_group_name_H-M "P -1"
_symmetry_group_IT_number 2
_symmetry_cell_setting 'triclinic'
loop_
_space_group_symop_operation_xyz
x,y,z
-x,-y,-z
loop_
_atom_site_type_symbol
_atom_site_label
_atom_site_fract_x
_atom_site_fract_y
_atom_site_fract_z
Si Si1 0.239576 0.272329 0.848329
Si Si2 0.843497 0.943680 0.658689
Si Si3 0.571355 0.113021 0.516283
Si Si4 0.195856 0.311499 0.517538
Si Si5 0.908261 0.403630 0.154989
Si Si6 0.184449 0.549410 0.782270
Si Si7 0.352565 0.522755 0.768633
Si Si8 0.259263 0.012020 0.075557
O O1 0.244114 0.278138 0.718617
O O2 0.256623 0.405335 0.734107
O O3 0.950970 0.081679 0.890632
O O4 0.511731 0.346767 0.042834
O O5 0.032425 0.138064 0.523133
O O6 0.687249 0.942770 0.605300
O O7 0.575452 0.730955 0.661919
O O8 0.072973 0.970472 0.869444
O O9 0.788888 0.312020 0.410518
O O10 0.671692 0.082542 0.739073
O O11 0.500000 0.000000 0.500000
O O12 0.500000 0.500000 0.500000
O O13 0.025284 0.338285 0.349307
O O14 0.993740 0.526900 0.169586
O O15 0.566527 0.221032 0.088281
O O16 0.000000 0.500000 0.000000
O O17 0.134833 0.462136 0.739890
O O18 0.500000 0.500000 0.000000
#
# Coordination Sequence:
#
# PCOD9088316 Si02
#       8
#     2   2   2   2   2   2   2   2
#     4  11  22  38  68  95 129 169 209 263 326 369
#     4  11  21  39  63  89 131 165 209 259 323 365
#     4  11  19  31  52  90 123 154 204 260 307 370
#     4  12  26  43  63  97 126 167 222 263 322 389
#     4  12  25  40  59  94 133 165 213 271 323 382
#     4  10  19  37  60  88 131 165 201 260 317 370
#     4   9  19  39  61  98 131 167 209 258 319 382
#     4  12  21  35  63  90 127 163 210 260 319 366
#
# _framework density 22.131036999999999
#
# number of rings (size 3 to 8) (size 9 to 14) (size 15 to 20)
#    0.000    1.000    6.250    3.750    1.750    1.500 
#    0.000    6.250    0.000    0.750    0.000    0.000 
#    0.000    0.000    0.000    0.000    0.000    0.000 
#
# Total GULP energy -89162.601840 kJ/mol
# GULP energy per Si atom -5572.662615 kJ/mol
# Density = 2.208067 g / cm^3
# Si number density = 22.131037 Si / 1000 Ang^3
#
#
#
# Elastic Constant Matrix: (Units=GPa)
#
#
# Indices 1 2 3 4 5 6 
#
# 1 86.4384 39.9196 20.4444 -13.1480 19.4162 -5.5411
# 2 39.9196 108.0371 10.5506 -19.2199 8.9362 6.9675
# 3 20.4444 10.5506 115.4477 8.6961 24.6340 2.9656
# 4 -13.1480 -19.2199 8.6961 41.9166 4.9162 6.4432
# 5 19.4162 8.9362 24.6340 4.9162 37.1127 -11.6839
# 6 -5.5411 6.9675 2.9656 6.4432 -11.6839 34.7416
#
#
#
# Elastic Compliance Matrix: (Units=1/GPa)
#
#
# Indices 1 2 3 4 5 6 
#
# 1 0.016182 -0.004627 -0.001298 0.003932 -0.006823 0.000596
# 2 -0.004627 0.012518 0.000041 0.005442 -0.003001 -0.005271
# 3 -0.001298 0.000041 0.010617 -0.001226 -0.007266 -0.003338
# 4 0.003932 0.005442 -0.001226 0.030360 -0.009464 -0.009173
# 5 -0.006823 -0.003001 -0.007266 -0.009464 0.042398 0.016148
# 6 0.000596 -0.005271 -0.003338 -0.009173 0.016148 0.037353
#
#
# Mechanical properties :
#
#
# Convention : Reuss Voigt Hill
#
# Bulk Modulus (GPa) = 36.29975 50.19473 43.24724
# Shear Modulus (GPa) = 29.34665 38.68810 34.01737
#
# Velocity S-wave (km/s) = 3.64543 4.18561 3.92483
# Velocity P-wave (km/s) = 5.84437 6.78889 6.33426
#
# Compressibility (1/GPa) = 0.02754840
#
# Stress axis : x y z
#
# Youngs Moduli (GPa) = 61.79767 79.88521 94.19244
#
# Poissons Ratio (x) = 0.36962 0.12229
# Poissons Ratio (y) = 0.28593 -0.00388
# Poissons Ratio (z) = 0.08023 -0.00329
#
# Static dielectric constant tensor:
#      x y z
#    x 1.893960 -0.046910 -0.009470 
#    y -0.046910 1.955020 0.016700 
#    z -0.009470 0.016700 1.883130 
# 
# From -- ./inp_files/535405.got.cif
#   From: 2010.05.17/outbox.cif.g08.bks.cpg/sg2_268_cif.got.tgz:535405.got - 2010.06.03 11:33:40.
