data_PCOD9088801
_publ_section_title
;
Structure prediction by ZEFSAII (Michael W. Deem and Ramdas Pophale) SiO2 
 PCOD9088801
Probable space group: P -1
;
_chemical_formula_sum "Si O2"
_cell_formula_units_Z 16
_cell_length_a 14.436221
_cell_length_b 10.727000
_cell_length_c 8.997067
_cell_angle_alpha 68.284588
_cell_angle_beta 150.881170
_cell_angle_gamma 114.477880
_cell_volume 616.954270
_symmetry_space_group_name_H-M "P -1"
_symmetry_group_IT_number 2
_symmetry_cell_setting 'triclinic'
loop_
_space_group_symop_operation_xyz
x,y,z
-x,-y,-z
loop_
_atom_site_type_symbol
_atom_site_label
_atom_site_fract_x
_atom_site_fract_y
_atom_site_fract_z
Si Si1 0.040366 0.301200 0.092796
Si Si2 0.910217 0.871343 0.244890
Si Si3 0.407797 0.749451 0.117685
Si Si4 0.690540 0.655401 0.796364
Si Si5 0.958708 0.638741 0.609226
Si Si6 0.721882 0.070606 0.755085
Si Si7 0.629475 0.460438 0.067787
Si Si8 0.751586 0.964748 0.515204
O O1 0.139754 0.381518 0.054058
O O2 0.086638 0.384290 0.271661
O O3 0.145836 0.168147 0.299273
O O4 0.810898 0.232866 0.803091
O O5 0.876005 0.772308 0.379991
O O6 0.796108 0.782526 0.989009
O O7 0.133350 0.922269 0.485318
O O8 0.823837 0.007770 0.063264
O O9 0.526522 0.689630 0.442646
O O10 0.522591 0.905900 0.206926
O O11 0.427328 0.692859 0.003155
O O12 0.184789 0.692358 0.869972
O O13 0.606769 0.542843 0.849187
O O14 0.848342 0.514177 0.409113
O O15 0.500000 0.000000 0.500000
O O16 0.782802 0.024495 0.698708
O O17 0.500000 0.500000 0.000000
#
# Coordination Sequence:
#
# PCOD9088801 Si02
#       8
#     2   2   2   2   2   2   2   2
#     4  10  19  37  63  88 124 172 200 246 314 371
#     4  10  20  40  61  89 130 171 199 254 323 361
#     4  11  22  40  65  94 126 165 213 260 303 372
#     4  10  20  41  70  87 121 170 213 247 312 383
#     4  11  25  40  62  93 131 160 208 267 310 367
#     4  11  19  33  62  94 128 158 213 258 293 372
#     4  11  24  45  67  90 123 166 208 264 323 365
#     4  10  19  37  64  88 127 164 210 250 307 374
#
# _framework density 25.93385
#
# number of rings (size 3 to 8) (size 9 to 14) (size 15 to 20)
#    0.000    1.500    3.750    3.750    0.000    2.500 
#    0.000   10.000    0.000    0.000    0.000    0.000 
#    0.000    0.000    0.000    0.000    0.000    0.000 
#
# Total GULP energy -89483.774542 kJ/mol
# GULP energy per Si atom -5592.735909 kJ/mol
# Density = 2.587482 g / cm^3
# Si number density = 25.933850 Si / 1000 Ang^3
#
#
#
# Elastic Constant Matrix: (Units=GPa)
#
#
# Indices 1 2 3 4 5 6 
#
# 1 124.4045 10.1481 23.9151 2.5198 -10.1350 12.3700
# 2 10.1481 53.7848 21.2297 15.7703 -13.3777 17.7443
# 3 23.9151 21.2297 135.9495 28.3692 4.6247 9.2838
# 4 2.5198 15.7703 28.3692 43.1324 0.7716 -6.6507
# 5 -10.1350 -13.3777 4.6247 0.7716 42.6919 12.8077
# 6 12.3700 17.7443 9.2838 -6.6507 12.8077 41.5518
#
#
#
# Elastic Compliance Matrix: (Units=1/GPa)
#
#
# Indices 1 2 3 4 5 6 
#
# 1 0.008996 0.001702 -0.001486 -0.000942 0.004203 -0.004519
# 2 0.001702 0.036868 -0.001557 -0.016718 0.019835 -0.024692
# 3 -0.001486 -0.001557 0.009164 -0.005569 -0.001304 -0.001430
# 4 -0.000942 -0.016718 -0.005569 0.035946 -0.010836 0.017757
# 5 0.004203 0.019835 -0.001304 -0.010836 0.037821 -0.022822
# 6 -0.004519 -0.024692 -0.001430 0.017757 -0.022822 0.046153
#
#
# Mechanical properties :
#
#
# Convention : Reuss Voigt Hill
#
# Bulk Modulus (GPa) = 19.10367 47.19162 33.14764
# Shear Modulus (GPa) = 25.63081 42.73160 34.18121
#
# Velocity S-wave (km/s) = 3.14716 4.06361 3.63439
# Velocity P-wave (km/s) = 4.53745 6.34458 5.51553
#
# Compressibility (1/GPa) = 0.05234598
#
# Stress axis : x y z
#
# Youngs Moduli (GPa) = 111.16130 27.12409 109.12041
#
# Poissons Ratio (x) = -0.04615 0.16215
# Poissons Ratio (y) = -0.18915 0.16985
# Poissons Ratio (z) = 0.16518 0.04222
#
# Static dielectric constant tensor:
#      x y z
#    x 2.013820 -0.023030 0.081810 
#    y -0.023030 2.192760 -0.057970 
#    z 0.081810 -0.057970 2.091320 
# 
# From -- ./inp_files/313054.got.cif
#   From: 2010.05.17/outbox.cif.g08.bks.cpg/sg2_157_cif.got.tgz:313054.got - 2010.06.03 11:33:40.
