data_PCOD9088006
_publ_section_title
;
Structure prediction by ZEFSAII (Michael W. Deem and Ramdas Pophale) SiO2 
 PCOD9088006
Probable space group: P -1
;
_chemical_formula_sum "Si O2"
_cell_formula_units_Z 14
_cell_length_a 11.815631
_cell_length_b 8.870460
_cell_length_c 10.074487
_cell_angle_alpha 107.915501
_cell_angle_beta 141.563274
_cell_angle_gamma 93.749901
_cell_volume 534.280677
_symmetry_space_group_name_H-M "P -1"
_symmetry_group_IT_number 2
_symmetry_cell_setting 'triclinic'
loop_
_space_group_symop_operation_xyz
x,y,z
-x,-y,-z
loop_
_atom_site_type_symbol
_atom_site_label
_atom_site_fract_x
_atom_site_fract_y
_atom_site_fract_z
Si Si1 0.868442 0.296547 0.893049
Si Si2 0.776516 0.838238 0.512575
Si Si3 0.741877 0.551937 0.221931
Si Si4 0.379380 0.804292 0.629003
Si Si5 0.341486 0.805031 0.035993
Si Si6 0.680923 0.583681 0.579307
Si Si7 0.007965 0.852503 0.369562
O O1 0.689873 0.190624 0.587341
O O2 0.755398 0.252447 0.920820
O O3 0.000000 0.500000 0.000000
O O4 0.077388 0.288867 0.114883
O O5 0.853377 0.709002 0.479468
O O6 0.580314 0.837107 0.260136
O O7 0.666775 0.731340 0.515663
O O8 0.962086 0.049332 0.718418
O O9 0.810678 0.653181 0.169270
O O10 0.500000 0.500000 0.000000
O O11 0.774594 0.379929 0.208799
O O12 0.354080 0.604889 0.573543
O O13 0.202809 0.817503 0.556078
O O14 0.608005 0.992371 0.907296
O O15 0.500000 0.500000 0.500000
O O16 0.000000 0.000000 0.500000
#
# Coordination Sequence:
#
# PCOD9088006 Si02
#       7
#     2   2   2   2   2   2   2
#     4  10  20  35  57  80 110 157 199 237 291 352
#     4   9  19  36  60  86 116 153 197 251 296 338
#     4   9  17  32  59  87 113 149 193 239 291 352
#     4  10  21  38  60  84 116 159 200 241 291 356
#     4  10  19  37  58  83 113 155 203 241 286 358
#     4  11  23  40  58  88 123 154 195 252 301 343
#     4   9  18  36  60  86 113 151 198 239 287 353
#
# _framework density 26.203457
#
# number of rings (size 3 to 8) (size 9 to 14) (size 15 to 20)
#    0.000    2.286    0.000    4.714    0.000    2.286 
#    0.000   16.429    0.000    0.000    0.000    0.000 
#    0.000    0.000    0.000    0.000    0.000    0.000 
#
# Total GULP energy -78030.632869 kJ/mol
# GULP energy per Si atom -5573.616633 kJ/mol
# Density = 2.614382 g / cm^3
# Si number density = 26.203457 Si / 1000 Ang^3
#
#
#
# Elastic Constant Matrix: (Units=GPa)
#
#
# Indices 1 2 3 4 5 6 
#
# 1 124.6428 41.1737 23.9351 27.5263 29.7582 5.1053
# 2 41.1737 122.4522 27.8961 30.8268 15.5794 20.8605
# 3 23.9351 27.8961 66.1519 24.4268 12.4952 -2.1501
# 4 27.5263 30.8268 24.4268 39.5288 0.8337 10.4093
# 5 29.7582 15.5794 12.4952 0.8337 39.0253 10.6592
# 6 5.1053 20.8605 -2.1501 10.4093 10.6592 53.4620
#
#
#
# Elastic Compliance Matrix: (Units=1/GPa)
#
#
# Indices 1 2 3 4 5 6 
#
# 1 0.012533 -0.001529 0.001484 -0.009094 -0.010114 0.003247
# 2 -0.001529 0.011276 -0.001780 -0.005848 -0.001872 -0.002813
# 3 0.001484 -0.001780 0.022889 -0.015246 -0.009135 0.006263
# 4 -0.009094 -0.005848 -0.015246 0.047898 0.015844 -0.009948
# 5 -0.010114 -0.001872 -0.009135 0.015844 0.039290 -0.009590
# 6 0.003247 -0.002813 0.006263 -0.009948 -0.009590 0.023593
#
#
# Mechanical properties :
#
#
# Convention : Reuss Voigt Hill
#
# Bulk Modulus (GPa) = 23.23014 55.47297 39.35156
# Shear Modulus (GPa) = 28.49342 41.08603 34.78973
#
# Velocity S-wave (km/s) = 3.30114 3.96405 3.64768
# Velocity P-wave (km/s) = 4.83886 6.49366 5.72635
#
# Compressibility (1/GPa) = 0.04304752
#
# Stress axis : x y z
#
# Youngs Moduli (GPa) = 79.78861 88.68457 43.68888
#
# Poissons Ratio (x) = 0.13562 -0.06483
# Poissons Ratio (y) = 0.12202 0.07777
# Poissons Ratio (z) = -0.11840 0.15786
#
# Static dielectric constant tensor:
#      x y z
#    x 1.989420 -0.156540 0.004350 
#    y -0.156540 1.930640 0.153030 
#    z 0.004350 0.153030 2.181690 
# 
# From -- ./inp_files/181017.got.cif
#   From: 2010.05.17/outbox.cif.g08.bks.cpg/sg2_91_cif.got.tgz:181017.got - 2010.06.03 11:33:40.
