data_PCOD9088299
_publ_section_title
;
Structure prediction by ZEFSAII (Michael W. Deem and Ramdas Pophale) SiO2 
 PCOD9088299
Probable space group: P -1
;
_chemical_formula_sum "Si O2"
_cell_formula_units_Z 16
_cell_length_a 9.415279
_cell_length_b 31.366947
_cell_length_c 7.624089
_cell_angle_alpha 141.368281
_cell_angle_beta 144.653258
_cell_angle_gamma 31.028967
_cell_volume 645.429342
_symmetry_space_group_name_H-M "P -1"
_symmetry_group_IT_number 2
_symmetry_cell_setting 'triclinic'
loop_
_space_group_symop_operation_xyz
x,y,z
-x,-y,-z
loop_
_atom_site_type_symbol
_atom_site_label
_atom_site_fract_x
_atom_site_fract_y
_atom_site_fract_z
Si Si1 0.399513 0.314852 0.328586
Si Si2 0.733272 0.012816 0.541350
Si Si3 0.736202 0.736043 0.630930
Si Si4 0.542386 0.416078 0.203466
Si Si5 0.745178 0.324577 0.428924
Si Si6 0.563884 0.077384 0.981694
Si Si7 0.597879 0.803418 0.344092
Si Si8 0.783811 0.467130 0.049958
O O1 0.413396 0.288400 0.455242
O O2 0.664080 0.315557 0.512818
O O3 0.413818 0.244708 0.991129
O O4 0.098446 0.411970 0.297677
O O5 0.630266 0.049129 0.753915
O O6 0.614235 0.095559 0.570112
O O7 0.566710 0.968282 0.201437
O O8 0.105192 0.950507 0.707189
O O9 0.558699 0.767678 0.368076
O O10 0.100269 0.656699 0.725527
O O11 0.687828 0.820580 0.927096
O O12 0.500000 0.500000 0.500000
O O13 0.487157 0.373490 0.173702
O O14 0.313458 0.457154 0.939251
O O15 0.834298 0.388764 0.738817
O O16 0.047775 0.231379 0.386389
O O17 0.500000 0.500000 0.000000
#
# Coordination Sequence:
#
# PCOD9088299 Si02
#       8
#     2   2   2   2   2   2   2   2
#     4  11  22  41  63  95 130 172 229 276 344 408
#     4  10  22  43  71 101 145 179 235 291 352 416
#     4  11  22  43  66  97 134 179 227 280 346 421
#     4   9  19  41  64  88 133 169 221 283 337 407
#     4   9  22  38  61  91 127 171 217 281 339 400
#     4  10  23  42  70 105 136 189 230 291 352 421
#     4  10  23  42  65  93 136 178 215 287 339 408
#     4  10  19  37  60  87 125 167 215 279 337 406
#
# _framework density 24.7897
#
# number of rings (size 3 to 8) (size 9 to 14) (size 15 to 20)
#    0.000    2.000    2.500    0.750    1.750    3.000 
#    6.750    0.000    0.000    0.000    0.000    0.000 
#    0.000    0.000    0.000    0.000    0.000    0.000 
#
# Total GULP energy -89391.042818 kJ/mol
# GULP energy per Si atom -5586.940176 kJ/mol
# Density = 2.473328 g / cm^3
# Si number density = 24.789700 Si / 1000 Ang^3
#
#
#
# Elastic Constant Matrix: (Units=GPa)
#
#
# Indices 1 2 3 4 5 6 
#
# 1 139.0731 55.3310 31.4736 -0.2748 -8.6982 29.7675
# 2 55.3310 147.9898 37.7705 19.8238 1.9472 9.0104
# 3 31.4736 37.7705 73.1238 10.9497 10.8867 4.3972
# 4 -0.2748 19.8238 10.9497 33.0631 7.9469 -5.7855
# 5 -8.6982 1.9472 10.8867 7.9469 25.4245 2.4260
# 6 29.7675 9.0104 4.3972 -5.7855 2.4260 51.2428
#
#
#
# Elastic Compliance Matrix: (Units=1/GPa)
#
#
# Indices 1 2 3 4 5 6 
#
# 1 0.010763 -0.002887 -0.003776 0.000683 0.005843 -0.005620
# 2 -0.002887 0.009252 -0.002950 -0.004921 0.001134 -0.000306
# 3 -0.003776 -0.002950 0.018305 -0.002083 -0.008377 0.001303
# 4 0.000683 -0.004921 -0.002083 0.037404 -0.010702 0.005377
# 5 0.005843 0.001134 -0.008377 -0.010702 0.048786 -0.006393
# 6 -0.005620 -0.000306 0.001303 0.005377 -0.006393 0.023632
#
#
# Mechanical properties :
#
#
# Convention : Reuss Voigt Hill
#
# Bulk Modulus (GPa) = 52.36863 67.70409 60.03636
# Shear Modulus (GPa) = 28.77965 37.65353 33.21659
#
# Velocity S-wave (km/s) = 3.41097 3.90156 3.66448
# Velocity P-wave (km/s) = 6.05673 6.90412 6.49426
#
# Compressibility (1/GPa) = 0.01909540
#
# Stress axis : x y z
#
# Youngs Moduli (GPa) = 92.90879 108.08093 54.62900
#
# Poissons Ratio (x) = 0.31199 0.20627
# Poissons Ratio (y) = 0.26820 0.16117
# Poissons Ratio (z) = 0.35080 0.31887
#
# Static dielectric constant tensor:
#      x y z
#    x 2.146630 -0.063840 0.199020 
#    y -0.063840 1.980770 -0.197710 
#    z 0.199020 -0.197710 2.604470 
# 
# From -- ./inp_files/107587.got.cif
#   From: 2010.05.17/outbox.cif.g08.bks.cpg/sg2_54_cif.got.tgz:107587.got - 2010.06.03 11:33:40.
