data_PCOD9088627
_publ_section_title
;
Structure prediction by ZEFSAII (Michael W. Deem and Ramdas Pophale) SiO2 
 PCOD9088627
Probable space group: P -1
;
_chemical_formula_sum "Si O2"
_cell_formula_units_Z 16
_cell_length_a 20.197777
_cell_length_b 12.891918
_cell_length_c 15.263839
_cell_angle_alpha 28.213467
_cell_angle_beta 30.660878
_cell_angle_gamma 20.877775
_cell_volume 653.398275
_symmetry_space_group_name_H-M "P -1"
_symmetry_group_IT_number 2
_symmetry_cell_setting 'triclinic'
loop_
_space_group_symop_operation_xyz
x,y,z
-x,-y,-z
loop_
_atom_site_type_symbol
_atom_site_label
_atom_site_fract_x
_atom_site_fract_y
_atom_site_fract_z
Si Si1 0.382647 0.642786 0.890620
Si Si2 0.788837 0.586695 0.748791
Si Si3 0.843214 0.692342 0.957150
Si Si4 0.682425 0.428617 0.339907
Si Si5 0.668467 0.627535 0.561861
Si Si6 0.037544 0.382378 0.780200
Si Si7 0.779290 0.236766 0.568101
Si Si8 0.798725 0.044617 0.324195
O O1 0.584037 0.505444 0.788342
O O2 0.207627 0.992986 0.874243
O O3 0.323431 0.745395 0.778645
O O4 0.366072 0.405570 0.100406
O O5 0.731335 0.892570 0.549861
O O6 0.863598 0.526736 0.807853
O O7 0.983235 0.260704 0.724509
O O8 0.961003 0.514395 0.865714
O O9 0.737178 0.054860 0.795820
O O10 0.692737 0.679485 0.145098
O O11 0.000000 0.500000 0.000000
O O12 0.500000 0.500000 0.500000
O O13 0.763398 0.258394 0.467160
O O14 0.782544 0.235502 0.279330
O O15 0.862232 0.517371 0.446391
O O16 0.684207 0.548001 0.500490
O O17 0.500000 0.000000 0.500000
O O18 0.000000 0.000000 0.500000
#
# Coordination Sequence:
#
# PCOD9088627 Si02
#       8
#     2   2   2   2   2   2   2   2
#     4  10  20  38  60  88 128 163 205 267 333 379
#     4  10  20  36  62  91 119 162 216 263 314 393
#     4  12  24  41  68  96 131 182 229 275 334 408
#     4  12  26  42  66 100 138 171 223 286 336 391
#     4  10  22  40  65  93 128 169 213 273 330 383
#     4  10  19  37  62  88 122 168 214 260 326 386
#     4  12  24  45  70  98 135 181 227 273 335 411
#     4  10  21  36  61  90 124 163 209 264 323 384
#
# _framework density 24.487362999999998
#
# number of rings (size 3 to 8) (size 9 to 14) (size 15 to 20)
#    0.000    1.250    2.500    4.500    0.000    1.500 
#    0.000    0.000    0.000   16.500    0.000    0.000 
#    0.000    0.000    0.000    0.000    0.000    0.000 
#
# Total GULP energy -89449.135371 kJ/mol
# GULP energy per Si atom -5590.570961 kJ/mol
# Density = 2.443163 g / cm^3
# Si number density = 24.487363 Si / 1000 Ang^3
#
#
#
# Elastic Constant Matrix: (Units=GPa)
#
#
# Indices 1 2 3 4 5 6 
#
# 1 91.2084 42.1553 19.0334 3.3954 -10.2000 24.5519
# 2 42.1553 87.8637 4.5568 -2.1019 5.8354 37.5814
# 3 19.0334 4.5568 156.6580 -11.0638 -46.4132 -1.4774
# 4 3.3954 -2.1019 -11.0638 29.8161 -1.0306 -8.9693
# 5 -10.2000 5.8354 -46.4132 -1.0306 53.9743 9.6129
# 6 24.5519 37.5814 -1.4774 -8.9693 9.6129 36.7963
#
#
#
# Elastic Compliance Matrix: (Units=1/GPa)
#
#
# Indices 1 2 3 4 5 6 
#
# 1 0.016186 -0.004416 -0.001072 -0.005003 0.004053 -0.008611
# 2 -0.004416 0.022447 -0.000690 -0.004512 -0.000191 -0.021057
# 3 -0.001072 -0.000690 0.009075 0.003931 0.007617 0.000753
# 4 -0.005003 -0.004512 0.003931 0.040645 0.000514 0.017877
# 5 0.004053 -0.000191 0.007617 0.000514 0.027524 -0.009269
# 6 -0.008611 -0.021057 0.000753 0.017877 -0.009269 0.061238
#
#
# Mechanical properties :
#
#
# Convention : Reuss Voigt Hill
#
# Bulk Modulus (GPa) = 28.28676 51.91344 40.10010
# Shear Modulus (GPa) = 24.84419 42.11633 33.48026
#
# Velocity S-wave (km/s) = 3.18869 4.15169 3.70164
# Velocity P-wave (km/s) = 5.01335 6.65043 5.88905
#
# Compressibility (1/GPa) = 0.03535223
#
# Stress axis : x y z
#
# Youngs Moduli (GPa) = 61.78221 44.54919 110.19367
#
# Poissons Ratio (x) = 0.19672 0.11812
# Poissons Ratio (y) = 0.27282 0.07605
# Poissons Ratio (z) = 0.06623 0.03074
#
# Static dielectric constant tensor:
#      x y z
#    x 1.867260 -0.011800 -0.052960 
#    y -0.011800 1.968880 0.035110 
#    z -0.052960 0.035110 2.025170 
# 
# From -- ./inp_files/541053.got.cif
#   From: 2010.05.17/outbox.cif.g08.bks.cpg/sg2_271_cif.got.tgz:541053.got - 2010.06.03 11:33:40.
