data_PCOD9088769
_publ_section_title
;
Structure prediction by ZEFSAII (Michael W. Deem and Ramdas Pophale) SiO2 
 PCOD9088769
Probable space group: P -1
;
_chemical_formula_sum "Si O2"
_cell_formula_units_Z 16
_cell_length_a 31.390243
_cell_length_b 9.832683
_cell_length_c 13.078651
_cell_angle_alpha 33.145846
_cell_angle_beta 154.518707
_cell_angle_gamma 151.921936
_cell_volume 800.639813
_symmetry_space_group_name_H-M "P -1"
_symmetry_group_IT_number 2
_symmetry_cell_setting 'triclinic'
loop_
_space_group_symop_operation_xyz
x,y,z
-x,-y,-z
loop_
_atom_site_type_symbol
_atom_site_label
_atom_site_fract_x
_atom_site_fract_y
_atom_site_fract_z
Si Si1 0.995999 0.989433 0.335508
Si Si2 0.432471 0.175828 0.507926
Si Si3 0.820902 0.092635 0.800436
Si Si4 0.454153 0.676943 0.558010
Si Si5 0.174624 0.382828 0.635851
Si Si6 0.444431 0.736866 0.960073
Si Si7 0.026343 0.786946 0.316360
Si Si8 0.187610 0.223766 0.227161
O O1 0.888436 0.692720 0.342810
O O2 0.040283 0.984278 0.321240
O O3 0.098298 0.108820 0.565929
O O4 0.929449 0.158794 0.063690
O O5 0.500000 0.500000 0.500000
O O6 0.491997 0.235410 0.491999
O O7 0.295070 0.052966 0.290836
O O8 0.442254 0.922470 0.743595
O O9 0.836237 0.369963 0.600370
O O10 0.799194 0.875527 0.795042
O O11 0.312984 0.486733 0.370550
O O12 0.500000 0.000000 0.500000
O O13 0.493481 0.442944 0.819615
O O14 0.311610 0.501309 0.858223
O O15 0.500000 0.000000 0.000000
O O16 0.000000 0.500000 0.500000
O O17 0.912384 0.704161 0.053754
O O18 0.133742 0.963065 0.359465
#
# Coordination Sequence:
#
# PCOD9088769 Si02
#       8
#     2   2   2   2   2   2   2   2
#     4  10  21  35  58  85 120 153 198 252 320 361
#     4  11  21  40  67  93 123 166 216 259 313 383
#     4  10  19  37  63  86 116 154 211 256 305 367
#     4  12  26  42  62  98 136 169 206 269 328 374
#     4  10  21  36  57  91 118 150 205 258 304 371
#     4  11  23  40  68  93 124 170 221 262 311 386
#     4  10  22  39  62  84 117 164 206 256 316 373
#     4  10  22  40  59  89 120 160 214 257 306 389
#
# _framework density 19.984016
#
# number of rings (size 3 to 8) (size 9 to 14) (size 15 to 20)
#    0.000    1.500    2.500    2.625    0.000    4.500 
#    0.000    3.750    0.000    0.000    0.000    0.000 
#    0.000    0.000    0.000    0.000    0.000    0.000 
#
# Total GULP energy -89081.713871 kJ/mol
# GULP energy per Si atom -5567.607117 kJ/mol
# Density = 1.993853 g / cm^3
# Si number density = 19.984016 Si / 1000 Ang^3
#
#
#
# Elastic Constant Matrix: (Units=GPa)
#
#
# Indices 1 2 3 4 5 6 
#
# 1 90.2980 44.4719 27.3315 8.1206 -1.6042 11.8552
# 2 44.4719 113.9394 50.5610 5.3251 12.7279 9.9200
# 3 27.3315 50.5610 76.0551 2.8452 3.1965 4.0359
# 4 8.1206 5.3251 2.8452 38.8909 7.8127 -4.0011
# 5 -1.6042 12.7279 3.1965 7.8127 21.7578 -6.8030
# 6 11.8552 9.9200 4.0359 -4.0011 -6.8030 39.1300
#
#
#
# Elastic Compliance Matrix: (Units=1/GPa)
#
#
# Indices 1 2 3 4 5 6 
#
# 1 0.014910 -0.005144 -0.001877 -0.003507 0.004851 -0.002535
# 2 -0.005144 0.015658 -0.008026 0.001153 -0.009763 -0.003163
# 3 -0.001877 -0.008026 0.019024 -0.000232 0.002155 0.000992
# 4 -0.003507 0.001153 -0.000232 0.028625 -0.010590 0.001880
# 5 0.004851 -0.009763 0.002155 -0.010590 0.058607 0.009889
# 6 -0.002535 -0.003163 0.000992 0.001880 0.009889 0.028935
#
#
# Mechanical properties :
#
#
# Convention : Reuss Voigt Hill
#
# Bulk Modulus (GPa) = 51.28476 58.33569 54.81023
# Shear Modulus (GPa) = 24.70950 30.48428 27.59689
#
# Velocity S-wave (km/s) = 3.52015 3.90992 3.72014
# Velocity P-wave (km/s) = 6.49927 7.04541 6.77785
#
# Compressibility (1/GPa) = 0.01949897
#
# Stress axis : x y z
#
# Youngs Moduli (GPa) = 67.06742 63.86578 52.56643
#
# Poissons Ratio (x) = 0.32854 0.09864
# Poissons Ratio (y) = 0.34501 0.42188
# Poissons Ratio (z) = 0.12586 0.51256
#
# Static dielectric constant tensor:
#      x y z
#    x 1.719840 -0.015470 -0.010940 
#    y -0.015470 1.719640 0.018010 
#    z -0.010940 0.018010 1.710550 
# 
# From -- ./inp_files/403182.got.cif
#   From: 2010.05.17/outbox.cif.g08.bks.cpg/sg2_202_cif.got.tgz:403182.got - 2010.06.03 11:33:40.
