data_PCOD9088082
_publ_section_title
;
Structure prediction by ZEFSAII (Michael W. Deem and Ramdas Pophale) SiO2 
 PCOD9088082
Probable space group: P -1
;
_chemical_formula_sum "Si O2"
_cell_formula_units_Z 16
_cell_length_a 7.334070
_cell_length_b 21.011480
_cell_length_c 5.767031
_cell_angle_alpha 55.268654
_cell_angle_beta 115.759555
_cell_angle_gamma 109.654854
_cell_volume 653.035596
_symmetry_space_group_name_H-M "P -1"
_symmetry_group_IT_number 2
_symmetry_cell_setting 'triclinic'
loop_
_space_group_symop_operation_xyz
x,y,z
-x,-y,-z
loop_
_atom_site_type_symbol
_atom_site_label
_atom_site_fract_x
_atom_site_fract_y
_atom_site_fract_z
Si Si1 0.862122 0.181781 0.130962
Si Si2 0.173686 0.655619 0.257915
Si Si3 0.503645 0.301899 0.269782
Si Si4 0.307587 0.559653 0.142329
Si Si5 0.051028 0.041075 0.693780
Si Si6 0.231753 0.231641 0.883426
Si Si7 0.891440 0.604554 0.582738
Si Si8 0.591031 0.852118 0.209157
O O1 0.930136 0.117183 0.470693
O O2 0.850155 0.266783 0.061518
O O3 0.647235 0.148271 0.966403
O O4 0.040104 0.202283 0.998854
O O5 0.292317 0.691779 0.476434
O O6 0.301018 0.597479 0.314811
O O7 0.965275 0.612334 0.337700
O O8 0.375641 0.233025 0.489362
O O9 0.517527 0.393782 0.017087
O O10 0.440020 0.263946 0.066475
O O11 0.284141 0.466877 0.328995
O O12 0.087785 0.582044 0.878419
O O13 0.290524 0.075717 0.743756
O O14 0.000000 0.000000 0.500000
O O15 0.000000 0.000000 0.000000
O O16 0.172497 0.311221 0.567296
O O17 0.290190 0.155769 0.946603
#
# Coordination Sequence:
#
# PCOD9088082 Si02
#       8
#     2   2   2   2   2   2   2   2
#     4  10  23  47  73 105 139 194 237 297 364 444
#     4   9  19  37  62  96 132 188 241 288 358 425
#     4  10  20  37  61  93 130 175 243 291 341 431
#     4  10  19  37  58  96 137 185 245 299 364 418
#     4  12  28  52  78 118 154 189 245 308 381 465
#     4  11  22  43  68 100 141 190 247 296 358 431
#     4   9  21  34  59  93 142 188 237 306 357 423
#     4  11  25  47  74 105 144 189 243 296 362 449
#
# _framework density 24.500961
#
# number of rings (size 3 to 8) (size 9 to 14) (size 15 to 20)
#    0.000    1.750    1.250    3.375    1.750    1.500 
#   13.500    1.250    0.000    0.000    0.000    0.000 
#    0.000    0.000    0.000    0.000    0.000    0.000 
#
# Total GULP energy -89082.353019 kJ/mol
# GULP energy per Si atom -5567.647064 kJ/mol
# Density = 2.444520 g / cm^3
# Si number density = 24.500961 Si / 1000 Ang^3
#
#
#
# Elastic Constant Matrix: (Units=GPa)
#
#
# Indices 1 2 3 4 5 6 
#
# 1 77.5098 39.0764 25.6779 1.8770 -0.6065 27.0045
# 2 39.0764 115.7266 54.1026 -3.7578 -7.1920 33.5761
# 3 25.6779 54.1026 120.0640 -22.6874 6.2869 11.1709
# 4 1.8770 -3.7578 -22.6874 37.5199 11.2494 -2.4919
# 5 -0.6065 -7.1920 6.2869 11.2494 21.5218 -12.0831
# 6 27.0045 33.5761 11.1709 -2.4919 -12.0831 32.0964
#
#
#
# Elastic Compliance Matrix: (Units=1/GPa)
#
#
# Indices 1 2 3 4 5 6 
#
# 1 0.020764 -0.001263 -0.001623 -0.000429 -0.010025 -0.019391
# 2 -0.001263 0.015788 -0.006440 -0.003653 0.001844 -0.012802
# 3 -0.001623 -0.006440 0.014739 0.012358 -0.013637 -0.001202
# 4 -0.000429 -0.003653 0.012358 0.042860 -0.032263 -0.008938
# 5 -0.010025 0.001844 -0.013637 -0.032263 0.092003 0.043383
# 6 -0.019391 -0.012802 -0.001202 -0.008938 0.043383 0.076919
#
#
# Mechanical properties :
#
#
# Convention : Reuss Voigt Hill
#
# Bulk Modulus (GPa) = 30.63909 61.22379 45.93144
# Shear Modulus (GPa) = 17.08780 31.19051 24.13916
#
# Velocity S-wave (km/s) = 2.64376 3.57183 3.14225
# Velocity P-wave (km/s) = 4.67458 6.48484 5.65265
#
# Compressibility (1/GPa) = 0.03263804
#
# Stress axis : x y z
#
# Youngs Moduli (GPa) = 48.16016 63.33739 67.84709
#
# Poissons Ratio (x) = 0.08001 0.11015
# Poissons Ratio (y) = 0.06084 0.43694
# Poissons Ratio (z) = 0.07819 0.40789
#
# Static dielectric constant tensor:
#      x y z
#    x 1.971850 0.038750 -0.037850 
#    y 0.038750 1.993910 0.049970 
#    z -0.037850 0.049970 2.104780 
# 
# From -- ./inp_files/54632.got.cif
#   From: 2010.05.17/outbox.cif.g08.bks.cpg/sg2_28_cif.got.tgz:54632.got - 2010.06.03 11:33:40.
