data_PCOD9088582
_publ_section_title
;
Structure prediction by ZEFSAII (Michael W. Deem and Ramdas Pophale) SiO2 
 PCOD9088582
Probable space group: P -1
;
_chemical_formula_sum "Si O2"
_cell_formula_units_Z 16
_cell_length_a 22.623317
_cell_length_b 22.333026
_cell_length_c 12.651364
_cell_angle_alpha 23.795010
_cell_angle_beta 26.284629
_cell_angle_gamma 17.787472
_cell_volume 771.000184
_symmetry_space_group_name_H-M "P -1"
_symmetry_group_IT_number 2
_symmetry_cell_setting 'triclinic'
loop_
_space_group_symop_operation_xyz
x,y,z
-x,-y,-z
loop_
_atom_site_type_symbol
_atom_site_label
_atom_site_fract_x
_atom_site_fract_y
_atom_site_fract_z
Si Si1 0.902578 0.307469 0.924829
Si Si2 0.390194 0.324962 0.614039
Si Si3 0.518852 0.801852 0.019071
Si Si4 0.486567 0.556229 0.606561
Si Si5 0.776274 0.074666 0.843590
Si Si6 0.705302 0.857618 0.785835
Si Si7 0.892694 0.468089 0.456081
Si Si8 0.959165 0.359775 0.966322
O O1 0.889072 0.380931 0.711279
O O2 0.935179 0.405010 0.805948
O O3 0.703523 0.384052 0.153274
O O4 0.099437 0.047562 0.050466
O O5 0.410106 0.458270 0.432851
O O6 0.284511 0.425394 0.509605
O O7 0.605583 0.075607 0.653652
O O8 0.274828 0.296667 0.915673
O O9 0.421149 0.752879 0.325763
O O10 0.392922 0.909093 0.940726
O O11 0.551290 0.923087 0.838362
O O12 0.740308 0.559299 0.038599
O O13 0.645841 0.328651 0.653322
O O14 0.944695 0.883624 0.797001
O O15 0.907489 0.727679 0.613707
O O16 0.908556 0.628671 0.204370
#
# Coordination Sequence:
#
# PCOD9088582 Si02
#       8
#     2   2   2   2   2   2   2   2
#     4  10  24  37  55  88 120 149 192 229 281 352
#     4  10  22  40  64  84 113 151 191 239 283 334
#     4  10  19  37  62  85 116 147 188 245 286 328
#     4  11  23  38  56  86 121 151 191 232 281 345
#     4  10  20  36  56  84 117 153 184 230 288 335
#     4   9  21  40  62  91 108 143 199 241 282 331
#     4  11  21  41  61  84 116 151 189 239 286 330
#     4   9  21  37  59  88 112 145 194 239 279 339
#
# _framework density 20.752264
#
# number of rings (size 3 to 8) (size 9 to 14) (size 15 to 20)
#    0.750    1.250    1.250    1.875    0.000    4.500 
#    0.000    5.625    0.000    0.000    0.000    0.000 
#    0.000    0.000    0.000    0.000    0.000    0.000 
#
# Total GULP energy -89108.905234 kJ/mol
# GULP energy per Si atom -5569.306577 kJ/mol
# Density = 2.070503 g / cm^3
# Si number density = 20.752264 Si / 1000 Ang^3
#
#
#
# Elastic Constant Matrix: (Units=GPa)
#
#
# Indices 1 2 3 4 5 6 
#
# 1 93.2441 18.1036 -4.7165 -10.8796 -3.1182 -12.0889
# 2 18.1036 76.8742 15.9085 -5.2039 -4.5746 5.6973
# 3 -4.7165 15.9085 29.2570 -0.5398 0.5552 -1.9861
# 4 -10.8796 -5.2039 -0.5398 -20.5275 2.4556 -2.1397
# 5 -3.1182 -4.5746 0.5552 2.4556 26.2777 -8.1526
# 6 -12.0889 5.6973 -1.9861 -2.1397 -8.1526 36.0642
#
#
#
# Elastic Compliance Matrix: (Units=1/GPa)
#
#
# Indices 1 2 3 4 5 6 
#
# 1 0.011909 -0.004331 0.004475 -0.005551 0.002698 0.005203
# 2 -0.004331 0.016424 -0.009968 -0.000996 0.001296 -0.004362
# 3 0.004475 -0.009968 0.040650 -0.001490 -0.000326 0.005151
# 4 -0.005551 -0.000996 -0.001490 -0.044811 0.002160 -0.003956
# 5 0.002698 0.001296 -0.000326 0.002160 0.041573 0.010208
# 6 0.005203 -0.004362 0.005151 -0.003956 0.010208 0.032518
#
#
# Mechanical properties :
#
#
# Convention : Reuss Voigt Hill
#
# Bulk Modulus (GPa) = 20.27028 28.66293 24.46661
# Shear Modulus (GPa) = 37.21456 19.70153 28.45805
#
# Velocity S-wave (km/s) = 4.23930 3.08452 3.70715
# Velocity P-wave (km/s) = 5.80958 5.15050 5.48994
#
# Compressibility (1/GPa) = 0.04933331
#
# Stress axis : x y z
#
# Youngs Moduli (GPa) = 83.97070 60.88669 24.60049
#
# Poissons Ratio (x) = 0.26372 -0.11008
# Poissons Ratio (y) = 0.36371 0.24521
# Poissons Ratio (z) = -0.37573 0.60691
#
# Static dielectric constant tensor:
#      x y z
#    x 1.769460 -0.010380 -0.000120 
#    y -0.010380 1.772320 -0.018490 
#    z -0.000120 -0.018490 1.742620 
# 
# From -- ./inp_files/472706.got.cif
#   From: 2010.05.17/outbox.cif.g08.bks.cpg/sg2_237_cif.got.tgz:472706.got - 2010.06.03 11:33:40.
