data_PCOD9088327
_publ_section_title
;
Structure prediction by ZEFSAII (Michael W. Deem and Ramdas Pophale) SiO2 
 PCOD9088327
Probable space group: P -1
;
_chemical_formula_sum "Si O2"
_cell_formula_units_Z 16
_cell_length_a 8.515052
_cell_length_b 22.202285
_cell_length_c 10.849096
_cell_angle_alpha 31.355902
_cell_angle_beta 77.863013
_cell_angle_gamma 57.936268
_cell_volume 754.646476
_symmetry_space_group_name_H-M "P -1"
_symmetry_group_IT_number 2
_symmetry_cell_setting 'triclinic'
loop_
_space_group_symop_operation_xyz
x,y,z
-x,-y,-z
loop_
_atom_site_type_symbol
_atom_site_label
_atom_site_fract_x
_atom_site_fract_y
_atom_site_fract_z
Si Si1 0.695141 0.726820 0.254662
Si Si2 0.970438 0.002826 0.851799
Si Si3 0.358955 0.234929 0.183691
Si Si4 0.244324 0.653928 0.473677
Si Si5 0.686672 0.999884 0.331067
Si Si6 0.192537 0.497550 0.575000
Si Si7 0.795771 0.518388 0.031463
Si Si8 0.496033 0.316324 0.429972
O O1 0.710672 0.598193 0.399931
O O2 0.626352 0.726892 0.402783
O O3 0.937712 0.661143 0.319098
O O4 0.507687 0.893330 0.925958
O O5 0.113711 0.023496 0.714668
O O6 0.712022 0.155392 0.608532
O O7 0.080774 0.822361 0.134869
O O8 0.000000 0.000000 0.000000
O O9 0.578800 0.103790 0.293984
O O10 0.374624 0.316547 0.150484
O O11 0.267333 0.157327 0.378011
O O12 0.190013 0.383432 0.859809
O O13 0.330720 0.523201 0.582934
O O14 0.412384 0.641994 0.552929
O O15 0.131717 0.623946 0.644999
O O16 0.670469 0.543539 0.884416
O O17 0.000000 0.500000 0.000000
#
# Coordination Sequence:
#
# PCOD9088327 Si02
#       8
#     2   2   2   2   2   2   2   2
#     4  10  19  37  60  90 117 154 201 246 299 347
#     4  10  21  38  59  88 123 156 199 240 306 356
#     4   9  21  38  62  85 117 157 204 243 300 338
#     4  10  21  40  59  87 120 158 196 242 306 351
#     4  10  19  40  63  85 117 161 199 250 288 360
#     4   9  20  38  60  89 119 151 203 249 293 357
#     4  11  24  40  60  89 123 156 203 250 296 359
#     4  11  22  38  60  88 121 159 198 244 304 359
#
# _framework density 21.201982000000001
#
# number of rings (size 3 to 8) (size 9 to 14) (size 15 to 20)
#    0.000    2.000    2.500    1.875    3.500    1.500 
#    4.500    2.500    0.000    0.000    0.000    0.000 
#    0.000    0.000    0.000    0.000    0.000    0.000 
#
# Total GULP energy -89217.483249 kJ/mol
# GULP energy per Si atom -5576.092703 kJ/mol
# Density = 2.115372 g / cm^3
# Si number density = 21.201982 Si / 1000 Ang^3
#
#
#
# Elastic Constant Matrix: (Units=GPa)
#
#
# Indices 1 2 3 4 5 6 
#
# 1 63.2767 35.2955 32.6973 4.3541 -3.4002 0.8166
# 2 35.2955 81.4694 27.4700 16.4397 -8.7078 -16.2272
# 3 32.6973 27.4700 74.9461 5.4272 -8.1120 -19.2841
# 4 4.3541 16.4397 5.4272 19.2561 -1.6869 -11.8945
# 5 -3.4002 -8.7078 -8.1120 -1.6869 34.3970 5.2050
# 6 0.8166 -16.2272 -19.2841 -11.8945 5.2050 36.9371
#
#
#
# Elastic Compliance Matrix: (Units=1/GPa)
#
#
# Indices 1 2 3 4 5 6 
#
# 1 0.027409 -0.010176 -0.011102 -0.001370 -0.000858 -0.011193
# 2 -0.010176 0.020558 -0.000741 -0.011935 0.002736 0.004641
# 3 -0.011102 -0.000741 0.021537 0.004956 0.002152 0.012457
# 4 -0.001370 -0.011935 0.004956 0.074164 -0.001602 0.021482
# 5 -0.000858 0.002736 0.002152 -0.001602 0.030482 -0.002467
# 6 -0.011193 0.004641 0.012457 0.021482 -0.002467 0.043128
#
#
# Mechanical properties :
#
#
# Convention : Reuss Voigt Hill
#
# Bulk Modulus (GPa) = 39.26683 45.62420 42.44551
# Shear Modulus (GPa) = 18.53190 26.39999 22.46595
#
# Velocity S-wave (km/s) = 2.95967 3.53252 3.25870
# Velocity P-wave (km/s) = 5.49910 6.18092 5.84995
#
# Compressibility (1/GPa) = 0.02546679
#
# Stress axis : x y z
#
# Youngs Moduli (GPa) = 36.48445 48.64235 46.43115
#
# Poissons Ratio (x) = 0.49498 0.51547
# Poissons Ratio (y) = 0.37126 0.03441
# Poissons Ratio (z) = 0.40504 0.03605
#
# Static dielectric constant tensor:
#      x y z
#    x 1.775650 0.013980 -0.013720 
#    y 0.013980 1.815960 -0.028270 
#    z -0.013720 -0.028270 1.786360 
# 
# From -- ./inp_files/406518.got.cif
#   From: 2010.05.17/outbox.cif.g08.bks.cpg/sg2_204_cif.got.tgz:406518.got - 2010.06.03 11:33:40.
