data_PCOD9088578
_publ_section_title
;
Structure prediction by ZEFSAII (Michael W. Deem and Ramdas Pophale) SiO2 
 PCOD9088578
Probable space group: P -1
;
_chemical_formula_sum "Si O2"
_cell_formula_units_Z 12
_cell_length_a 5.310010
_cell_length_b 6.923255
_cell_length_c 14.135781
_cell_angle_alpha 119.108467
_cell_angle_beta 94.572892
_cell_angle_gamma 100.397397
_cell_volume 438.010754
_symmetry_space_group_name_H-M "P -1"
_symmetry_group_IT_number 2
_symmetry_cell_setting 'triclinic'
loop_
_space_group_symop_operation_xyz
x,y,z
-x,-y,-z
loop_
_atom_site_type_symbol
_atom_site_label
_atom_site_fract_x
_atom_site_fract_y
_atom_site_fract_z
Si Si1 0.691186 0.748317 0.537215
Si Si2 0.144825 0.347881 0.301988
Si Si3 0.349737 0.321014 0.874351
Si Si4 0.501212 0.792634 0.355919
Si Si5 0.843071 0.312188 0.089968
Si Si6 0.586081 0.948007 0.867919
O O1 0.500000 0.500000 0.500000
O O2 0.930811 0.745473 0.616316
O O3 0.733323 0.771414 0.430454
O O4 0.563659 0.963740 0.598526
O O5 0.262367 0.617593 0.360410
O O6 0.359589 0.206831 0.251465
O O7 0.985677 0.297232 0.187821
O O8 0.457963 0.307482 0.768527
O O9 0.099369 0.424247 0.875930
O O10 0.379321 0.084639 0.860184
O O11 0.500000 0.500000 0.000000
O O12 0.837542 0.134001 0.962645
O O13 0.539936 0.223242 0.093026
#
# Coordination Sequence:
#
# PCOD9088578 Si02
#       6
#     2   2   2   2   2   2
#     4   9  20  36  62  88 111 156 203 240 295 349
#     4  11  20  36  62  88 115 155 203 241 290 347
#     4  10  20  37  57  84 121 157 189 236 300 350
#     4  10  19  37  62  84 119 156 194 246 294 345
#     4  10  22  36  56  89 122 156 196 241 289 351
#     4  10  20  38  57  82 125 161 191 237 294 348
#
# _framework density 27.396588000000001
#
# number of rings (size 3 to 8) (size 9 to 14) (size 15 to 20)
#    0.000    2.000    3.333    0.500    0.000    1.333 
#    0.000    2.500    0.000    6.000    0.000    0.000 
#    0.000    0.000    0.000    0.000    0.000    0.000 
#
# Total GULP energy -66878.743912 kJ/mol
# GULP energy per Si atom -5573.228659 kJ/mol
# Density = 2.733423 g / cm^3
# Si number density = 27.396588 Si / 1000 Ang^3
#
#
#
# Elastic Constant Matrix: (Units=GPa)
#
#
# Indices 1 2 3 4 5 6 
#
# 1 29.1974 37.0932 26.1730 0.4027 3.5215 -4.5151
# 2 37.0932 248.1785 100.5562 -12.8356 11.8985 -12.5308
# 3 26.1730 100.5562 165.9989 -19.8424 -1.0798 -4.9226
# 4 0.4027 -12.8356 -19.8424 78.9795 -1.5058 -3.5695
# 5 3.5215 11.8985 -1.0798 -1.5058 22.9094 -4.8099
# 6 -4.5151 -12.5308 -4.9226 -3.5695 -4.8099 20.6136
#
#
#
# Elastic Compliance Matrix: (Units=1/GPa)
#
#
# Indices 1 2 3 4 5 6 
#
# 1 0.045393 -0.004651 -0.004457 -0.001964 -0.003893 0.004803
# 2 -0.004651 0.006097 -0.002892 0.000314 -0.002247 0.001527
# 3 -0.004457 -0.002892 0.008723 0.001811 0.002783 0.000312
# 4 -0.001964 0.000314 0.001811 0.013341 0.001710 0.002903
# 5 -0.003893 -0.002247 0.002783 0.001710 0.047734 0.009880
# 6 0.004803 0.001527 0.000312 0.002903 0.009880 0.053374
#
#
# Mechanical properties :
#
#
# Convention : Reuss Voigt Hill
#
# Bulk Modulus (GPa) = 27.61473 85.66886 56.64179
# Shear Modulus (GPa) = 23.72651 43.13733 33.43192
#
# Velocity S-wave (km/s) = 2.94605 3.97237 3.49706
# Velocity P-wave (km/s) = 4.65551 7.23722 6.08486
#
# Compressibility (1/GPa) = 0.03621256
#
# Stress axis : x y z
#
# Youngs Moduli (GPa) = 22.02959 164.00507 114.64378
#
# Poissons Ratio (x) = 0.76279 0.51102
# Poissons Ratio (y) = 0.10246 0.33155
# Poissons Ratio (z) = 0.09820 0.47430
#
# Static dielectric constant tensor:
#      x y z
#    x 2.296640 -0.055520 0.160380 
#    y -0.055520 2.157270 -0.041540 
#    z 0.160380 -0.041540 2.283910 
# 
# From -- ./inp_files/293673.got.cif
#   From: 2010.05.17/outbox.cif.g08.bks.cpg/sg2_147_cif.got.tgz:293673.got - 2010.06.03 11:33:40.
