data_PCOD9088763
_publ_section_title
;
Structure prediction by ZEFSAII (Michael W. Deem and Ramdas Pophale) SiO2 
 PCOD9088763
Probable space group: P -1
;
_chemical_formula_sum "Si O2"
_cell_formula_units_Z 14
_cell_length_a 14.823300
_cell_length_b 8.786894
_cell_length_c 6.108992
_cell_angle_alpha 72.602764
_cell_angle_beta 71.161172
_cell_angle_gamma 53.784617
_cell_volume 601.450400
_symmetry_space_group_name_H-M "P -1"
_symmetry_group_IT_number 2
_symmetry_cell_setting 'triclinic'
loop_
_space_group_symop_operation_xyz
x,y,z
-x,-y,-z
loop_
_atom_site_type_symbol
_atom_site_label
_atom_site_fract_x
_atom_site_fract_y
_atom_site_fract_z
Si Si1 0.994552 0.367367 0.877945
Si Si2 0.244625 0.916039 0.296585
Si Si3 0.664466 0.398624 0.966925
Si Si4 0.825889 0.722730 0.584611
Si Si5 0.316048 0.360645 0.526177
Si Si6 0.846546 0.283896 0.257231
Si Si7 0.495819 0.675418 0.316748
O O1 0.892223 0.512136 0.729265
O O2 0.102347 0.267740 0.675504
O O3 0.964849 0.226634 0.078638
O O4 0.000000 0.500000 0.000000
O O5 0.293472 0.810060 0.072495
O O6 0.168009 0.851070 0.507132
O O7 0.364178 0.837758 0.360835
O O8 0.183609 0.139834 0.274003
O O9 0.672364 0.500380 0.703490
O O10 0.754402 0.342462 0.113854
O O11 0.547461 0.575783 0.085235
O O12 0.708992 0.767314 0.549572
O O13 0.200058 0.511949 0.679013
O O14 0.421259 0.275488 0.647798
O O15 0.500000 0.500000 0.500000
#
# Coordination Sequence:
#
# PCOD9088763 Si02
#       7
#     2   2   2   2   2   2   2
#     4  11  23  43  69  86 119 170 206 248 325 373
#     4  11  24  38  61  98 129 155 208 260 298 355
#     4  10  19  37  63  85 126 166 202 245 297 366
#     4  11  25  41  62  96 124 158 207 263 310 362
#     4  10  20  37  63  89 124 163 209 243 298 377
#     4  10  20  39  66  90 116 166 209 247 300 374
#     4  11  20  36  64  93 122 173 207 237 302 373
#
# _framework density 23.277062000000001
#
# number of rings (size 3 to 8) (size 9 to 14) (size 15 to 20)
#    0.000    1.429    7.143    0.429    0.000    2.286 
#    0.000    2.143    0.000    0.000    0.000    0.000 
#    0.000    0.000    0.000    0.000    0.000    0.000 
#
# Total GULP energy -78032.187450 kJ/mol
# GULP energy per Si atom -5573.727675 kJ/mol
# Density = 2.322408 g / cm^3
# Si number density = 23.277062 Si / 1000 Ang^3
#
#
#
# Elastic Constant Matrix: (Units=GPa)
#
#
# Indices 1 2 3 4 5 6 
#
# 1 77.8112 10.6924 13.9440 1.8957 -1.0205 17.1573
# 2 10.6924 50.9551 -1.9382 13.5802 3.1934 16.8873
# 3 13.9440 -1.9382 64.4015 12.1134 0.5917 7.2399
# 4 1.8957 13.5802 12.1134 19.4136 4.7777 9.8985
# 5 -1.0205 3.1934 0.5917 4.7777 34.2647 3.6620
# 6 17.1573 16.8873 7.2399 9.8985 3.6620 21.4344
#
#
#
# Elastic Compliance Matrix: (Units=1/GPa)
#
#
# Indices 1 2 3 4 5 6 
#
# 1 0.016955 -0.000875 -0.003620 0.009138 0.001092 -0.016066
# 2 -0.000875 0.030178 0.006111 -0.015971 0.001203 -0.017969
# 3 -0.003620 0.006111 0.019609 -0.015715 0.001337 -0.001511
# 4 0.009138 -0.015971 -0.015715 0.088081 -0.007163 -0.028876
# 5 0.001092 0.001203 0.001337 -0.007163 0.030528 -0.004181
# 6 -0.016066 -0.017969 -0.001511 -0.028876 -0.004181 0.088231
#
#
# Mechanical properties :
#
#
# Convention : Reuss Voigt Hill
#
# Bulk Modulus (GPa) = 14.29125 26.50715 20.39920
# Shear Modulus (GPa) = 17.02571 26.38719 21.70645
#
# Velocity S-wave (km/s) = 2.70744 3.37057 3.05704
# Velocity P-wave (km/s) = 3.99082 5.15364 4.60905
#
# Compressibility (1/GPa) = 0.06997287
#
# Stress axis : x y z
#
# Youngs Moduli (GPa) = 58.98029 33.13716 50.99788
#
# Poissons Ratio (x) = 0.02899 0.18461
# Poissons Ratio (y) = 0.05159 -0.31163
# Poissons Ratio (z) = 0.21351 -0.20249
#
# Static dielectric constant tensor:
#      x y z
#    x 1.993000 -0.194790 -0.226570 
#    y -0.194790 2.355970 0.593140 
#    z -0.226570 0.593140 2.583500 
# 
# From -- ./inp_files/38422.got.cif
#   From: 2010.05.17/outbox.cif.g08.bks.cpg/sg2_20_cif.got.tgz:38422.got - 2010.06.03 11:33:40.
