data_PCOD9088499
_publ_section_title
;
Structure prediction by ZEFSAII (Michael W. Deem and Ramdas Pophale) SiO2 
 PCOD9088499
Probable space group: P -1
;
_chemical_formula_sum "Si O2"
_cell_formula_units_Z 16
_cell_length_a 9.021577
_cell_length_b 10.239342
_cell_length_c 16.918582
_cell_angle_alpha 44.544488
_cell_angle_beta 141.233107
_cell_angle_gamma 132.330048
_cell_volume 661.334894
_symmetry_space_group_name_H-M "P -1"
_symmetry_group_IT_number 2
_symmetry_cell_setting 'triclinic'
loop_
_space_group_symop_operation_xyz
x,y,z
-x,-y,-z
loop_
_atom_site_type_symbol
_atom_site_label
_atom_site_fract_x
_atom_site_fract_y
_atom_site_fract_z
Si Si1 0.286560 0.119793 0.106712
Si Si2 0.308192 0.751508 0.874988
Si Si3 0.148530 0.772796 0.080414
Si Si4 0.328796 0.194307 0.723007
Si Si5 0.926659 0.727301 0.838779
Si Si6 0.578084 0.567515 0.188175
Si Si7 0.307420 0.947832 0.355334
Si Si8 0.816908 0.247088 0.463830
O O1 0.578729 0.219678 0.177556
O O2 0.238334 0.973577 0.224739
O O3 0.213678 0.987346 0.055817
O O4 0.135365 0.279743 0.985582
O O5 0.308836 0.967591 0.809969
O O6 0.038968 0.650825 0.841175
O O7 0.391372 0.707979 0.232973
O O8 0.674973 0.734262 0.220112
O O9 0.117859 0.761847 0.977226
O O10 0.498485 0.339155 0.961317
O O11 0.091616 0.235145 0.566107
O O12 0.677504 0.573480 0.826265
O O13 0.838993 0.921193 0.714401
O O14 0.762064 0.433508 0.321461
O O15 0.596581 0.059135 0.429522
O O16 0.237226 0.753738 0.462154
#
# Coordination Sequence:
#
# PCOD9088499 Si02
#       8
#     2   2   2   2   2   2   2   2
#     4   9  20  35  59  91 118 151 198 242 302 346
#     4  11  21  36  62  95 113 151 201 249 290 350
#     4   9  19  35  56  88 119 149 189 250 288 342
#     4  11  21  35  61  91 116 153 204 245 284 345
#     4  10  19  37  61  90 118 153 200 244 292 340
#     4  11  23  35  61  93 123 150 195 254 293 340
#     4   9  19  40  63  85 117 160 196 244 289 356
#     4  10  21  38  62  86 119 156 204 238 292 349
#
# _framework density 24.193490000000001
#
# number of rings (size 3 to 8) (size 9 to 14) (size 15 to 20)
#    0.000    2.000    2.500    1.125    1.750    1.000 
#    0.000    8.125    0.000    3.750    0.000    0.000 
#    0.000    0.000    0.000    0.000    0.000    0.000 
#
# Total GULP energy -89130.195445 kJ/mol
# GULP energy per Si atom -5570.637215 kJ/mol
# Density = 2.413842 g / cm^3
# Si number density = 24.193490 Si / 1000 Ang^3
#
#
#
# Elastic Constant Matrix: (Units=GPa)
#
#
# Indices 1 2 3 4 5 6 
#
# 1 102.9126 2.0306 36.9325 7.8355 25.8475 6.8008
# 2 2.0306 52.7863 33.5293 8.2249 12.4933 -0.4781
# 3 36.9325 33.5293 154.0069 2.0987 30.4393 -0.4858
# 4 7.8355 8.2249 2.0987 37.2608 10.1598 5.1616
# 5 25.8475 12.4933 30.4393 10.1598 42.9231 -0.6921
# 6 6.8008 -0.4781 -0.4858 5.1616 -0.6921 16.6034
#
#
#
# Elastic Compliance Matrix: (Units=1/GPa)
#
#
# Indices 1 2 3 4 5 6 
#
# 1 0.012534 0.002562 -0.002259 -0.000536 -0.006649 -0.005237
# 2 0.002562 0.023596 -0.004930 -0.004527 -0.003831 0.000733
# 3 -0.002259 -0.004930 0.008869 0.002123 -0.003994 0.000216
# 4 -0.000536 -0.004527 0.002123 0.031218 -0.007413 -0.009863
# 5 -0.006649 -0.003831 -0.003994 -0.007413 0.033103 0.006181
# 6 -0.005237 0.000733 0.000216 -0.009863 0.006181 0.065725
#
#
# Mechanical properties :
#
#
# Convention : Reuss Voigt Hill
#
# Bulk Modulus (GPa) = 27.97518 50.52117 39.24817
# Shear Modulus (GPa) = 25.48234 35.17169 30.32702
#
# Velocity S-wave (km/s) = 3.24894 3.81697 3.54435
# Velocity P-wave (km/s) = 5.06580 6.35241 5.74523
#
# Compressibility (1/GPa) = 0.03574597
#
# Stress axis : x y z
#
# Youngs Moduli (GPa) = 79.78374 42.37972 112.74786
#
# Poissons Ratio (x) = -0.10859 0.25465
# Poissons Ratio (y) = -0.20443 0.55589
# Poissons Ratio (z) = 0.18020 0.20895
#
# Static dielectric constant tensor:
#      x y z
#    x 2.051320 0.111900 0.032200 
#    y 0.111900 2.080230 0.027500 
#    z 0.032200 0.027500 1.979810 
# 
# From -- ./inp_files/594927.got.cif
#   From: 2010.05.17/outbox.cif.g08.bks.cpg/sg2_298_cif.got.tgz:594927.got - 2010.06.03 11:33:40.
