data_PCOD9088001
_publ_section_title
;
Structure prediction by ZEFSAII (Michael W. Deem and Ramdas Pophale) SiO2 
 PCOD9088001
Probable space group: P -1
;
_chemical_formula_sum "Si O2"
_cell_formula_units_Z 14
_cell_length_a 14.537244
_cell_length_b 9.977209
_cell_length_c 11.827987
_cell_angle_alpha 37.270998
_cell_angle_beta 105.296417
_cell_angle_gamma 123.491889
_cell_volume 812.536378
_symmetry_space_group_name_H-M "P -1"
_symmetry_group_IT_number 2
_symmetry_cell_setting 'triclinic'
loop_
_space_group_symop_operation_xyz
x,y,z
-x,-y,-z
loop_
_atom_site_type_symbol
_atom_site_label
_atom_site_fract_x
_atom_site_fract_y
_atom_site_fract_z
Si Si1 0.673806 0.394382 0.741153
Si Si2 0.673850 0.872927 0.320680
Si Si3 0.929599 0.694830 0.730871
Si Si4 0.439968 0.194528 0.913143
Si Si5 0.511797 0.361265 0.204726
Si Si6 0.882991 0.411842 0.123947
Si Si7 0.650454 0.101005 0.378667
O O1 0.674940 0.614422 0.517916
O O2 0.800698 0.526436 0.747675
O O3 0.576859 0.315968 0.859582
O O4 0.626951 0.110459 0.855420
O O5 0.613535 0.845097 0.202414
O O6 0.805943 0.146922 0.192992
O O7 0.611196 0.915719 0.376309
O O8 0.006007 0.579041 0.806557
O O9 0.915365 0.660202 0.886418
O O10 0.000000 0.000000 0.500000
O O11 0.429022 0.401590 0.841375
O O12 0.586481 0.246854 0.274297
O O13 0.390058 0.106409 0.391000
O O14 0.500000 0.500000 0.000000
O O15 0.789131 0.325987 0.250430
#
# Coordination Sequence:
#
# PCOD9088001 Si02
#       7
#     2   2   2   2   2   2   2
#     4  11  21  32  57  86 115 151 183 233 293 338
#     4  10  19  37  58  82 117 148 184 237 293 329
#     4  11  19  33  55  89 118 146 190 237 290 336
#     4  11  23  35  55  86 124 146 187 237 295 350
#     4  11  24  35  56  83 118 160 192 229 284 353
#     4   9  20  34  57  83 115 147 188 243 278 335
#     4   9  21  39  55  82 115 149 196 231 281 342
#
# _framework density 17.229997999999998
#
# number of rings (size 3 to 8) (size 9 to 14) (size 15 to 20)
#    0.857    0.857    4.286    0.429    6.000    1.143 
#    0.000    0.000    0.000    0.857    0.000    3.000 
#    0.000    0.000    0.000    0.000    0.000    0.000 
#
# Total GULP energy -77972.454014 kJ/mol
# GULP energy per Si atom -5569.461001 kJ/mol
# Density = 1.719078 g / cm^3
# Si number density = 17.229998 Si / 1000 Ang^3
#
#
#
# Elastic Constant Matrix: (Units=GPa)
#
#
# Indices 1 2 3 4 5 6 
#
# 1 103.3707 36.8494 47.2773 0.7992 -2.8690 8.2781
# 2 36.8494 46.6461 26.8670 3.7798 4.7250 3.9471
# 3 47.2773 26.8670 143.4740 -0.4742 7.6621 -1.5750
# 4 0.7992 3.7798 -0.4742 19.4289 0.1892 -4.9847
# 5 -2.8690 4.7250 7.6621 0.1892 28.0014 -3.2575
# 6 8.2781 3.9471 -1.5750 -4.9847 -3.2575 25.4793
#
#
#
# Elastic Compliance Matrix: (Units=1/GPa)
#
#
# Indices 1 2 3 4 5 6 
#
# 1 0.015193 -0.010270 -0.003320 0.000495 0.003850 -0.002962
# 2 -0.010270 0.032488 -0.002431 -0.006923 -0.006288 -0.004005
# 3 -0.003320 -0.002431 0.008656 0.001351 -0.002076 0.001989
# 4 0.000495 -0.006923 0.001351 0.055936 0.001888 0.012180
# 5 0.003850 -0.006288 -0.002076 0.001888 0.038289 0.004859
# 6 -0.002962 -0.004005 0.001989 0.012180 0.004859 0.043957
#
#
# Mechanical properties :
#
#
# Convention : Reuss Voigt Hill
#
# Bulk Modulus (GPa) = 41.15763 57.27534 49.21649
# Shear Modulus (GPa) = 21.30756 26.74842 24.02799
#
# Velocity S-wave (km/s) = 3.52043 3.94437 3.73841
# Velocity P-wave (km/s) = 6.36110 7.35240 6.87464
#
# Compressibility (1/GPa) = 0.02429683
#
# Stress axis : x y z
#
# Youngs Moduli (GPa) = 65.81780 30.78085 115.52409
#
# Poissons Ratio (x) = 0.31611 0.38353
# Poissons Ratio (y) = 0.67594 0.28079
# Poissons Ratio (z) = 0.21851 0.07482
#
# Static dielectric constant tensor:
#      x y z
#    x 1.588710 -0.002810 -0.020680 
#    y -0.002810 1.570620 -0.004250 
#    z -0.020680 -0.004250 1.643240 
# 
# From -- ./inp_files/443912.got.cif
#   From: 2010.05.17/outbox.cif.g08.bks.cpg/sg2_222_cif.got.tgz:443912.got - 2010.06.03 11:33:40.
