data_PCOD9088564
_publ_section_title
;
Structure prediction by ZEFSAII (Michael W. Deem and Ramdas Pophale) SiO2 
 PCOD9088564
Probable space group: P -1
;
_chemical_formula_sum "Si O2"
_cell_formula_units_Z 12
_cell_length_a 5.337626
_cell_length_b 17.647714
_cell_length_c 9.676104
_cell_angle_alpha 48.271034
_cell_angle_beta 71.766000
_cell_angle_gamma 51.972532
_cell_volume 528.456568
_symmetry_space_group_name_H-M "P -1"
_symmetry_group_IT_number 2
_symmetry_cell_setting 'triclinic'
loop_
_space_group_symop_operation_xyz
x,y,z
-x,-y,-z
loop_
_atom_site_type_symbol
_atom_site_label
_atom_site_fract_x
_atom_site_fract_y
_atom_site_fract_z
Si Si1 0.218629 0.586283 0.310828
Si Si2 0.737806 0.166554 0.412607
Si Si3 0.640296 0.656518 0.504372
Si Si4 0.684019 0.932620 0.351796
Si Si5 0.177103 0.793967 0.198976
Si Si6 0.078596 0.173678 0.076902
O O1 0.418381 0.450916 0.376637
O O2 0.366403 0.654535 0.270920
O O3 0.000167 0.593543 0.465810
O O4 0.997968 0.691762 0.106502
O O5 0.468413 0.292017 0.386794
O O6 0.566861 0.095725 0.514624
O O7 0.048664 0.098190 0.543774
O O8 0.854957 0.185826 0.225076
O O9 0.433714 0.774021 0.291918
O O10 0.874213 0.844878 0.292983
O O11 0.451017 0.074126 0.170155
O O12 0.013846 0.869253 0.994755
#
# Coordination Sequence:
#
# PCOD9088564 Si02
#       6
#     2   2   2   2   2   2
#     4   9  20  36  58  84 114 147 200 232 286 339
#     4  11  23  39  61  85 118 154 190 237 291 340
#     4  10  19  37  62  80 115 154 194 232 292 341
#     4  11  22  41  60  84 118 156 191 233 288 348
#     4   9  20  36  58  83 111 151 193 235 281 338
#     4  10  22  37  57  88 115 147 194 239 288 334
#
# _framework density 22.707639
#
# number of rings (size 3 to 8) (size 9 to 14) (size 15 to 20)
#    1.000    1.000    1.667    2.000    0.000    3.333 
#    0.000    4.167    0.000    5.000    0.000    0.000 
#    0.000    0.000    0.000    0.000    0.000    0.000 
#
# Total GULP energy -66807.057238 kJ/mol
# GULP energy per Si atom -5567.254770 kJ/mol
# Density = 2.265596 g / cm^3
# Si number density = 22.707639 Si / 1000 Ang^3
#
#
#
# Elastic Constant Matrix: (Units=GPa)
#
#
# Indices 1 2 3 4 5 6 
#
# 1 56.3791 -10.3715 5.2035 1.6437 1.0091 -24.6109
# 2 -10.3715 101.1580 28.0347 17.2948 -8.9287 -9.6211
# 3 5.2035 28.0347 90.1424 12.6057 -6.2057 -24.0420
# 4 1.6437 17.2948 12.6057 48.4782 -5.1015 -4.9573
# 5 1.0091 -8.9287 -6.2057 -5.1015 12.4286 -3.3713
# 6 -24.6109 -9.6211 -24.0420 -4.9573 -3.3713 14.0949
#
#
#
# Elastic Compliance Matrix: (Units=1/GPa)
#
#
# Indices 1 2 3 4 5 6 
#
# 1 -0.019929 -0.007160 -0.022874 -0.004367 -0.041175 -0.090086
# 2 -0.007160 0.009576 -0.008380 -0.003774 -0.004414 -0.022642
# 3 -0.022874 -0.008380 0.000990 -0.003526 -0.018585 -0.049656
# 4 -0.004367 -0.003774 -0.003526 0.022598 0.003118 -0.007522
# 5 -0.041175 -0.004414 -0.018585 0.003118 0.047064 -0.094255
# 6 -0.090086 -0.022642 -0.049656 -0.007522 -0.094255 -0.211694
#
#
# Mechanical properties :
#
#
# Convention : Reuss Voigt Hill
#
# Bulk Modulus (GPa) = -11.60227 32.60146 10.49959
# Shear Modulus (GPa) = -48.40360 29.98788 -9.20786
#
# Velocity S-wave (km/s) = -4.62193 3.63796 -2.01588
# Velocity P-wave (km/s) = 5.79686 5.65991 0.88572
#
# Compressibility (1/GPa) = -0.08619003
#
# Stress axis : x y z
#
# Youngs Moduli (GPa) = -50.17724 104.42760 1010.19127
#
# Poissons Ratio (x) = 0.74768 23.10671
# Poissons Ratio (y) = -0.35926 8.46528
# Poissons Ratio (z) = -1.14773 0.87509
#
# Static dielectric constant tensor:
#      x y z
#    x 1.955050 0.038240 -0.000600 
#    y 0.038240 1.868230 -0.060570 
#    z -0.000600 -0.060570 1.906730 
# 
# From -- ./inp_files/43781.got.cif
#   From: 2010.05.17/outbox.cif.g08.bks.cpg/sg2_22_cif.got.tgz:43781.got - 2010.06.03 11:33:40.
