data_PCOD9088126
_publ_section_title
;
Structure prediction by ZEFSAII (Michael W. Deem and Ramdas Pophale) SiO2 
 PCOD9088126
Probable space group: P -1
;
_chemical_formula_sum "Si O2"
_cell_formula_units_Z 15
_cell_length_a 11.522013
_cell_length_b 6.913105
_cell_length_c 15.134167
_cell_angle_alpha 83.913681
_cell_angle_beta 155.330175
_cell_angle_gamma 100.382517
_cell_volume 489.995610
_symmetry_space_group_name_H-M "P -1"
_symmetry_group_IT_number 2
_symmetry_cell_setting 'triclinic'
loop_
_space_group_symop_operation_xyz
x,y,z
-x,-y,-z
loop_
_atom_site_type_symbol
_atom_site_label
_atom_site_fract_x
_atom_site_fract_y
_atom_site_fract_z
Si Si1 0.009196 0.571615 0.832916
Si Si2 0.396699 0.765154 0.935899
Si Si3 0.337791 0.857094 0.617747
Si Si4 0.753745 0.008350 0.758427
Si Si5 0.815687 0.824059 0.075768
Si Si6 0.000000 0.500000 0.500000
Si Si7 0.791977 0.742024 0.439478
Si Si8 0.592398 0.422389 0.674481
O O1 0.866524 0.590125 0.830037
O O2 0.707707 0.543289 0.572377
O O3 0.227797 0.712043 0.913561
O O4 0.123159 0.368946 0.920904
O O5 0.668863 0.725766 0.069625
O O6 0.120076 0.693858 0.679398
O O7 0.500000 0.000000 0.000000
O O8 0.576203 0.910442 0.855537
O O9 0.200067 0.635401 0.557628
O O10 0.487202 0.860282 0.625852
O O11 0.165588 0.033159 0.506125
O O12 0.648876 0.216313 0.684028
O O13 0.900777 0.011578 0.762994
O O14 0.000000 0.000000 0.000000
O O15 0.776764 0.665517 0.333482
O O16 0.498080 0.639704 0.286063
#
# Coordination Sequence:
#
# PCOD9088126 Si02
#       8
#     2   2   2   2   2   1   2   2
#     4   9  18  35  60  83 115 159 205 245 287 361
#     4  11  23  39  57  86 123 161 197 247 302 352
#     4  10  21  39  62  91 122 154 200 253 301 362
#     4   8  16  33  62  84 117 156 193 250 302 355
#     4  10  19  37  59  85 117 158 200 245 300 354
#     4  12  22  36  64  94 120 160 196 246 314 358
#     4  10  22  42  62  91 123 155 202 251 302 360
#     4   8  16  35  61  82 117 158 196 252 295 345
#
# _framework density 30.612518000000001
#
# number of rings (size 3 to 8) (size 9 to 14) (size 15 to 20)
#    0.000    2.400    1.333    0.800    0.000    1.067 
#    7.200    0.000    0.000    9.600    0.000    0.000 
#    0.000    0.000    0.000    0.000    0.000    0.000 
#
# Total GULP energy -83558.547392 kJ/mol
# GULP energy per Si atom -5570.569826 kJ/mol
# Density = 3.054284 g / cm^3
# Si number density = 30.612518 Si / 1000 Ang^3
#
#
#
# Elastic Constant Matrix: (Units=GPa)
#
#
# Indices 1 2 3 4 5 6 
#
# 1 211.2333 50.1956 88.8977 37.0174 81.0968 43.2683
# 2 50.1956 125.2392 63.3993 42.6269 50.3239 23.6441
# 3 88.8977 63.3993 129.8391 13.0710 40.2018 11.5396
# 4 37.0174 42.6269 13.0710 59.0634 22.5215 27.5079
# 5 81.0968 50.3239 40.2018 22.5215 99.3672 13.2177
# 6 43.2683 23.6441 11.5396 27.5079 13.2177 67.8769
#
#
#
# Elastic Compliance Matrix: (Units=1/GPa)
#
#
# Indices 1 2 3 4 5 6 
#
# 1 0.010381 0.003380 -0.006066 -0.003179 -0.006448 -0.004219
# 2 0.003380 0.016025 -0.007331 -0.009131 -0.005613 -0.001697
# 3 -0.006066 -0.007331 0.014322 0.004435 0.001615 0.001874
# 4 -0.003179 -0.009131 0.004435 0.027663 0.000055 -0.006768
# 5 -0.006448 -0.005613 0.001615 0.000055 0.017180 0.002423
# 6 -0.004219 -0.001697 0.001874 -0.006768 0.002423 0.019966
#
#
# Mechanical properties :
#
#
# Convention : Reuss Voigt Hill
#
# Bulk Modulus (GPa) = 48.32684 96.81074 72.56879
# Shear Modulus (GPa) = 37.74478 62.84945 50.29712
#
# Velocity S-wave (km/s) = 3.51520 4.53599 4.05782
# Velocity P-wave (km/s) = 5.68299 7.68940 6.76104
#
# Compressibility (1/GPa) = 0.02069244
#
# Stress axis : x y z
#
# Youngs Moduli (GPa) = 96.33198 62.40398 69.82302
#
# Poissons Ratio (x) = -0.21091 0.42357
# Poissons Ratio (y) = -0.32558 0.51186
# Poissons Ratio (z) = 0.58439 0.45747
#
# Static dielectric constant tensor:
#      x y z
#    x 2.060650 0.518400 0.172030 
#    y 0.518400 2.121210 -0.294280 
#    z 0.172030 -0.294280 2.277250 
# 
# From -- ./inp_files/611168.got.cif
#   From: 2010.05.17/outbox.cif.g08.bks.cpg/sg2_306_cif.got.tgz:611168.got - 2010.06.03 11:33:40.
