data_PCOD9088661
_publ_section_title
;
Structure prediction by ZEFSAII (Michael W. Deem and Ramdas Pophale) SiO2 
 PCOD9088661
Probable space group: P -1
;
_chemical_formula_sum "Si O2"
_cell_formula_units_Z 16
_cell_length_a 7.612237
_cell_length_b 12.241103
_cell_length_c 11.641157
_cell_angle_alpha 127.065936
_cell_angle_beta 70.973891
_cell_angle_gamma 70.514162
_cell_volume 582.214878
_symmetry_space_group_name_H-M "P -1"
_symmetry_group_IT_number 2
_symmetry_cell_setting 'triclinic'
loop_
_space_group_symop_operation_xyz
x,y,z
-x,-y,-z
loop_
_atom_site_type_symbol
_atom_site_label
_atom_site_fract_x
_atom_site_fract_y
_atom_site_fract_z
Si Si1 0.664516 0.849728 0.972047
Si Si2 0.962795 0.449958 0.596672
Si Si3 0.109781 0.352388 0.733237
Si Si4 0.791436 0.230435 0.703053
Si Si5 0.778141 0.793993 0.155215
Si Si6 0.953887 0.138569 0.193402
Si Si7 0.391109 0.608943 0.393969
Si Si8 0.222168 0.785759 0.051345
O O1 0.714016 0.663040 0.832694
O O2 0.944212 0.776946 0.836569
O O3 0.594621 0.910945 0.158453
O O4 0.500000 0.000000 0.000000
O O5 0.874185 0.343583 0.523521
O O6 0.000000 0.500000 0.500000
O O7 0.182062 0.343884 0.580369
O O8 0.306592 0.207244 0.700038
O O9 0.922585 0.314686 0.736184
O O10 0.965788 0.567806 0.937231
O O11 0.615946 0.311273 0.676709
O O12 0.657703 0.280435 0.887702
O O13 0.000000 0.000000 0.500000
O O14 0.950928 0.841183 0.158417
O O15 0.666175 0.290598 0.408741
O O16 0.144902 0.976657 0.148929
O O17 0.000000 0.000000 0.000000
O O18 0.623513 0.382013 0.183316
#
# Coordination Sequence:
#
# PCOD9088661 Si02
#       8
#     2   2   2   2   2   2   2   2
#     4  11  22  39  64  90 123 171 221 270 326 386
#     4  10  19  37  62  90 125 169 214 264 318 384
#     4   8  18  33  63  87 118 170 210 259 327 377
#     4  10  19  37  66  96 127 165 214 274 324 379
#     4   9  18  39  61  88 125 165 216 270 320 383
#     4  12  24  41  62  95 135 168 214 275 325 386
#     4  11  23  40  65  96 128 174 221 260 327 399
#     4  11  22  39  66  92 130 174 211 266 333 388
#
# _framework density 27.481262999999998
#
# number of rings (size 3 to 8) (size 9 to 14) (size 15 to 20)
#    0.000    1.750    3.750    1.125    0.000    0.500 
#    0.000    2.500    0.000    1.500    0.000    0.000 
#    0.000    0.000    0.000    0.000    0.000    0.000 
#
# Total GULP energy -89372.404178 kJ/mol
# GULP energy per Si atom -5585.775261 kJ/mol
# Density = 2.741871 g / cm^3
# Si number density = 27.481263 Si / 1000 Ang^3
#
#
#
# Elastic Constant Matrix: (Units=GPa)
#
#
# Indices 1 2 3 4 5 6 
#
# 1 65.8931 37.0672 12.8672 -9.5662 6.9436 17.4649
# 2 37.0672 189.2487 50.1807 -31.3599 12.3443 -18.3378
# 3 12.8672 50.1807 139.0956 7.8401 10.0681 -3.9077
# 4 -9.5662 -31.3599 7.8401 72.5851 -0.0941 20.7830
# 5 6.9436 12.3443 10.0681 -0.0941 20.7720 -0.9981
# 6 17.4649 -18.3378 -3.9077 20.7830 -0.9981 55.7881
#
#
#
# Elastic Compliance Matrix: (Units=1/GPa)
#
#
# Indices 1 2 3 4 5 6 
#
# 1 0.021086 -0.003913 -0.000673 0.003864 -0.004834 -0.009460
# 2 -0.003913 0.007370 -0.002208 0.002143 -0.001864 0.002661
# 3 -0.000673 -0.002208 0.008376 -0.002192 -0.002492 0.000843
# 4 0.003864 0.002143 -0.002192 0.017512 -0.001770 -0.007214
# 5 -0.004834 -0.001864 -0.002492 -0.001770 0.052177 0.002319
# 6 -0.009460 0.002661 0.000843 -0.007214 0.002319 0.024550
#
#
# Mechanical properties :
#
#
# Convention : Reuss Voigt Hill
#
# Bulk Modulus (GPa) = 43.01916 66.05196 54.53556
# Shear Modulus (GPa) = 32.80693 49.43720 41.12207
#
# Velocity S-wave (km/s) = 3.45888 4.24600 3.87249
# Velocity P-wave (km/s) = 5.62492 6.93725 6.31527
#
# Compressibility (1/GPa) = 0.02324546
#
# Stress axis : x y z
#
# Youngs Moduli (GPa) = 47.42398 135.67615 119.39214
#
# Poissons Ratio (x) = 0.53088 0.08031
# Poissons Ratio (y) = 0.18556 0.26363
# Poissons Ratio (z) = 0.03190 0.29959
#
# Static dielectric constant tensor:
#      x y z
#    x 2.238510 -0.042730 -0.026230 
#    y -0.042730 2.189650 -0.084600 
#    z -0.026230 -0.084600 2.285560 
# 
# From -- ./inp_files/390987.got.cif
#   From: 2010.05.17/outbox.cif.g08.bks.cpg/sg2_196_cif.got.tgz:390987.got - 2010.06.03 11:33:40.
