data_PCOD9088361
_publ_section_title
;
Structure prediction by ZEFSAII (Michael W. Deem and Ramdas Pophale) SiO2 
 PCOD9088361
Probable space group: P -1
;
_chemical_formula_sum "Si O2"
_cell_formula_units_Z 16
_cell_length_a 16.772865
_cell_length_b 10.216418
_cell_length_c 8.682398
_cell_angle_alpha 100.515974
_cell_angle_beta 76.175115
_cell_angle_gamma 38.128031
_cell_volume 701.300737
_symmetry_space_group_name_H-M "P -1"
_symmetry_group_IT_number 2
_symmetry_cell_setting 'triclinic'
loop_
_space_group_symop_operation_xyz
x,y,z
-x,-y,-z
loop_
_atom_site_type_symbol
_atom_site_label
_atom_site_fract_x
_atom_site_fract_y
_atom_site_fract_z
Si Si1 0.448705 0.325710 0.221766
Si Si2 0.597248 0.972911 0.343375
Si Si3 0.258530 0.149402 0.446098
Si Si4 0.673224 0.175287 0.879335
Si Si5 0.922447 0.230785 0.988587
Si Si6 0.035201 0.706526 0.710330
Si Si7 0.615902 0.726713 0.063293
Si Si8 0.879857 0.139810 0.445711
O O1 0.300732 0.641374 0.363576
O O2 0.477886 0.239674 0.363784
O O3 0.612047 0.156438 0.033649
O O4 0.382036 0.308880 0.125815
O O5 0.708604 0.895644 0.395607
O O6 0.670980 0.790974 0.120806
O O7 0.500000 0.000000 0.500000
O O8 0.108130 0.465729 0.558495
O O9 0.259428 0.004226 0.336275
O O10 0.426374 0.974193 0.254991
O O11 0.840403 0.005620 0.831809
O O12 0.500000 0.500000 0.000000
O O13 0.741501 0.457080 0.046396
O O14 0.041292 0.076384 0.753517
O O15 0.924227 0.345310 0.137146
O O16 0.000000 0.000000 0.000000
O O17 0.128853 0.702464 0.597003
O O18 0.000000 0.000000 0.500000
#
# Coordination Sequence:
#
# PCOD9088361 Si02
#       8
#     2   2   2   2   2   2   2   2
#     4  11  23  39  64  96 129 168 214 264 320 387
#     4  10  20  36  63  97 123 158 207 267 320 372
#     4  10  22  39  67  91 127 170 221 262 319 391
#     4  11  26  46  66  90 133 176 215 264 329 393
#     4  10  22  34  62  96 133 165 212 269 320 378
#     4  11  23  43  66  94 129 176 214 262 326 384
#     4  10  19  37  60  99 132 162 208 267 329 374
#     4  11  21  37  62  98 129 162 215 268 318 375
#
# _framework density 22.814747000000001
#
# number of rings (size 3 to 8) (size 9 to 14) (size 15 to 20)
#    0.000    1.500    2.500    3.000   10.500    1.000 
#    0.000    4.375    0.000    0.000    0.000    0.000 
#    0.000    0.000    0.000    0.000    0.000    0.000 
#
# Total GULP energy -89167.267936 kJ/mol
# GULP energy per Si atom -5572.954246 kJ/mol
# Density = 2.276282 g / cm^3
# Si number density = 22.814747 Si / 1000 Ang^3
#
#
#
# Elastic Constant Matrix: (Units=GPa)
#
#
# Indices 1 2 3 4 5 6 
#
# 1 48.8754 16.4637 20.6769 -0.2594 6.6519 -6.8505
# 2 16.4637 110.4959 21.0004 8.9055 -2.9060 -14.0436
# 3 20.6769 21.0004 113.3403 5.9286 16.6375 -5.2632
# 4 -0.2594 8.9055 5.9286 43.0315 -6.5054 4.3619
# 5 6.6519 -2.9060 16.6375 -6.5054 33.7304 5.6260
# 6 -6.8505 -14.0436 -5.2632 4.3619 5.6260 25.2906
#
#
#
# Elastic Compliance Matrix: (Units=1/GPa)
#
#
# Indices 1 2 3 4 5 6 
#
# 1 0.023910 -0.002390 -0.003009 -0.000171 -0.004393 0.005530
# 2 -0.002390 0.010519 -0.001237 -0.002452 0.000645 0.005216
# 3 -0.003009 -0.001237 0.010656 -0.002318 -0.005610 0.002363
# 4 -0.000171 -0.002452 -0.002318 0.025980 0.007311 -0.007998
# 5 -0.004393 0.000645 -0.005610 0.007311 0.036650 -0.011413
# 6 0.005530 0.005216 0.002363 -0.007998 -0.011413 0.048345
#
#
# Mechanical properties :
#
#
# Convention : Reuss Voigt Hill
#
# Bulk Modulus (GPa) = 31.43322 43.22151 37.32737
# Shear Modulus (GPa) = 27.78790 34.71520 31.25155
#
# Velocity S-wave (km/s) = 3.49374 3.90502 3.70509
# Velocity P-wave (km/s) = 5.48475 6.27040 5.89069
#
# Compressibility (1/GPa) = 0.03181347
#
# Stress axis : x y z
#
# Youngs Moduli (GPa) = 41.82358 95.06809 93.84679
#
# Poissons Ratio (x) = 0.22717 0.28235
# Poissons Ratio (y) = 0.09994 0.11611
# Poissons Ratio (z) = 0.12583 0.11762
#
# Static dielectric constant tensor:
#      x y z
#    x 1.608390 -0.609250 0.444640 
#    y -0.609250 0.342020 0.965820 
#    z 0.444640 0.965820 1.366830 
# 
# From -- ./inp_files/345385.got.cif
#   From: 2010.05.17/outbox.cif.g08.bks.cpg/sg2_173_cif.got.tgz:345385.got - 2010.06.03 11:33:40.
