data_PCOD9088090
_publ_section_title
;
Structure prediction by ZEFSAII (Michael W. Deem and Ramdas Pophale) SiO2 
 PCOD9088090
Probable space group: P -1
;
_chemical_formula_sum "Si O2"
_cell_formula_units_Z 15
_cell_length_a 6.130802
_cell_length_b 20.096840
_cell_length_c 18.227860
_cell_angle_alpha 20.574787
_cell_angle_beta 58.388640
_cell_angle_gamma 66.178012
_cell_volume 643.244315
_symmetry_space_group_name_H-M "P -1"
_symmetry_group_IT_number 2
_symmetry_cell_setting 'triclinic'
loop_
_space_group_symop_operation_xyz
x,y,z
-x,-y,-z
loop_
_atom_site_type_symbol
_atom_site_label
_atom_site_fract_x
_atom_site_fract_y
_atom_site_fract_z
Si Si1 0.444597 0.034873 0.058310
Si Si2 0.763991 0.594657 0.289821
Si Si3 0.000000 0.500000 0.500000
Si Si4 0.148315 0.749190 0.934008
Si Si5 0.741082 0.404666 0.269507
Si Si6 0.504703 0.482636 0.930309
Si Si7 0.011431 0.142439 0.565282
Si Si8 0.350682 0.273124 0.601196
O O1 0.658648 0.955540 0.148745
O O2 0.163450 0.919434 0.266251
O O3 0.500000 0.000000 0.000000
O O4 0.431642 0.260891 0.834550
O O5 0.590088 0.392310 0.491518
O O6 0.860764 0.577409 0.372295
O O7 0.029839 0.685932 0.100890
O O8 0.093476 0.340342 0.595827
O O9 0.942642 0.592940 0.079243
O O10 0.125198 0.966612 0.702291
O O11 0.433645 0.716538 0.901555
O O12 0.730534 0.471021 0.120257
O O13 0.468837 0.353583 0.418218
O O14 0.829262 0.206835 0.470011
O O15 0.751676 0.659342 0.674207
O O16 0.500000 0.500000 0.000000
#
# Coordination Sequence:
#
# PCOD9088090 Si02
#       8
#     2   2   1   2   2   2   2   2
#     4  10  19  37  59  80 117 158 198 241 289 337
#     4  10  21  38  55  79 116 153 198 245 286 340
#     4  12  20  30  54  82 108 150 198 236 286 338
#     4   9  20  40  62  84 118 161 198 243 298 358
#     4   9  20  40  61  83 117 160 197 243 304 356
#     4  11  23  40  63  93 122 149 194 254 309 362
#     4   9  21  39  62  87 120 161 198 246 296 352
#     4  10  21  37  55  77 115 154 195 244 287 342
#
# _framework density 23.319288
#
# number of rings (size 3 to 8) (size 9 to 14) (size 15 to 20)
#    0.000    2.133    1.333    2.000    0.000    3.733 
#    0.000   10.667    0.000    0.000    0.000    0.000 
#    0.000    0.000    0.000    0.000    0.000    0.000 
#
# Total GULP energy -83508.140318 kJ/mol
# GULP energy per Si atom -5567.209355 kJ/mol
# Density = 2.326621 g / cm^3
# Si number density = 23.319288 Si / 1000 Ang^3
#
#
#
# Elastic Constant Matrix: (Units=GPa)
#
#
# Indices 1 2 3 4 5 6 
#
# 1 31.5512 37.1788 42.8928 10.5185 29.7109 3.7992
# 2 37.1788 93.1589 46.1040 -8.3701 35.3974 -7.6007
# 3 42.8928 46.1040 86.2727 -26.0709 35.0243 1.1703
# 4 10.5185 -8.3701 -26.0709 39.0824 1.8197 21.7800
# 5 29.7109 35.3974 35.0243 1.8197 33.9476 2.8642
# 6 3.7992 -7.6007 1.1703 21.7800 2.8642 38.9161
#
#
#
# Elastic Compliance Matrix: (Units=1/GPa)
#
#
# Indices 1 2 3 4 5 6 
#
# 1 -0.064400 0.004561 0.056404 0.076910 -0.007587 -0.037004
# 2 0.004561 0.019029 -0.007974 -0.006306 -0.015962 0.008215
# 3 0.056404 -0.007974 -0.005192 -0.023698 -0.035178 0.008945
# 4 0.076910 -0.006306 -0.023698 -0.011044 -0.035760 0.000786
# 5 -0.007587 -0.015962 -0.035178 -0.035760 0.089933 0.012076
# 6 -0.037004 0.008215 0.008945 0.000786 0.012076 0.029316
#
#
# Mechanical properties :
#
#
# Convention : Reuss Voigt Hill
#
# Bulk Modulus (GPa) = 18.04391 51.48155 34.76273
# Shear Modulus (GPa) = -167.40248 28.04303 -69.67972
#
# Velocity S-wave (km/s) = -8.48192 3.47157 -5.47226
# Velocity P-wave (km/s) = 9.38986 6.18011 4.99878
#
# Compressibility (1/GPa) = 0.05542037
#
# Stress axis : x y z
#
# Youngs Moduli (GPa) = -15.52801 52.55170 -192.60600
#
# Poissons Ratio (x) = -0.23969 10.86381
# Poissons Ratio (y) = 0.07082 -1.53580
# Poissons Ratio (z) = 0.87585 0.41904
#
# Static dielectric constant tensor:
#      x y z
#    x 2.052960 -0.062550 0.015110 
#    y -0.062550 1.864490 -0.016940 
#    z 0.015110 -0.016940 1.911030 
# 
# From -- ./inp_files/550950.got.cif
#   From: 2010.05.17/outbox.cif.g08.bks.cpg/sg2_276_cif.got.tgz:550950.got - 2010.06.03 11:33:40.
