data_PCOD9088181
_publ_section_title
;
Structure prediction by ZEFSAII (Michael W. Deem and Ramdas Pophale) SiO2 
 PCOD9088181
Probable space group: P -1
;
_chemical_formula_sum "Si O2"
_cell_formula_units_Z 14
_cell_length_a 7.991594
_cell_length_b 9.706807
_cell_length_c 15.063162
_cell_angle_alpha 124.541806
_cell_angle_beta 38.551572
_cell_angle_gamma 134.190831
_cell_volume 521.528230
_symmetry_space_group_name_H-M "P -1"
_symmetry_group_IT_number 2
_symmetry_cell_setting 'triclinic'
loop_
_space_group_symop_operation_xyz
x,y,z
-x,-y,-z
loop_
_atom_site_type_symbol
_atom_site_label
_atom_site_fract_x
_atom_site_fract_y
_atom_site_fract_z
Si Si1 0.697725 0.050927 0.812351
Si Si2 0.942798 0.006066 0.922487
Si Si3 0.854840 0.195468 0.555403
Si Si4 0.891776 0.762642 0.713114
Si Si5 0.233369 0.451196 0.939956
Si Si6 0.543268 0.799453 0.616756
Si Si7 0.924322 0.422436 0.768315
O O1 0.959559 0.261826 0.751803
O O2 0.822251 0.926330 0.762344
O O3 0.525415 0.919218 0.751111
O O4 0.423272 0.078094 0.975756
O O5 0.044423 0.868319 0.780189
O O6 0.104178 0.224568 0.903112
O O7 0.000000 0.000000 0.000000
O O8 0.914795 0.267004 0.455377
O O9 0.183163 0.241026 0.479257
O O10 0.740537 0.298917 0.712003
O O11 0.669102 0.962710 0.548663
O O12 0.569909 0.577184 0.803324
O O13 0.219443 0.499297 0.068361
O O14 0.000000 0.500000 0.000000
O O15 0.233587 0.599207 0.667181
#
# Coordination Sequence:
#
# PCOD9088181 Si02
#       7
#     2   2   2   2   2   2   2
#     4  10  19  37  59  91 119 162 199 254 302 358
#     4  12  25  40  61  91 127 164 202 253 313 362
#     4   9  20  32  54  88 123 157 196 257 301 352
#     4  11  22  40  61  91 129 154 208 256 301 363
#     4  12  22  37  66  95 119 162 205 253 307 361
#     4   9  17  32  53  86 125 156 199 242 307 360
#     4  11  19  32  59  87 124 158 201 248 310 360
#
# _framework density 26.844183999999998
#
# number of rings (size 3 to 8) (size 9 to 14) (size 15 to 20)
#    0.000    1.429    4.286    3.429    0.000    1.714 
#    0.000    0.000    0.000    4.286    0.000    0.000 
#    0.000    0.000    0.000    0.000    0.000    0.000 
#
# Total GULP energy -78337.083735 kJ/mol
# GULP energy per Si atom -5595.505981 kJ/mol
# Density = 2.678309 g / cm^3
# Si number density = 26.844184 Si / 1000 Ang^3
#
#
#
# Elastic Constant Matrix: (Units=GPa)
#
#
# Indices 1 2 3 4 5 6 
#
# 1 84.2210 30.1157 21.0609 -8.4581 2.6841 -9.2774
# 2 30.1157 206.7456 26.5773 -41.9696 -3.1330 15.5777
# 3 21.0609 26.5773 134.9539 -7.7099 37.5505 14.3077
# 4 -8.4581 -41.9696 -7.7099 38.2850 -1.6464 8.9351
# 5 2.6841 -3.1330 37.5505 -1.6464 39.4488 15.3174
# 6 -9.2774 15.5777 14.3077 8.9351 15.3174 26.2231
#
#
#
# Elastic Compliance Matrix: (Units=1/GPa)
#
#
# Indices 1 2 3 4 5 6 
#
# 1 0.014850 -0.003906 -0.001855 -0.004600 -0.004771 0.012940
# 2 -0.003906 0.009809 -0.001378 0.013916 0.009423 -0.016703
# 3 -0.001855 -0.001378 0.010819 -0.000307 -0.010484 0.000488
# 4 -0.004600 0.013916 -0.000307 0.049812 0.018309 -0.037394
# 5 -0.004771 0.009423 -0.010484 0.018309 0.051986 -0.038170
# 6 0.012940 -0.016703 0.000488 -0.037394 -0.038170 0.087405
#
#
# Mechanical properties :
#
#
# Convention : Reuss Voigt Hill
#
# Bulk Modulus (GPa) = 47.17271 64.60315 55.88793
# Shear Modulus (GPa) = 20.32301 44.00251 32.16276
#
# Velocity S-wave (km/s) = 2.75448 4.05307 3.46515
# Velocity P-wave (km/s) = 5.26566 6.78391 6.07242
#
# Compressibility (1/GPa) = 0.02119870
#
# Stress axis : x y z
#
# Youngs Moduli (GPa) = 67.34193 101.94417 92.43228
#
# Poissons Ratio (x) = 0.39815 0.17151
# Poissons Ratio (y) = 0.26301 0.12741
# Poissons Ratio (z) = 0.12495 0.14052
#
# Static dielectric constant tensor:
#      x y z
#    x 2.168860 -0.014650 0.033980 
#    y -0.014650 2.042000 0.004630 
#    z 0.033980 0.004630 2.321410 
# 
# From -- ./inp_files/303460.got.cif
#   From: 2010.05.17/outbox.cif.g08.bks.cpg/sg2_152_cif.got.tgz:303460.got - 2010.06.03 11:33:40.
