data_PCOD9088872
_publ_section_title
;
Structure prediction by ZEFSAII (Michael W. Deem and Ramdas Pophale) SiO2 
 PCOD9088872
Probable space group: P -1
;
_chemical_formula_sum "Si O2"
_cell_formula_units_Z 16
_cell_length_a 10.306472
_cell_length_b 8.150585
_cell_length_c 15.026773
_cell_angle_alpha 145.199701
_cell_angle_beta 109.634798
_cell_angle_gamma 59.661603
_cell_volume 613.767684
_symmetry_space_group_name_H-M "P -1"
_symmetry_group_IT_number 2
_symmetry_cell_setting 'triclinic'
loop_
_space_group_symop_operation_xyz
x,y,z
-x,-y,-z
loop_
_atom_site_type_symbol
_atom_site_label
_atom_site_fract_x
_atom_site_fract_y
_atom_site_fract_z
Si Si1 0.907158 0.956785 0.315466
Si Si2 0.107085 0.789152 0.758874
Si Si3 0.180943 0.307208 0.099962
Si Si4 0.805237 0.889062 0.788224
Si Si5 0.368848 0.697757 0.486938
Si Si6 0.465287 0.366433 0.671992
Si Si7 0.290521 0.385234 0.971817
Si Si8 0.493067 0.860884 0.241707
O O1 0.808336 0.789920 0.170951
O O2 0.061469 0.668406 0.251719
O O3 0.940135 0.138678 0.322424
O O4 0.801663 0.199913 0.473538
O O5 0.286619 0.566519 0.704114
O O6 0.985295 0.681013 0.725628
O O7 0.096716 0.100980 0.947892
O O8 0.239208 0.146134 0.136816
O O9 0.284322 0.320375 0.046571
O O10 0.677240 0.863464 0.683579
O O11 0.780165 0.246179 0.911780
O O12 0.500000 0.500000 0.500000
O O13 0.431585 0.555068 0.341137
O O14 0.383298 0.029888 0.642606
O O15 0.506307 0.383693 0.791883
O O16 0.500000 0.000000 0.500000
O O17 0.447713 0.244468 0.890384
#
# Coordination Sequence:
#
# PCOD9088872 Si02
#       8
#     2   2   2   2   2   2   2   2
#     4  10  19  37  63  93 120 154 220 257 292 364
#     4  11  20  37  65  92 123 168 205 254 307 368
#     4  11  22  36  63  96 124 166 210 242 309 374
#     4  12  23  37  59  93 136 162 194 255 321 370
#     4  10  20  40  66  84 113 161 217 261 293 361
#     4  10  22  40  64  89 113 162 219 253 303 363
#     4  10  20  39  58  89 130 164 200 255 297 378
#     4  10  24  40  58  91 125 160 206 257 314 369
#
# _framework density 26.068496
#
# number of rings (size 3 to 8) (size 9 to 14) (size 15 to 20)
#    0.000    1.500    3.750    2.250    5.250    0.500 
#    2.250    2.500    0.000    1.500    0.000    0.000 
#    0.000    0.000    0.000    0.000    0.000    0.000 
#
# Total GULP energy -89373.513019 kJ/mol
# GULP energy per Si atom -5585.844564 kJ/mol
# Density = 2.600916 g / cm^3
# Si number density = 26.068496 Si / 1000 Ang^3
#
#
#
# Elastic Constant Matrix: (Units=GPa)
#
#
# Indices 1 2 3 4 5 6 
#
# 1 118.5281 34.4791 34.2631 -17.3429 -28.0165 20.0338
# 2 34.4791 135.3799 46.4380 -27.1250 -39.6985 16.9707
# 3 34.2631 46.4380 88.7147 -11.0952 -37.1348 1.4644
# 4 -17.3429 -27.1250 -11.0952 51.3150 6.5148 -18.2123
# 5 -28.0165 -39.6985 -37.1348 6.5148 51.7866 -3.1894
# 6 20.0338 16.9707 1.4644 -18.2123 -3.1894 42.0504
#
#
#
# Elastic Compliance Matrix: (Units=1/GPa)
#
#
# Indices 1 2 3 4 5 6 
#
# 1 0.010931 -0.000110 -0.002405 0.001115 0.003699 -0.004316
# 2 -0.000110 0.011122 -0.002845 0.003669 0.005823 -0.002307
# 3 -0.002405 -0.002845 0.017663 0.001393 0.009191 0.002979
# 4 0.001115 0.003669 0.001393 0.025041 0.001814 0.008923
# 5 0.003699 0.005823 0.009191 0.001814 0.032062 -0.001215
# 6 -0.004316 -0.002307 0.002979 0.008923 -0.001215 0.030437
#
#
# Mechanical properties :
#
#
# Convention : Reuss Voigt Hill
#
# Bulk Modulus (GPa) = 34.48868 63.66480 49.07674
# Shear Modulus (GPa) = 33.86546 44.19324 39.02935
#
# Velocity S-wave (km/s) = 3.60821 4.12184 3.87354
# Velocity P-wave (km/s) = 5.53332 6.86497 6.23480
#
# Compressibility (1/GPa) = 0.02899502
#
# Stress axis : x y z
#
# Youngs Moduli (GPa) = 91.48300 89.90918 56.61593
#
# Poissons Ratio (x) = 0.00988 0.13618
# Poissons Ratio (y) = 0.01005 0.16109
# Poissons Ratio (z) = 0.22005 0.25582
#
# Static dielectric constant tensor:
#      x y z
#    x 2.145040 0.033220 0.040860 
#    y 0.033220 2.086850 -0.025500 
#    z 0.040860 -0.025500 2.160700 
# 
# From -- ./inp_files/271907.got.cif
#   From: 2010.05.17/outbox.cif.g08.bks.cpg/sg2_136_cif.got.tgz:271907.got - 2010.06.03 11:33:40.
