data_PCOD9088014
_publ_section_title
;
Structure prediction by ZEFSAII (Michael W. Deem and Ramdas Pophale) SiO2 
 PCOD9088014
Probable space group: P -1
;
_chemical_formula_sum "Si O2"
_cell_formula_units_Z 16
_cell_length_a 8.204909
_cell_length_b 22.189043
_cell_length_c 11.708482
_cell_angle_alpha 24.766691
_cell_angle_beta 103.407309
_cell_angle_gamma 106.179638
_cell_volume 856.439231
_symmetry_space_group_name_H-M "P -1"
_symmetry_group_IT_number 2
_symmetry_cell_setting 'triclinic'
loop_
_space_group_symop_operation_xyz
x,y,z
-x,-y,-z
loop_
_atom_site_type_symbol
_atom_site_label
_atom_site_fract_x
_atom_site_fract_y
_atom_site_fract_z
Si Si1 0.141117 0.394348 0.428559
Si Si2 0.827631 0.263540 0.747586
Si Si3 0.549921 0.786698 0.182820
Si Si4 0.795718 0.267842 0.178831
Si Si5 0.994918 0.810027 0.447112
Si Si6 0.863896 0.089095 0.273482
Si Si7 0.250988 0.994030 0.001100
Si Si8 0.500451 0.029055 0.584155
O O1 0.297423 0.307715 0.631732
O O2 0.057256 0.321374 0.424156
O O3 0.985943 0.372938 0.531674
O O4 0.209477 0.563604 0.130068
O O5 0.643529 0.302963 0.687383
O O6 0.765968 0.146060 0.840620
O O7 0.904134 0.186339 0.999983
O O8 0.588354 0.903569 0.092818
O O9 0.557664 0.892566 0.892560
O O10 0.820712 0.193176 0.189954
O O11 0.944710 0.243145 0.332076
O O12 0.626846 0.179073 0.363593
O O13 0.139067 0.929994 0.203654
O O14 0.836913 0.894406 0.280100
O O15 0.694579 0.976667 0.405079
O O16 0.000000 0.000000 0.500000
O O17 0.500000 0.000000 0.500000
#
# Coordination Sequence:
#
# PCOD9088014 Si02
#       8
#     2   2   2   2   2   2   2   2
#     4  10  23  36  59  85 118 159 179 231 292 339
#     4  10  21  36  55  87 116 143 201 229 280 345
#     4  10  19  37  58  84 114 148 192 239 280 332
#     4  11  20  38  58  83 119 150 187 232 287 339
#     4   9  17  31  59  88 113 146 196 225 284 342
#     4  10  22  37  59  85 109 148 190 248 280 325
#     4   9  16  30  59  88 107 150 185 245 282 315
#     4   9  20  35  58  82 106 143 194 235 275 330
#
# _framework density 18.682002000000001
#
# number of rings (size 3 to 8) (size 9 to 14) (size 15 to 20)
#    0.000    2.250    1.250    2.250    3.500    0.500 
#    2.250    5.625    0.000    4.500    0.000    0.000 
#    0.000    0.000    0.000    0.000    0.000    0.000 
#
# Total GULP energy -89068.624094 kJ/mol
# GULP energy per Si atom -5566.789006 kJ/mol
# Density = 1.863948 g / cm^3
# Si number density = 18.682002 Si / 1000 Ang^3
#
#
#
# Elastic Constant Matrix: (Units=GPa)
#
#
# Indices 1 2 3 4 5 6 
#
# 1 39.5950 8.2453 35.9526 2.0447 -10.0495 13.4555
# 2 8.2453 35.8001 25.5991 16.2929 2.4135 7.0131
# 3 35.9526 25.5991 102.0182 4.0213 -6.2512 12.5300
# 4 2.0447 16.2929 4.0213 34.4172 5.6288 2.0358
# 5 -10.0495 2.4135 -6.2512 5.6288 20.0824 6.7198
# 6 13.4555 7.0131 12.5300 2.0358 6.7198 19.7856
#
#
#
# Elastic Compliance Matrix: (Units=1/GPa)
#
#
# Indices 1 2 3 4 5 6 
#
# 1 0.072794 0.008479 -0.016874 -0.011570 0.053020 -0.058641
# 2 0.008479 0.046441 -0.011641 -0.021225 0.005897 -0.014674
# 3 -0.016874 -0.011641 0.017477 0.004935 -0.004891 0.005687
# 4 -0.011570 -0.021225 0.004935 0.041324 -0.018014 0.014133
# 5 0.053020 0.005897 -0.004891 -0.018014 0.101825 -0.067779
# 6 -0.058641 -0.014674 0.005687 0.014133 -0.067779 0.113587
#
#
# Mechanical properties :
#
#
# Convention : Reuss Voigt Hill
#
# Bulk Modulus (GPa) = 10.34771 35.22301 22.78536
# Shear Modulus (GPa) = 10.73577 22.03146 16.38362
#
# Velocity S-wave (km/s) = 2.39980 3.43780 2.96459
# Velocity P-wave (km/s) = 3.63726 5.88667 4.89298
#
# Compressibility (1/GPa) = 0.09663972
#
# Stress axis : x y z
#
# Youngs Moduli (GPa) = 13.73741 21.53286 57.21751
#
# Poissons Ratio (x) = -0.18258 0.96549
# Poissons Ratio (y) = -0.11648 0.66607
# Poissons Ratio (z) = 0.23180 0.25066
#
# Static dielectric constant tensor:
#      x y z
#    x 1.759370 0.005600 -0.026460 
#    y 0.005600 1.656140 0.006130 
#    z -0.026460 0.006130 1.617470 
# 
# From -- ./inp_files/406855.got.cif
#   From: 2010.05.17/outbox.cif.g08.bks.cpg/sg2_204_cif.got.tgz:406855.got - 2010.06.03 11:33:40.
