data_PCOD9088936
_publ_section_title
;
Structure prediction by ZEFSAII (Michael W. Deem and Ramdas Pophale) SiO2 
 PCOD9088936
Probable space group: P -1
;
_chemical_formula_sum "Si O2"
_cell_formula_units_Z 16
_cell_length_a 23.516082
_cell_length_b 5.639226
_cell_length_c 11.808534
_cell_angle_alpha 56.235998
_cell_angle_beta 38.902724
_cell_angle_gamma 50.142591
_cell_volume 749.614558
_symmetry_space_group_name_H-M "P -1"
_symmetry_group_IT_number 2
_symmetry_cell_setting 'triclinic'
loop_
_space_group_symop_operation_xyz
x,y,z
-x,-y,-z
loop_
_atom_site_type_symbol
_atom_site_label
_atom_site_fract_x
_atom_site_fract_y
_atom_site_fract_z
Si Si1 0.925150 0.173690 0.290308
Si Si2 0.386685 0.581221 0.133390
Si Si3 0.731397 0.793191 0.484108
Si Si4 0.253927 0.695707 0.108109
Si Si5 0.100490 0.633163 0.976109
Si Si6 0.780326 0.051465 0.142566
Si Si7 0.775863 0.889432 0.628797
Si Si8 0.052272 0.172488 0.293467
O O1 0.839985 0.515187 0.366586
O O2 0.942625 0.191624 0.123721
O O3 0.022200 0.092676 0.236448
O O4 0.871272 0.959745 0.475227
O O5 0.345606 0.352382 0.321923
O O6 0.353918 0.595969 0.049738
O O7 0.316362 0.912786 0.204345
O O8 0.500000 0.500000 0.000000
O O9 0.744269 0.973887 0.525416
O O10 0.704195 0.001686 0.360373
O O11 0.204647 0.461975 0.284527
O O12 0.167143 0.023071 0.190773
O O13 0.263844 0.712421 0.954654
O O14 0.157650 0.811332 0.907821
O O15 0.169316 0.290104 0.906541
O O16 0.035019 0.532137 0.196032
O O17 0.000000 0.000000 0.500000
#
# Coordination Sequence:
#
# PCOD9088936 Si02
#       8
#     2   2   2   2   2   2   2   2
#     4  10  20  37  58  86 125 168 215 249 299 361
#     4  10  22  41  66  90 119 156 205 257 318 386
#     4   9  19  38  60  94 116 166 207 254 303 363
#     4  10  24  38  58  92 123 164 203 257 322 360
#     4  10  22  40  59  88 123 176 215 257 303 360
#     4  10  21  40  65  89 127 166 212 260 311 365
#     4  10  19  37  64  84 122 157 205 254 306 376
#     4  11  22  38  57  88 130 165 212 257 304 362
#
# _framework density 21.344301999999999
#
# number of rings (size 3 to 8) (size 9 to 14) (size 15 to 20)
#    0.000    2.000    1.250    2.625    5.250    2.500 
#    6.750    4.375    0.000    1.500    0.000    0.000 
#    0.000    0.000    0.000    0.000    0.000    0.000 
#
# Total GULP energy -89127.990630 kJ/mol
# GULP energy per Si atom -5570.499414 kJ/mol
# Density = 2.129572 g / cm^3
# Si number density = 21.344302 Si / 1000 Ang^3
#
#
#
# Elastic Constant Matrix: (Units=GPa)
#
#
# Indices 1 2 3 4 5 6 
#
# 1 143.7773 33.5586 66.7950 -5.4598 12.2717 -11.1893
# 2 33.5586 47.3926 20.3616 -9.5679 -4.3637 2.5158
# 3 66.7950 20.3616 89.8041 -9.0517 15.1307 -19.1961
# 4 -5.4598 -9.5679 -9.0517 27.1900 -10.1054 10.8730
# 5 12.2717 -4.3637 15.1307 -10.1054 48.7422 -2.7513
# 6 -11.1893 2.5158 -19.1961 10.8730 -2.7513 31.9260
#
#
#
# Elastic Compliance Matrix: (Units=1/GPa)
#
#
# Indices 1 2 3 4 5 6 
#
# 1 0.011888 -0.006324 -0.007126 -0.003515 -0.001997 0.001405
# 2 -0.006324 0.032829 -0.005321 0.017065 0.008985 -0.013040
# 3 -0.007126 -0.005321 0.020508 -0.002613 -0.004986 0.010713
# 4 -0.003515 0.017065 -0.002613 0.054844 0.013371 -0.021674
# 5 -0.001997 0.008985 -0.004986 0.013371 0.025762 -0.006739
# 6 0.001405 -0.013040 0.010713 -0.021674 -0.006739 0.046085
#
#
# Mechanical properties :
#
#
# Convention : Reuss Voigt Hill
#
# Bulk Modulus (GPa) = 36.12175 58.04493 47.08334
# Shear Modulus (GPa) = 20.94795 32.25555 26.60175
#
# Velocity S-wave (km/s) = 3.13618 3.89164 3.53415
# Velocity P-wave (km/s) = 5.48400 6.88816 6.22579
#
# Compressibility (1/GPa) = 0.02768415
#
# Stress axis : x y z
#
# Youngs Moduli (GPa) = 84.11774 30.46054 48.76065
#
# Poissons Ratio (x) = 0.19265 0.34745
# Poissons Ratio (y) = 0.53200 0.25944
# Poissons Ratio (z) = 0.59940 0.16207
#
# Static dielectric constant tensor:
#      x y z
#    x 1.797550 0.056030 0.044130 
#    y 0.056030 1.889390 -0.011320 
#    z 0.044130 -0.011320 1.794760 
# 
# From -- ./inp_files/77509.got.cif
#   From: 2010.05.17/outbox.cif.g08.bks.cpg/sg2_39_cif.got.tgz:77509.got - 2010.06.03 11:33:40.
