data_PCOD9088513
_publ_section_title
;
Structure prediction by ZEFSAII (Michael W. Deem and Ramdas Pophale) SiO2 
 PCOD9088513
Probable space group: P -1
;
_chemical_formula_sum "Si O2"
_cell_formula_units_Z 14
_cell_length_a 11.614694
_cell_length_b 9.960532
_cell_length_c 5.456058
_cell_angle_alpha 108.057011
_cell_angle_beta 99.728343
_cell_angle_gamma 90.868583
_cell_volume 589.947863
_symmetry_space_group_name_H-M "P -1"
_symmetry_group_IT_number 2
_symmetry_cell_setting 'triclinic'
loop_
_space_group_symop_operation_xyz
x,y,z
-x,-y,-z
loop_
_atom_site_type_symbol
_atom_site_label
_atom_site_fract_x
_atom_site_fract_y
_atom_site_fract_z
Si Si1 0.381272 0.381138 0.096101
Si Si2 0.745050 0.135547 0.560903
Si Si3 0.600642 0.307776 0.879915
Si Si4 0.971022 0.155434 0.991834
Si Si5 0.765945 0.662734 0.490554
Si Si6 0.171347 0.639774 0.671205
Si Si7 0.120815 0.100329 0.620486
O O1 0.415852 0.551262 0.207894
O O2 0.316883 0.337647 0.300864
O O3 0.497154 0.300724 0.035714
O O4 0.305793 0.354550 0.803405
O O5 0.621411 0.167419 0.651273
O O6 0.845063 0.125415 0.795306
O O7 0.783404 0.276208 0.504238
O O8 0.772195 0.996949 0.334223
O O9 0.722355 0.338756 0.084822
O O10 0.077202 0.203728 0.874144
O O11 0.938266 0.278616 0.231809
O O12 0.000000 0.000000 0.000000
O O13 0.841532 0.527015 0.467067
O O14 0.841805 0.808445 0.550870
O O15 0.000000 0.000000 0.500000
#
# Coordination Sequence:
#
# PCOD9088513 Si02
#       7
#     2   2   2   2   2   2   2
#     4  10  22  40  66  96 131 163 209 261 321 376
#     4  10  19  37  61  91 119 166 210 257 311 390
#     4   9  20  36  66  94 125 167 205 253 323 386
#     4  10  20  36  60  91 119 164 216 257 317 383
#     4  11  24  42  62  97 130 164 214 272 309 370
#     4  10  20  36  64  92 127 157 217 261 309 377
#     4  10  23  42  63  85 124 173 214 257 329 379
#
# _framework density 23.730910999999999
#
# number of rings (size 3 to 8) (size 9 to 14) (size 15 to 20)
#    0.000    2.000    2.857    0.000    2.000    4.571 
#    0.000    4.286    0.000    0.000    0.000    0.000 
#    0.000    0.000    0.000    0.000    0.000    0.000 
#
# Total GULP energy -78106.276930 kJ/mol
# GULP energy per Si atom -5579.019781 kJ/mol
# Density = 2.367690 g / cm^3
# Si number density = 23.730911 Si / 1000 Ang^3
#
#
#
# Elastic Constant Matrix: (Units=GPa)
#
#
# Indices 1 2 3 4 5 6 
#
# 1 119.3719 63.1536 56.2531 17.3019 -59.8244 -21.5552
# 2 63.1536 134.3235 33.0177 -3.1158 -39.6123 -6.3578
# 3 56.2531 33.0177 90.3409 -6.8309 -50.3798 1.0948
# 4 17.3019 -3.1158 -6.8309 37.3591 -4.5548 -14.1288
# 5 -59.8244 -39.6123 -50.3798 -4.5548 57.1720 6.9168
# 6 -21.5552 -6.3578 1.0948 -14.1288 6.9168 43.2182
#
#
#
# Elastic Compliance Matrix: (Units=1/GPa)
#
#
# Indices 1 2 3 4 5 6 
#
# 1 0.023127 -0.005162 -0.004791 -0.007955 0.015056 0.005886
# 2 -0.005162 0.010663 0.001829 0.003948 0.003961 -0.000396
# 3 -0.004791 0.001829 0.024587 0.007979 0.018939 -0.003166
# 4 -0.007955 0.003948 0.007979 0.035475 0.003364 0.007470
# 5 0.015056 0.003961 0.018939 0.003364 0.052917 0.000243
# 6 0.005886 -0.000396 -0.003166 0.007470 0.000243 0.028499
#
#
# Mechanical properties :
#
#
# Convention : Reuss Voigt Hill
#
# Bulk Modulus (GPa) = 23.73599 72.09832 47.91715
# Shear Modulus (GPa) = 24.32398 40.32399 32.32398
#
# Velocity S-wave (km/s) = 3.20502 4.12663 3.69467
# Velocity P-wave (km/s) = 4.87033 7.29061 6.19972
#
# Compressibility (1/GPa) = 0.04213012
#
# Stress axis : x y z
#
# Youngs Moduli (GPa) = 43.23938 93.78377 40.67203
#
# Poissons Ratio (x) = 0.48408 0.19485
# Poissons Ratio (y) = 0.22319 -0.07439
# Poissons Ratio (z) = 0.20715 -0.17154
#
# Static dielectric constant tensor:
#      x y z
#    x 1.931840 0.014600 0.035300 
#    y 0.014600 1.936700 0.080180 
#    z 0.035300 0.080180 2.252840 
# 
# From -- ./inp_files/60996.got.cif
#   From: 2010.05.17/outbox.cif.g08.bks.cpg/sg2_31_cif.got.tgz:60996.got - 2010.06.03 11:33:40.
