data_PCOD9088288
_publ_section_title
;
Structure prediction by ZEFSAII (Michael W. Deem and Ramdas Pophale) SiO2 
 PCOD9088288
Probable space group: P -1
;
_chemical_formula_sum "Si O2"
_cell_formula_units_Z 12
_cell_length_a 14.297738
_cell_length_b 17.438157
_cell_length_c 5.651999
_cell_angle_alpha 107.944765
_cell_angle_beta 73.781715
_cell_angle_gamma 156.998800
_cell_volume 523.820408
_symmetry_space_group_name_H-M "P -1"
_symmetry_group_IT_number 2
_symmetry_cell_setting 'triclinic'
loop_
_space_group_symop_operation_xyz
x,y,z
-x,-y,-z
loop_
_atom_site_type_symbol
_atom_site_label
_atom_site_fract_x
_atom_site_fract_y
_atom_site_fract_z
Si Si1 0.962534 0.248762 0.652475
Si Si2 0.353055 0.449567 0.805485
Si Si3 0.672067 0.425269 0.688200
Si Si4 0.967107 0.543515 0.868325
Si Si5 0.718273 0.775134 0.462743
Si Si6 0.534558 0.073903 0.300224
O O1 0.122238 0.293430 0.652418
O O2 0.093410 0.384473 0.459450
O O3 0.678692 0.022166 0.628782
O O4 0.991515 0.341121 0.913421
O O5 0.589325 0.648259 0.674771
O O6 0.329226 0.338175 0.781552
O O7 0.331050 0.500550 0.066094
O O8 0.718826 0.378151 0.754701
O O9 0.432256 0.260435 0.549318
O O10 0.188420 0.693773 0.682308
O O11 0.000000 0.500000 0.000000
O O12 0.000000 0.000000 0.500000
O O13 0.500000 0.000000 0.500000
O O14 0.500000 0.000000 0.000000
#
# Coordination Sequence:
#
# PCOD9088288 Si02
#       6
#     2   2   2   2   2   2
#     4   9  19  37  59  85 121 164 208 258 317 386
#     4   9  20  39  62  87 123 161 203 262 324 385
#     4  10  19  38  63  85 126 165 206 257 330 381
#     4  10  21  37  60  88 127 167 212 265 319 379
#     4  10  21  39  63  90 121 158 208 263 322 393
#     4  10  19  37  60  87 121 169 218 262 317 393
#
# _framework density 22.908612000000002
#
# number of rings (size 3 to 8) (size 9 to 14) (size 15 to 20)
#    0.000    2.333    1.667    0.500    0.000    1.333 
#    9.000    0.000    3.667    0.000    0.000    0.000 
#    0.000    0.000    0.000    0.000    0.000    0.000 
#
# Total GULP energy -66876.345911 kJ/mol
# GULP energy per Si atom -5573.028826 kJ/mol
# Density = 2.285647 g / cm^3
# Si number density = 22.908612 Si / 1000 Ang^3
#
#
#
# Elastic Constant Matrix: (Units=GPa)
#
#
# Indices 1 2 3 4 5 6 
#
# 1 191.6552 71.0235 12.2849 -7.6562 19.6832 29.6683
# 2 71.0235 147.8170 35.6970 -16.0437 2.2770 42.8489
# 3 12.2849 35.6970 83.4134 -11.3166 -11.1300 6.5576
# 4 -7.6562 -16.0437 -11.3166 34.8616 0.5384 -8.5181
# 5 19.6832 2.2770 -11.1300 0.5384 40.6801 -1.1591
# 6 29.6683 42.8489 6.5576 -8.5181 -1.1591 36.7572
#
#
#
# Elastic Compliance Matrix: (Units=1/GPa)
#
#
# Indices 1 2 3 4 5 6 
#
# 1 0.006904 -0.002394 -0.000255 -0.000330 -0.003355 -0.002919
# 2 -0.002394 0.012363 -0.004018 0.001053 -0.000976 -0.011550
# 3 -0.000255 -0.004018 0.014555 0.003547 0.004376 0.003253
# 4 -0.000330 0.001053 0.003547 0.031644 0.000816 0.005765
# 5 -0.003355 -0.000976 0.004376 0.000816 0.027564 0.004124
# 6 -0.002919 -0.011550 0.003253 0.005765 0.004124 0.043911
#
#
# Mechanical properties :
#
#
# Convention : Reuss Voigt Hill
#
# Bulk Modulus (GPa) = 48.80746 73.43292 61.12019
# Shear Modulus (GPa) = 31.82586 42.71844 37.27215
#
# Velocity S-wave (km/s) = 3.73131 4.32294 4.03798
# Velocity P-wave (km/s) = 6.31784 7.55258 6.96263
#
# Compressibility (1/GPa) = 0.02048867
#
# Stress axis : x y z
#
# Youngs Moduli (GPa) = 144.83406 80.88811 68.70555
#
# Poissons Ratio (x) = 0.19362 0.01755
# Poissons Ratio (y) = 0.34669 0.27603
# Poissons Ratio (z) = 0.03700 0.32497
#
# Static dielectric constant tensor:
#      x y z
#    x 1.941580 0.028070 0.060360 
#    y 0.028070 1.872970 0.056060 
#    z 0.060360 0.056060 1.820640 
# 
# From -- ./inp_files/4643.got.cif
#   From: 2010.05.17/outbox.cif.g08.bks.cpg/sg2_3_cif.got.tgz:4643.got - 2010.06.03 11:33:40.
