data_PCOD9088657
_publ_section_title
;
Structure prediction by ZEFSAII (Michael W. Deem and Ramdas Pophale) SiO2 
 PCOD9088657
Probable space group: P -1
;
_chemical_formula_sum "Si O2"
_cell_formula_units_Z 14
_cell_length_a 7.139963
_cell_length_b 10.917726
_cell_length_c 12.498073
_cell_angle_alpha 144.421136
_cell_angle_beta 73.853336
_cell_angle_gamma 89.871543
_cell_volume 496.926471
_symmetry_space_group_name_H-M "P -1"
_symmetry_group_IT_number 2
_symmetry_cell_setting 'triclinic'
loop_
_space_group_symop_operation_xyz
x,y,z
-x,-y,-z
loop_
_atom_site_type_symbol
_atom_site_label
_atom_site_fract_x
_atom_site_fract_y
_atom_site_fract_z
Si Si1 0.414598 0.843196 0.330670
Si Si2 0.341514 0.149217 0.376121
Si Si3 0.229286 0.963564 0.856674
Si Si4 0.434405 0.577592 0.723765
Si Si5 0.060204 0.748616 0.054719
Si Si6 0.265360 0.221886 0.208494
Si Si7 0.825988 0.435749 0.866865
O O1 0.271692 0.706160 0.292274
O O2 0.500000 0.000000 0.500000
O O3 0.276703 0.018245 0.384042
O O4 0.625161 0.641544 0.102706
O O5 0.407093 0.343429 0.552836
O O6 0.205895 0.240454 0.355319
O O7 0.575558 0.977700 0.175308
O O8 0.331918 0.724773 0.735873
O O9 0.120623 0.154203 0.102709
O O10 0.085613 0.014743 0.811788
O O11 0.294046 0.696403 0.934281
O O12 0.669112 0.572341 0.687336
O O13 0.977425 0.556388 0.886923
O O14 0.052286 0.725442 0.166015
O O15 0.500000 0.000000 0.000000
#
# Coordination Sequence:
#
# PCOD9088657 Si02
#       7
#     2   2   2   2   2   2   2
#     4  11  23  43  71  94 115 171 232 261 307 371
#     4  10  19  37  62  90 124 153 216 268 295 367
#     4  10  20  37  64  91 124 165 210 249 314 383
#     4  10  20  35  62  91 125 163 204 259 312 379
#     4  11  22  40  62  94 132 169 201 256 334 384
#     4   8  18  33  60  90 117 161 214 243 299 376
#     4  10  25  43  66  90 129 171 216 265 317 370
#
# _framework density 28.173183999999999
#
# number of rings (size 3 to 8) (size 9 to 14) (size 15 to 20)
#    0.000    2.286    1.429    3.000    6.000    1.143 
#    0.000    7.143    9.429    0.000    0.000    0.000 
#    0.000    0.000    0.000    0.000    0.000    0.000 
#
# Total GULP energy -78257.654162 kJ/mol
# GULP energy per Si atom -5589.832440 kJ/mol
# Density = 2.810906 g / cm^3
# Si number density = 28.173184 Si / 1000 Ang^3
#
#
#
# Elastic Constant Matrix: (Units=GPa)
#
#
# Indices 1 2 3 4 5 6 
#
# 1 103.0913 14.9449 36.9639 14.8805 24.3249 19.8388
# 2 14.9449 134.3755 8.3488 25.1698 -2.6663 -1.2728
# 3 36.9639 8.3488 97.1749 11.0578 38.1365 0.9960
# 4 14.8805 25.1698 11.0578 33.2626 12.0876 6.6897
# 5 24.3249 -2.6663 38.1365 12.0876 41.0820 9.0991
# 6 19.8388 -1.2728 0.9960 6.6897 9.0991 38.7116
#
#
#
# Elastic Compliance Matrix: (Units=1/GPa)
#
#
# Indices 1 2 3 4 5 6 
#
# 1 0.013131 -0.001014 -0.003574 -0.001775 -0.002733 -0.005722
# 2 -0.001014 0.009224 -0.001258 -0.007962 0.004447 0.001186
# 3 -0.003574 -0.001258 0.017829 0.001472 -0.016022 0.004843
# 4 -0.001775 -0.007962 0.001472 0.041589 -0.012250 -0.003698
# 5 -0.002733 0.004447 -0.016022 -0.012250 0.046230 -0.006790
# 6 -0.005722 0.001186 0.004843 -0.003698 -0.006790 0.030914
#
#
# Mechanical properties :
#
#
# Convention : Reuss Voigt Hill
#
# Bulk Modulus (GPa) = 35.09979 50.57298 42.83638
# Shear Modulus (GPa) = 27.76140 40.90349 34.33245
#
# Velocity S-wave (km/s) = 3.14249 3.81446 3.49466
# Velocity P-wave (km/s) = 5.06484 6.11473 5.61438
#
# Compressibility (1/GPa) = 0.02849020
#
# Stress axis : x y z
#
# Youngs Moduli (GPa) = 76.15603 108.41680 56.08802
#
# Poissons Ratio (x) = 0.10997 0.20048
# Poissons Ratio (y) = 0.07725 0.07056
# Poissons Ratio (z) = 0.27222 0.13638
#
# Static dielectric constant tensor:
#      x y z
#    x 2.305510 -0.006270 0.004140 
#    y -0.006270 2.192240 -0.051430 
#    z 0.004140 -0.051430 2.380120 
# 
# From -- ./inp_files/501129.got.cif
#   From: 2010.05.17/outbox.cif.g08.bks.cpg/sg2_251_cif.got.tgz:501129.got - 2010.06.03 11:33:40.
