data_PCOD9088917
_publ_section_title
;
Structure prediction by ZEFSAII (Michael W. Deem and Ramdas Pophale) SiO2 
 PCOD9088917
Probable space group: P -1
;
_chemical_formula_sum "Si O2"
_cell_formula_units_Z 16
_cell_length_a 10.098095
_cell_length_b 16.131408
_cell_length_c 6.599753
_cell_angle_alpha 58.286764
_cell_angle_beta 46.717985
_cell_angle_gamma 63.407975
_cell_volume 659.146732
_symmetry_space_group_name_H-M "P -1"
_symmetry_group_IT_number 2
_symmetry_cell_setting 'triclinic'
loop_
_space_group_symop_operation_xyz
x,y,z
-x,-y,-z
loop_
_atom_site_type_symbol
_atom_site_label
_atom_site_fract_x
_atom_site_fract_y
_atom_site_fract_z
Si Si1 0.012550 0.991252 0.242076
Si Si2 0.133393 0.199880 0.454877
Si Si3 0.316850 0.846001 0.494004
Si Si4 0.097649 0.558157 0.068462
Si Si5 0.775753 0.319518 0.885757
Si Si6 0.373506 0.070305 0.697207
Si Si7 0.640644 0.325906 0.600597
Si Si8 0.244043 0.377611 0.882285
O O1 0.135142 0.924698 0.613212
O O2 0.941753 0.887121 0.479370
O O3 0.219190 0.012943 0.033680
O O4 0.000000 0.000000 0.000000
O O5 0.266816 0.154762 0.554763
O O6 0.226109 0.268549 0.117224
O O7 0.957716 0.262694 0.662958
O O8 0.494410 0.891596 0.323977
O O9 0.338791 0.789233 0.330627
O O10 0.293663 0.756622 0.787520
O O11 0.187170 0.628309 0.725580
O O12 0.881486 0.589048 0.221345
O O13 0.169357 0.587626 0.170903
O O14 0.164376 0.450069 0.054644
O O15 0.632045 0.343232 0.826088
O O16 0.500000 0.000000 0.500000
O O17 0.457136 0.381101 0.620576
#
# Coordination Sequence:
#
# PCOD9088917 Si02
#       8
#     2   2   2   2   2   2   2   2
#     4  10  19  37  63  97 135 174 217 275 328 391
#     4  11  21  39  69  98 133 180 221 275 335 405
#     4  11  22  40  68  98 133 181 220 275 334 393
#     4  10  25  47  70  98 139 177 220 288 347 392
#     4  11  22  44  70  98 138 180 223 280 338 404
#     4  11  19  36  69  99 134 179 226 272 334 396
#     4  11  25  44  69 101 137 174 232 278 334 411
#     4  11  24  46  69 102 136 173 230 283 337 409
#
# _framework density 24.273807999999999
#
# number of rings (size 3 to 8) (size 9 to 14) (size 15 to 20)
#    0.000    1.250    6.250    1.125    1.750    1.000 
#    0.000    1.250    2.750    0.000    0.000    0.000 
#    0.000    0.000    0.000    0.000    0.000    0.000 
#
# Total GULP energy -89638.952744 kJ/mol
# GULP energy per Si atom -5602.434546 kJ/mol
# Density = 2.421856 g / cm^3
# Si number density = 24.273808 Si / 1000 Ang^3
#
#
#
# Elastic Constant Matrix: (Units=GPa)
#
#
# Indices 1 2 3 4 5 6 
#
# 1 143.7265 62.9304 33.8035 8.7137 -23.5343 25.1082
# 2 62.9304 109.7936 24.0842 -8.3869 -7.6937 19.5659
# 3 33.8035 24.0842 51.0604 -1.2086 5.4369 6.7703
# 4 8.7137 -8.3869 -1.2086 28.1144 3.0065 -3.5588
# 5 -23.5343 -7.6937 5.4369 3.0065 31.8105 12.0910
# 6 25.1082 19.5659 6.7703 -3.5588 12.0910 47.0249
#
#
#
# Elastic Compliance Matrix: (Units=1/GPa)
#
#
# Indices 1 2 3 4 5 6 
#
# 1 0.017029 -0.005249 -0.009521 -0.010586 0.018139 -0.011003
# 2 -0.005249 0.013430 -0.002471 0.005260 0.000069 -0.002049
# 3 -0.009521 -0.002471 0.027976 0.005892 -0.015452 0.006503
# 4 -0.010586 0.005260 0.005892 0.043575 -0.015441 0.009883
# 5 0.018139 0.000069 -0.015452 -0.015441 0.057925 -0.023551
# 6 -0.011003 -0.002049 0.006503 0.009883 -0.023551 0.033860
#
#
# Mechanical properties :
#
#
# Convention : Reuss Voigt Hill
#
# Bulk Modulus (GPa) = 41.74767 60.69077 51.21922
# Shear Modulus (GPa) = 21.16293 33.64078 27.40185
#
# Velocity S-wave (km/s) = 2.95590 3.72679 3.36350
# Velocity P-wave (km/s) = 5.37455 6.60117 6.01919
#
# Compressibility (1/GPa) = 0.02395343
#
# Stress axis : x y z
#
# Youngs Moduli (GPa) = 58.72240 74.45767 35.74484
#
# Poissons Ratio (x) = 0.39082 0.34033
# Poissons Ratio (y) = 0.30823 0.08833
# Poissons Ratio (z) = 0.55911 0.18399
#
# Static dielectric constant tensor:
#      x y z
#    x 1.973860 0.000190 0.040770 
#    y 0.000190 1.907930 -0.028390 
#    z 0.040770 -0.028390 1.925530 
# 
# From -- ./inp_files/46518.got.cif
#   From: 2010.05.17/outbox.cif.g08.bks.cpg/sg2_24_cif.got.tgz:46518.got - 2010.06.03 11:33:40.
