data_PCOD9088931
_publ_section_title
;
Structure prediction by ZEFSAII (Michael W. Deem and Ramdas Pophale) SiO2 
 PCOD9088931
Probable space group: P -1
;
_chemical_formula_sum "Si O2"
_cell_formula_units_Z 14
_cell_length_a 19.090953
_cell_length_b 12.531982
_cell_length_c 9.576082
_cell_angle_alpha 132.636155
_cell_angle_beta 142.222647
_cell_angle_gamma 26.849913
_cell_volume 630.673347
_symmetry_space_group_name_H-M "P -1"
_symmetry_group_IT_number 2
_symmetry_cell_setting 'triclinic'
loop_
_space_group_symop_operation_xyz
x,y,z
-x,-y,-z
loop_
_atom_site_type_symbol
_atom_site_label
_atom_site_fract_x
_atom_site_fract_y
_atom_site_fract_z
Si Si1 0.084563 0.754295 0.409947
Si Si2 0.836378 0.439502 0.351582
Si Si3 0.240341 0.139799 0.954200
Si Si4 0.411483 0.046057 0.601650
Si Si5 0.544141 0.621967 0.838859
Si Si6 0.451717 0.383056 0.491592
Si Si7 0.158928 0.279400 0.659717
O O1 0.186615 0.632670 0.612235
O O2 0.238195 0.587750 0.385388
O O3 0.932408 0.775813 0.179803
O O4 0.000000 0.000000 0.500000
O O5 0.744914 0.688397 0.470095
O O6 0.058316 0.224743 0.477762
O O7 0.727924 0.494352 0.094092
O O8 0.178482 0.305787 0.874492
O O9 0.375089 0.882681 0.870447
O O10 0.386712 0.085664 0.227144
O O11 0.348898 0.111503 0.726096
O O12 0.430649 0.854612 0.445467
O O13 0.522376 0.474650 0.707086
O O14 0.542494 0.646207 0.692013
O O15 0.000000 0.500000 0.500000
#
# Coordination Sequence:
#
# PCOD9088931 Si02
#       7
#     2   2   2   2   2   2   2
#     4  11  23  43  62  86 124 167 194 248 310 362
#     4   9  22  38  66  89 119 158 211 238 296 374
#     4  10  19  37  64  83 119 162 209 230 299 380
#     4  10  20  36  62  91 118 159 202 251 296 348
#     4  10  21  40  63  95 114 159 210 245 289 368
#     4  11  23  37  65  90 129 150 200 257 308 333
#     4   9  17  31  58  90 115 153 196 248 286 350
#
# _framework density 22.198495999999999
#
# number of rings (size 3 to 8) (size 9 to 14) (size 15 to 20)
#    0.000    2.000    2.857    0.429    4.000    1.714 
#    0.000    2.857    0.000    0.000    0.000    0.000 
#    0.000    0.000    0.000    0.000    0.000    0.000 
#
# Total GULP energy -77977.134972 kJ/mol
# GULP energy per Si atom -5569.795355 kJ/mol
# Density = 2.214797 g / cm^3
# Si number density = 22.198496 Si / 1000 Ang^3
#
#
#
# Elastic Constant Matrix: (Units=GPa)
#
#
# Indices 1 2 3 4 5 6 
#
# 1 78.3398 25.3168 -3.7111 16.4321 20.1245 4.1406
# 2 25.3168 74.7068 7.8108 13.7017 3.6869 36.9678
# 3 -3.7111 7.8108 48.3586 -0.3256 16.6846 0.9613
# 4 16.4321 13.7017 -0.3256 31.4250 -2.4828 5.4620
# 5 20.1245 3.6869 16.6846 -2.4828 25.3692 -6.7808
# 6 4.1406 36.9678 0.9613 5.4620 -6.7808 47.2535
#
#
#
# Elastic Compliance Matrix: (Units=1/GPa)
#
#
# Indices 1 2 3 4 5 6 
#
# 1 0.025572 -0.005909 0.012982 -0.012876 -0.029388 -0.000611
# 2 -0.005909 0.026898 -0.003429 -0.005383 -0.002906 -0.020250
# 3 0.012982 -0.003429 0.033829 -0.007049 -0.033579 -0.003147
# 4 -0.012876 -0.005383 -0.007049 0.041835 0.020694 0.003617
# 5 -0.029388 -0.002906 -0.033579 0.020694 0.091615 0.016286
# 6 -0.000611 -0.020250 -0.003147 0.003617 0.016286 0.039041
#
#
# Mechanical properties :
#
#
# Convention : Reuss Voigt Hill
#
# Bulk Modulus (GPa) = 10.68531 28.91535 19.80033
# Shear Modulus (GPa) = 17.68664 32.27546 24.98105
#
# Velocity S-wave (km/s) = 2.82574 3.81720 3.35826
# Velocity P-wave (km/s) = 3.93324 5.69931 4.89656
#
# Compressibility (1/GPa) = 0.09358639
#
# Stress axis : x y z
#
# Youngs Moduli (GPa) = 39.10531 37.17751 29.56005
#
# Poissons Ratio (x) = 0.21968 -0.38374
# Poissons Ratio (y) = 0.23107 0.10136
# Poissons Ratio (z) = -0.50765 0.12749
#
# Static dielectric constant tensor:
#      x y z
#    x 1.907780 0.011500 -0.029880 
#    y 0.011500 1.864160 0.000780 
#    z -0.029880 0.000780 1.869760 
# 
# From -- ./inp_files/183073.got.cif
#   From: 2010.05.17/outbox.cif.g08.bks.cpg/sg2_92_cif.got.tgz:183073.got - 2010.06.03 11:33:40.
