data_PCOD9088399
_publ_section_title
;
Structure prediction by ZEFSAII (Michael W. Deem and Ramdas Pophale) SiO2 
 PCOD9088399
Probable space group: P -1
;
_chemical_formula_sum "Si O2"
_cell_formula_units_Z 16
_cell_length_a 9.614092
_cell_length_b 15.251372
_cell_length_c 9.756639
_cell_angle_alpha 89.907092
_cell_angle_beta 43.852923
_cell_angle_gamma 62.697375
_cell_volume 744.266016
_symmetry_space_group_name_H-M "P -1"
_symmetry_group_IT_number 2
_symmetry_cell_setting 'triclinic'
loop_
_space_group_symop_operation_xyz
x,y,z
-x,-y,-z
loop_
_atom_site_type_symbol
_atom_site_label
_atom_site_fract_x
_atom_site_fract_y
_atom_site_fract_z
Si Si1 0.371326 0.449606 0.025960
Si Si2 0.400950 0.290821 0.204638
Si Si3 0.006412 0.662513 0.104084
Si Si4 0.207131 0.182542 0.472715
Si Si5 0.226525 0.813494 0.302413
Si Si6 0.405565 0.826677 0.451666
Si Si7 0.236588 0.745887 0.807466
Si Si8 0.227195 0.003973 0.798519
O O1 0.281089 0.409593 0.211520
O O2 0.144803 0.539971 0.078921
O O3 0.500000 0.500000 0.000000
O O4 0.602503 0.325179 0.791454
O O5 0.205414 0.267399 0.374437
O O6 0.542936 0.278927 0.244640
O O7 0.639121 0.191012 0.933208
O O8 0.944081 0.742251 0.281836
O O9 0.725570 0.725126 0.230442
O O10 0.214206 0.649168 0.852716
O O11 0.515204 0.076263 0.289323
O O12 0.067302 0.137620 0.512822
O O13 0.278165 0.859873 0.393281
O O14 0.292895 0.777944 0.624198
O O15 0.329525 0.939966 0.579971
O O16 0.937376 0.860586 0.067506
O O17 0.000000 0.000000 0.000000
#
# Coordination Sequence:
#
# PCOD9088399 Si02
#       8
#     2   2   2   2   2   2   2   2
#     4  10  19  37  61  84 117 148 194 242 272 342
#     4  10  20  36  62  83 114 151 190 238 277 340
#     4  11  20  37  62  86 112 154 199 230 286 340
#     4  11  19  36  63  84 111 159 190 231 287 344
#     4  10  23  40  55  88 125 143 193 245 283 336
#     4  10  23  39  58  87 121 149 188 246 287 337
#     4  11  19  39  63  84 115 151 196 238 276 347
#     4   9  19  36  63  86 113 148 199 233 280 344
#
# _framework density 21.497689000000001
#
# number of rings (size 3 to 8) (size 9 to 14) (size 15 to 20)
#    0.750    1.000    7.500    0.000    0.000    4.000 
#    2.250    3.750    0.000    0.000    0.000    0.000 
#    0.000    0.000    0.000    0.000    0.000    0.000 
#
# Total GULP energy -89260.668322 kJ/mol
# GULP energy per Si atom -5578.791770 kJ/mol
# Density = 2.144876 g / cm^3
# Si number density = 21.497689 Si / 1000 Ang^3
#
#
#
# Elastic Constant Matrix: (Units=GPa)
#
#
# Indices 1 2 3 4 5 6 
#
# 1 86.8585 -6.3865 17.5414 -3.1128 -11.7250 -8.3738
# 2 -6.3865 60.2614 0.4310 -15.8657 -7.2149 -3.6315
# 3 17.5414 0.4310 50.0893 -23.3121 -15.5794 1.3698
# 4 -3.1128 -15.8657 -23.3121 42.6274 -2.0447 -8.0213
# 5 -11.7250 -7.2149 -15.5794 -2.0447 23.3678 3.4945
# 6 -8.3738 -3.6315 1.3698 -8.0213 3.4945 16.4109
#
#
#
# Elastic Compliance Matrix: (Units=1/GPa)
#
#
# Indices 1 2 3 4 5 6 
#
# 1 0.013841 0.003520 -0.001799 0.003179 0.005870 0.008296
# 2 0.003520 0.025019 0.013141 0.019903 0.018185 0.012091
# 3 -0.001799 0.013141 0.047399 0.033700 0.036704 0.006690
# 4 0.003179 0.019903 0.033700 0.055486 0.031531 0.023620
# 5 0.005870 0.018185 0.036704 0.031531 0.078176 0.002721
# 6 0.008296 0.012091 0.006690 0.023620 0.002721 0.078251
#
#
# Mechanical properties :
#
#
# Convention : Reuss Voigt Hill
#
# Bulk Modulus (GPa) = 8.62203 24.48679 16.55441
# Shear Modulus (GPa) = 16.28077 28.85613 22.56845
#
# Velocity S-wave (km/s) = 2.75494 3.66770 3.24359
# Velocity P-wave (km/s) = 3.76019 5.41768 4.66316
#
# Compressibility (1/GPa) = 0.11598196
#
# Stress axis : x y z
#
# Youngs Moduli (GPa) = 72.24843 39.96909 21.09754
#
# Poissons Ratio (x) = -0.14067 0.03795
# Poissons Ratio (y) = -0.25428 -0.27723
# Poissons Ratio (z) = 0.12997 -0.52522
#
# Static dielectric constant tensor:
#      x y z
#    x 1.767140 0.020870 0.007050 
#    y 0.020870 1.862130 0.023370 
#    z 0.007050 0.023370 1.797300 
# 
# From -- ./inp_files/217616.got.cif
#   From: 2010.05.17/outbox.cif.g08.bks.cpg/sg2_109_cif.got.tgz:217616.got - 2010.06.03 11:33:40.
