data_PCOD9088346
_publ_section_title
;
Structure prediction by ZEFSAII (Michael W. Deem and Ramdas Pophale) SiO2 
 PCOD9088346
Probable space group: P -1
;
_chemical_formula_sum "Si O2"
_cell_formula_units_Z 14
_cell_length_a 12.250165
_cell_length_b 11.712037
_cell_length_c 11.585305
_cell_angle_alpha 83.885947
_cell_angle_beta 65.971170
_cell_angle_gamma 142.681218
_cell_volume 579.158999
_symmetry_space_group_name_H-M "P -1"
_symmetry_group_IT_number 2
_symmetry_cell_setting 'triclinic'
loop_
_space_group_symop_operation_xyz
x,y,z
-x,-y,-z
loop_
_atom_site_type_symbol
_atom_site_label
_atom_site_fract_x
_atom_site_fract_y
_atom_site_fract_z
Si Si1 0.083379 0.884843 0.143797
Si Si2 0.213767 0.155011 0.685529
Si Si3 0.304195 0.547021 0.422925
Si Si4 0.362724 0.781217 0.204948
Si Si5 0.924181 0.058532 0.479056
Si Si6 0.746760 0.448315 0.145506
Si Si7 0.081834 0.550096 0.121550
O O1 0.066691 0.007234 0.147884
O O2 0.916177 0.680141 0.349863
O O3 0.888845 0.675465 0.137099
O O4 0.408340 0.109990 0.964532
O O5 0.500000 0.500000 0.500000
O O6 0.356908 0.197890 0.713957
O O7 0.128452 0.005212 0.626894
O O8 0.287321 0.661901 0.374293
O O9 0.191967 0.375375 0.379515
O O10 0.585080 0.089660 0.086093
O O11 0.085551 0.545066 0.257905
O O12 0.608612 0.833829 0.688923
O O13 0.000000 0.000000 0.500000
O O14 0.908475 0.558228 0.943574
O O15 0.817343 0.398410 0.199876
#
# Coordination Sequence:
#
# PCOD9088346 Si02
#       7
#     2   2   2   2   2   2   2
#     4  10  19  39  66  86 129 167 194 264 315 362
#     4  10  19  37  60  94 129 160 203 252 315 375
#     4  11  22  39  64  94 128 162 213 251 308 385
#     4  10  22  42  62  89 124 164 216 259 307 371
#     4  12  20  36  66  95 125 164 205 254 315 376
#     4  10  19  38  63  90 118 168 208 249 319 369
#     4   9  21  41  62  85 128 165 208 266 311 358
#
# _framework density 24.172982999999999
#
# number of rings (size 3 to 8) (size 9 to 14) (size 15 to 20)
#    0.000    1.714    5.714    0.857    0.000    0.571 
#    7.714   13.571    0.000    0.000    0.000    0.000 
#    0.000    0.000    0.000    0.000    0.000    0.000 
#
# Total GULP energy -78274.485900 kJ/mol
# GULP energy per Si atom -5591.034707 kJ/mol
# Density = 2.411796 g / cm^3
# Si number density = 24.172983 Si / 1000 Ang^3
#
#
#
# Elastic Constant Matrix: (Units=GPa)
#
#
# Indices 1 2 3 4 5 6 
#
# 1 109.0179 32.9142 37.5379 5.0962 -5.3215 26.1772
# 2 32.9142 104.8346 33.0169 19.9382 9.3411 7.4404
# 3 37.5379 33.0169 71.1097 19.5110 0.5583 -2.2957
# 4 5.0962 19.9382 19.5110 18.9857 -7.2915 -6.8359
# 5 -5.3215 9.3411 0.5583 -7.2915 44.1261 6.5659
# 6 26.1772 7.4404 -2.2957 -6.8359 6.5659 41.8626
#
#
#
# Elastic Compliance Matrix: (Units=1/GPa)
#
#
# Indices 1 2 3 4 5 6 
#
# 1 0.015301 -0.003148 -0.008870 0.006991 0.005142 -0.009160
# 2 -0.003148 0.014672 -0.000431 -0.017331 -0.005963 -0.002558
# 3 -0.008870 -0.000431 0.025876 -0.024624 -0.005963 0.003956
# 4 0.006991 -0.017331 -0.024624 0.106384 0.020694 0.011485
# 5 0.005142 -0.005963 -0.005963 0.020694 0.028573 -0.003585
# 6 -0.009160 -0.002558 0.003956 0.011485 -0.003585 0.032725
#
#
# Mechanical properties :
#
#
# Convention : Reuss Voigt Hill
#
# Bulk Modulus (GPa) = 32.30856 54.65560 43.48208
# Shear Modulus (GPa) = 19.32401 33.09442 26.20922
#
# Velocity S-wave (km/s) = 2.83044 3.70410 3.29635
# Velocity P-wave (km/s) = 4.90678 6.39946 5.70217
#
# Compressibility (1/GPa) = 0.03095155
#
# Stress axis : x y z
#
# Youngs Moduli (GPa) = 65.35523 68.15681 38.64586
#
# Poissons Ratio (x) = 0.21457 0.34278
# Poissons Ratio (y) = 0.20575 0.01665
# Poissons Ratio (z) = 0.57968 0.02937
#
# Static dielectric constant tensor:
#      x y z
#    x 2.027540 -0.012090 0.006500 
#    y -0.012090 1.952270 -0.029450 
#    z 0.006500 -0.029450 2.030550 
# 
# From -- ./inp_files/428129.got.cif
#   From: 2010.05.17/outbox.cif.g08.bks.cpg/sg2_215_cif.got.tgz:428129.got - 2010.06.03 11:33:40.
