data_PCOD9088341
_publ_section_title
;
Structure prediction by ZEFSAII (Michael W. Deem and Ramdas Pophale) SiO2 
 PCOD9088341
Probable space group: P -1
;
_chemical_formula_sum "Si O2"
_cell_formula_units_Z 16
_cell_length_a 20.828020
_cell_length_b 28.260238
_cell_length_c 9.095853
_cell_angle_alpha 24.667699
_cell_angle_beta 150.603241
_cell_angle_gamma 162.684078
_cell_volume 664.772699
_symmetry_space_group_name_H-M "P -1"
_symmetry_group_IT_number 2
_symmetry_cell_setting 'triclinic'
loop_
_space_group_symop_operation_xyz
x,y,z
-x,-y,-z
loop_
_atom_site_type_symbol
_atom_site_label
_atom_site_fract_x
_atom_site_fract_y
_atom_site_fract_z
Si Si1 0.819657 0.968381 0.216156
Si Si2 0.420032 0.568814 0.690501
Si Si3 0.336613 0.255102 0.036533
Si Si4 0.516397 0.007474 0.332796
Si Si5 0.071229 0.302974 0.323385
Si Si6 0.341837 0.095483 0.241966
Si Si7 0.858576 0.098922 0.210736
Si Si8 0.019632 0.401031 0.218203
O O1 0.587344 0.769554 0.376750
O O2 0.900579 0.119875 0.061387
O O3 0.790774 0.967273 0.991050
O O4 0.000000 0.000000 0.500000
O O5 0.463826 0.607265 0.842414
O O6 0.185437 0.436353 0.538282
O O7 0.500000 0.500000 0.000000
O O8 0.397493 0.243065 0.034320
O O9 0.170141 0.049943 0.362449
O O10 0.229709 0.305903 0.666809
O O11 0.769089 0.199456 0.273983
O O12 0.500000 0.000000 0.500000
O O13 0.473750 0.857901 0.589050
O O14 0.372351 0.997454 0.985197
O O15 0.104079 0.432959 0.128693
O O16 0.042077 0.291920 0.121312
O O17 0.826811 0.090172 0.470686
O O18 0.000000 0.500000 0.000000
#
# Coordination Sequence:
#
# PCOD9088341 Si02
#       8
#     2   2   2   2   2   2   2   2
#     4  11  21  35  64  91 121 161 206 259 313 363
#     4  11  23  40  63  89 129 171 208 248 311 382
#     4  10  19  37  60  92 125 156 207 261 306 370
#     4  11  23  40  62  92 126 161 212 265 306 366
#     4  10  20  37  62  95 123 155 209 265 305 370
#     4  10  20  34  61  90 120 152 206 262 309 347
#     4  10  20  35  62  92 123 160 206 259 316 360
#     4  11  24  40  63  88 124 172 208 246 314 382
#
# _framework density 24.068379
#
# number of rings (size 3 to 8) (size 9 to 14) (size 15 to 20)
#    0.000    1.500    2.500    5.250    1.750    5.500 
#    0.000    0.625    2.750    1.500    0.000    0.000 
#    0.000    0.000    0.000    0.000    0.000    0.000 
#
# Total GULP energy -89220.941731 kJ/mol
# GULP energy per Si atom -5576.308858 kJ/mol
# Density = 2.401360 g / cm^3
# Si number density = 24.068379 Si / 1000 Ang^3
#
#
#
# Elastic Constant Matrix: (Units=GPa)
#
#
# Indices 1 2 3 4 5 6 
#
# 1 158.0426 45.6099 34.8763 3.5492 21.8478 -47.4725
# 2 45.6099 92.6847 32.2839 20.8940 0.0111 -19.0135
# 3 34.8763 32.2839 72.6794 25.0934 21.6117 -0.5229
# 4 3.5492 20.8940 25.0934 43.0372 0.9058 -1.4400
# 5 21.8478 0.0111 21.6117 0.9058 43.7931 2.1802
# 6 -47.4725 -19.0135 -0.5229 -1.4400 2.1802 53.2508
#
#
#
# Elastic Compliance Matrix: (Units=1/GPa)
#
#
# Indices 1 2 3 4 5 6 
#
# 1 0.011369 -0.003074 -0.003850 0.003200 -0.004298 0.009262
# 2 -0.003074 0.015572 -0.005131 -0.004316 0.004028 0.002487
# 3 -0.003850 -0.005131 0.024773 -0.011594 -0.009818 -0.004933
# 4 0.003200 -0.004316 -0.011594 0.031820 0.003372 0.001920
# 5 -0.004298 0.004028 -0.009818 0.003372 0.029934 -0.003625
# 6 0.009262 0.002487 -0.004933 0.001920 -0.003625 0.028076
#
#
# Mechanical properties :
#
#
# Convention : Reuss Voigt Hill
#
# Bulk Modulus (GPa) = 36.22895 60.99409 48.61152
# Shear Modulus (GPa) = 28.59496 42.05864 35.32680
#
# Velocity S-wave (km/s) = 3.45058 4.18480 3.83530
# Velocity P-wave (km/s) = 5.56422 6.98191 6.31299
#
# Compressibility (1/GPa) = 0.02760224
#
# Stress axis : x y z
#
# Youngs Moduli (GPa) = 87.96102 64.21651 40.36719
#
# Poissons Ratio (x) = 0.19742 0.15541
# Poissons Ratio (y) = 0.27042 0.20714
# Poissons Ratio (z) = 0.33865 0.32952
#
# Static dielectric constant tensor:
#      x y z
#    x 1.968290 -0.094670 -0.022440 
#    y -0.094670 1.960920 -0.092030 
#    z -0.022440 -0.092030 1.963410 
# 
# From -- ./inp_files/350173.got.cif
#   From: 2010.05.17/outbox.cif.g08.bks.cpg/sg2_176_cif.got.tgz:350173.got - 2010.06.03 11:33:40.
