data_PCOD9088272
_publ_section_title
;
Structure prediction by ZEFSAII (Michael W. Deem and Ramdas Pophale) SiO2 
 PCOD9088272
Probable space group: P -1
;
_chemical_formula_sum "Si O2"
_cell_formula_units_Z 16
_cell_length_a 12.420652
_cell_length_b 21.722654
_cell_length_c 12.413159
_cell_angle_alpha 29.826257
_cell_angle_beta 138.506991
_cell_angle_gamma 150.319608
_cell_volume 824.686453
_symmetry_space_group_name_H-M "P -1"
_symmetry_group_IT_number 2
_symmetry_cell_setting 'triclinic'
loop_
_space_group_symop_operation_xyz
x,y,z
-x,-y,-z
loop_
_atom_site_type_symbol
_atom_site_label
_atom_site_fract_x
_atom_site_fract_y
_atom_site_fract_z
Si Si1 0.486561 0.002691 0.857482
Si Si2 0.649982 0.891629 0.991130
Si Si3 0.010395 0.895134 0.357284
Si Si4 0.141667 0.766766 0.494268
Si Si5 0.490370 0.239637 0.138558
Si Si6 0.017246 0.876081 0.644228
Si Si7 0.652837 0.508886 0.016379
Si Si8 0.858520 0.376649 0.484667
O O1 0.680006 0.190902 0.678025
O O2 0.519151 0.887484 0.997320
O O3 0.258644 0.945034 0.737627
O O4 0.500000 0.000000 0.000000
O O5 0.515832 0.756025 0.002217
O O6 0.751027 0.060613 0.746704
O O7 0.839444 0.900046 0.165143
O O8 0.007630 0.760821 0.499149
O O9 0.969250 0.863738 0.500476
O O10 0.254249 0.073242 0.254514
O O11 0.329465 0.771448 0.674397
O O12 0.023475 0.632501 0.513358
O O13 0.538235 0.392856 0.001287
O O14 0.845784 0.696586 0.841478
O O15 0.000000 0.000000 0.500000
O O16 0.500000 0.500000 0.000000
O O17 0.742260 0.434762 0.257275
O O18 0.000000 0.500000 0.500000
#
# Coordination Sequence:
#
# PCOD9088272 Si02
#       8
#     2   2   2   2   2   2   2   2
#     4  11  22  39  61  88 121 158 197 242 289 347
#     4  10  20  34  58  89 117 154 194 235 289 352
#     4  11  20  35  60  89 117 153 195 240 288 350
#     4   9  18  34  57  86 118 156 195 236 288 350
#     4  10  19  37  60  86 116 153 196 241 290 351
#     4  12  24  41  60  85 116 154 196 245 300 355
#     4  11  24  40  60  85 114 152 195 244 299 353
#     4  10  21  38  59  88 120 156 197 239 288 344
#
# _framework density 19.401313999999999
#
# number of rings (size 3 to 8) (size 9 to 14) (size 15 to 20)
#    0.000    1.500    0.000    9.000    0.000    4.000 
#    0.000    7.500    0.000    0.000    0.000    0.000 
#    0.000    0.000    0.000    0.000    0.000    0.000 
#
# Total GULP energy -89338.957564 kJ/mol
# GULP energy per Si atom -5583.684848 kJ/mol
# Density = 1.935716 g / cm^3
# Si number density = 19.401314 Si / 1000 Ang^3
#
#
#
# Elastic Constant Matrix: (Units=GPa)
#
#
# Indices 1 2 3 4 5 6 
#
# 1 173.7903 66.2858 49.0539 7.8147 16.2012 -38.3675
# 2 66.2858 107.9767 35.3386 8.9611 8.2974 -28.5793
# 3 49.0539 35.3386 67.6761 11.3914 3.5988 -11.0653
# 4 7.8147 8.9611 11.3914 37.6688 -1.9067 -0.9863
# 5 16.2012 8.2974 3.5988 -1.9067 40.3992 2.1539
# 6 -38.3675 -28.5793 -11.0653 -0.9863 2.1539 42.4854
#
#
#
# Elastic Compliance Matrix: (Units=1/GPa)
#
#
# Indices 1 2 3 4 5 6 
#
# 1 0.009628 -0.002631 -0.004458 -0.000032 -0.003241 0.005928
# 2 -0.002631 0.014104 -0.004108 -0.001502 -0.001872 0.006102
# 3 -0.004458 -0.004108 0.020590 -0.004331 0.000676 -0.001561
# 4 -0.000032 -0.001502 -0.004331 0.028286 0.002129 -0.001619
# 5 -0.003241 -0.001872 0.000676 0.002129 0.026761 -0.005318
# 6 0.005928 0.006102 -0.001561 -0.001619 -0.005318 0.032821
#
#
# Mechanical properties :
#
#
# Convention : Reuss Voigt Hill
#
# Bulk Modulus (GPa) = 45.60092 72.31108 58.95600
# Shear Modulus (GPa) = 30.88437 37.36165 34.12301
#
# Velocity S-wave (km/s) = 3.99415 4.39307 4.19835
# Velocity P-wave (km/s) = 6.69523 7.94256 7.34542
#
# Compressibility (1/GPa) = 0.02192938
#
# Stress axis : x y z
#
# Youngs Moduli (GPa) = 103.86323 70.89999 48.56637
#
# Poissons Ratio (x) = 0.18653 0.21651
# Poissons Ratio (y) = 0.27325 0.19950
# Poissons Ratio (z) = 0.46302 0.29125
#
# Static dielectric constant tensor:
#      x y z
#    x 1.719880 -0.037650 -0.002560 
#    y -0.037650 1.685290 -0.008220 
#    z -0.002560 -0.008220 1.650800 
# 
# From -- ./inp_files/281977.got.cif
#   From: 2010.05.17/outbox.cif.g08.bks.cpg/sg2_141_cif.got.tgz:281977.got - 2010.06.03 11:33:40.
