data_PCOD9088583
_publ_section_title
;
Structure prediction by ZEFSAII (Michael W. Deem and Ramdas Pophale) SiO2 
 PCOD9088583
Probable space group: P -1
;
_chemical_formula_sum "Si O2"
_cell_formula_units_Z 16
_cell_length_a 9.513857
_cell_length_b 14.595621
_cell_length_c 16.393478
_cell_angle_alpha 32.685028
_cell_angle_beta 64.748386
_cell_angle_gamma 44.670081
_cell_volume 770.494357
_symmetry_space_group_name_H-M "P -1"
_symmetry_group_IT_number 2
_symmetry_cell_setting 'triclinic'
loop_
_space_group_symop_operation_xyz
x,y,z
-x,-y,-z
loop_
_atom_site_type_symbol
_atom_site_label
_atom_site_fract_x
_atom_site_fract_y
_atom_site_fract_z
Si Si1 0.720364 0.040583 0.822934
Si Si2 0.437259 0.767209 0.504862
Si Si3 0.161142 0.021398 0.850076
Si Si4 0.171045 0.877320 0.627119
Si Si5 0.267392 0.321493 0.631133
Si Si6 0.980314 0.711485 0.868594
Si Si7 0.670572 0.254334 0.831588
Si Si8 0.013457 0.837850 0.376824
O O1 0.493308 0.154599 0.753619
O O2 0.683941 0.083775 0.895860
O O3 0.788431 0.179333 0.674488
O O4 0.923064 0.775622 0.930790
O O5 0.388023 0.789433 0.596515
O O6 0.655820 0.681235 0.476690
O O7 0.474317 0.539358 0.642562
O O8 0.235181 0.031494 0.315451
O O9 0.179228 0.203191 0.732127
O O10 0.910878 0.155425 0.833502
O O11 0.177131 0.974473 0.784886
O O12 0.335003 0.791443 0.038532
O O13 0.176064 0.684494 0.810050
O O14 0.000000 0.000000 0.500000
O O15 0.074186 0.068724 0.580428
O O16 0.104981 0.583382 0.518302
O O17 0.000000 0.500000 0.000000
#
# Coordination Sequence:
#
# PCOD9088583 Si02
#       8
#     2   2   2   2   2   2   2   2
#     4   9  19  33  61  91 114 154 195 255 297 346
#     4  10  20  35  60  84 117 154 195 246 292 349
#     4  10  22  38  58  88 120 165 192 251 298 357
#     4   9  20  36  58  88 118 160 193 240 309 355
#     4  11  20  34  64  91 118 149 206 252 300 344
#     4   9  19  35  56  86 125 154 190 242 311 355
#     4  10  21  39  60  86 123 154 207 244 301 354
#     4  10  19  37  62  85 119 162 201 232 308 366
#
# _framework density 20.765888
#
# number of rings (size 3 to 8) (size 9 to 14) (size 15 to 20)
#    0.000    2.250    2.500    1.500    5.250    2.500 
#    4.500    1.250    0.000    1.500    0.000    0.000 
#    0.000    0.000    0.000    0.000    0.000    0.000 
#
# Total GULP energy -89077.004737 kJ/mol
# GULP energy per Si atom -5567.312796 kJ/mol
# Density = 2.071862 g / cm^3
# Si number density = 20.765888 Si / 1000 Ang^3
#
#
#
# Elastic Constant Matrix: (Units=GPa)
#
#
# Indices 1 2 3 4 5 6 
#
# 1 91.8281 34.8622 22.9289 2.6096 -4.5598 22.3249
# 2 34.8622 141.9654 45.6731 10.5115 0.3394 20.8247
# 3 22.9289 45.6731 63.4957 -7.3805 -2.0401 10.0531
# 4 2.6096 10.5115 -7.3805 25.8428 10.8190 0.6679
# 5 -4.5598 0.3394 -2.0401 10.8190 22.7013 0.5569
# 6 22.3249 20.8247 10.0531 0.6679 0.5569 21.7441
#
#
#
# Elastic Compliance Matrix: (Units=1/GPa)
#
#
# Indices 1 2 3 4 5 6 
#
# 1 0.015732 -0.000346 -0.003513 -0.004276 0.005236 -0.014199
# 2 -0.000346 0.011116 -0.007629 -0.007716 0.002918 -0.006601
# 3 -0.003513 -0.007629 0.023826 0.012017 -0.004168 -0.000365
# 4 -0.004276 -0.007716 0.012017 0.056811 -0.026866 0.005168
# 5 0.005236 0.002918 -0.004168 -0.026866 0.057656 -0.006895
# 6 -0.014199 -0.006601 -0.000365 0.005168 -0.006895 0.067077
#
#
# Mechanical properties :
#
#
# Convention : Reuss Voigt Hill
#
# Bulk Modulus (GPa) = 36.10315 56.02418 46.06367
# Shear Modulus (GPa) = 18.90883 26.97930 22.94407
#
# Velocity S-wave (km/s) = 3.02084 3.60837 3.32760
# Velocity P-wave (km/s) = 5.43975 6.66318 6.08230
#
# Compressibility (1/GPa) = 0.02769841
#
# Stress axis : x y z
#
# Youngs Moduli (GPa) = 63.56457 89.96017 41.97157
#
# Poissons Ratio (x) = 0.03115 0.14743
# Poissons Ratio (y) = 0.02201 0.32019
# Poissons Ratio (z) = 0.22327 0.68629
#
# Static dielectric constant tensor:
#      x y z
#    x 1.769200 -0.025990 0.038500 
#    y -0.025990 1.812550 0.030130 
#    z 0.038500 0.030130 1.801130 
# 
# From -- ./inp_files/225588.got.cif
#   From: 2010.05.17/outbox.cif.g08.bks.cpg/sg2_113_cif.got.tgz:225588.got - 2010.06.03 11:33:40.
