data_PCOD9088942
_publ_section_title
;
Structure prediction by ZEFSAII (Michael W. Deem and Ramdas Pophale) SiO2 
 PCOD9088942
Probable space group: P -1
;
_chemical_formula_sum "Si O2"
_cell_formula_units_Z 14
_cell_length_a 11.893886
_cell_length_b 10.807736
_cell_length_c 13.184609
_cell_angle_alpha 147.920315
_cell_angle_beta 125.115918
_cell_angle_gamma 45.082528
_cell_volume 636.199781
_symmetry_space_group_name_H-M "P -1"
_symmetry_group_IT_number 2
_symmetry_cell_setting 'triclinic'
loop_
_space_group_symop_operation_xyz
x,y,z
-x,-y,-z
loop_
_atom_site_type_symbol
_atom_site_label
_atom_site_fract_x
_atom_site_fract_y
_atom_site_fract_z
Si Si1 0.524369 0.820770 0.288357
Si Si2 0.415667 0.539918 0.183415
Si Si3 0.866866 0.366256 0.581510
Si Si4 0.162877 0.470227 0.098568
Si Si5 0.769128 0.919883 0.417321
Si Si6 0.615791 0.936629 0.835632
Si Si7 0.325807 0.912247 0.741873
O O1 0.462458 0.628875 0.166595
O O2 0.707236 0.720204 0.284180
O O3 0.500000 0.000000 0.500000
O O4 0.434666 0.975902 0.247487
O O5 0.254507 0.527617 0.097520
O O6 0.365451 0.781058 0.405785
O O7 0.554073 0.230905 0.060190
O O8 0.857557 0.354360 0.691222
O O9 0.793224 0.684994 0.747057
O O10 0.750965 0.273077 0.405883
O O11 0.052312 0.185674 0.524617
O O12 0.000000 0.500000 0.000000
O O13 0.271984 0.154074 0.961236
O O14 0.760634 0.942724 0.308018
O O15 0.508998 0.814316 0.743285
#
# Coordination Sequence:
#
# PCOD9088942 Si02
#       7
#     2   2   2   2   2   2   2
#     4   9  20  41  64  82 111 165 213 234 285 370
#     4  10  20  38  64  83 115 163 204 236 288 361
#     4  12  22  39  60  93 131 148 191 261 307 339
#     4  11  21  35  62  93 121 157 202 239 298 362
#     4  10  19  37  64  86 116 163 200 241 289 359
#     4  10  23  38  60  93 120 154 200 253 301 345
#     4  10  20  37  58  87 125 164 198 228 300 377
#
# _framework density 22.005666999999999
#
# number of rings (size 3 to 8) (size 9 to 14) (size 15 to 20)
#    0.000    1.714    2.857    2.143    0.000    2.286 
#    7.714    3.571    0.000    0.000    0.000    0.000 
#    0.000    0.000    0.000    0.000    0.000    0.000 
#
# Total GULP energy -77967.987560 kJ/mol
# GULP energy per Si atom -5569.141969 kJ/mol
# Density = 2.195558 g / cm^3
# Si number density = 22.005667 Si / 1000 Ang^3
#
#
#
# Elastic Constant Matrix: (Units=GPa)
#
#
# Indices 1 2 3 4 5 6 
#
# 1 104.4644 30.1724 37.2891 16.7787 20.1562 1.8631
# 2 30.1724 74.2601 15.8927 19.3524 5.4401 -16.5822
# 3 37.2891 15.8927 101.5259 4.9739 -4.9055 -8.3108
# 4 16.7787 19.3524 4.9739 26.7329 -4.2427 -3.7577
# 5 20.1562 5.4401 -4.9055 -4.2427 38.8835 -0.1588
# 6 1.8631 -16.5822 -8.3108 -3.7577 -0.1588 17.9842
#
#
#
# Elastic Compliance Matrix: (Units=1/GPa)
#
#
# Indices 1 2 3 4 5 6 
#
# 1 0.016786 -0.004902 -0.006348 -0.008934 -0.009837 -0.011146
# 2 -0.004902 0.022675 0.000280 -0.010958 -0.001713 0.019240
# 3 -0.006348 0.000280 0.012852 0.003293 0.005263 0.007589
# 4 -0.008934 -0.010958 0.003293 0.052784 0.012353 0.003481
# 5 -0.009837 -0.001713 0.005263 0.012353 0.033088 0.004745
# 6 -0.011146 0.019240 0.007589 0.003481 0.004745 0.078775
#
#
# Mechanical properties :
#
#
# Convention : Reuss Voigt Hill
#
# Bulk Modulus (GPa) = 32.92361 49.66210 41.29285
# Shear Modulus (GPa) = 20.07832 29.84655 24.96244
#
# Velocity S-wave (km/s) = 3.02390 3.68681 3.37169
# Velocity P-wave (km/s) = 5.21401 6.38281 5.82778
#
# Compressibility (1/GPa) = 0.03037334
#
# Stress axis : x y z
#
# Youngs Moduli (GPa) = 59.57326 44.10068 77.81112
#
# Poissons Ratio (x) = 0.21617 0.49394
# Poissons Ratio (y) = 0.29201 -0.02177
# Poissons Ratio (z) = 0.37817 -0.01234
#
# Static dielectric constant tensor:
#      x y z
#    x 1.836160 -0.005430 0.031220 
#    y -0.005430 1.820370 0.016570 
#    z 0.031220 0.016570 1.941270 
# 
# From -- ./inp_files/272182.got.cif
#   From: 2010.05.17/outbox.cif.g08.bks.cpg/sg2_137_cif.got.tgz:272182.got - 2010.06.03 11:33:40.
