data_PCOD9088733
_publ_section_title
;
Structure prediction by ZEFSAII (Michael W. Deem and Ramdas Pophale) SiO2 
 PCOD9088733
Probable space group: P -1
;
_chemical_formula_sum "Si O2"
_cell_formula_units_Z 16
_cell_length_a 8.589390
_cell_length_b 20.855739
_cell_length_c 11.126957
_cell_angle_alpha 72.720164
_cell_angle_beta 58.368028
_cell_angle_gamma 31.499743
_cell_volume 834.716501
_symmetry_space_group_name_H-M "P -1"
_symmetry_group_IT_number 2
_symmetry_cell_setting 'triclinic'
loop_
_space_group_symop_operation_xyz
x,y,z
-x,-y,-z
loop_
_atom_site_type_symbol
_atom_site_label
_atom_site_fract_x
_atom_site_fract_y
_atom_site_fract_z
Si Si1 0.346082 0.671656 0.315157
Si Si2 0.362465 0.444582 0.258167
Si Si3 0.657342 0.692236 0.562704
Si Si4 0.881381 0.389731 0.170992
Si Si5 0.148983 0.361810 0.838264
Si Si6 0.807497 0.939636 0.335763
Si Si7 0.243273 0.215752 0.352954
Si Si8 0.756336 0.131975 0.584604
O O1 0.564040 0.540886 0.248131
O O2 0.635689 0.635522 0.261140
O O3 0.083789 0.795303 0.261868
O O4 0.085554 0.725283 0.494865
O O5 0.405086 0.351425 0.302156
O O6 0.703056 0.378841 0.196428
O O7 0.040717 0.563360 0.415126
O O8 0.223731 0.510564 0.147428
O O9 0.655979 0.762463 0.596045
O O10 0.364514 0.783279 0.524783
O O11 0.104722 0.299660 0.247541
O O12 0.110537 0.352937 0.995549
O O13 0.376425 0.235394 0.741820
O O14 0.026373 0.908440 0.368303
O O15 0.500000 0.000000 0.500000
O O16 0.588480 0.060362 0.275382
O O17 0.000000 0.000000 0.500000
#
# Coordination Sequence:
#
# PCOD9088733 Si02
#       8
#     2   2   2   2   2   2   2   2
#     4  10  21  38  59  86 115 159 194 236 287 350
#     4  10  22  35  57  85 120 148 194 245 293 341
#     4  10  20  34  59  90 111 149 200 248 279 336
#     4  12  23  36  61  86 124 154 191 244 296 346
#     4  10  23  39  57  87 119 152 192 241 299 350
#     4   9  20  34  57  89 118 142 196 242 287 338
#     4  11  21  36  59  91 115 151 199 243 286 343
#     4  10  19  37  63  82 112 155 197 237 290 347
#
# _framework density 19.168185000000001
#
# number of rings (size 3 to 8) (size 9 to 14) (size 15 to 20)
#    0.000    1.750    2.500    1.875    8.750    0.000 
#    0.000    2.500    2.750    0.750    0.000    0.000 
#    0.000    0.000    0.000    0.000    0.000    0.000 
#
# Total GULP energy -89151.552202 kJ/mol
# GULP energy per Si atom -5571.972013 kJ/mol
# Density = 1.912456 g / cm^3
# Si number density = 19.168185 Si / 1000 Ang^3
#
#
#
# Elastic Constant Matrix: (Units=GPa)
#
#
# Indices 1 2 3 4 5 6 
#
# 1 43.1507 8.6724 17.2289 -9.2023 -11.6869 -6.6808
# 2 8.6724 127.5289 36.6688 -11.5051 10.8703 -1.8329
# 3 17.2289 36.6688 66.6030 -22.5279 11.8859 -4.0181
# 4 -9.2023 -11.5051 -22.5279 13.8283 1.1221 -2.3204
# 5 -11.6869 10.8703 11.8859 1.1221 17.2443 -0.8310
# 6 -6.6808 -1.8329 -4.0181 -2.3204 -0.8310 22.6345
#
#
#
# Elastic Compliance Matrix: (Units=1/GPa)
#
#
# Indices 1 2 3 4 5 6 
#
# 1 0.044337 -0.001509 -0.021167 -0.008329 0.046616 0.010064
# 2 -0.001509 0.009483 -0.003496 0.001518 -0.004704 -0.000315
# 3 -0.021167 -0.003496 0.072413 0.109042 -0.068426 0.014990
# 4 -0.008329 0.001518 0.109042 0.260267 -0.096762 0.040151
# 5 0.046616 -0.004704 -0.068426 -0.096762 0.145849 -0.003334
# 6 0.010064 -0.000315 0.014990 0.040151 -0.003334 0.053780
#
#
# Mechanical properties :
#
#
# Convention : Reuss Voigt Hill
#
# Bulk Modulus (GPa) = 13.53415 40.26918 26.90166
# Shear Modulus (GPa) = 7.54032 22.38894 14.96463
#
# Velocity S-wave (km/s) = 1.98552 3.42135 2.79713
# Velocity P-wave (km/s) = 3.51176 6.05487 4.94944
#
# Compressibility (1/GPa) = 0.07388718
#
# Stress axis : x y z
#
# Youngs Moduli (GPa) = 22.55464 105.45485 13.80970
#
# Poissons Ratio (x) = 0.15913 0.29231
# Poissons Ratio (y) = 0.03403 0.04828
# Poissons Ratio (z) = 0.47742 0.36871
#
# Static dielectric constant tensor:
#      x y z
#    x 1.665470 0.030740 0.010410 
#    y 0.030740 1.721030 -0.012210 
#    z 0.010410 -0.012210 1.631490 
# 
# From -- ./inp_files/180485.got.cif
#   From: 2010.05.17/outbox.cif.g08.bks.cpg/sg2_91_cif.got.tgz:180485.got - 2010.06.03 11:33:40.
