data_PCOD9088681
_publ_section_title
;
Structure prediction by ZEFSAII (Michael W. Deem and Ramdas Pophale) SiO2 
 PCOD9088681
Probable space group: P -1
;
_chemical_formula_sum "Si O2"
_cell_formula_units_Z 14
_cell_length_a 7.187452
_cell_length_b 11.353708
_cell_length_c 8.655266
_cell_angle_alpha 104.904181
_cell_angle_beta 75.263626
_cell_angle_gamma 123.104500
_cell_volume 566.063229
_symmetry_space_group_name_H-M "P -1"
_symmetry_group_IT_number 2
_symmetry_cell_setting 'triclinic'
loop_
_space_group_symop_operation_xyz
x,y,z
-x,-y,-z
loop_
_atom_site_type_symbol
_atom_site_label
_atom_site_fract_x
_atom_site_fract_y
_atom_site_fract_z
Si Si1 0.448611 0.433664 0.660697
Si Si2 0.522212 0.890389 0.171226
Si Si3 0.596606 0.717332 0.861400
Si Si4 0.773711 0.220931 0.184684
Si Si5 0.556776 0.191101 0.501719
Si Si6 0.861877 0.951496 0.668587
Si Si7 0.991028 0.239233 0.858837
O O1 0.500000 0.500000 0.500000
O O2 0.554315 0.561464 0.803847
O O3 0.540896 0.326959 0.599062
O O4 0.188249 0.342924 0.737672
O O5 0.527821 0.901252 0.357823
O O6 0.255863 0.802783 0.163485
O O7 0.655980 0.049105 0.125609
O O8 0.614425 0.795188 0.044804
O O9 0.378499 0.716238 0.829191
O O10 0.807892 0.819311 0.741900
O O11 0.784937 0.241994 0.374899
O O12 0.991923 0.286561 0.050782
O O13 0.379492 0.100270 0.374238
O O14 0.970869 0.087338 0.799528
O O15 0.000000 0.000000 0.500000
#
# Coordination Sequence:
#
# PCOD9088681 Si02
#       7
#     2   2   2   2   2   2   2
#     4  12  23  42  62  89 120 166 206 244 290 370
#     4  11  21  38  62  96 122 153 195 263 305 344
#     4  10  20  38  63  81 125 160 201 244 297 356
#     4  10  19  37  62  92 118 154 200 248 294 357
#     4  11  23  36  64  90 130 150 196 256 311 341
#     4  11  18  36  62  90 113 160 207 243 289 358
#     4  11  21  37  68  90 115 159 212 240 298 362
#
# _framework density 24.732218
#
# number of rings (size 3 to 8) (size 9 to 14) (size 15 to 20)
#    0.000    1.143    8.571    1.286    0.000    2.857 
#    0.000    3.571    3.143    0.000    0.000    0.000 
#    0.000    0.000    0.000    0.000    0.000    0.000 
#
# Total GULP energy -78127.401077 kJ/mol
# GULP energy per Si atom -5580.528648 kJ/mol
# Density = 2.467593 g / cm^3
# Si number density = 24.732218 Si / 1000 Ang^3
#
#
#
# Elastic Constant Matrix: (Units=GPa)
#
#
# Indices 1 2 3 4 5 6 
#
# 1 46.3567 31.6479 31.7839 9.2812 -14.2955 6.6039
# 2 31.6479 104.2966 38.3358 -0.1556 -19.9049 5.2982
# 3 31.7839 38.3358 171.0624 -12.1289 -36.5110 7.0133
# 4 9.2812 -0.1556 -12.1289 46.0818 2.1853 -8.1898
# 5 -14.2955 -19.9049 -36.5110 2.1853 49.2785 -3.4030
# 6 6.6039 5.2982 7.0133 -8.1898 -3.4030 22.6432
#
#
#
# Elastic Compliance Matrix: (Units=1/GPa)
#
#
# Indices 1 2 3 4 5 6 
#
# 1 0.034154 -0.007675 -0.004184 -0.009937 0.003462 -0.009943
# 2 -0.007675 0.012637 -0.000855 0.001322 0.002210 0.000357
# 3 -0.004184 -0.000855 0.007886 0.002829 0.004202 0.000632
# 4 -0.009937 0.001322 0.002829 0.026470 -0.000654 0.011189
# 5 0.003462 0.002210 0.004202 -0.000654 0.025384 0.000750
# 6 -0.009943 0.000357 0.000632 0.011189 0.000750 0.050943
#
#
# Mechanical properties :
#
#
# Convention : Reuss Voigt Hill
#
# Bulk Modulus (GPa) = 34.18878 58.36120 46.27499
# Shear Modulus (GPa) = 25.95347 38.26392 32.10869
#
# Velocity S-wave (km/s) = 3.24293 3.93762 3.60704
# Velocity P-wave (km/s) = 5.27974 6.65745 6.00822
#
# Compressibility (1/GPa) = 0.02924937
#
# Stress axis : x y z
#
# Youngs Moduli (GPa) = 29.27938 79.13327 126.80095
#
# Poissons Ratio (x) = 0.60733 0.53053
# Poissons Ratio (y) = 0.22471 0.10843
# Poissons Ratio (z) = 0.12250 0.06767
#
# Static dielectric constant tensor:
#      x y z
#    x 2.157790 0.046890 -0.043310 
#    y 0.046890 1.979040 -0.056280 
#    z -0.043310 -0.056280 2.034140 
# 
# From -- ./inp_files/181365.got.cif
#   From: 2010.05.17/outbox.cif.g08.bks.cpg/sg2_91_cif.got.tgz:181365.got - 2010.06.03 11:33:40.
