data_PCOD9088699
_publ_section_title
;
Structure prediction by ZEFSAII (Michael W. Deem and Ramdas Pophale) SiO2 
 PCOD9088699
Probable space group: P -1
;
_chemical_formula_sum "Si O2"
_cell_formula_units_Z 16
_cell_length_a 11.552387
_cell_length_b 8.865086
_cell_length_c 12.667254
_cell_angle_alpha 134.774443
_cell_angle_beta 101.404955
_cell_angle_gamma 109.514461
_cell_volume 661.747524
_symmetry_space_group_name_H-M "P -1"
_symmetry_group_IT_number 2
_symmetry_cell_setting 'triclinic'
loop_
_space_group_symop_operation_xyz
x,y,z
-x,-y,-z
loop_
_atom_site_type_symbol
_atom_site_label
_atom_site_fract_x
_atom_site_fract_y
_atom_site_fract_z
Si Si1 0.584054 0.488325 0.613109
Si Si2 0.721881 0.411990 0.062623
Si Si3 0.189608 0.326569 0.571173
Si Si4 0.878098 0.147589 0.028237
Si Si5 0.364546 0.818015 0.683989
Si Si6 0.907390 0.306336 0.526198
Si Si7 0.283540 0.005145 0.448035
Si Si8 0.892532 0.565502 0.970209
O O1 0.500000 0.500000 0.500000
O O2 0.636375 0.328732 0.493250
O O3 0.460505 0.296825 0.591916
O O4 0.731915 0.806054 0.839750
O O5 0.812986 0.598232 0.065978
O O6 0.532572 0.143965 0.882772
O O7 0.760208 0.604476 0.263638
O O8 0.797310 0.271248 0.034086
O O9 0.329802 0.617616 0.675848
O O10 0.178069 0.068292 0.408020
O O11 0.027777 0.262551 0.502268
O O12 0.984141 0.360532 0.250350
O O13 0.000921 0.206729 0.991259
O O14 0.210565 0.780630 0.632190
O O15 0.789049 0.106006 0.503786
O O16 0.255524 0.744462 0.261348
O O17 0.000000 0.500000 0.000000
#
# Coordination Sequence:
#
# PCOD9088699 Si02
#       8
#     2   2   2   2   2   2   2   2
#     4  12  20  36  67  99 122 158 220 261 305 359
#     4  10  19  37  62  94 120 166 214 251 311 369
#     4  11  23  39  66  92 125 167 216 256 302 378
#     4   9  19  37  60  91 128 164 206 256 303 384
#     4  12  23  39  65  94 130 166 204 266 316 372
#     4  10  25  42  61  93 133 167 204 252 332 369
#     4  11  21  41  65  96 121 164 214 263 299 377
#     4   9  17  33  61  90 126 152 205 260 305 355
#
# _framework density 24.178405000000001
#
# number of rings (size 3 to 8) (size 9 to 14) (size 15 to 20)
#    0.000    1.500    3.750    2.625    0.000    2.000 
#    0.000    0.625    0.000    0.000    0.000    0.000 
#    0.000    0.000    0.000    0.000    0.000    0.000 
#
# Total GULP energy -89497.233543 kJ/mol
# GULP energy per Si atom -5593.577096 kJ/mol
# Density = 2.412337 g / cm^3
# Si number density = 24.178405 Si / 1000 Ang^3
#
#
#
# Elastic Constant Matrix: (Units=GPa)
#
#
# Indices 1 2 3 4 5 6 
#
# 1 69.6300 14.4362 46.0855 1.7038 1.7954 17.0572
# 2 14.4362 88.6031 34.4917 29.7075 10.3987 41.5659
# 3 46.0855 34.4917 114.0586 33.4371 14.2224 12.1240
# 4 1.7038 29.7075 33.4371 35.2117 2.5783 5.9282
# 5 1.7954 10.3987 14.2224 2.5783 25.8706 -3.4725
# 6 17.0572 41.5659 12.1240 5.9282 -3.4725 34.6627
#
#
#
# Elastic Compliance Matrix: (Units=1/GPa)
#
#
# Indices 1 2 3 4 5 6 
#
# 1 0.025485 0.004993 -0.012966 0.009467 0.000318 -0.015580
# 2 0.004993 0.059742 0.002928 -0.039048 -0.031691 -0.071618
# 3 -0.012966 0.002928 0.020468 -0.020262 -0.009752 -0.001802
# 4 0.009467 -0.039048 -0.020262 0.071708 0.024323 0.039426
# 5 0.000318 -0.031691 -0.009752 0.024323 0.060095 0.043118
# 6 -0.015580 -0.071618 -0.001802 0.039426 0.043118 0.120604
#
#
# Mechanical properties :
#
#
# Convention : Reuss Voigt Hill
#
# Bulk Modulus (GPa) = 10.45968 51.36872 30.91420
# Shear Modulus (GPa) = 12.49809 30.96756 21.73283
#
# Velocity S-wave (km/s) = 2.27604 3.58270 3.00134
# Velocity P-wave (km/s) = 3.35299 6.19727 4.98240
#
# Compressibility (1/GPa) = 0.09560526
#
# Stress axis : x y z
#
# Youngs Moduli (GPa) = 39.23911 16.73855 48.85576
#
# Poissons Ratio (x) = -0.08357 0.63345
# Poissons Ratio (y) = -0.19591 -0.14305
# Poissons Ratio (z) = 0.50876 -0.04901
#
# Static dielectric constant tensor:
#      x y z
#    x 1.956040 -0.040260 0.022230 
#    y -0.040260 1.967940 -0.029650 
#    z 0.022230 -0.029650 1.916070 
# 
# From -- ./inp_files/519920.got.cif
#   From: 2010.05.17/outbox.cif.g08.bks.cpg/sg2_260_cif.got.tgz:519920.got - 2010.06.03 11:33:40.
