data_PCOD9088741
_publ_section_title
;
Structure prediction by ZEFSAII (Michael W. Deem and Ramdas Pophale) SiO2 
 PCOD9088741
Probable space group: P -1
;
_chemical_formula_sum "Si O2"
_cell_formula_units_Z 12
_cell_length_a 8.034831
_cell_length_b 13.461880
_cell_length_c 9.519488
_cell_angle_alpha 123.541751
_cell_angle_beta 101.703235
_cell_angle_gamma 42.980770
_cell_volume 547.107303
_symmetry_space_group_name_H-M "P -1"
_symmetry_group_IT_number 2
_symmetry_cell_setting 'triclinic'
loop_
_space_group_symop_operation_xyz
x,y,z
-x,-y,-z
loop_
_atom_site_type_symbol
_atom_site_label
_atom_site_fract_x
_atom_site_fract_y
_atom_site_fract_z
Si Si1 0.994008 0.943607 0.605099
Si Si2 0.755340 0.819617 0.481980
Si Si3 0.756944 0.865014 0.842123
Si Si4 0.102825 0.423220 0.206393
Si Si5 0.462006 0.655904 0.655876
Si Si6 0.620565 0.182336 0.965299
O O1 0.744961 0.126244 0.791379
O O2 0.960048 0.818429 0.491373
O O3 0.000000 0.000000 0.500000
O O4 0.253242 0.826251 0.649527
O O5 0.712918 0.837579 0.656611
O O6 0.862176 0.636925 0.303766
O O7 0.500000 0.000000 0.500000
O O8 0.952531 0.675898 0.813480
O O9 0.792757 0.985511 0.912984
O O10 0.500000 0.000000 0.000000
O O11 0.274680 0.405690 0.338585
O O12 0.316351 0.303124 0.022495
O O13 0.500000 0.500000 0.500000
O O14 0.368629 0.712569 0.846335
#
# Coordination Sequence:
#
# PCOD9088741 Si02
#       6
#     2   2   2   2   2   2
#     4  11  22  38  58  90 124 160 197 243 307 357
#     4  11  23  38  59  87 124 159 198 251 302 352
#     4   9  18  37  60  87 113 153 201 245 294 356
#     4   9  19  37  64  85 119 153 210 241 296 354
#     4  10  19  37  63  83 120 157 204 242 295 351
#     4   8  19  36  63  89 120 155 204 247 294 356
#
# _framework density 21.933541000000002
#
# number of rings (size 3 to 8) (size 9 to 14) (size 15 to 20)
#    1.000    1.333    1.667    1.000    2.333    0.000 
#    0.000   10.833    0.000    0.000    0.000    0.000 
#    0.000    0.000    0.000    0.000    0.000    0.000 
#
# Total GULP energy -66893.945298 kJ/mol
# GULP energy per Si atom -5574.495441 kJ/mol
# Density = 2.188362 g / cm^3
# Si number density = 21.933541 Si / 1000 Ang^3
#
#
#
# Elastic Constant Matrix: (Units=GPa)
#
#
# Indices 1 2 3 4 5 6 
#
# 1 45.5605 18.8209 22.8819 -5.8467 -11.2161 11.8708
# 2 18.8209 120.6049 53.6591 11.7637 -24.0818 4.2874
# 3 22.8819 53.6591 129.5895 7.7400 -26.5119 33.3404
# 4 -5.8467 11.7637 7.7400 38.4964 11.0013 0.5313
# 5 -11.2161 -24.0818 -26.5119 11.0013 34.2589 -6.2319
# 6 11.8708 4.2874 33.3404 0.5313 -6.2319 35.1131
#
#
#
# Elastic Compliance Matrix: (Units=1/GPa)
#
#
# Indices 1 2 3 4 5 6 
#
# 1 0.027100 -0.003307 -0.001312 0.004708 0.002729 -0.007099
# 2 -0.003307 0.012389 -0.003942 -0.005630 0.007241 0.004719
# 3 -0.001312 -0.003942 0.014062 -0.003614 0.006812 -0.011164
# 4 0.004708 -0.005630 -0.003614 0.033786 -0.016219 -0.000862
# 5 0.002729 0.007241 0.006812 -0.016219 0.045667 0.000076
# 6 -0.007099 0.004719 -0.011164 -0.000862 0.000076 0.040930
#
#
# Mechanical properties :
#
#
# Convention : Reuss Voigt Hill
#
# Bulk Modulus (GPa) = 27.45181 54.05319 40.75250
# Shear Modulus (GPa) = 24.60640 34.93319 29.76980
#
# Velocity S-wave (km/s) = 3.35305 3.99517 3.68812
# Velocity P-wave (km/s) = 5.24726 6.78082 6.06272
#
# Compressibility (1/GPa) = 0.03642747
#
# Stress axis : x y z
#
# Youngs Moduli (GPa) = 36.90087 80.71700 71.11168
#
# Poissons Ratio (x) = 0.26695 0.09331
# Poissons Ratio (y) = 0.12204 0.28034
# Poissons Ratio (z) = 0.04842 0.31821
#
# Static dielectric constant tensor:
#      x y z
#    x 1.890530 -0.037120 -0.009990 
#    y -0.037120 1.823070 0.030630 
#    z -0.009990 0.030630 1.842260 
# 
# From -- ./inp_files/181595.got.cif
#   From: 2010.05.17/outbox.cif.g08.bks.cpg/sg2_91_cif.got.tgz:181595.got - 2010.06.03 11:33:40.
