data_PCOD9088794
_publ_section_title
;
Structure prediction by ZEFSAII (Michael W. Deem and Ramdas Pophale) SiO2 
 PCOD9088794
Probable space group: P -1
;
_chemical_formula_sum "Si O2"
_cell_formula_units_Z 16
_cell_length_a 12.598039
_cell_length_b 8.042554
_cell_length_c 16.830342
_cell_angle_alpha 56.333083
_cell_angle_beta 146.767597
_cell_angle_gamma 103.437578
_cell_volume 670.354817
_symmetry_space_group_name_H-M "P -1"
_symmetry_group_IT_number 2
_symmetry_cell_setting 'triclinic'
loop_
_space_group_symop_operation_xyz
x,y,z
-x,-y,-z
loop_
_atom_site_type_symbol
_atom_site_label
_atom_site_fract_x
_atom_site_fract_y
_atom_site_fract_z
Si Si1 0.388530 0.762577 0.039420
Si Si2 0.648909 0.286273 0.594647
Si Si3 0.805342 0.708672 0.209884
Si Si4 0.600762 0.596381 0.972071
Si Si5 0.731288 0.442369 0.446886
Si Si6 0.142467 0.200333 0.106004
Si Si7 0.202884 0.313804 0.286242
Si Si8 0.632983 0.090116 0.389319
O O1 0.609078 0.717257 0.139167
O O2 0.308691 0.602153 0.987457
O O3 0.491299 0.662510 0.216777
O O4 0.225407 0.035640 0.869722
O O5 0.500000 0.500000 0.500000
O O6 0.754523 0.363196 0.572594
O O7 0.459700 0.243013 0.446624
O O8 0.815521 0.055974 0.806659
O O9 0.055952 0.529257 0.442334
O O10 0.765478 0.649980 0.111241
O O11 0.408068 0.836685 0.748108
O O12 0.500000 0.500000 0.000000
O O13 0.730952 0.241317 0.447653
O O14 0.105947 0.251310 0.164661
O O15 0.377648 0.180999 0.234249
O O16 0.949201 0.409005 0.879953
O O17 0.224991 0.167901 0.417698
#
# Coordination Sequence:
#
# PCOD9088794 Si02
#       8
#     2   2   2   2   2   2   2   2
#     4   9  21  40  64  91 120 164 204 257 314 374
#     4  11  23  38  55  88 131 160 203 263 312 367
#     4  10  21  40  63  90 126 158 207 257 315 377
#     4   9  20  39  62  90 126 160 201 257 310 375
#     4  11  21  37  62  90 121 163 206 251 315 373
#     4  10  20  38  62  85 113 161 210 254 300 367
#     4  10  20  38  63  82 115 159 210 253 301 369
#     4  10  19  37  63  88 120 161 211 254 313 369
#
# _framework density 23.867958999999999
#
# number of rings (size 3 to 8) (size 9 to 14) (size 15 to 20)
#    0.000    2.000    2.500    1.125    0.000    6.500 
#    0.000    3.750    0.000   16.500    0.000    0.000 
#    0.000    0.000    0.000    0.000    0.000    0.000 
#
# Total GULP energy -89368.416746 kJ/mol
# GULP energy per Si atom -5585.526047 kJ/mol
# Density = 2.381363 g / cm^3
# Si number density = 23.867959 Si / 1000 Ang^3
#
#
#
# Elastic Constant Matrix: (Units=GPa)
#
#
# Indices 1 2 3 4 5 6 
#
# 1 66.7620 10.3396 37.9589 0.5035 -22.2480 7.9416
# 2 10.3396 74.6795 21.0511 -7.2448 -13.6527 -10.1856
# 3 37.9589 21.0511 139.2054 -12.6106 -25.1040 2.5048
# 4 0.5035 -7.2448 -12.6106 41.9693 10.4685 -5.7828
# 5 -22.2480 -13.6527 -25.1040 10.4685 38.5553 -7.3101
# 6 7.9416 -10.1856 2.5048 -5.7828 -7.3101 18.3583
#
#
#
# Elastic Compliance Matrix: (Units=1/GPa)
#
#
# Indices 1 2 3 4 5 6 
#
# 1 0.021686 -0.001687 -0.004363 -0.005180 0.009009 -0.007766
# 2 -0.001687 0.017245 -0.000986 0.003045 0.006300 0.013900
# 3 -0.004363 -0.000986 0.009209 0.002192 0.002900 0.001929
# 4 -0.005180 0.003045 0.002192 0.027993 -0.006191 0.009983
# 5 0.009009 0.006300 0.002900 -0.006191 0.039388 0.012936
# 6 -0.007766 0.013900 0.001929 0.009983 0.012936 0.073575
#
#
# Mechanical properties :
#
#
# Convention : Reuss Voigt Hill
#
# Bulk Modulus (GPa) = 29.35340 46.59400 37.97370
# Shear Modulus (GPa) = 23.30730 33.86307 28.58519
#
# Velocity S-wave (km/s) = 3.12831 3.77074 3.46445
# Velocity P-wave (km/s) = 5.03720 6.20660 5.65222
#
# Compressibility (1/GPa) = 0.03406760
#
# Stress axis : x y z
#
# Youngs Moduli (GPa) = 46.11351 57.98790 108.58607
#
# Poissons Ratio (x) = 0.09784 0.47375
# Poissons Ratio (y) = 0.07780 0.10706
# Poissons Ratio (z) = 0.20119 0.05717
#
# Static dielectric constant tensor:
#      x y z
#    x 1.897770 0.016590 -0.019750 
#    y 0.016590 1.941110 0.006230 
#    z -0.019750 0.006230 1.904020 
# 
# From -- ./inp_files/572861.got.cif
#   From: 2010.05.17/outbox.cif.g08.bks.cpg/sg2_287_cif.got.tgz:572861.got - 2010.06.03 11:33:40.
