data_PCOD9088054
_publ_section_title
;
Structure prediction by ZEFSAII (Michael W. Deem and Ramdas Pophale) SiO2 
 PCOD9088054
Probable space group: P -1
;
_chemical_formula_sum "Si O2"
_cell_formula_units_Z 14
_cell_length_a 14.227839
_cell_length_b 8.528280
_cell_length_c 14.429190
_cell_angle_alpha 53.479686
_cell_angle_beta 28.792309
_cell_angle_gamma 70.359473
_cell_volume 594.866625
_symmetry_space_group_name_H-M "P -1"
_symmetry_group_IT_number 2
_symmetry_cell_setting 'triclinic'
loop_
_space_group_symop_operation_xyz
x,y,z
-x,-y,-z
loop_
_atom_site_type_symbol
_atom_site_label
_atom_site_fract_x
_atom_site_fract_y
_atom_site_fract_z
Si Si1 0.332995 0.749146 0.391267
Si Si2 0.835442 0.556451 0.513627
Si Si3 0.983114 0.110640 0.611703
Si Si4 0.068975 0.764477 0.781937
Si Si5 0.378231 0.180920 0.120440
Si Si6 0.569544 0.483106 0.342111
Si Si7 0.187489 0.082325 0.729530
O O1 0.155312 0.613433 0.510457
O O2 0.215137 0.705271 0.607972
O O3 0.502280 0.649268 0.286037
O O4 0.431655 0.009306 0.192419
O O5 0.840663 0.747164 0.374990
O O6 0.009313 0.700865 0.392529
O O7 0.596520 0.401588 0.823303
O O8 0.199194 0.220578 0.319058
O O9 0.763584 0.965960 0.792891
O O10 0.025006 0.938613 0.697582
O O11 0.170625 0.887494 0.747104
O O12 0.827126 0.564298 0.080798
O O13 0.500000 0.500000 0.500000
O O14 0.421690 0.234678 0.521386
O O15 0.000000 0.000000 0.000000
#
# Coordination Sequence:
#
# PCOD9088054 Si02
#       7
#     2   2   2   2   2   2   2
#     4  10  23  39  61  94 123 157 202 254 297 363
#     4  10  20  35  58  86 122 158 199 243 300 356
#     4   9  19  34  61  88 119 165 194 240 301 358
#     4  10  21  41  62  89 127 154 201 253 299 359
#     4  10  19  37  58  88 125 156 201 244 296 359
#     4  11  22  41  66  85 117 165 200 247 314 352
#     4  10  20  39  62  90 117 159 205 250 298 357
#
# _framework density 23.534686000000001
#
# number of rings (size 3 to 8) (size 9 to 14) (size 15 to 20)
#    0.000    2.000    1.429    2.571    0.000    1.143 
#    0.000    9.286    0.000    0.000    0.000    0.000 
#    0.000    0.000    0.000    0.000    0.000    0.000 
#
# Total GULP energy -78264.581973 kJ/mol
# GULP energy per Si atom -5590.327284 kJ/mol
# Density = 2.348112 g / cm^3
# Si number density = 23.534686 Si / 1000 Ang^3
#
#
#
# Elastic Constant Matrix: (Units=GPa)
#
#
# Indices 1 2 3 4 5 6 
#
# 1 88.9676 38.7019 50.6963 -7.3727 2.8278 24.0436
# 2 38.7019 100.7357 50.4290 -1.5804 -4.5846 22.8673
# 3 50.6963 50.4290 172.6366 -0.7003 11.1464 25.5110
# 4 -7.3727 -1.5804 -0.7003 34.7980 5.3096 3.2492
# 5 2.8278 -4.5846 11.1464 5.3096 41.5569 -7.2044
# 6 24.0436 22.8673 25.5110 3.2492 -7.2044 64.4255
#
#
#
# Elastic Compliance Matrix: (Units=1/GPa)
#
#
# Indices 1 2 3 4 5 6 
#
# 1 0.015962 -0.003854 -0.002852 0.003800 -0.001902 -0.003864
# 2 -0.003854 0.013240 -0.002582 -0.000406 0.002124 -0.001981
# 3 -0.002852 -0.002582 0.007737 -0.000076 -0.002390 -0.001346
# 4 0.003800 -0.000406 -0.000076 0.030559 -0.004763 -0.003318
# 5 -0.001902 0.002124 -0.002390 -0.004763 0.026386 0.004093
# 6 -0.003864 -0.001981 -0.001346 -0.003318 0.004093 0.018825
#
#
# Mechanical properties :
#
#
# Convention : Reuss Voigt Hill
#
# Bulk Modulus (GPa) = 54.45973 71.33271 62.89622
# Shear Modulus (GPa) = 36.38839 42.99025 39.68932
#
# Velocity S-wave (km/s) = 3.93639 4.27860 4.11106
# Velocity P-wave (km/s) = 6.62198 7.40162 7.02263
#
# Compressibility (1/GPa) = 0.01836219
#
# Stress axis : x y z
#
# Youngs Moduli (GPa) = 62.65071 75.52780 129.24542
#
# Poissons Ratio (x) = 0.29111 0.36864
# Poissons Ratio (y) = 0.24147 0.33369
# Poissons Ratio (z) = 0.17869 0.19500
#
# Static dielectric constant tensor:
#      x y z
#    x 1.972400 -0.043500 0.016810 
#    y -0.043500 1.917420 -0.009020 
#    z 0.016810 -0.009020 1.851960 
# 
# From -- ./inp_files/327171.got.cif
#   From: 2010.05.17/outbox.cif.g08.bks.cpg/sg2_164_cif.got.tgz:327171.got - 2010.06.03 11:33:40.
