data_PCOD9088174
_publ_section_title
;
Structure prediction by ZEFSAII (Michael W. Deem and Ramdas Pophale) SiO2 
 PCOD9088174
Probable space group: P -1
;
_chemical_formula_sum "Si O2"
_cell_formula_units_Z 14
_cell_length_a 5.496849
_cell_length_b 7.428049
_cell_length_c 19.925335
_cell_angle_alpha 119.898620
_cell_angle_beta 59.372414
_cell_angle_gamma 116.850888
_cell_volume 585.192906
_symmetry_space_group_name_H-M "P -1"
_symmetry_group_IT_number 2
_symmetry_cell_setting 'triclinic'
loop_
_space_group_symop_operation_xyz
x,y,z
-x,-y,-z
loop_
_atom_site_type_symbol
_atom_site_label
_atom_site_fract_x
_atom_site_fract_y
_atom_site_fract_z
Si Si1 0.631769 0.229111 0.487603
Si Si2 0.764788 0.865839 0.603467
Si Si3 0.826832 0.669848 0.792507
Si Si4 0.314308 0.591104 0.095812
Si Si5 0.596164 0.972156 0.215037
Si Si6 0.274350 0.395892 0.790363
Si Si7 0.139312 0.339946 0.645265
O O1 0.489770 0.211276 0.430220
O O2 0.465636 0.382580 0.578242
O O3 0.979937 0.258076 0.448890
O O4 0.500000 0.000000 0.500000
O O5 0.613249 0.890813 0.700380
O O6 0.943874 0.112340 0.603202
O O7 0.752632 0.561891 0.856846
O O8 0.503918 0.629771 0.799632
O O9 0.982376 0.529709 0.696237
O O10 0.068077 0.891503 0.809002
O O11 0.480068 0.833410 0.139929
O O12 0.988875 0.596644 0.121680
O O13 0.500000 0.500000 0.000000
O O14 0.578886 0.784457 0.237575
O O15 0.159435 0.320636 0.719115
#
# Coordination Sequence:
#
# PCOD9088174 Si02
#       7
#     2   2   2   2   2   2   2
#     4  10  21  31  61  92 125 172 229 270 318 375
#     4  11  20  36  59  93 125 176 221 270 324 377
#     4  10  23  38  62  95 123 165 210 257 325 385
#     4  10  23  44  67  90 123 160 205 261 324 397
#     4  11  22  39  63  91 129 161 211 263 322 385
#     4  10  20  40  64  87 124 165 209 256 327 381
#     4  10  19  37  59  89 126 167 218 263 312 379
#
# _framework density 23.923732999999999
#
# number of rings (size 3 to 8) (size 9 to 14) (size 15 to 20)
#    0.000    1.714    4.286    3.429    2.000    5.143 
#    0.000    2.857    0.000    0.000    0.000    0.000 
#    0.000    0.000    0.000    0.000    0.000    0.000 
#
# Total GULP energy -78231.716287 kJ/mol
# GULP energy per Si atom -5587.979735 kJ/mol
# Density = 2.386928 g / cm^3
# Si number density = 23.923733 Si / 1000 Ang^3
#
#
#
# Elastic Constant Matrix: (Units=GPa)
#
#
# Indices 1 2 3 4 5 6 
#
# 1 110.0186 22.5557 50.6234 -2.5098 -24.3129 21.0142
# 2 22.5557 103.6577 25.0645 -3.4563 -3.0342 26.9746
# 3 50.6234 25.0645 165.8641 -2.7238 -37.9221 9.7354
# 4 -2.5098 -3.4563 -2.7238 19.7026 0.6540 0.8222
# 5 -24.3129 -3.0342 -37.9221 0.6540 31.5476 -6.0793
# 6 21.0142 26.9746 9.7354 0.8222 -6.0793 35.9208
#
#
#
# Elastic Compliance Matrix: (Units=1/GPa)
#
#
# Indices 1 2 3 4 5 6 
#
# 1 0.012539 -0.000649 -0.001989 0.001225 0.006165 -0.005294
# 2 -0.000649 0.012627 -0.001909 0.002366 -0.003405 -0.009216
# 3 -0.001989 -0.001909 0.008977 0.000268 0.009406 0.001750
# 4 0.001225 0.002366 0.000268 0.051531 -0.000307 -0.003798
# 5 0.006165 -0.003405 0.009406 -0.000307 0.048318 0.004586
# 6 -0.005294 -0.009216 0.001750 -0.003798 0.004586 0.038246
#
#
# Mechanical properties :
#
#
# Convention : Reuss Voigt Hill
#
# Bulk Modulus (GPa) = 39.91915 64.00307 51.96111
# Shear Modulus (GPa) = 26.36005 36.18732 31.27368
#
# Velocity S-wave (km/s) = 3.32299 3.89345 3.61948
# Velocity P-wave (km/s) = 5.60761 6.85733 6.26372
#
# Compressibility (1/GPa) = 0.02505064
#
# Stress axis : x y z
#
# Youngs Moduli (GPa) = 79.75167 79.19304 111.40020
#
# Poissons Ratio (x) = 0.05137 0.22153
# Poissons Ratio (y) = 0.05173 0.21265
# Poissons Ratio (z) = 0.15859 0.15117
#
# Static dielectric constant tensor:
#      x y z
#    x 2.022320 0.021100 -0.020570 
#    y 0.021100 1.971520 0.009620 
#    z -0.020570 0.009620 1.878090 
# 
# From -- ./inp_files/56044.got.cif
#   From: 2010.05.17/outbox.cif.g08.bks.cpg/sg2_29_cif.got.tgz:56044.got - 2010.06.03 11:33:40.
