data_PCOD9088916
_publ_section_title
;
Structure prediction by ZEFSAII (Michael W. Deem and Ramdas Pophale) SiO2 
 PCOD9088916
Probable space group: P -1
;
_chemical_formula_sum "Si O2"
_cell_formula_units_Z 16
_cell_length_a 12.120052
_cell_length_b 13.912422
_cell_length_c 8.945047
_cell_angle_alpha 44.740316
_cell_angle_beta 131.259285
_cell_angle_gamma 137.830039
_cell_volume 683.924206
_symmetry_space_group_name_H-M "P -1"
_symmetry_group_IT_number 2
_symmetry_cell_setting 'triclinic'
loop_
_space_group_symop_operation_xyz
x,y,z
-x,-y,-z
loop_
_atom_site_type_symbol
_atom_site_label
_atom_site_fract_x
_atom_site_fract_y
_atom_site_fract_z
Si Si1 0.810829 0.942016 0.959096
Si Si2 0.307193 0.822422 0.516498
Si Si3 0.312553 0.934596 0.694897
Si Si4 0.900037 0.517911 0.253937
Si Si5 0.567328 0.294368 0.523929
Si Si6 0.854349 0.364873 0.912299
Si Si7 0.702087 0.689264 0.903949
Si Si8 0.983023 0.007121 0.651872
O O1 0.686953 0.781541 0.933105
O O2 0.775218 0.082675 0.736792
O O3 0.000000 0.000000 0.000000
O O4 0.838027 0.918837 0.182136
O O5 0.408959 0.930097 0.633492
O O6 0.191148 0.661570 0.689279
O O7 0.361725 0.749429 0.511568
O O8 0.129398 0.911366 0.506756
O O9 0.572401 0.883927 0.343901
O O10 0.261905 0.799780 0.921448
O O11 0.000000 0.500000 0.500000
O O12 0.031910 0.640539 0.115591
O O13 0.766460 0.569279 0.126020
O O14 0.716351 0.392521 0.668697
O O15 0.462252 0.372766 0.279944
O O16 0.000000 0.500000 0.000000
O O17 0.858169 0.829878 0.795741
O O18 0.000000 0.000000 0.500000
#
# Coordination Sequence:
#
# PCOD9088916 Si02
#       8
#     2   2   2   2   2   2   2   2
#     4  10  19  37  63  97 134 170 232 285 328 399
#     4  12  22  41  71  99 134 182 230 281 342 407
#     4  11  23  42  69  99 139 176 231 287 346 407
#     4  12  24  43  73  99 138 182 232 279 347 414
#     4  11  25  45  69 101 138 181 233 288 347 413
#     4  12  26  44  69 101 138 186 227 286 353 419
#     4  10  23  42  64  99 137 178 226 290 341 407
#     4  10  20  35  63  98 135 176 227 284 339 401
#
# _framework density 23.394403000000001
#
# number of rings (size 3 to 8) (size 9 to 14) (size 15 to 20)
#    0.000    1.000    6.250    3.000    1.750    0.500 
#    0.000    0.625    0.000    0.000    0.000    0.000 
#    0.000    0.000    0.000    0.000    0.000    0.000 
#
# Total GULP energy -89235.636421 kJ/mol
# GULP energy per Si atom -5577.227276 kJ/mol
# Density = 2.334116 g / cm^3
# Si number density = 23.394403 Si / 1000 Ang^3
#
#
#
# Elastic Constant Matrix: (Units=GPa)
#
#
# Indices 1 2 3 4 5 6 
#
# 1 76.3212 13.6859 59.0867 -2.1911 -5.1161 -10.0712
# 2 13.6859 76.7937 52.8247 17.1455 5.4011 0.5248
# 3 59.0867 52.8247 171.5958 10.3209 19.0763 -12.3505
# 4 -2.1911 17.1455 10.3209 44.2131 -6.6532 6.6295
# 5 -5.1161 5.4011 19.0763 -6.6532 49.7686 1.3117
# 6 -10.0712 0.5248 -12.3505 6.6295 1.3117 27.1233
#
#
#
# Elastic Compliance Matrix: (Units=1/GPa)
#
#
# Indices 1 2 3 4 5 6 
#
# 1 0.019572 0.000643 -0.007461 0.002790 0.005098 0.002929
# 2 0.000643 0.017930 -0.005438 -0.005548 -0.000505 -0.001204
# 3 -0.007461 -0.005438 0.010931 -0.001975 -0.004710 0.003023
# 4 0.002790 -0.005548 -0.001975 0.027189 0.005456 -0.006665
# 5 0.005098 -0.000505 -0.004710 0.005456 0.023278 -0.002701
# 6 0.002929 -0.001204 0.003023 -0.006665 -0.002701 0.041116
#
#
# Mechanical properties :
#
#
# Convention : Reuss Voigt Hill
#
# Bulk Modulus (GPa) = 41.80507 63.98949 52.89728
# Shear Modulus (GPa) = 28.98548 37.49522 33.24035
#
# Velocity S-wave (km/s) = 3.52375 4.00777 3.77353
# Velocity P-wave (km/s) = 5.87063 6.98771 6.45339
#
# Compressibility (1/GPa) = 0.02392055
#
# Stress axis : x y z
#
# Youngs Moduli (GPa) = 51.09436 55.77154 91.48630
#
# Poissons Ratio (x) = -0.03584 0.68256
# Poissons Ratio (y) = -0.03283 0.49748
# Poissons Ratio (z) = 0.38120 0.30327
#
# Static dielectric constant tensor:
#      x y z
#    x 2.009100 0.323450 0.056090 
#    y 0.323450 3.849330 0.547850 
#    z 0.056090 0.547850 2.061410 
# 
# From -- ./inp_files/312458.got.cif
#   From: 2010.05.17/outbox.cif.g08.bks.cpg/sg2_157_cif.got.tgz:312458.got - 2010.06.03 11:33:40.
