data_PCOD9088109
_publ_section_title
;
Structure prediction by ZEFSAII (Michael W. Deem and Ramdas Pophale) SiO2 
 PCOD9088109
Probable space group: P -1
;
_chemical_formula_sum "Si O2"
_cell_formula_units_Z 14
_cell_length_a 12.018099
_cell_length_b 18.179070
_cell_length_c 7.371677
_cell_angle_alpha 30.051918
_cell_angle_beta 126.652044
_cell_angle_gamma 132.796847
_cell_volume 591.637950
_symmetry_space_group_name_H-M "P -1"
_symmetry_group_IT_number 2
_symmetry_cell_setting 'triclinic'
loop_
_space_group_symop_operation_xyz
x,y,z
-x,-y,-z
loop_
_atom_site_type_symbol
_atom_site_label
_atom_site_fract_x
_atom_site_fract_y
_atom_site_fract_z
Si Si1 0.366945 0.268713 0.538207
Si Si2 0.967305 0.956836 0.280303
Si Si3 0.485362 0.322823 0.917683
Si Si4 0.689211 0.441394 0.307534
Si Si5 0.197751 0.287293 0.873868
Si Si6 0.195675 0.660855 0.671872
Si Si7 0.991115 0.696055 0.673071
O O1 0.207158 0.121458 0.660321
O O2 0.410784 0.228547 0.865166
O O3 0.523921 0.322067 0.468936
O O4 0.331776 0.429515 0.129980
O O5 0.016179 0.807403 0.634892
O O6 0.000000 0.000000 0.000000
O O7 0.066938 0.113484 0.155222
O O8 0.500000 0.500000 0.500000
O O9 0.357655 0.270954 0.059185
O O10 0.644026 0.318033 0.129217
O O11 0.779862 0.561758 0.300302
O O12 0.766122 0.335493 0.511280
O O13 0.154010 0.319703 0.558608
O O14 0.128267 0.757611 0.529506
O O15 0.057697 0.484869 0.924427
#
# Coordination Sequence:
#
# PCOD9088109 Si02
#       7
#     2   2   2   2   2   2   2
#     4  11  19  33  58  85 113 137 197 232 273 312
#     4  10  19  37  59  84 108 149 190 232 267 334
#     4  12  16  34  57  85 104 149 197 229 260 329
#     4  11  20  32  54  94 112 141 178 242 281 326
#     4  11  21  33  61  83 114 144 189 226 284 326
#     4  11  21  34  58  83 118 140 188 235 280 321
#     4  10  20  38  55  81 114 151 184 231 273 333
#
# _framework density 23.663122000000001
#
# number of rings (size 3 to 8) (size 9 to 14) (size 15 to 20)
#    0.000    1.143    8.571    0.857    0.000    1.143 
#    0.000    0.714    0.000    3.429    0.000    0.000 
#    0.000    0.000    0.000    0.000    0.000    0.000 
#
# Total GULP energy -77982.318700 kJ/mol
# GULP energy per Si atom -5570.165621 kJ/mol
# Density = 2.360926 g / cm^3
# Si number density = 23.663122 Si / 1000 Ang^3
#
#
#
# Elastic Constant Matrix: (Units=GPa)
#
#
# Indices 1 2 3 4 5 6 
#
# 1 151.2171 68.7896 5.6018 -23.8051 -2.2047 24.2486
# 2 68.7896 152.3981 24.3835 -21.4407 -8.1575 12.1626
# 3 5.6018 24.3835 19.0590 -8.5889 -12.1725 12.5388
# 4 -23.8051 -21.4407 -8.5889 36.7551 12.4155 -12.5026
# 5 -2.2047 -8.1575 -12.1725 12.4155 24.3770 -0.5727
# 6 24.2486 12.1626 12.5388 -12.5026 -0.5727 39.4254
#
#
#
# Elastic Compliance Matrix: (Units=1/GPa)
#
#
# Indices 1 2 3 4 5 6 
#
# 1 0.010398 -0.005600 0.013190 0.002376 0.004254 -0.008047
# 2 -0.005600 0.012432 -0.025016 0.004464 -0.010904 0.008822
# 3 0.013190 -0.025016 0.160731 -0.013716 0.078782 -0.054719
# 4 0.002376 0.004464 -0.013716 0.041878 -0.026130 0.014425
# 5 0.004254 -0.010904 0.078782 -0.026130 0.089671 -0.031292
# 6 -0.008047 0.008822 -0.054719 0.014425 -0.031292 0.049115
#
#
# Mechanical properties :
#
#
# Convention : Reuss Voigt Hill
#
# Bulk Modulus (GPa) = 6.72453 57.80267 32.26360
# Shear Modulus (GPa) = 11.14463 35.03811 23.09137
#
# Velocity S-wave (km/s) = 2.17254 3.85217 3.12723
# Velocity P-wave (km/s) = 3.02344 6.65327 5.16755
#
# Compressibility (1/GPa) = 0.14870928
#
# Stress axis : x y z
#
# Youngs Moduli (GPa) = 96.17004 80.43667 6.22158
#
# Poissons Ratio (x) = 0.45042 -0.08206
# Poissons Ratio (y) = 0.53852 0.15564
# Poissons Ratio (z) = -1.26844 2.01220
#
# Static dielectric constant tensor:
#      x y z
#    x 2.070860 -0.103770 0.014980 
#    y -0.103770 1.972890 -0.001040 
#    z 0.014980 -0.001040 2.060430 
# 
# From -- ./inp_files/238232.got.cif
#   From: 2010.05.17/outbox.cif.g08.bks.cpg/sg2_120_cif.got.tgz:238232.got - 2010.06.03 11:33:40.
