data_PCOD9088036
_publ_section_title
;
Structure prediction by ZEFSAII (Michael W. Deem and Ramdas Pophale) SiO2 
 PCOD9088036
Probable space group: P -1
;
_chemical_formula_sum "Si O2"
_cell_formula_units_Z 16
_cell_length_a 16.830627
_cell_length_b 13.791624
_cell_length_c 8.492103
_cell_angle_alpha 58.081268
_cell_angle_beta 99.484551
_cell_angle_gamma 146.372425
_cell_volume 750.814831
_symmetry_space_group_name_H-M "P -1"
_symmetry_group_IT_number 2
_symmetry_cell_setting 'triclinic'
loop_
_space_group_symop_operation_xyz
x,y,z
-x,-y,-z
loop_
_atom_site_type_symbol
_atom_site_label
_atom_site_fract_x
_atom_site_fract_y
_atom_site_fract_z
Si Si1 0.914609 0.806871 0.013751
Si Si2 0.258519 0.564708 0.468679
Si Si3 0.716965 0.147497 0.694648
Si Si4 0.036363 0.320022 0.310495
Si Si5 0.187956 0.287763 0.263072
Si Si6 0.999753 0.520801 0.223439
Si Si7 0.172417 0.967735 0.783598
Si Si8 0.506956 0.298331 0.792263
O O1 0.800909 0.572133 0.275068
O O2 0.797459 0.713891 0.916346
O O3 0.077097 0.951407 0.853087
O O4 0.000000 0.000000 0.000000
O O5 0.330850 0.781982 0.342757
O O6 0.400240 0.670578 0.327021
O O7 0.083593 0.352039 0.480772
O O8 0.802732 0.252413 0.458697
O O9 0.873229 0.316149 0.723541
O O10 0.572781 0.874861 0.938282
O O11 0.059872 0.486405 0.173928
O O12 0.848742 0.053530 0.395099
O O13 0.168702 0.401160 0.191594
O O14 0.339918 0.435526 0.301971
O O15 0.000000 0.000000 0.500000
O O16 0.042670 0.695319 0.009968
O O17 0.357572 0.175302 0.749893
#
# Coordination Sequence:
#
# PCOD9088036 Si02
#       8
#     2   2   2   2   2   2   2   2
#     4  11  22  40  65  86 111 162 203 239 290 361
#     4  10  19  37  58  86 123 163 195 230 297 352
#     4   9  17  31  56  87 124 156 192 238 293 344
#     4   9  19  33  61  85 116 161 194 229 288 361
#     4  10  22  44  63  84 115 159 199 239 300 360
#     4   9  16  31  56  89 121 156 194 236 290 349
#     4  10  20  37  59  91 120 153 201 243 288 342
#     4  10  21  37  60  89 121 151 195 251 291 342
#
# _framework density 21.310182000000001
#
# number of rings (size 3 to 8) (size 9 to 14) (size 15 to 20)
#    0.000    2.250    1.250    2.250    1.750    1.000 
#    2.250    6.875    0.000    0.000    0.000    0.000 
#    0.000    0.000    0.000    0.000    0.000    0.000 
#
# Total GULP energy -89133.710390 kJ/mol
# GULP energy per Si atom -5570.856899 kJ/mol
# Density = 2.126168 g / cm^3
# Si number density = 21.310182 Si / 1000 Ang^3
#
#
#
# Elastic Constant Matrix: (Units=GPa)
#
#
# Indices 1 2 3 4 5 6 
#
# 1 52.0139 13.1751 1.9544 3.8485 -3.8059 2.9604
# 2 13.1751 88.3743 7.9659 -1.3018 -6.4580 9.1818
# 3 1.9544 7.9659 41.5090 -9.0811 -2.1402 3.2388
# 4 3.8485 -1.3018 -9.0811 27.3399 1.3822 -3.3447
# 5 -3.8059 -6.4580 -2.1402 1.3822 16.6152 -0.6751
# 6 2.9604 9.1818 3.2388 -3.3447 -0.6751 31.8078
#
#
#
# Elastic Compliance Matrix: (Units=1/GPa)
#
#
# Indices 1 2 3 4 5 6 
#
# 1 0.020555 -0.002610 -0.000973 -0.003701 0.003821 -0.001369
# 2 -0.002610 0.012479 -0.001881 -0.000241 0.003904 -0.003110
# 3 -0.000973 -0.001881 0.026565 0.008647 0.001703 -0.001126
# 4 -0.003701 -0.000241 0.008647 0.040569 -0.003051 0.003735
# 5 0.003821 0.003904 0.001703 -0.003051 0.063026 -0.000639
# 6 -0.001369 -0.003110 -0.001126 0.003735 -0.000639 0.032958
#
#
# Mechanical properties :
#
#
# Convention : Reuss Voigt Hill
#
# Bulk Modulus (GPa) = 20.54561 25.34311 22.94436
# Shear Modulus (GPa) = 22.39111 25.73937 24.06524
#
# Velocity S-wave (km/s) = 3.24500 3.47917 3.36413
# Velocity P-wave (km/s) = 4.86849 5.29697 5.08724
#
# Compressibility (1/GPa) = 0.04867219
#
# Stress axis : x y z
#
# Youngs Moduli (GPa) = 48.65093 80.13473 37.64300
#
# Poissons Ratio (x) = 0.20913 0.03662
# Poissons Ratio (y) = 0.12697 0.07079
# Poissons Ratio (z) = 0.04733 0.15071
#
# Static dielectric constant tensor:
#      x y z
#    x 1.797170 0.021990 0.030260 
#    y 0.021990 1.818440 0.004110 
#    z 0.030260 0.004110 1.856820 
# 
# From -- ./inp_files/216806.got.cif
#   From: 2010.05.17/outbox.cif.g08.bks.cpg/sg2_109_cif.got.tgz:216806.got - 2010.06.03 11:33:40.
