data_PCOD9088851
_publ_section_title
;
Structure prediction by ZEFSAII (Michael W. Deem and Ramdas Pophale) SiO2 
 PCOD9088851
Probable space group: P -1
;
_chemical_formula_sum "Si O2"
_cell_formula_units_Z 16
_cell_length_a 26.346576
_cell_length_b 23.094130
_cell_length_c 10.146910
_cell_angle_alpha 152.218388
_cell_angle_beta 142.108542
_cell_angle_gamma 17.084495
_cell_volume 770.047824
_symmetry_space_group_name_H-M "P -1"
_symmetry_group_IT_number 2
_symmetry_cell_setting 'triclinic'
loop_
_space_group_symop_operation_xyz
x,y,z
-x,-y,-z
loop_
_atom_site_type_symbol
_atom_site_label
_atom_site_fract_x
_atom_site_fract_y
_atom_site_fract_z
Si Si1 0.396610 0.830954 0.751980
Si Si2 0.199921 0.707709 0.097447
Si Si3 0.862746 0.619863 0.352335
Si Si4 0.083470 0.404625 0.124086
Si Si5 0.081597 0.104005 0.820069
Si Si6 0.471209 0.583096 0.959975
Si Si7 0.535018 0.808190 0.214989
Si Si8 0.056102 0.153563 0.181465
O O1 0.514922 0.560424 0.387492
O O2 0.243039 0.971169 0.815057
O O3 0.521321 0.750905 0.936581
O O4 0.279999 0.068066 0.882057
O O5 0.361894 0.552929 0.027246
O O6 0.108752 0.935721 0.465250
O O7 0.299211 0.469907 0.915185
O O8 0.036834 0.851746 0.977735
O O9 0.000000 0.500000 0.500000
O O10 0.937418 0.541167 0.201953
O O11 0.659675 0.954871 0.627384
O O12 0.885948 0.441643 0.068649
O O13 0.087403 0.542145 0.458085
O O14 0.000000 0.500000 0.000000
O O15 0.097159 0.084655 0.970382
O O16 0.500000 0.500000 0.000000
O O17 0.256494 0.920051 0.185134
O O18 0.500000 0.000000 0.500000
#
# Coordination Sequence:
#
# PCOD9088851 Si02
#       8
#     2   2   2   2   2   2   2   2
#     4  10  20  38  59  87 123 163 205 255 311 370
#     4  11  25  39  63  99 121 160 214 259 318 376
#     4  11  19  38  62  86 121 166 207 255 314 364
#     4  11  21  36  62  91 122 168 212 251 311 378
#     4  10  19  37  63  91 123 158 207 259 318 372
#     4  11  25  43  63  86 123 171 210 250 311 379
#     4  12  22  37  61  95 127 153 205 266 318 372
#     4  12  22  40  64  89 128 158 202 269 314 366
#
# _framework density 20.777930999999999
#
# number of rings (size 3 to 8) (size 9 to 14) (size 15 to 20)
#    0.000    1.000    3.750    4.875    0.000    3.500 
#    0.000    1.250    0.000    3.750    0.000    0.000 
#    0.000    0.000    0.000    0.000    0.000    0.000 
#
# Total GULP energy -89338.977406 kJ/mol
# GULP energy per Si atom -5583.686088 kJ/mol
# Density = 2.073064 g / cm^3
# Si number density = 20.777931 Si / 1000 Ang^3
#
#
#
# Elastic Constant Matrix: (Units=GPa)
#
#
# Indices 1 2 3 4 5 6 
#
# 1 102.4825 27.9232 25.0807 -20.1279 2.9216 11.4595
# 2 27.9232 53.9567 0.1498 2.7255 -1.2198 -1.5992
# 3 25.0807 0.1498 87.0056 1.6587 19.4894 -6.4725
# 4 -20.1279 2.7255 1.6587 32.7564 1.7597 3.9559
# 5 2.9216 -1.2198 19.4894 1.7597 31.5337 -8.3204
# 6 11.4595 -1.5992 -6.4725 3.9559 -8.3204 23.1150
#
#
#
# Elastic Compliance Matrix: (Units=1/GPa)
#
#
# Indices 1 2 3 4 5 6 
#
# 1 0.019169 -0.011213 -0.006213 0.015120 -0.003390 -0.015827
# 2 -0.011213 0.025284 0.003460 -0.010728 0.003476 0.011364
# 3 -0.006213 0.003460 0.015375 -0.005242 -0.006908 0.006035
# 4 0.015120 -0.010728 -0.005242 0.043647 -0.006126 -0.019381
# 5 -0.003390 0.003476 -0.006908 -0.006126 0.040933 0.015769
# 6 -0.015827 0.011364 0.006035 -0.019381 0.015769 0.062577
#
#
# Mechanical properties :
#
#
# Convention : Reuss Voigt Hill
#
# Bulk Modulus (GPa) = 31.35094 38.86137 35.10616
# Shear Modulus (GPa) = 20.36266 30.16710 25.26488
#
# Velocity S-wave (km/s) = 3.13391 3.81449 3.49083
# Velocity P-wave (km/s) = 5.31193 6.17610 5.76024
#
# Compressibility (1/GPa) = 0.03189697
#
# Stress axis : x y z
#
# Youngs Moduli (GPa) = 52.16688 39.55122 65.04147
#
# Poissons Ratio (x) = 0.44347 0.40409
# Poissons Ratio (y) = 0.58492 -0.22504
# Poissons Ratio (z) = 0.32411 -0.13685
#
# Static dielectric constant tensor:
#      x y z
#    x 1.799570 -0.037410 0.035610 
#    y -0.037410 1.791960 0.008150 
#    z 0.035610 0.008150 1.778450 
# 
# From -- ./inp_files/272107.got.cif
#   From: 2010.05.17/outbox.cif.g08.bks.cpg/sg2_137_cif.got.tgz:272107.got - 2010.06.03 11:33:40.
