data_PCOD9088205
_publ_section_title
;
Structure prediction by ZEFSAII (Michael W. Deem and Ramdas Pophale) SiO2 
 PCOD9088205
Probable space group: P -1
;
_chemical_formula_sum "Si O2"
_cell_formula_units_Z 16
_cell_length_a 14.314453
_cell_length_b 8.011416
_cell_length_c 16.133047
_cell_angle_alpha 72.414204
_cell_angle_beta 25.350437
_cell_angle_gamma 83.413833
_cell_volume 695.973583
_symmetry_space_group_name_H-M "P -1"
_symmetry_group_IT_number 2
_symmetry_cell_setting 'triclinic'
loop_
_space_group_symop_operation_xyz
x,y,z
-x,-y,-z
loop_
_atom_site_type_symbol
_atom_site_label
_atom_site_fract_x
_atom_site_fract_y
_atom_site_fract_z
Si Si1 0.500695 0.328673 0.909848
Si Si2 0.243943 0.271119 0.698946
Si Si3 0.088665 0.322939 0.464144
Si Si4 0.014000 0.288784 0.342649
Si Si5 0.504263 0.103198 0.787583
Si Si6 0.069938 0.127262 0.048234
Si Si7 0.237402 0.723287 0.134206
Si Si8 0.195851 0.611682 0.755736
O O1 0.639959 0.554286 0.748877
O O2 0.574419 0.201060 0.806856
O O3 0.572153 0.296843 0.950356
O O4 0.225794 0.267591 0.127924
O O5 0.191568 0.462929 0.709307
O O6 0.523879 0.314193 0.454968
O O7 0.158413 0.197584 0.872620
O O8 0.080052 0.099060 0.799652
O O9 0.050216 0.234102 0.417676
O O10 0.000000 0.500000 0.500000
O O11 0.931181 0.206526 0.683242
O O12 0.077765 0.515112 0.260548
O O13 0.756960 0.170250 0.532116
O O14 0.317249 0.177740 0.888428
O O15 0.375668 0.879196 0.933925
O O16 0.896400 0.221049 0.210561
O O17 0.000000 0.500000 0.000000
#
# Coordination Sequence:
#
# PCOD9088205 Si02
#       8
#     2   2   2   2   2   2   2   2
#     4  10  19  37  60  79 112 158 206 253 297 347
#     4   9  19  41  68  89 120 158 200 238 294 367
#     4   8  14  33  58  75 103 154 200 245 296 341
#     4  10  20  38  58  79 114 158 201 254 299 347
#     4  12  23  38  53  89 121 155 194 247 308 348
#     4  10  22  38  61  90 128 155 195 251 296 361
#     4  10  19  38  59  79 116 158 204 247 300 354
#     4   9  18  38  68  98 112 157 200 234 298 366
#
# _framework density 22.989377999999999
#
# number of rings (size 3 to 8) (size 9 to 14) (size 15 to 20)
#    0.000    2.500    3.750    2.250    0.000    1.500 
#   11.250    0.000    0.000    0.000    0.000    0.000 
#    0.000    0.000    0.000    0.000    0.000    0.000 
#
# Total GULP energy -89208.309177 kJ/mol
# GULP energy per Si atom -5575.519324 kJ/mol
# Density = 2.293705 g / cm^3
# Si number density = 22.989378 Si / 1000 Ang^3
#
#
#
# Elastic Constant Matrix: (Units=GPa)
#
#
# Indices 1 2 3 4 5 6 
#
# 1 6.4567 8.5326 33.2245 -6.1311 8.3075 -21.2044
# 2 8.5326 73.2387 53.4487 -3.9916 -6.0877 -4.3175
# 3 33.2245 53.4487 177.8648 21.5259 -32.5055 4.5094
# 4 -6.1311 -3.9916 21.5259 36.7571 3.7280 -7.5760
# 5 8.3075 -6.0877 -32.5055 3.7280 11.3554 19.5141
# 6 -21.2044 -4.3175 4.5094 -7.5760 19.5141 -10.7934
#
#
#
# Elastic Compliance Matrix: (Units=1/GPa)
#
#
# Indices 1 2 3 4 5 6 
#
# 1 0.036211 -0.003819 -0.000690 -0.002264 0.021335 -0.029738
# 2 -0.003819 0.017760 -0.004801 0.003552 0.001085 -0.002141
# 3 -0.000690 -0.004801 0.007528 -0.002911 0.001434 0.011057
# 4 -0.002264 0.003552 -0.002911 0.026476 0.003740 -0.010012
# 5 0.021335 0.001085 0.001434 0.003740 0.037052 0.022615
# 6 -0.029738 -0.002141 0.011057 -0.010012 0.022615 0.019163
#
#
# Mechanical properties :
#
#
# Convention : Reuss Voigt Hill
#
# Bulk Modulus (GPa) = 23.32066 49.77463 36.54764
# Shear Modulus (GPa) = 28.23239 18.28745 23.25992
#
# Velocity S-wave (km/s) = 3.50817 2.82347 3.18428
# Velocity P-wave (km/s) = 5.15518 5.68573 5.42694
#
# Compressibility (1/GPa) = 0.04288044
#
# Stress axis : x y z
#
# Youngs Moduli (GPa) = 27.61603 56.30586 132.83849
#
# Poissons Ratio (x) = 0.21500 0.09161
# Poissons Ratio (y) = 0.10545 0.63777
# Poissons Ratio (z) = 0.01905 0.27033
#
# Static dielectric constant tensor:
#      x y z
#    x 1.861790 -0.020100 0.015850 
#    y -0.020100 1.912450 -0.013670 
#    z 0.015850 -0.013670 1.961920 
# 
# From -- ./inp_files/599486.got.cif
#   From: 2010.05.17/outbox.cif.g08.bks.cpg/sg2_300_cif.got.tgz:599486.got - 2010.06.03 11:33:40.
