data_PCOD9088797
_publ_section_title
;
Structure prediction by ZEFSAII (Michael W. Deem and Ramdas Pophale) SiO2 
 PCOD9088797
Probable space group: P -1
;
_chemical_formula_sum "Si O2"
_cell_formula_units_Z 14
_cell_length_a 8.439863
_cell_length_b 8.531642
_cell_length_c 12.171891
_cell_angle_alpha 75.074656
_cell_angle_beta 122.014204
_cell_angle_gamma 123.928582
_cell_volume 615.704623
_symmetry_space_group_name_H-M "P -1"
_symmetry_group_IT_number 2
_symmetry_cell_setting 'triclinic'
loop_
_space_group_symop_operation_xyz
x,y,z
-x,-y,-z
loop_
_atom_site_type_symbol
_atom_site_label
_atom_site_fract_x
_atom_site_fract_y
_atom_site_fract_z
Si Si1 0.164819 0.815137 0.213905
Si Si2 0.875865 0.789362 0.539980
Si Si3 0.819886 0.809424 0.766112
Si Si4 0.702276 0.061169 0.983230
Si Si5 0.312477 0.293152 0.945138
Si Si6 0.961837 0.480283 0.360132
Si Si7 0.604110 0.565376 0.268781
O O1 0.915006 0.731443 0.101405
O O2 0.141630 0.663603 0.324234
O O3 0.217189 0.017052 0.246395
O O4 0.287930 0.826369 0.144286
O O5 0.786606 0.792094 0.625837
O O6 0.702805 0.653928 0.408099
O O7 0.032544 0.704597 0.635361
O O8 0.000000 0.000000 0.500000
O O9 0.641800 0.604147 0.783776
O O10 0.061196 0.854499 0.884663
O O11 0.665116 0.864755 0.957542
O O12 0.500000 0.000000 0.000000
O O13 0.333540 0.267692 0.826176
O O14 0.500000 0.500000 0.000000
O O15 0.737162 0.477147 0.275636
O O16 0.000000 0.500000 0.500000
#
# Coordination Sequence:
#
# PCOD9088797 Si02
#       7
#     2   2   2   2   2   2   2
#     4  10  21  40  62  88 124 166 208 257 316 379
#     4  11  22  40  63  92 128 167 209 260 315 376
#     4  11  22  40  63  90 127 169 212 261 315 374
#     4  11  24  40  61  93 127 165 212 264 318 374
#     4  10  19  37  63  88 122 167 208 253 313 377
#     4   9  20  40  63  91 122 160 209 257 309 374
#     4  10  21  39  63  92 126 170 212 256 311 374
#
# _framework density 22.738175999999999
#
# number of rings (size 3 to 8) (size 9 to 14) (size 15 to 20)
#    0.000    1.714    0.000    7.286    0.000    4.571 
#    0.000   12.857    0.000    0.000    0.000    0.000 
#    0.000    0.000    0.000    0.000    0.000    0.000 
#
# Total GULP energy -78085.659241 kJ/mol
# GULP energy per Si atom -5577.547089 kJ/mol
# Density = 2.268642 g / cm^3
# Si number density = 22.738176 Si / 1000 Ang^3
#
#
#
# Elastic Constant Matrix: (Units=GPa)
#
#
# Indices 1 2 3 4 5 6 
#
# 1 86.6051 45.6316 39.8338 -8.4080 -23.0968 17.5693
# 2 45.6316 112.6371 41.0055 -7.9254 0.0625 13.7857
# 3 39.8338 41.0055 118.3701 -14.1572 -31.9590 11.5658
# 4 -8.4080 -7.9254 -14.1572 52.4131 9.8446 -2.8026
# 5 -23.0968 0.0625 -31.9590 9.8446 35.3487 -10.9601
# 6 17.5693 13.7857 11.5658 -2.8026 -10.9601 38.8605
#
#
#
# Elastic Compliance Matrix: (Units=1/GPa)
#
#
# Indices 1 2 3 4 5 6 
#
# 1 0.019165 -0.007194 -0.000733 -0.000452 0.011135 -0.002787
# 2 -0.007194 0.014020 -0.004766 0.001467 -0.010415 -0.003134
# 3 -0.000733 -0.004766 0.013529 0.000633 0.012030 0.001434
# 4 -0.000452 0.001467 0.000633 0.020419 -0.005602 -0.000612
# 5 0.011135 -0.010415 0.012030 -0.005602 0.050812 0.009007
# 6 -0.002787 -0.003134 0.001434 -0.000612 0.009007 0.030174
#
#
# Mechanical properties :
#
#
# Convention : Reuss Voigt Hill
#
# Bulk Modulus (GPa) = 46.88551 63.39490 55.14020
# Shear Modulus (GPa) = 27.68294 38.06723 32.87509
#
# Velocity S-wave (km/s) = 3.49301 4.09608 3.80651
# Velocity P-wave (km/s) = 6.07722 7.09306 6.60470
#
# Compressibility (1/GPa) = 0.02132855
#
# Stress axis : x y z
#
# Youngs Moduli (GPa) = 52.17757 71.32485 73.91365
#
# Poissons Ratio (x) = 0.51314 0.05416
# Poissons Ratio (y) = 0.37539 0.35228
# Poissons Ratio (z) = 0.03823 0.33994
#
# Static dielectric constant tensor:
#      x y z
#    x 2.328930 -0.193880 0.057870 
#    y -0.193880 1.988080 -0.159500 
#    z 0.057870 -0.159500 2.061330 
# 
# From -- ./inp_files/271794.got.cif
#   From: 2010.05.17/outbox.cif.g08.bks.cpg/sg2_136_cif.got.tgz:271794.got - 2010.06.03 11:33:40.
