data_PCOD9088840
_publ_section_title
;
Structure prediction by ZEFSAII (Michael W. Deem and Ramdas Pophale) SiO2 
 PCOD9088840
Probable space group: P -1
;
_chemical_formula_sum "Si O2"
_cell_formula_units_Z 14
_cell_length_a 11.173150
_cell_length_b 11.410358
_cell_length_c 11.090686
_cell_angle_alpha 132.282460
_cell_angle_beta 37.995393
_cell_angle_gamma 126.880464
_cell_volume 636.330580
_symmetry_space_group_name_H-M "P -1"
_symmetry_group_IT_number 2
_symmetry_cell_setting 'triclinic'
loop_
_space_group_symop_operation_xyz
x,y,z
-x,-y,-z
loop_
_atom_site_type_symbol
_atom_site_label
_atom_site_fract_x
_atom_site_fract_y
_atom_site_fract_z
Si Si1 0.197637 0.040053 0.792245
Si Si2 0.715846 0.072475 0.791514
Si Si3 0.988663 0.939902 0.661741
Si Si4 0.055431 0.615858 0.425247
Si Si5 0.726314 0.469390 0.434816
Si Si6 0.584957 0.264864 0.637452
Si Si7 0.527524 0.260221 0.241987
O O1 0.360676 0.192949 0.797058
O O2 0.120818 0.055904 0.727894
O O3 0.311050 0.885368 0.595612
O O4 0.000000 0.000000 0.000000
O O5 0.882662 0.107455 0.584883
O O6 0.571840 0.914870 0.754086
O O7 0.617835 0.221165 0.014765
O O8 0.813615 0.015187 0.796269
O O9 0.941125 0.768261 0.643626
O O10 0.287376 0.672881 0.302476
O O11 0.000000 0.500000 0.500000
O O12 0.954353 0.524185 0.326190
O O13 0.617165 0.391031 0.588520
O O14 0.681874 0.343740 0.274458
O O15 0.633714 0.624352 0.572500
#
# Coordination Sequence:
#
# PCOD9088840 Si02
#       7
#     2   2   2   2   2   2   2
#     4  10  21  38  64  98 124 163 216 267 321 375
#     4  10  21  38  61  90 123 169 212 262 313 372
#     4  10  20  38  60  86 127 164 211 263 311 378
#     4   9  18  37  61  85 123 173 200 248 324 375
#     4  10  19  37  63  90 135 164 205 267 317 378
#     4   9  20  38  61  92 126 168 204 263 322 377
#     4  10  21  36  61  95 119 166 217 258 318 374
#
# _framework density 22.001144
#
# number of rings (size 3 to 8) (size 9 to 14) (size 15 to 20)
#    0.000    2.286    1.429    0.857    2.000    0.000 
#    5.143    5.000    0.000   15.429    0.000    0.000 
#    0.000    0.000    0.000    0.000    0.000    0.000 
#
# Total GULP energy -78083.373186 kJ/mol
# GULP energy per Si atom -5577.383799 kJ/mol
# Density = 2.195107 g / cm^3
# Si number density = 22.001144 Si / 1000 Ang^3
#
#
#
# Elastic Constant Matrix: (Units=GPa)
#
#
# Indices 1 2 3 4 5 6 
#
# 1 122.2899 51.2922 14.0124 11.6519 18.0016 40.0801
# 2 51.2922 90.9501 28.3896 -2.2060 2.1358 31.0374
# 3 14.0124 28.3896 64.8451 -2.4467 3.1761 10.3990
# 4 11.6519 -2.2060 -2.4467 27.9601 9.7017 2.3169
# 5 18.0016 2.1358 3.1761 9.7017 13.2396 4.7733
# 6 40.0801 31.0374 10.3990 2.3169 4.7733 46.2055
#
#
#
# Elastic Compliance Matrix: (Units=1/GPa)
#
#
# Indices 1 2 3 4 5 6 
#
# 1 0.015960 -0.006280 0.001480 -0.000077 -0.018070 -0.008088
# 2 -0.006280 0.018491 -0.006065 0.001121 0.008550 -0.006548
# 3 0.001480 -0.006065 0.018361 0.003175 -0.007503 -0.000726
# 4 -0.000077 0.001121 0.003175 0.048880 -0.036632 -0.000068
# 5 -0.018070 0.008550 -0.007503 -0.036632 0.127252 0.000311
# 6 -0.008088 -0.006548 -0.000726 -0.000068 0.000311 0.033191
#
#
# Mechanical properties :
#
#
# Convention : Reuss Voigt Hill
#
# Bulk Modulus (GPa) = 32.17365 51.71928 41.94647
# Shear Modulus (GPa) = 16.99382 29.77378 23.38380
#
# Velocity S-wave (km/s) = 2.78224 3.68269 3.26367
# Velocity P-wave (km/s) = 4.99765 6.45302 5.77140
#
# Compressibility (1/GPa) = 0.03108133
#
# Stress axis : x y z
#
# Youngs Moduli (GPa) = 62.65695 54.08133 54.46469
#
# Poissons Ratio (x) = 0.33963 -0.08060
# Poissons Ratio (y) = 0.39349 0.33031
# Poissons Ratio (z) = -0.09273 0.32799
#
# Static dielectric constant tensor:
#      x y z
#    x 1.852260 0.017210 0.018960 
#    y 0.017210 1.893100 0.025780 
#    z 0.018960 0.025780 1.806810 
# 
# From -- ./inp_files/426789.got.cif
#   From: 2010.05.17/outbox.cif.g08.bks.cpg/sg2_214_cif.got.tgz:426789.got - 2010.06.03 11:33:40.
