data_PCOD9088558
_publ_section_title
;
Structure prediction by ZEFSAII (Michael W. Deem and Ramdas Pophale) SiO2 
 PCOD9088558
Probable space group: P -1
;
_chemical_formula_sum "Si O2"
_cell_formula_units_Z 16
_cell_length_a 13.267325
_cell_length_b 8.923503
_cell_length_c 9.040296
_cell_angle_alpha 112.027919
_cell_angle_beta 51.435522
_cell_angle_gamma 87.583977
_cell_volume 717.350053
_symmetry_space_group_name_H-M "P -1"
_symmetry_group_IT_number 2
_symmetry_cell_setting 'triclinic'
loop_
_space_group_symop_operation_xyz
x,y,z
-x,-y,-z
loop_
_atom_site_type_symbol
_atom_site_label
_atom_site_fract_x
_atom_site_fract_y
_atom_site_fract_z
Si Si1 0.849066 0.604969 0.602624
Si Si2 0.325223 0.464225 0.518610
Si Si3 0.131667 0.487883 0.970922
Si Si4 0.688262 0.797537 0.088807
Si Si5 0.519660 0.343682 0.709695
Si Si6 0.427914 0.902987 0.918696
Si Si7 0.020842 0.799768 0.415984
Si Si8 0.687886 0.293022 0.831994
O O1 0.794506 0.522228 0.487953
O O2 0.000000 0.500000 0.500000
O O3 0.882374 0.770207 0.575120
O O4 0.728429 0.673942 0.859769
O O5 0.257186 0.478480 0.745459
O O6 0.391250 0.607864 0.477592
O O7 0.446959 0.275144 0.311899
O O8 0.182910 0.313165 0.962752
O O9 0.080796 0.669251 0.174655
O O10 0.000000 0.500000 0.000000
O O11 0.555727 0.789671 0.293692
O O12 0.646456 0.983763 0.115688
O O13 0.611777 0.278825 0.747501
O O14 0.398691 0.525499 0.939645
O O15 0.322002 0.847747 0.094090
O O16 0.500000 0.000000 0.000000
O O17 0.158777 0.723897 0.363415
O O18 0.000000 0.000000 0.500000
#
# Coordination Sequence:
#
# PCOD9088558 Si02
#       8
#     2   2   2   2   2   2   2   2
#     4  12  20  39  69  99 129 187 238 273 330 414
#     4  11  24  40  68  97 143 183 224 278 359 399
#     4  12  26  48  68  98 144 186 228 280 345 421
#     4  12  22  40  71 102 135 179 240 274 343 416
#     4  10  19  37  66  99 134 174 221 284 337 407
#     4  11  21  38  68 103 138 176 225 294 340 406
#     4  12  25  40  70 100 130 178 233 284 335 400
#     4  10  19  37  62 102 136 162 230 287 334 390
#
# _framework density 22.304311999999999
#
# number of rings (size 3 to 8) (size 9 to 14) (size 15 to 20)
#    0.000    0.750    6.250    3.000    0.000    1.000 
#    0.000    0.000    2.750    6.000    0.000    0.000 
#    0.000    0.000    0.000    0.000    0.000    0.000 
#
# Total GULP energy -89310.382254 kJ/mol
# GULP energy per Si atom -5581.898891 kJ/mol
# Density = 2.225355 g / cm^3
# Si number density = 22.304312 Si / 1000 Ang^3
#
#
#
# Elastic Constant Matrix: (Units=GPa)
#
#
# Indices 1 2 3 4 5 6 
#
# 1 87.0609 33.3905 14.5800 -2.1609 -1.4308 -10.2935
# 2 33.3905 142.8308 46.9807 -19.2371 0.1762 -11.8361
# 3 14.5800 46.9807 88.4969 -18.1034 -8.7659 -3.1532
# 4 -2.1609 -19.2371 -18.1034 41.9452 5.1621 -5.9491
# 5 -1.4308 0.1762 -8.7659 5.1621 25.9242 -10.5813
# 6 -10.2935 -11.8361 -3.1532 -5.9491 -10.5813 39.1545
#
#
#
# Elastic Compliance Matrix: (Units=1/GPa)
#
#
# Indices 1 2 3 4 5 6 
#
# 1 0.012977 -0.002695 -0.000540 -0.000611 0.001886 0.002970
# 2 -0.002695 0.009528 -0.004090 0.002908 -0.001397 0.001907
# 3 -0.000540 -0.004090 0.014976 0.004206 0.004962 0.001808
# 4 -0.000611 0.002908 0.004206 0.027902 -0.002277 0.004681
# 5 0.001886 -0.001397 0.004962 -0.002277 0.045938 0.012542
# 6 0.002970 0.001907 0.001808 0.004681 0.012542 0.031143
#
#
# Mechanical properties :
#
#
# Convention : Reuss Voigt Hill
#
# Bulk Modulus (GPa) = 43.79651 56.47677 50.13664
# Shear Modulus (GPa) = 30.35378 36.30063 33.32720
#
# Velocity S-wave (km/s) = 3.69303 4.03863 3.86969
# Velocity P-wave (km/s) = 6.15330 6.86464 6.51868
#
# Compressibility (1/GPa) = 0.02283287
#
# Stress axis : x y z
#
# Youngs Moduli (GPa) = 77.05863 104.95538 66.77251
#
# Poissons Ratio (x) = 0.28282 0.03605
# Poissons Ratio (y) = 0.20765 0.27308
# Poissons Ratio (z) = 0.04160 0.42923
#
# Static dielectric constant tensor:
#      x y z
#    x 1.910820 -0.084460 -0.037960 
#    y -0.084460 2.096140 -0.017010 
#    z -0.037960 -0.017010 1.800820 
# 
# From -- ./inp_files/298708.got.cif
#   From: 2010.05.17/outbox.cif.g08.bks.cpg/sg2_150_cif.got.tgz:298708.got - 2010.06.03 11:33:40.
