data_PCOD9088027
_publ_section_title
;
Structure prediction by ZEFSAII (Michael W. Deem and Ramdas Pophale) SiO2 
 PCOD9088027
Probable space group: P -1
;
_chemical_formula_sum "Si O2"
_cell_formula_units_Z 16
_cell_length_a 26.836067
_cell_length_b 29.500039
_cell_length_c 16.155315
_cell_angle_alpha 22.194994
_cell_angle_beta 21.672220
_cell_angle_gamma 8.763237
_cell_volume 713.260307
_symmetry_space_group_name_H-M "P -1"
_symmetry_group_IT_number 2
_symmetry_cell_setting 'triclinic'
loop_
_space_group_symop_operation_xyz
x,y,z
-x,-y,-z
loop_
_atom_site_type_symbol
_atom_site_label
_atom_site_fract_x
_atom_site_fract_y
_atom_site_fract_z
Si Si1 0.856702 0.016959 0.882307
Si Si2 0.185426 0.675241 0.791536
Si Si3 0.193015 0.675678 0.587197
Si Si4 0.803693 0.646799 0.469105
Si Si5 0.557585 0.930783 0.818834
Si Si6 0.697519 0.632987 0.428770
Si Si7 0.383167 0.970475 0.189732
Si Si8 0.952380 0.775607 0.290417
O O1 0.916715 0.910004 0.881020
O O2 0.456056 0.354851 0.943851
O O3 0.972188 0.060590 0.624485
O O4 0.022226 0.811831 0.048519
O O5 0.120799 0.706858 0.741636
O O6 0.412107 0.615093 0.541304
O O7 0.015606 0.725335 0.718371
O O8 0.000000 0.500000 0.500000
O O9 0.017634 0.379661 0.535938
O O10 0.713230 0.837142 0.230311
O O11 0.428874 0.899211 0.638352
O O12 0.930214 0.613916 0.742957
O O13 0.520592 0.092284 0.647392
O O14 0.506805 0.878699 0.059470
O O15 0.780685 0.449600 0.666055
O O16 0.538269 0.747799 0.390050
O O17 0.500000 0.000000 0.000000
#
# Coordination Sequence:
#
# PCOD9088027 Si02
#       8
#     2   2   2   2   2   2   2   2
#     4  10  19  37  58  86 111 150 191 228 285 341
#     4   9  20  38  57  82 121 143 185 235 287 328
#     4   9  21  37  59  85 118 146 186 240 285 333
#     4  10  20  35  52  83 115 144 186 236 278 334
#     4   9  19  35  53  76 110 145 184 220 279 332
#     4   9  19  37  52  76 109 144 180 231 269 326
#     4  10  20  39  59  86 111 152 192 236 285 340
#     4  10  20  34  58  74 112 152 182 230 282 335
#
# _framework density 22.432203999999999
#
# number of rings (size 3 to 8) (size 9 to 14) (size 15 to 20)
#    0.750    1.750    0.000    1.875    0.000    2.000 
#    9.000    3.125    0.000    0.750    0.000    0.000 
#    0.000    0.000    0.000    0.000    0.000    0.000 
#
# Total GULP energy -89189.911763 kJ/mol
# GULP energy per Si atom -5574.369485 kJ/mol
# Density = 2.238115 g / cm^3
# Si number density = 22.432204 Si / 1000 Ang^3
#
#
#
# Elastic Constant Matrix: (Units=GPa)
#
#
# Indices 1 2 3 4 5 6 
#
# 1 78.9197 32.5148 33.8732 -9.5882 23.0327 -23.1494
# 2 32.5148 58.7161 9.6496 -8.8245 -2.7097 -0.3028
# 3 33.8732 9.6496 73.9802 -25.0019 36.2789 -15.1862
# 4 -9.5882 -8.8245 -25.0019 27.1535 -14.6618 12.4098
# 5 23.0327 -2.7097 36.2789 -14.6618 44.3281 -7.4773
# 6 -23.1494 -0.3028 -15.1862 12.4098 -7.4773 51.4233
#
#
#
# Elastic Compliance Matrix: (Units=1/GPa)
#
#
# Indices 1 2 3 4 5 6 
#
# 1 0.028276 -0.017255 -0.006681 -0.014369 -0.012967 0.012236
# 2 -0.017255 0.029436 0.000731 0.015822 0.013851 -0.009183
# 3 -0.006681 0.000731 0.029587 0.017255 -0.015097 -0.000625
# 4 -0.014369 0.015822 0.017255 0.067434 0.013998 -0.015518
# 5 -0.012967 0.013851 -0.015097 0.013998 0.045964 -0.006909
# 6 0.012236 -0.009183 -0.000625 -0.015518 -0.006909 0.027457
#
#
# Mechanical properties :
#
#
# Convention : Reuss Voigt Hill
#
# Bulk Modulus (GPa) = 24.45694 40.41011 32.43353
# Shear Modulus (GPa) = 17.34947 33.61953 25.48450
#
# Velocity S-wave (km/s) = 2.78406 3.87553 3.37422
# Velocity P-wave (km/s) = 4.61095 6.17088 5.44705
#
# Compressibility (1/GPa) = 0.04088818
#
# Stress axis : x y z
#
# Youngs Moduli (GPa) = 35.36591 33.97213 33.79822
#
# Poissons Ratio (x) = 0.58619 0.22581
# Poissons Ratio (y) = 0.61024 -0.02470
# Poissons Ratio (z) = 0.23629 -0.02482
#
# Static dielectric constant tensor:
#      x y z
#    x 1.827530 -0.039220 0.005680 
#    y -0.039220 1.846310 -0.011450 
#    z 0.005680 -0.011450 1.907150 
# 
# From -- ./inp_files/543439.got.cif
#   From: 2010.05.17/outbox.cif.g08.bks.cpg/sg2_272_cif.got.tgz:543439.got - 2010.06.03 11:33:40.
