data_PCOD9088900
_publ_section_title
;
Structure prediction by ZEFSAII (Michael W. Deem and Ramdas Pophale) SiO2 
 PCOD9088900
Probable space group: P -1
;
_chemical_formula_sum "Si O2"
_cell_formula_units_Z 14
_cell_length_a 9.995820
_cell_length_b 13.335616
_cell_length_c 12.614229
_cell_angle_alpha 35.767844
_cell_angle_beta 113.957561
_cell_angle_gamma 138.649793
_cell_volume 552.315007
_symmetry_space_group_name_H-M "P -1"
_symmetry_group_IT_number 2
_symmetry_cell_setting 'triclinic'
loop_
_space_group_symop_operation_xyz
x,y,z
-x,-y,-z
loop_
_atom_site_type_symbol
_atom_site_label
_atom_site_fract_x
_atom_site_fract_y
_atom_site_fract_z
Si Si1 0.038982 0.283204 0.366104
Si Si2 0.855675 0.769095 0.246002
Si Si3 0.215360 0.288687 0.196329
Si Si4 0.966272 0.338718 0.930208
Si Si5 0.647805 0.902292 0.848612
Si Si6 0.791474 0.380907 0.457125
Si Si7 0.547644 0.795769 0.160717
O O1 0.138949 0.288125 0.287990
O O2 0.975780 0.423127 0.204713
O O3 0.266056 0.510075 0.323951
O O4 0.837129 0.961755 0.610797
O O5 0.700346 0.470706 0.404031
O O6 0.689077 0.749591 0.265415
O O7 0.082164 0.895764 0.266241
O O8 0.000000 0.000000 0.000000
O O9 0.485422 0.602245 0.008650
O O10 0.064085 0.266184 0.086813
O O11 0.089707 0.457895 0.752948
O O12 0.684123 0.054774 0.058617
O O13 0.607616 0.056791 0.660172
O O14 0.604130 0.880320 0.980753
O O15 0.000000 0.500000 0.500000
#
# Coordination Sequence:
#
# PCOD9088900 Si02
#       7
#     2   2   2   2   2   2   2
#     4  10  24  47  64  89 131 175 213 265 320 370
#     4   9  16  35  62  93 123 162 206 259 316 378
#     4  10  24  45  64  91 131 174 216 255 323 388
#     4  12  22  40  66 100 127 162 220 267 312 386
#     4   9  19  40  63  92 127 169 203 260 325 377
#     4  10  19  37  63  95 129 162 204 265 329 368
#     4  10  20  40  67  93 125 165 217 263 316 375
#
# _framework density 25.347856
#
# number of rings (size 3 to 8) (size 9 to 14) (size 15 to 20)
#    0.000    2.000    4.286    0.857    0.000    3.429 
#   15.429    2.857    0.000    0.000    0.000    0.000 
#    0.000    0.000    0.000    0.000    0.000    0.000 
#
# Total GULP energy -78298.131180 kJ/mol
# GULP energy per Si atom -5592.723656 kJ/mol
# Density = 2.529016 g / cm^3
# Si number density = 25.347856 Si / 1000 Ang^3
#
#
#
# Elastic Constant Matrix: (Units=GPa)
#
#
# Indices 1 2 3 4 5 6 
#
# 1 40.9187 -9.0214 21.7153 -14.1864 9.8065 -4.6451
# 2 -9.0214 60.4284 33.3116 -18.7832 -3.6199 -0.9625
# 3 21.7153 33.3116 155.7038 -34.4682 16.6137 -2.6479
# 4 -14.1864 -18.7832 -34.4682 25.8565 -5.7860 3.3722
# 5 9.8065 -3.6199 16.6137 -5.7860 49.4506 -7.0775
# 6 -4.6451 -0.9625 -2.6479 3.3722 -7.0775 35.2129
#
#
#
# Elastic Compliance Matrix: (Units=1/GPa)
#
#
# Indices 1 2 3 4 5 6 
#
# 1 0.040790 0.016796 -0.002169 0.030903 -0.002189 0.002277
# 2 0.016796 0.029318 -0.002903 0.027229 0.003093 0.000813
# 3 -0.002169 -0.002903 0.009569 0.009116 -0.002064 -0.000934
# 4 0.030903 0.027229 0.009116 0.088506 0.002814 -0.002404
# 5 -0.002189 0.003093 -0.002064 0.002814 0.022462 0.003886
# 6 0.002277 0.000813 -0.000934 -0.002404 0.003886 0.029662
#
#
# Mechanical properties :
#
#
# Convention : Reuss Voigt Hill
#
# Bulk Modulus (GPa) = 9.69708 38.78465 24.24087
# Shear Modulus (GPa) = 21.62314 36.17369 28.89841
#
# Velocity S-wave (km/s) = 2.92388 3.78178 3.38016
# Velocity P-wave (km/s) = 3.90291 5.86544 4.98177
#
# Compressibility (1/GPa) = 0.10312380
#
# Stress axis : x y z
#
# Youngs Moduli (GPa) = 24.51600 34.10827 104.50957
#
# Poissons Ratio (x) = -0.57288 0.22666
# Poissons Ratio (y) = -0.41177 0.30343
# Poissons Ratio (z) = 0.05317 0.09903
#
# Static dielectric constant tensor:
#      x y z
#    x 2.021520 -0.015250 0.028030 
#    y -0.015250 2.063930 -0.011560 
#    z 0.028030 -0.011560 2.058800 
# 
# From -- ./inp_files/522164.got.cif
#   From: 2010.05.17/outbox.cif.g08.bks.cpg/sg2_262_cif.got.tgz:522164.got - 2010.06.03 11:33:40.
