data_PCOD9088827
_publ_section_title
;
Structure prediction by ZEFSAII (Michael W. Deem and Ramdas Pophale) SiO2 
 PCOD9088827
Probable space group: P -1
;
_chemical_formula_sum "Si O2"
_cell_formula_units_Z 16
_cell_length_a 10.120210
_cell_length_b 16.887078
_cell_length_c 22.366023
_cell_angle_alpha 21.436113
_cell_angle_beta 135.052325
_cell_angle_gamma 143.875124
_cell_volume 806.118743
_symmetry_space_group_name_H-M "P -1"
_symmetry_group_IT_number 2
_symmetry_cell_setting 'triclinic'
loop_
_space_group_symop_operation_xyz
x,y,z
-x,-y,-z
loop_
_atom_site_type_symbol
_atom_site_label
_atom_site_fract_x
_atom_site_fract_y
_atom_site_fract_z
Si Si1 0.782967 0.072485 0.208393
Si Si2 0.372541 0.244732 0.095191
Si Si3 0.489821 0.161859 0.829220
Si Si4 0.724496 0.263395 0.522038
Si Si5 0.726283 0.501100 0.930311
Si Si6 0.690438 0.774041 0.616099
Si Si7 0.902576 0.768859 0.309088
Si Si8 0.184637 0.274204 0.444021
O O1 0.601688 0.987069 0.158043
O O2 0.735180 0.838195 0.400069
O O3 0.045871 0.234137 0.155097
O O4 0.777630 0.281216 0.100866
O O5 0.408435 0.014642 0.287523
O O6 0.500000 0.500000 0.000000
O O7 0.492584 0.374095 0.980225
O O8 0.095777 0.059611 0.139075
O O9 0.307345 0.232402 0.734460
O O10 0.735421 0.438260 0.711971
O O11 0.500000 0.000000 0.000000
O O12 0.539032 0.243621 0.433362
O O13 0.816303 0.527982 0.404370
O O14 0.947160 0.274095 0.565396
O O15 0.705531 0.581264 0.800776
O O16 0.707078 0.712007 0.595796
O O17 0.914651 0.065673 0.495859
#
# Coordination Sequence:
#
# PCOD9088827 Si02
#       8
#     2   2   2   2   2   2   2   2
#     4  10  22  37  59  92 124 167 202 256 310 374
#     4  10  20  37  63  87 119 163 205 257 308 370
#     4  12  23  38  64  92 130 156 209 266 306 362
#     4   9  19  38  64  84 119 167 203 248 306 382
#     4  10  21  37  61  94 123 156 213 253 311 367
#     4  10  19  37  63  90 120 158 208 255 304 364
#     4   9  21  38  62  90 119 168 206 240 318 375
#     4  10  21  36  60  88 123 165 203 249 312 370
#
# _framework density 19.848192999999998
#
# number of rings (size 3 to 8) (size 9 to 14) (size 15 to 20)
#    0.750    1.250    1.250    2.625    0.000    4.000 
#    0.000    1.250    5.500    0.000    0.000    0.000 
#    0.000    0.000    0.000    0.000    0.000    0.000 
#
# Total GULP energy -89070.356368 kJ/mol
# GULP energy per Si atom -5566.897273 kJ/mol
# Density = 1.980302 g / cm^3
# Si number density = 19.848193 Si / 1000 Ang^3
#
#
#
# Elastic Constant Matrix: (Units=GPa)
#
#
# Indices 1 2 3 4 5 6 
#
# 1 28.2756 -3.5425 -3.8878 -10.1609 -0.1206 7.3401
# 2 -3.5425 87.3503 29.8226 -5.0374 -6.3110 -2.1764
# 3 -3.8878 29.8226 97.2933 -17.3598 -11.1168 -11.0245
# 4 -10.1609 -5.0374 -17.3598 39.7138 6.1784 4.7723
# 5 -0.1206 -6.3110 -11.1168 6.1784 24.0625 7.2397
# 6 7.3401 -2.1764 -11.0245 4.7723 7.2397 27.2114
#
#
#
# Elastic Compliance Matrix: (Units=1/GPa)
#
#
# Indices 1 2 3 4 5 6 
#
# 1 0.044578 0.001593 0.002480 0.013999 0.002401 -0.013986
# 2 0.001593 0.012932 -0.003794 0.000255 0.002039 -0.001520
# 3 0.002480 -0.003794 0.013088 0.005096 0.002958 0.002649
# 4 0.013999 0.000255 0.005096 0.032392 -0.003922 -0.006329
# 5 0.002401 0.002039 0.002958 -0.003922 0.047891 -0.011340
# 6 -0.013986 -0.001520 0.002649 -0.006329 -0.011340 0.045601
#
#
# Mechanical properties :
#
#
# Convention : Reuss Voigt Hill
#
# Bulk Modulus (GPa) = 14.05334 28.63375 21.34354
# Shear Modulus (GPa) = 22.76430 30.89933 26.83182
#
# Velocity S-wave (km/s) = 3.39030 3.94989 3.68074
# Velocity P-wave (km/s) = 4.73511 5.93800 5.37034
#
# Compressibility (1/GPa) = 0.07115748
#
# Stress axis : x y z
#
# Youngs Moduli (GPa) = 22.43234 77.32583 76.40752
#
# Poissons Ratio (x) = -0.12321 -0.18951
# Poissons Ratio (y) = -0.03574 0.28990
# Poissons Ratio (z) = -0.05564 0.29339
#
# Static dielectric constant tensor:
#      x y z
#    x 1.744490 0.007570 0.005820 
#    y 0.007570 1.743860 -0.027680 
#    z 0.005820 -0.027680 1.684660 
# 
# From -- ./inp_files/610680.got.cif
#   From: 2010.05.17/outbox.cif.g08.bks.cpg/sg2_306_cif.got.tgz:610680.got - 2010.06.03 11:33:40.
