data_PCOD9088237
_publ_section_title
;
Structure prediction by ZEFSAII (Michael W. Deem and Ramdas Pophale) SiO2 
 PCOD9088237
Probable space group: P -1
;
_chemical_formula_sum "Si O2"
_cell_formula_units_Z 14
_cell_length_a 14.278415
_cell_length_b 7.431424
_cell_length_c 7.784994
_cell_angle_alpha 87.863726
_cell_angle_beta 115.615609
_cell_angle_gamma 50.785170
_cell_volume 516.934998
_symmetry_space_group_name_H-M "P -1"
_symmetry_group_IT_number 2
_symmetry_cell_setting 'triclinic'
loop_
_space_group_symop_operation_xyz
x,y,z
-x,-y,-z
loop_
_atom_site_type_symbol
_atom_site_label
_atom_site_fract_x
_atom_site_fract_y
_atom_site_fract_z
Si Si1 0.075127 0.747491 0.926093
Si Si2 0.194065 0.482939 0.397975
Si Si3 0.635440 0.410227 0.281210
Si Si4 0.917118 0.957102 0.318269
Si Si5 0.451759 0.835805 0.814996
Si Si6 0.704781 0.794478 0.023799
Si Si7 0.162267 0.199168 0.182896
O O1 0.105318 0.908854 0.881721
O O2 0.156306 0.514905 0.863961
O O3 0.900949 0.907104 0.788672
O O4 0.151594 0.617052 0.172801
O O5 0.295350 0.511074 0.560516
O O6 0.244331 0.219687 0.390240
O O7 0.039360 0.655976 0.378135
O O8 0.761333 0.140423 0.283772
O O9 0.560552 0.326531 0.310233
O O10 0.534779 0.639102 0.054022
O O11 0.000000 0.000000 0.500000
O O12 0.325529 0.105524 0.810864
O O13 0.566085 0.848123 0.843456
O O14 0.744816 0.902053 0.915677
O O15 0.000000 0.500000 0.000000
#
# Coordination Sequence:
#
# PCOD9088237 Si02
#       7
#     2   2   2   2   2   2   2
#     4  10  19  37  60  84 115 148 187 232 291 336
#     4   9  19  36  56  84 115 146 184 241 277 338
#     4  10  21  35  53  84 117 151 194 227 277 335
#     4  10  20  35  57  85 116 142 187 236 286 335
#     4  10  20  35  59  77 119 156 192 228 278 327
#     4   9  18  36  57  84 103 157 192 231 273 338
#     4   8  18  34  58  79 112 142 191 225 288 334
#
# _framework density 27.082705000000001
#
# number of rings (size 3 to 8) (size 9 to 14) (size 15 to 20)
#    0.000    2.857    1.429    0.429    6.000    0.000 
#    0.000   14.286    0.000    0.000    0.000    0.000 
#    0.000    0.000    0.000    0.000    0.000    0.000 
#
# Total GULP energy -78164.486195 kJ/mol
# GULP energy per Si atom -5583.177585 kJ/mol
# Density = 2.702106 g / cm^3
# Si number density = 27.082705 Si / 1000 Ang^3
#
#
#
# Elastic Constant Matrix: (Units=GPa)
#
#
# Indices 1 2 3 4 5 6 
#
# 1 110.5879 24.2425 12.4934 22.1259 23.8580 5.2264
# 2 24.2425 64.9573 15.8375 11.4734 3.2562 7.7826
# 3 12.4934 15.8375 84.4669 33.6503 21.0003 0.8780
# 4 22.1259 11.4734 33.6503 33.1679 12.3628 2.4790
# 5 23.8580 3.2562 21.0003 12.3628 41.3079 15.5885
# 6 5.2264 7.7826 0.8780 2.4790 15.5885 42.3978
#
#
#
# Elastic Compliance Matrix: (Units=1/GPa)
#
#
# Indices 1 2 3 4 5 6 
#
# 1 0.012707 -0.004134 0.004181 -0.008698 -0.007419 0.002342
# 2 -0.004134 0.018335 -0.003300 -0.001696 0.004810 -0.004457
# 3 0.004181 -0.003300 0.022568 -0.021605 -0.008704 0.004086
# 4 -0.008698 -0.001696 -0.021605 0.058934 -0.001031 -0.001236
# 5 -0.007419 0.004810 -0.008704 -0.001031 0.038021 -0.013707
# 6 0.002342 -0.004457 0.004086 -0.001236 -0.013707 0.029143
#
#
# Mechanical properties :
#
#
# Convention : Reuss Voigt Hill
#
# Bulk Modulus (GPa) = 21.22994 40.57321 30.90158
# Shear Modulus (GPa) = 24.76303 37.20395 30.98349
#
# Velocity S-wave (km/s) = 3.02710 3.71039 3.38602
# Velocity P-wave (km/s) = 4.48037 5.77665 5.16931
#
# Compressibility (1/GPa) = 0.04710328
#
# Stress axis : x y z
#
# Youngs Moduli (GPa) = 78.69888 54.54158 44.31087
#
# Poissons Ratio (x) = 0.22548 -0.18527
# Poissons Ratio (y) = 0.32534 0.14623
# Poissons Ratio (z) = -0.32905 0.17999
#
# Static dielectric constant tensor:
#      x y z
#    x 2.312320 0.055080 -0.015560 
#    y 0.055080 2.236620 -0.060490 
#    z -0.015560 -0.060490 2.231030 
# 
# From -- ./inp_files/292805.got.cif
#   From: 2010.05.17/outbox.cif.g08.bks.cpg/sg2_147_cif.got.tgz:292805.got - 2010.06.03 11:33:40.
