data_PCOD9088633
_publ_section_title
;
Structure prediction by ZEFSAII (Michael W. Deem and Ramdas Pophale) SiO2 
 PCOD9088633
Probable space group: P -1
;
_chemical_formula_sum "Si O2"
_cell_formula_units_Z 16
_cell_length_a 22.152517
_cell_length_b 9.451728
_cell_length_c 8.339668
_cell_angle_alpha 92.290048
_cell_angle_beta 120.851668
_cell_angle_gamma 136.999810
_cell_volume 721.173526
_symmetry_space_group_name_H-M "P -1"
_symmetry_group_IT_number 2
_symmetry_cell_setting 'triclinic'
loop_
_space_group_symop_operation_xyz
x,y,z
-x,-y,-z
loop_
_atom_site_type_symbol
_atom_site_label
_atom_site_fract_x
_atom_site_fract_y
_atom_site_fract_z
Si Si1 0.324640 0.278587 0.928992
Si Si2 0.989039 0.312971 0.990571
Si Si3 0.707910 0.226571 0.406637
Si Si4 0.420341 0.794156 0.536042
Si Si5 0.196521 0.192267 0.059303
Si Si6 0.038605 0.839520 0.412019
Si Si7 0.509094 0.701886 0.898615
Si Si8 0.116522 0.295868 0.551123
O O1 0.380670 0.446331 0.843401
O O2 0.155155 0.934991 0.647213
O O3 0.303744 0.329147 0.068861
O O4 0.437542 0.349559 0.111809
O O5 0.987275 0.239068 0.810057
O O6 0.847487 0.007249 0.881802
O O7 0.000000 0.500000 0.000000
O O8 0.138092 0.534578 0.292516
O O9 0.599802 0.102500 0.379645
O O10 0.742449 0.413578 0.339999
O O11 0.641320 0.981491 0.207325
O O12 0.268837 0.454869 0.254566
O O13 0.483501 0.779143 0.734866
O O14 0.500000 0.000000 0.500000
O O15 0.036768 0.949646 0.761614
O O16 0.893965 0.616000 0.307945
O O17 0.116961 0.129357 0.563929
#
# Coordination Sequence:
#
# PCOD9088633 Si02
#       8
#     2   2   2   2   2   2   2   2
#     4  10  22  41  64  87 122 169 208 249 304 369
#     4  11  23  38  63  94 127 163 199 254 315 372
#     4  11  23  39  58  88 124 157 204 252 304 365
#     4  12  26  41  64  92 123 165 210 260 307 358
#     4  10  22  41  61  91 124 157 208 256 311 366
#     4  10  19  37  62  89 118 154 203 248 304 366
#     4  11  24  41  61  87 123 168 211 252 302 364
#     4   9  20  36  62  88 115 156 196 255 311 359
#
# _framework density 22.186060000000001
#
# number of rings (size 3 to 8) (size 9 to 14) (size 15 to 20)
#    0.000    1.500    0.000    4.875    0.000    9.500 
#    0.000    3.750    0.000    0.000    0.000    0.000 
#    0.000    0.000    0.000    0.000    0.000    0.000 
#
# Total GULP energy -89220.993464 kJ/mol
# GULP energy per Si atom -5576.312092 kJ/mol
# Density = 2.213556 g / cm^3
# Si number density = 22.186060 Si / 1000 Ang^3
#
#
#
# Elastic Constant Matrix: (Units=GPa)
#
#
# Indices 1 2 3 4 5 6 
#
# 1 75.7175 7.9688 17.6735 -19.6787 3.2055 5.5153
# 2 7.9688 91.6467 5.6331 -12.9198 3.2140 4.8658
# 3 17.6735 5.6331 57.4635 -5.6768 -14.9201 4.9117
# 4 -19.6787 -12.9198 -5.6768 22.0933 -2.2493 -2.1599
# 5 3.2055 3.2140 -14.9201 -2.2493 32.0489 -4.2727
# 6 5.5153 4.8658 4.9117 -2.1599 -4.2727 32.6247
#
#
#
# Elastic Compliance Matrix: (Units=1/GPa)
#
#
# Indices 1 2 3 4 5 6 
#
# 1 0.018537 0.001083 -0.005034 0.015301 -0.003497 -0.001982
# 2 0.001083 0.012065 -0.001033 0.007454 -0.001479 -0.001527
# 3 -0.005034 -0.001033 0.022113 0.001628 0.010911 -0.000787
# 4 0.015301 0.007454 0.001628 0.064049 0.003068 0.000699
# 5 -0.003497 -0.001479 0.010911 0.003068 0.037567 0.004292
# 6 -0.001982 -0.001527 -0.000787 0.000699 0.004292 0.031941
#
#
# Mechanical properties :
#
#
# Convention : Reuss Voigt Hill
#
# Bulk Modulus (GPa) = 23.39422 31.93095 27.66259
# Shear Modulus (GPa) = 23.75399 30.25687 27.00543
#
# Velocity S-wave (km/s) = 3.27566 3.69694 3.49266
# Velocity P-wave (km/s) = 4.98739 5.71374 5.36287
#
# Compressibility (1/GPa) = 0.04274560
#
# Stress axis : x y z
#
# Youngs Moduli (GPa) = 53.94543 82.88693 45.22224
#
# Poissons Ratio (x) = -0.08973 0.22766
# Poissons Ratio (y) = -0.05840 0.04671
# Poissons Ratio (z) = 0.27158 0.08561
#
# Static dielectric constant tensor:
#      x y z
#    x 1.815070 0.043820 0.006620 
#    y 0.043820 2.001560 -0.107970 
#    z 0.006620 -0.107970 1.863640 
# 
# From -- ./inp_files/343676.got.cif
#   From: 2010.05.17/outbox.cif.g08.bks.cpg/sg2_172_cif.got.tgz:343676.got - 2010.06.03 11:33:40.
