data_PCOD9088271
_publ_section_title
;
Structure prediction by ZEFSAII (Michael W. Deem and Ramdas Pophale) SiO2 
 PCOD9088271
Probable space group: P -1
;
_chemical_formula_sum "Si O2"
_cell_formula_units_Z 15
_cell_length_a 13.917016
_cell_length_b 9.111133
_cell_length_c 9.324269
_cell_angle_alpha 33.098413
_cell_angle_beta 95.895010
_cell_angle_gamma 105.470259
_cell_volume 605.646342
_symmetry_space_group_name_H-M "P -1"
_symmetry_group_IT_number 2
_symmetry_cell_setting 'triclinic'
loop_
_space_group_symop_operation_xyz
x,y,z
-x,-y,-z
loop_
_atom_site_type_symbol
_atom_site_label
_atom_site_fract_x
_atom_site_fract_y
_atom_site_fract_z
Si Si1 0.864238 0.339106 0.307555
Si Si2 0.597802 0.342892 0.616641
Si Si3 0.587046 0.147439 0.098396
Si Si4 0.686897 0.542875 0.012308
Si Si5 0.000000 0.500000 0.000000
Si Si6 0.151166 0.198176 0.414647
Si Si7 0.233865 0.933119 0.212087
Si Si8 0.747693 0.912005 0.211265
O O1 0.755021 0.367138 0.234052
O O2 0.897172 0.148570 0.342015
O O3 0.853514 0.211392 0.566833
O O4 0.953839 0.618353 0.045294
O O5 0.641500 0.679214 0.330244
O O6 0.503101 0.153676 0.663954
O O7 0.693667 0.249249 0.663126
O O8 0.574595 0.283085 0.831866
O O9 0.589100 0.332020 0.089375
O O10 0.700115 0.116651 0.125417
O O11 0.752734 0.722644 0.742862
O O12 0.691472 0.776344 0.940876
O O13 0.915142 0.609193 0.795448
O O14 0.192231 0.221515 0.561811
O O15 0.192228 0.979623 0.013251
#
# Coordination Sequence:
#
# PCOD9088271 Si02
#       8
#     2   2   2   2   1   2   2   2
#     4  10  20  40  60  88 119 153 198 247 297 364
#     4  10  21  37  55  90 126 162 204 253 289 346
#     4  10  20  35  61  87 120 162 217 247 284 342
#     4  10  19  37  60  86 115 165 205 247 292 351
#     4  10  22  36  66  96 114 146 202 250 296 364
#     4  10  20  36  64  88 118 151 203 244 298 363
#     4  10  23  36  58  86 126 162 197 243 311 346
#     4  11  20  38  60  88 120 168 197 247 301 354
#
# _framework density 24.766931
#
# number of rings (size 3 to 8) (size 9 to 14) (size 15 to 20)
#    0.000    1.867    2.667    1.600    0.000    0.533 
#    0.000    3.333    0.000   12.000    0.000    0.000 
#    0.000    0.000    0.000    0.000    0.000    0.000 
#
# Total GULP energy -83592.068726 kJ/mol
# GULP energy per Si atom -5572.804582 kJ/mol
# Density = 2.471056 g / cm^3
# Si number density = 24.766931 Si / 1000 Ang^3
#
#
#
# Elastic Constant Matrix: (Units=GPa)
#
#
# Indices 1 2 3 4 5 6 
#
# 1 53.6006 24.7408 30.0891 11.3789 11.5302 2.1333
# 2 24.7408 97.6736 29.3502 12.1923 4.3359 -12.9462
# 3 30.0891 29.3502 107.2953 39.1609 1.6114 -4.3461
# 4 11.3789 12.1923 39.1609 47.6407 -2.8034 -3.9101
# 5 11.5302 4.3359 1.6114 -2.8034 33.1401 -0.9108
# 6 2.1333 -12.9462 -4.3461 -3.9101 -0.9108 23.5108
#
#
#
# Elastic Compliance Matrix: (Units=1/GPa)
#
#
# Indices 1 2 3 4 5 6 
#
# 1 0.026797 -0.005461 -0.005648 -0.001448 -0.008651 -0.007059
# 2 -0.005461 0.013112 -0.001780 0.000048 0.000479 0.007413
# 3 -0.005648 -0.001780 0.015312 -0.010699 0.000565 0.000606
# 4 -0.001448 0.000048 -0.010699 0.030617 0.003702 0.003416
# 5 -0.008651 0.000479 0.000565 0.003702 0.033492 0.003066
# 6 -0.007059 0.007413 0.000606 0.003416 0.003066 0.048055
#
#
# Mechanical properties :
#
#
# Convention : Reuss Voigt Hill
#
# Bulk Modulus (GPa) = 33.96500 47.43663 40.70081
# Shear Modulus (GPa) = 24.63336 32.48428 28.55882
#
# Velocity S-wave (km/s) = 3.15716 3.62553 3.39942
# Velocity P-wave (km/s) = 5.19941 6.05976 5.64600
#
# Compressibility (1/GPa) = 0.02944207
#
# Stress axis : x y z
#
# Youngs Moduli (GPa) = 37.31721 76.26857 65.30898
#
# Poissons Ratio (x) = 0.41652 0.36889
# Poissons Ratio (y) = 0.20380 0.11623
# Poissons Ratio (z) = 0.21078 0.13573
#
# Static dielectric constant tensor:
#      x y z
#    x 2.001200 0.051870 -0.145400 
#    y 0.051870 2.056670 -0.205690 
#    z -0.145400 -0.205690 2.313170 
# 
# From -- ./inp_files/34362.got.cif
#   From: 2010.05.17/outbox.cif.g08.bks.cpg/sg2_18_cif.got.tgz:34362.got - 2010.06.03 11:33:40.
