data_PCOD9088465
_publ_section_title
;
Structure prediction by ZEFSAII (Michael W. Deem and Ramdas Pophale) SiO2 
 PCOD9088465
Probable space group: P -1
;
_chemical_formula_sum "Si O2"
_cell_formula_units_Z 12
_cell_length_a 15.542502
_cell_length_b 7.374602
_cell_length_c 5.861495
_cell_angle_alpha 116.780093
_cell_angle_beta 110.228844
_cell_angle_gamma 46.842218
_cell_volume 436.796329
_symmetry_space_group_name_H-M "P -1"
_symmetry_group_IT_number 2
_symmetry_cell_setting 'triclinic'
loop_
_space_group_symop_operation_xyz
x,y,z
-x,-y,-z
loop_
_atom_site_type_symbol
_atom_site_label
_atom_site_fract_x
_atom_site_fract_y
_atom_site_fract_z
Si Si1 0.352514 0.314029 0.281885
Si Si2 0.403154 0.925067 0.411289
Si Si3 0.392173 0.535051 0.049133
Si Si4 0.179492 0.241704 0.597876
Si Si5 0.181426 0.834204 0.670750
Si Si6 0.021171 0.286655 0.072944
O O1 0.360378 0.063370 0.200795
O O2 0.228137 0.591075 0.402276
O O3 0.459664 0.230830 0.504928
O O4 0.600462 0.673451 0.908852
O O5 0.305687 0.163259 0.616235
O O6 0.373776 0.734717 0.334461
O O7 0.500000 0.500000 0.000000
O O8 0.281650 0.686807 0.870402
O O9 0.120688 0.228721 0.308098
O O10 0.097659 0.537525 0.786428
O O11 0.184731 0.044854 0.662607
O O12 0.059804 0.033514 0.820338
O O13 0.000000 0.500000 0.000000
#
# Coordination Sequence:
#
# PCOD9088465 Si02
#       6
#     2   2   2   2   2   2
#     4  11  24  39  57  92 127 153 199 248 289 358
#     4  11  22  40  59  88 126 159 192 249 299 345
#     4  12  22  38  62  87 118 165 200 238 300 354
#     4  10  19  37  61  88 122 154 199 250 293 349
#     4  11  19  37  61  87 119 158 199 243 295 352
#     4   9  19  33  62  93 112 155 206 244 294 354
#
# _framework density 27.472760999999998
#
# number of rings (size 3 to 8) (size 9 to 14) (size 15 to 20)
#    0.000    1.333    5.000    1.500    0.000    0.667 
#    3.000    0.833    0.000   14.000    0.000    0.000 
#    0.000    0.000    0.000    0.000    0.000    0.000 
#
# Total GULP energy -66986.867242 kJ/mol
# GULP energy per Si atom -5582.238937 kJ/mol
# Density = 2.741023 g / cm^3
# Si number density = 27.472761 Si / 1000 Ang^3
#
#
#
# Elastic Constant Matrix: (Units=GPa)
#
#
# Indices 1 2 3 4 5 6 
#
# 1 53.5762 41.2699 27.3133 17.4075 -20.4560 -1.9079
# 2 41.2699 160.8001 44.1494 -2.6192 -18.2879 8.8077
# 3 27.3133 44.1494 82.8462 11.0311 -19.7173 -3.7952
# 4 17.4075 -2.6192 11.0311 66.0093 -9.2499 -27.6274
# 5 -20.4560 -18.2879 -19.7173 -9.2499 44.3266 14.8687
# 6 -1.9079 8.8077 -3.7952 -27.6274 14.8687 56.5457
#
#
#
# Elastic Compliance Matrix: (Units=1/GPa)
#
#
# Indices 1 2 3 4 5 6 
#
# 1 0.031734 -0.005701 -0.004020 -0.008675 0.010474 -0.005304
# 2 -0.005701 0.008602 -0.002940 0.002038 0.000309 -0.000815
# 3 -0.004020 -0.002940 0.016049 -0.001302 0.003886 -0.000259
# 4 -0.008675 0.002038 -0.001302 0.021823 -0.002775 0.010695
# 5 0.010474 0.000309 0.003886 -0.002775 0.031734 -0.009134
# 6 -0.005304 -0.000815 -0.000259 0.010695 -0.009134 0.025243
#
#
# Mechanical properties :
#
#
# Convention : Reuss Voigt Hill
#
# Bulk Modulus (GPa) = 32.19047 58.07639 45.13343
# Shear Modulus (GPa) = 29.26371 45.67566 37.46969
#
# Velocity S-wave (km/s) = 3.26727 4.08190 3.69709
# Velocity P-wave (km/s) = 5.09667 6.58797 5.88971
#
# Compressibility (1/GPa) = 0.03106510
#
# Stress axis : x y z
#
# Youngs Moduli (GPa) = 31.51166 116.24947 62.30989
#
# Poissons Ratio (x) = 0.66271 0.25046
# Poissons Ratio (y) = 0.17964 0.18318
# Poissons Ratio (z) = 0.12666 0.34175
#
# Static dielectric constant tensor:
#      x y z
#    x 2.122230 -0.053280 -0.069770 
#    y -0.053280 2.223530 0.222490 
#    z -0.069770 0.222490 2.410000 
# 
# From -- ./inp_files/29136.got.cif
#   From: 2010.05.17/outbox.cif.g08.bks.cpg/sg2_15_cif.got.tgz:29136.got - 2010.06.03 11:33:40.
