data_PCOD9088025
_publ_section_title
;
Structure prediction by ZEFSAII (Michael W. Deem and Ramdas Pophale) SiO2 
 PCOD9088025
Probable space group: P -1
;
_chemical_formula_sum "Si O2"
_cell_formula_units_Z 16
_cell_length_a 6.529691
_cell_length_b 13.288502
_cell_length_c 11.046575
_cell_angle_alpha 111.562494
_cell_angle_beta 121.941023
_cell_angle_gamma 84.988231
_cell_volume 749.467186
_symmetry_space_group_name_H-M "P -1"
_symmetry_group_IT_number 2
_symmetry_cell_setting 'triclinic'
loop_
_space_group_symop_operation_xyz
x,y,z
-x,-y,-z
loop_
_atom_site_type_symbol
_atom_site_label
_atom_site_fract_x
_atom_site_fract_y
_atom_site_fract_z
Si Si1 0.711769 0.877479 0.274012
Si Si2 0.985324 0.715576 0.154593
Si Si3 0.297481 0.606737 0.374650
Si Si4 0.830736 0.610307 0.605073
Si Si5 0.102294 0.073978 0.386094
Si Si6 0.793349 0.086605 0.833950
Si Si7 0.776741 0.263585 0.358549
Si Si8 0.227963 0.232781 0.125710
O O1 0.801400 0.764691 0.211176
O O2 0.728486 0.895937 0.431587
O O3 0.441904 0.893410 0.155735
O O4 0.901920 0.972679 0.317432
O O5 0.130627 0.625822 0.217392
O O6 0.180760 0.819315 0.221053
O O7 0.840001 0.690930 0.973217
O O8 0.586769 0.607997 0.445848
O O9 0.206261 0.497036 0.371227
O O10 0.263903 0.704587 0.501082
O O11 0.827115 0.709486 0.742306
O O12 0.080384 0.631449 0.618659
O O13 0.231256 0.030135 0.290323
O O14 0.955248 0.173864 0.362814
O O15 0.047372 0.120648 0.998603
O O16 0.511719 0.223870 0.204856
#
# Coordination Sequence:
#
# PCOD9088025 Si02
#       8
#     2   2   2   2   2   2   2   2
#     4  10  19  37  58  85 119 147 194 242 277 328
#     4   9  20  37  61  83 115 147 192 238 280 335
#     4  10  21  41  61  90 108 147 200 242 280 342
#     4  10  23  39  62  83 120 149 188 240 291 342
#     4  10  21  34  58  89 112 152 193 240 277 337
#     4   9  21  36  57  84 118 151 189 229 285 337
#     4  11  22  39  60  84 119 153 191 231 298 332
#     4   9  23  39  55  88 119 153 189 236 276 357
#
# _framework density 21.348500000000001
#
# number of rings (size 3 to 8) (size 9 to 14) (size 15 to 20)
#    0.750    1.500    1.250    0.750    3.500    3.000 
#    0.000    1.875    0.000    0.000    0.000    0.000 
#    0.000    0.000    0.000    0.000    0.000    0.000 
#
# Total GULP energy -89262.587657 kJ/mol
# GULP energy per Si atom -5578.911729 kJ/mol
# Density = 2.129991 g / cm^3
# Si number density = 21.348500 Si / 1000 Ang^3
#
#
#
# Elastic Constant Matrix: (Units=GPa)
#
#
# Indices 1 2 3 4 5 6 
#
# 1 64.7783 -9.4468 14.4917 4.0503 20.2179 -2.6454
# 2 -9.4468 48.8993 1.5568 -9.8680 4.7281 -7.3364
# 3 14.4917 1.5568 51.4112 -8.2398 10.9708 6.4180
# 4 4.0503 -9.8680 -8.2398 18.7149 -3.8541 -2.4067
# 5 20.2179 4.7281 10.9708 -3.8541 28.8136 4.0455
# 6 -2.6454 -7.3364 6.4180 -2.4067 4.0455 12.4904
#
#
#
# Elastic Compliance Matrix: (Units=1/GPa)
#
#
# Indices 1 2 3 4 5 6 
#
# 1 0.025775 0.009059 -0.006467 -0.005352 -0.020597 0.019743
# 2 0.009059 0.030500 -0.001963 0.014221 -0.012595 0.027662
# 3 -0.006467 -0.001963 0.024762 0.009289 -0.001505 -0.012969
# 4 -0.005352 0.014221 0.009289 0.069050 0.005144 0.014085
# 5 -0.020597 -0.012595 -0.001505 0.005144 0.056457 -0.028282
# 6 0.019743 0.027662 -0.012969 0.014085 -0.028282 0.119028
#
#
# Mechanical properties :
#
#
# Convention : Reuss Voigt Hill
#
# Bulk Modulus (GPa) = 12.15143 19.81025 15.98084
# Shear Modulus (GPa) = 14.21477 22.56960 18.39219
#
# Velocity S-wave (km/s) = 2.58319 3.25499 2.93835
# Velocity P-wave (km/s) = 3.82119 4.84006 4.36049
#
# Compressibility (1/GPa) = 0.08229487
#
# Stress axis : x y z
#
# Youngs Moduli (GPa) = 38.79801 32.78636 40.38410
#
# Poissons Ratio (x) = -0.29700 0.26115
# Poissons Ratio (y) = -0.35146 0.07929
# Poissons Ratio (z) = 0.25089 0.06437
#
# Static dielectric constant tensor:
#      x y z
#    x 1.769140 0.011970 -0.013420 
#    y 0.011970 1.803930 0.000170 
#    z -0.013420 0.000170 1.771880 
# 
# From -- ./inp_files/367878.got.cif
#   From: 2010.05.17/outbox.cif.g08.bks.cpg/sg2_184_cif.got.tgz:367878.got - 2010.06.03 11:33:40.
