data_PCOD9088961
_publ_section_title
;
Structure prediction by ZEFSAII (Michael W. Deem and Ramdas Pophale) SiO2 
 PCOD9088961
Probable space group: P -1
;
_chemical_formula_sum "Si O2"
_cell_formula_units_Z 14
_cell_length_a 12.197318
_cell_length_b 9.186536
_cell_length_c 11.448547
_cell_angle_alpha 120.315853
_cell_angle_beta 68.077770
_cell_angle_gamma 142.721776
_cell_volume 669.756116
_symmetry_space_group_name_H-M "P -1"
_symmetry_group_IT_number 2
_symmetry_cell_setting 'triclinic'
loop_
_space_group_symop_operation_xyz
x,y,z
-x,-y,-z
loop_
_atom_site_type_symbol
_atom_site_label
_atom_site_fract_x
_atom_site_fract_y
_atom_site_fract_z
Si Si1 0.188064 0.638978 0.744394
Si Si2 0.403413 0.054010 0.617163
Si Si3 0.563499 0.580751 0.140356
Si Si4 0.005033 0.087412 0.192953
Si Si5 0.975307 0.704876 0.966145
Si Si6 0.620832 0.291800 0.095695
Si Si7 0.047044 0.728830 0.511395
O O1 0.310308 0.646801 0.774270
O O2 0.099175 0.677899 0.883403
O O3 0.033584 0.373706 0.626273
O O4 0.300553 0.867734 0.696773
O O5 0.513249 0.334401 0.733127
O O6 0.500000 0.000000 0.500000
O O7 0.261727 0.969901 0.542895
O O8 0.525837 0.365299 0.133287
O O9 0.500000 0.500000 0.000000
O O10 0.784300 0.841247 0.163250
O O11 0.073446 0.276403 0.135777
O O12 0.036874 0.212305 0.353590
O O13 0.068537 0.964831 0.099510
O O14 0.795784 0.470576 0.014249
O O15 0.500000 0.000000 0.000000
O O16 0.000000 0.500000 0.500000
#
# Coordination Sequence:
#
# PCOD9088961 Si02
#       7
#     2   2   2   2   2   2   2
#     4  11  21  40  59  91 126 157 206 252 309 372
#     4  10  21  39  63  92 120 162 211 252 304 359
#     4  10  20  40  63  88 123 158 207 259 303 367
#     4   9  18  35  62  95 111 152 214 256 292 359
#     4  10  19  37  64  87 122 155 205 252 302 362
#     4  11  25  39  59  95 129 162 200 258 322 366
#     4   9  17  35  58  85 123 151 198 249 295 366
#
# _framework density 20.903130999999998
#
# number of rings (size 3 to 8) (size 9 to 14) (size 15 to 20)
#    0.000    2.000    4.286    1.286    0.000    3.429 
#    2.571    7.143    0.000    1.714    0.000    0.000 
#    0.000    0.000    0.000    0.000    0.000    0.000 
#
# Total GULP energy -78173.291959 kJ/mol
# GULP energy per Si atom -5583.806569 kJ/mol
# Density = 2.085555 g / cm^3
# Si number density = 20.903131 Si / 1000 Ang^3
#
#
#
# Elastic Constant Matrix: (Units=GPa)
#
#
# Indices 1 2 3 4 5 6 
#
# 1 104.6841 20.0722 79.4584 14.7202 1.1329 -19.0003
# 2 20.0722 58.8672 10.2908 2.5251 -1.2078 -20.1132
# 3 79.4584 10.2908 153.9253 29.7458 -20.5062 -11.9794
# 4 14.7202 2.5251 29.7458 25.7419 4.7827 -7.5571
# 5 1.1329 -1.2078 -20.5062 4.7827 46.1918 -0.1027
# 6 -19.0003 -20.1132 -11.9794 -7.5571 -0.1027 21.9640
#
#
#
# Elastic Compliance Matrix: (Units=1/GPa)
#
#
# Indices 1 2 3 4 5 6 
#
# 1 0.019569 -0.000970 -0.011162 0.006508 -0.006107 0.012163
# 2 -0.000970 0.025390 -0.000409 0.005623 -0.000022 0.024123
# 3 -0.011162 -0.000409 0.015993 -0.015680 0.008971 -0.006660
# 4 0.006508 0.005623 -0.015680 0.062078 -0.013349 0.023524
# 5 -0.006107 -0.000022 0.008971 -0.013349 0.027152 -0.004876
# 6 0.012163 0.024123 -0.006660 0.023524 -0.004876 0.082580
#
#
# Mechanical properties :
#
#
# Convention : Reuss Voigt Hill
#
# Bulk Modulus (GPa) = 27.87785 59.67994 43.77890
# Shear Modulus (GPa) = 18.53223 32.62323 25.57773
#
# Velocity S-wave (km/s) = 2.98077 3.95484 3.50184
# Velocity P-wave (km/s) = 5.02119 7.03328 6.11062
#
# Compressibility (1/GPa) = 0.03587077
#
# Stress axis : x y z
#
# Youngs Moduli (GPa) = 51.10062 39.38554 62.52853
#
# Poissons Ratio (x) = 0.03820 0.69793
# Poissons Ratio (y) = 0.04957 0.02557
# Poissons Ratio (z) = 0.57037 0.01610
#
# Static dielectric constant tensor:
#      x y z
#    x 1.863150 0.115120 0.013590 
#    y 0.115120 1.865580 0.069410 
#    z 0.013590 0.069410 1.787660 
# 
# From -- ./inp_files/376209.got.cif
#   From: 2010.05.17/outbox.cif.g08.bks.cpg/sg2_189_cif.got.tgz:376209.got - 2010.06.03 11:33:40.
