data_PCOD9088525
_publ_section_title
;
Structure prediction by ZEFSAII (Michael W. Deem and Ramdas Pophale) SiO2 
 PCOD9088525
Probable space group: P -1
;
_chemical_formula_sum "Si O2"
_cell_formula_units_Z 16
_cell_length_a 14.400846
_cell_length_b 9.379209
_cell_length_c 8.680597
_cell_angle_alpha 45.503973
_cell_angle_beta 129.777785
_cell_angle_gamma 125.005552
_cell_volume 625.745111
_symmetry_space_group_name_H-M "P -1"
_symmetry_group_IT_number 2
_symmetry_cell_setting 'triclinic'
loop_
_space_group_symop_operation_xyz
x,y,z
-x,-y,-z
loop_
_atom_site_type_symbol
_atom_site_label
_atom_site_fract_x
_atom_site_fract_y
_atom_site_fract_z
Si Si1 0.277811 0.235145 0.677035
Si Si2 0.031490 0.228756 0.286195
Si Si3 0.770778 0.229871 0.618388
Si Si4 0.580557 0.859843 0.605517
Si Si5 0.038381 0.232331 0.925446
Si Si6 0.511837 0.227562 0.772497
Si Si7 0.230062 0.757757 0.020483
Si Si8 0.290753 0.406512 0.889951
O O1 0.167038 0.327884 0.421471
O O2 0.413093 0.326579 0.681792
O O3 0.271736 0.257715 0.835033
O O4 0.252334 0.991946 0.803661
O O5 0.043090 0.212482 0.128812
O O6 0.000000 0.000000 0.500000
O O7 0.913253 0.328844 0.112932
O O8 0.752651 0.222777 0.789925
O O9 0.696627 0.373565 0.341327
O O10 0.917649 0.317113 0.687906
O O11 0.719046 0.006683 0.657164
O O12 0.532335 0.812249 0.419455
O O13 0.500000 0.000000 0.500000
O O14 0.594687 0.649058 0.858177
O O15 0.166552 0.357974 0.897040
O O16 0.000000 0.000000 0.000000
O O17 0.657995 0.332141 0.858913
O O18 0.500000 0.000000 0.000000
#
# Coordination Sequence:
#
# PCOD9088525 Si02
#       8
#     2   2   2   2   2   2   2   2
#     4  10  19  37  61  92 126 176 211 266 329 385
#     4   9  18  32  62  94 124 163 217 258 329 386
#     4  11  23  40  66  99 128 168 220 271 331 381
#     4  12  22  42  70  93 127 174 222 269 325 388
#     4  11  20  39  67  94 129 171 215 270 324 392
#     4  10  20  37  67  91 125 170 218 265 327 390
#     4   9  17  38  58  88 126 164 215 270 311 391
#     4  12  24  41  66  96 137 168 215 273 321 393
#
# _framework density 25.569514999999999
#
# number of rings (size 3 to 8) (size 9 to 14) (size 15 to 20)
#    0.000    1.500    3.750    3.375    0.000    0.500 
#    2.250    3.125   11.000    0.000    0.000    0.000 
#    0.000    0.000    0.000    0.000    0.000    0.000 
#
# Total GULP energy -89587.593171 kJ/mol
# GULP energy per Si atom -5599.224573 kJ/mol
# Density = 2.551132 g / cm^3
# Si number density = 25.569515 Si / 1000 Ang^3
#
#
#
# Elastic Constant Matrix: (Units=GPa)
#
#
# Indices 1 2 3 4 5 6 
#
# 1 169.5421 30.1370 61.8201 27.1912 17.6306 41.3680
# 2 30.1370 76.8396 31.0355 7.6853 6.5139 16.3124
# 3 61.8201 31.0355 200.5439 19.0184 22.0581 8.1238
# 4 27.1912 7.6853 19.0184 46.2525 -0.4615 7.8210
# 5 17.6306 6.5139 22.0581 -0.4615 33.0621 8.9354
# 6 41.3680 16.3124 8.1238 7.8210 8.9354 35.2996
#
#
#
# Elastic Compliance Matrix: (Units=1/GPa)
#
#
# Indices 1 2 3 4 5 6 
#
# 1 0.009753 -0.000495 -0.002116 -0.003146 -0.001104 -0.009737
# 2 -0.000495 0.015296 -0.001948 -0.000436 0.000162 -0.005984
# 3 -0.002116 -0.001948 0.006363 -0.001625 -0.003618 0.003191
# 4 -0.003146 -0.000436 -0.001625 0.024611 0.003771 -0.002145
# 5 -0.001104 0.000162 -0.003618 0.003771 0.035360 -0.007734
# 6 -0.009737 -0.005984 0.003191 -0.002145 -0.007734 0.044204
#
#
# Mechanical properties :
#
#
# Convention : Reuss Voigt Hill
#
# Bulk Modulus (GPa) = 44.85777 76.99009 60.92393
# Shear Modulus (GPa) = 32.86545 44.51839 38.69192
#
# Velocity S-wave (km/s) = 3.58905 4.17714 3.89421
# Velocity P-wave (km/s) = 5.89547 7.31028 6.64066
#
# Compressibility (1/GPa) = 0.02229268
#
# Stress axis : x y z
#
# Youngs Moduli (GPa) = 102.53340 65.37854 157.16101
#
# Poissons Ratio (x) = 0.03238 0.33249
# Poissons Ratio (y) = 0.05078 0.30622
# Poissons Ratio (z) = 0.21692 0.12739
#
# Static dielectric constant tensor:
#      x y z
#    x 2.053800 0.067110 0.060470 
#    y 0.067110 2.034980 -0.050160 
#    z 0.060470 -0.050160 2.019470 
# 
# From -- ./inp_files/258349.got.cif
#   From: 2010.05.17/outbox.cif.g08.bks.cpg/sg2_130_cif.got.tgz:258349.got - 2010.06.03 11:33:40.
