data_PCOD9088309
_publ_section_title
;
Structure prediction by ZEFSAII (Michael W. Deem and Ramdas Pophale) SiO2 
 PCOD9088309
Probable space group: P -1
;
_chemical_formula_sum "Si O2"
_cell_formula_units_Z 16
_cell_length_a 9.414755
_cell_length_b 7.520031
_cell_length_c 12.413348
_cell_angle_alpha 79.471167
_cell_angle_beta 116.999902
_cell_angle_gamma 59.971043
_cell_volume 574.314347
_symmetry_space_group_name_H-M "P -1"
_symmetry_group_IT_number 2
_symmetry_cell_setting 'triclinic'
loop_
_space_group_symop_operation_xyz
x,y,z
-x,-y,-z
loop_
_atom_site_type_symbol
_atom_site_label
_atom_site_fract_x
_atom_site_fract_y
_atom_site_fract_z
Si Si1 0.869594 0.491131 0.340633
Si Si2 0.431583 0.609940 0.806147
Si Si3 0.714182 0.824874 0.794225
Si Si4 0.096846 0.706305 0.049978
Si Si5 0.221532 0.733247 0.303044
Si Si6 0.608081 0.003547 0.139681
Si Si7 0.612346 0.684139 0.447479
Si Si8 0.820768 0.039890 0.507759
O O1 0.705686 0.470038 0.230937
O O2 0.825083 0.725843 0.258305
O O3 0.791442 0.554258 0.430615
O O4 0.099950 0.227192 0.430258
O O5 0.684675 0.389095 0.918218
O O6 0.368599 0.800172 0.857183
O O7 0.377435 0.764893 0.659679
O O8 0.838525 0.544449 0.859676
O O9 0.556957 0.929066 0.830872
O O10 0.548604 0.025689 0.627447
O O11 0.901061 0.824614 0.889142
O O12 0.060328 0.836667 0.136052
O O13 0.438103 0.668350 0.345282
O O14 0.293389 0.480827 0.397253
O O15 0.170034 0.877705 0.380764
O O16 0.500000 0.000000 0.000000
O O17 0.000000 0.000000 0.500000
#
# Coordination Sequence:
#
# PCOD9088309 Si02
#       8
#     2   2   2   2   2   2   2   2
#     4  10  20  41  63  89 125 161 200 251 314 366
#     4  10  19  39  66  83 126 164 193 258 318 345
#     4   9  22  40  59  85 128 159 202 253 311 365
#     4  10  20  39  61  88 118 165 202 257 305 354
#     4  11  19  34  64  89 117 152 209 251 291 366
#     4  10  23  41  61  88 123 163 210 250 295 375
#     4  10  19  37  60  88 118 155 201 254 299 365
#     4  10  20  37  60  91 122 155 199 251 310 370
#
# _framework density 27.859307999999999
#
# number of rings (size 3 to 8) (size 9 to 14) (size 15 to 20)
#    0.000    2.000    3.750    0.750    0.000    4.000 
#    6.750    1.250    0.000    0.000    0.000    0.000 
#    0.000    0.000    0.000    0.000    0.000    0.000 
#
# Total GULP energy -89608.919549 kJ/mol
# GULP energy per Si atom -5600.557472 kJ/mol
# Density = 2.779590 g / cm^3
# Si number density = 27.859308 Si / 1000 Ang^3
#
#
#
# Elastic Constant Matrix: (Units=GPa)
#
#
# Indices 1 2 3 4 5 6 
#
# 1 71.9926 23.1121 26.6636 1.3411 21.6275 -5.4590
# 2 23.1121 180.3145 50.7436 7.2081 1.8161 8.1369
# 3 26.6636 50.7436 133.6556 16.4890 26.9939 -21.3787
# 4 1.3411 7.2081 16.4890 58.9715 -3.5006 5.3500
# 5 21.6275 1.8161 26.9939 -3.5006 44.7865 -3.1733
# 6 -5.4590 8.1369 -21.3787 5.3500 -3.1733 35.8131
#
#
#
# Elastic Compliance Matrix: (Units=1/GPa)
#
#
# Indices 1 2 3 4 5 6 
#
# 1 0.017292 -0.002004 -0.000724 -0.000592 -0.007733 0.002062
# 2 -0.002004 0.006880 -0.003406 0.000649 0.002525 -0.003775
# 3 -0.000724 -0.003406 0.011980 -0.004013 -0.006491 0.007839
# 4 -0.000592 0.000649 -0.004013 0.018700 0.003779 -0.005092
# 5 -0.007733 0.002525 -0.006491 0.003779 0.029917 -0.003541
# 6 0.002062 -0.003775 0.007839 -0.005092 -0.003541 0.034222
#
#
# Mechanical properties :
#
#
# Convention : Reuss Voigt Hill
#
# Bulk Modulus (GPa) = 41.87102 65.22236 53.54669
# Shear Modulus (GPa) = 35.91414 46.94378 41.42896
#
# Velocity S-wave (km/s) = 3.59433 4.10937 3.86045
# Velocity P-wave (km/s) = 5.68223 6.78071 6.25563
#
# Compressibility (1/GPa) = 0.02388287
#
# Stress axis : x y z
#
# Youngs Moduli (GPa) = 57.82884 145.34138 83.47515
#
# Poissons Ratio (x) = 0.29129 0.06045
# Poissons Ratio (y) = 0.11590 0.28435
# Poissons Ratio (z) = 0.04188 0.49509
#
# Static dielectric constant tensor:
#      x y z
#    x 2.187930 0.083280 0.006580 
#    y 0.083280 2.224230 -0.052850 
#    z 0.006580 -0.052850 2.199740 
# 
# From -- ./inp_files/342682.got.cif
#   From: 2010.05.17/outbox.cif.g08.bks.cpg/sg2_172_cif.got.tgz:342682.got - 2010.06.03 11:33:40.
