data_PCOD9088529
_publ_section_title
;
Structure prediction by ZEFSAII (Michael W. Deem and Ramdas Pophale) SiO2 
 PCOD9088529
Probable space group: P -1
;
_chemical_formula_sum "Si O2"
_cell_formula_units_Z 12
_cell_length_a 8.127325
_cell_length_b 11.642995
_cell_length_c 13.737703
_cell_angle_alpha 31.735534
_cell_angle_beta 136.350125
_cell_angle_gamma 121.163418
_cell_volume 454.489626
_symmetry_space_group_name_H-M "P -1"
_symmetry_group_IT_number 2
_symmetry_cell_setting 'triclinic'
loop_
_space_group_symop_operation_xyz
x,y,z
-x,-y,-z
loop_
_atom_site_type_symbol
_atom_site_label
_atom_site_fract_x
_atom_site_fract_y
_atom_site_fract_z
Si Si1 0.864471 0.349075 0.114441
Si Si2 0.446140 0.268548 0.770464
Si Si3 0.860405 0.071521 0.569486
Si Si4 0.389357 0.055696 0.256592
Si Si5 0.291559 0.441274 0.786691
Si Si6 0.285956 0.375567 0.404997
O O1 0.023106 0.339212 0.287204
O O2 0.574022 0.453063 0.920978
O O3 0.915128 0.103424 0.262743
O O4 0.000000 0.500000 0.000000
O O5 0.289987 0.373237 0.722946
O O6 0.337091 0.339888 0.566059
O O7 0.677089 0.382409 0.785894
O O8 0.500000 0.000000 0.000000
O O9 0.633673 0.106903 0.370467
O O10 0.876156 0.310535 0.443405
O O11 0.779244 0.958214 0.713205
O O12 0.501401 0.815331 0.423700
O O13 0.258688 0.244846 0.986304
#
# Coordination Sequence:
#
# PCOD9088529 Si02
#       6
#     2   2   2   2   2   2
#     4  11  22  41  68 101 127 164 214 271 321 374
#     4  11  21  38  62  93 126 173 218 254 314 389
#     4  10  22  39  60  96 135 163 204 267 326 375
#     4  10  19  37  61  93 125 166 204 261 321 376
#     4  12  22  40  68  97 126 167 216 263 318 377
#     4  10  21  37  62  93 126 168 214 259 318 381
#
# _framework density 26.403244999999998
#
# number of rings (size 3 to 8) (size 9 to 14) (size 15 to 20)
#    0.000    1.333    5.000    2.500    0.000    2.667 
#    0.000    1.667    0.000    9.000    0.000    0.000 
#    0.000    0.000    0.000    0.000    0.000    0.000 
#
# Total GULP energy -67355.127964 kJ/mol
# GULP energy per Si atom -5612.927330 kJ/mol
# Density = 2.634315 g / cm^3
# Si number density = 26.403245 Si / 1000 Ang^3
#
#
#
# Elastic Constant Matrix: (Units=GPa)
#
#
# Indices 1 2 3 4 5 6 
#
# 1 97.0646 53.0164 32.0946 -4.3924 -8.2608 -11.9430
# 2 53.0164 162.0036 68.6361 -12.5192 -3.9401 -30.0631
# 3 32.0946 68.6361 106.6285 -22.3911 -24.8064 -6.1988
# 4 -4.3924 -12.5192 -22.3911 56.7865 -10.2322 -10.2325
# 5 -8.2608 -3.9401 -24.8064 -10.2322 56.3839 8.5509
# 6 -11.9430 -30.0631 -6.1988 -10.2325 8.5509 54.4588
#
#
#
# Elastic Compliance Matrix: (Units=1/GPa)
#
#
# Indices 1 2 3 4 5 6 
#
# 1 0.012807 -0.003485 -0.001371 -0.000046 0.000934 0.000573
# 2 -0.003485 0.010904 -0.006495 -0.000133 -0.003392 0.005024
# 3 -0.001371 -0.006495 0.017127 0.006349 0.008344 -0.002054
# 4 -0.000046 -0.000133 0.006349 0.021874 0.006173 0.003780
# 5 0.000934 -0.003392 0.008344 0.006173 0.022905 -0.003154
# 6 0.000573 0.005024 -0.002054 0.003780 -0.003154 0.022233
#
#
# Mechanical properties :
#
#
# Convention : Reuss Voigt Hill
#
# Bulk Modulus (GPa) = 55.13655 74.79899 64.96777
# Shear Modulus (GPa) = 36.60397 47.65581 42.12989
#
# Velocity S-wave (km/s) = 3.72740 4.25305 3.99887
# Velocity P-wave (km/s) = 6.28113 7.24630 6.78091
#
# Compressibility (1/GPa) = 0.01813679
#
# Stress axis : x y z
#
# Youngs Moduli (GPa) = 78.08191 91.70558 58.38849
#
# Poissons Ratio (x) = 0.31959 0.08003
# Poissons Ratio (y) = 0.27211 0.37924
# Poissons Ratio (z) = 0.10702 0.59564
#
# Static dielectric constant tensor:
#      x y z
#    x 2.052280 0.021100 -0.055680 
#    y 0.021100 2.049040 0.004600 
#    z -0.055680 0.004600 2.092350 
# 
# From -- ./inp_files/430541.got.cif
#   From: 2010.05.17/outbox.cif.g08.bks.cpg/sg2_216_cif.got.tgz:430541.got - 2010.06.03 11:33:40.
