data_PCOD9088373
_publ_section_title
;
Structure prediction by ZEFSAII (Michael W. Deem and Ramdas Pophale) SiO2 
 PCOD9088373
Probable space group: P -1
;
_chemical_formula_sum "Si O2"
_cell_formula_units_Z 16
_cell_length_a 10.722605
_cell_length_b 16.299427
_cell_length_c 14.401528
_cell_angle_alpha 153.196992
_cell_angle_beta 100.122653
_cell_angle_gamma 63.833004
_cell_volume 858.473994
_symmetry_space_group_name_H-M "P -1"
_symmetry_group_IT_number 2
_symmetry_cell_setting 'triclinic'
loop_
_space_group_symop_operation_xyz
x,y,z
-x,-y,-z
loop_
_atom_site_type_symbol
_atom_site_label
_atom_site_fract_x
_atom_site_fract_y
_atom_site_fract_z
Si Si1 0.149591 0.611099 0.879169
Si Si2 0.743369 0.760768 0.215004
Si Si3 0.337088 0.757646 0.761666
Si Si4 0.135687 0.234366 0.136298
Si Si5 0.037081 0.765708 0.228164
Si Si6 0.924669 0.319257 0.377152
Si Si7 0.242543 0.900969 0.096543
Si Si8 0.624693 0.922700 0.574711
O O1 0.282282 0.327363 0.613962
O O2 0.979986 0.697780 0.898101
O O3 0.219812 0.713912 0.933737
O O4 0.111327 0.711245 0.079692
O O5 0.871646 0.795228 0.232998
O O6 0.695330 0.852227 0.407783
O O7 0.572161 0.916408 0.294506
O O8 0.835153 0.479799 0.945053
O O9 0.500000 0.500000 0.500000
O O10 0.187987 0.749963 0.726470
O O11 0.339519 0.826468 0.936985
O O12 0.293450 0.960812 0.891042
O O13 0.173078 0.412509 0.332171
O O14 0.022273 0.282156 0.258589
O O15 0.000000 0.000000 0.500000
O O16 0.061480 0.146058 0.296878
O O17 0.326010 0.939307 0.226957
#
# Coordination Sequence:
#
# PCOD9088373 Si02
#       8
#     2   2   2   2   2   2   2   2
#     4  11  20  36  61  88 107 145 199 234 270 340
#     4   9  21  42  58  84 120 148 183 236 286 337
#     4  11  23  39  53  83 124 150 183 236 287 334
#     4  10  19  37  61  81 106 153 192 227 279 335
#     4  10  21  39  62  84 117 152 183 227 292 343
#     4  10  19  37  63  77 112 150 190 233 279 334
#     4  11  20  37  61  84 110 152 194 231 279 336
#     4  10  21  38  62  86 112 147 193 237 279 331
#
# _framework density 18.637720999999999
#
# number of rings (size 3 to 8) (size 9 to 14) (size 15 to 20)
#    0.000    1.750    3.750    1.500    0.000    1.500 
#    6.750    3.750    0.000    0.000    0.000    0.000 
#    0.000    0.000    0.000    0.000    0.000    0.000 
#
# Total GULP energy -89315.036700 kJ/mol
# GULP energy per Si atom -5582.189794 kJ/mol
# Density = 1.859530 g / cm^3
# Si number density = 18.637721 Si / 1000 Ang^3
#
#
#
# Elastic Constant Matrix: (Units=GPa)
#
#
# Indices 1 2 3 4 5 6 
#
# 1 28.7509 8.2723 13.3490 4.3781 2.8307 -6.5814
# 2 8.2723 68.1557 23.8400 15.2383 4.5165 -8.9635
# 3 13.3490 23.8400 98.2125 20.8778 13.7309 -14.1058
# 4 4.3781 15.2383 20.8778 25.4302 -7.0359 4.2111
# 5 2.8307 4.5165 13.7309 -7.0359 33.3725 3.4944
# 6 -6.5814 -8.9635 -14.1058 4.2111 3.4944 23.3167
#
#
#
# Elastic Compliance Matrix: (Units=1/GPa)
#
#
# Indices 1 2 3 4 5 6 
#
# 1 0.040607 0.000082 0.000115 -0.011662 -0.007511 0.014795
# 2 0.000082 0.020652 0.002490 -0.019425 -0.009429 0.014390
# 3 0.000115 0.002490 0.020348 -0.026138 -0.016373 0.020474
# 4 -0.011662 -0.019425 -0.026138 0.093455 0.039241 -0.049331
# 5 -0.007511 -0.009429 -0.016373 0.039241 0.050054 -0.030238
# 6 0.014795 0.014390 0.020474 -0.049331 -0.030238 0.078423
#
#
# Mechanical properties :
#
#
# Convention : Reuss Voigt Hill
#
# Bulk Modulus (GPa) = 11.49682 31.78240 21.63961
# Shear Modulus (GPa) = 15.28319 26.40107 20.84213
#
# Velocity S-wave (km/s) = 2.86669 3.76778 3.34769
# Velocity P-wave (km/s) = 4.13995 6.00150 5.15544
#
# Compressibility (1/GPa) = 0.08698057
#
# Stress axis : x y z
#
# Youngs Moduli (GPa) = 24.62652 48.42243 49.14525
#
# Poissons Ratio (x) = -0.00398 -0.00565
# Poissons Ratio (y) = -0.00202 -0.12238
# Poissons Ratio (z) = -0.00283 -0.12058
#
# Static dielectric constant tensor:
#      x y z
#    x 1.613510 0.006480 -0.004820 
#    y 0.006480 1.649700 0.013600 
#    z -0.004820 0.013600 1.651410 
# 
# From -- ./inp_files/267512.got.cif
#   From: 2010.05.17/outbox.cif.g08.bks.cpg/sg2_134_cif.got.tgz:267512.got - 2010.06.03 11:33:40.
