data_PCOD9088047
_publ_section_title
;
Structure prediction by ZEFSAII (Michael W. Deem and Ramdas Pophale) SiO2 
 PCOD9088047
Probable space group: P -1
;
_chemical_formula_sum "Si O2"
_cell_formula_units_Z 16
_cell_length_a 5.110862
_cell_length_b 16.083434
_cell_length_c 7.772164
_cell_angle_alpha 106.745256
_cell_angle_beta 84.861509
_cell_angle_gamma 87.140681
_cell_volume 607.401803
_symmetry_space_group_name_H-M "P -1"
_symmetry_group_IT_number 2
_symmetry_cell_setting 'triclinic'
loop_
_space_group_symop_operation_xyz
x,y,z
-x,-y,-z
loop_
_atom_site_type_symbol
_atom_site_label
_atom_site_fract_x
_atom_site_fract_y
_atom_site_fract_z
Si Si1 0.252193 0.398453 0.488467
Si Si2 0.606505 0.640651 0.111263
Si Si3 0.270010 0.714130 0.892373
Si Si4 0.314317 0.062242 0.851908
Si Si5 0.967427 0.539726 0.799549
Si Si6 0.224163 0.892402 0.897959
Si Si7 0.759152 0.305416 0.550087
Si Si8 0.934529 0.795181 0.275624
O O1 0.177285 0.460491 0.691141
O O2 0.525871 0.343589 0.461098
O O3 0.225256 0.456740 0.354565
O O4 0.019951 0.335136 0.464168
O O5 0.542914 0.688585 0.959001
O O6 0.778966 0.555032 0.984734
O O7 0.338632 0.637190 0.235623
O O8 0.749036 0.714521 0.252663
O O9 0.131006 0.625006 0.838160
O O10 0.274206 0.790121 0.795130
O O11 0.103319 0.769372 0.081692
O O12 0.235221 0.116462 0.716374
O O13 0.306142 0.958017 0.783862
O O14 0.584785 0.086499 0.939258
O O15 0.080812 0.087248 0.020081
O O16 0.863699 0.214191 0.581442
#
# Coordination Sequence:
#
# PCOD9088047 Si02
#       8
#     2   2   2   2   2   2   2   2
#     4  11  26  43  58  82 112 149 197 244 283 340
#     4  10  19  37  58  88 112 152 183 234 287 341
#     4   9  18  32  54  81 114 147 186 229 286 334
#     4   9  16  26  47  76 115 148 175 218 276 331
#     4  10  25  40  60  81 113 151 192 242 294 331
#     4   9  16  27  45  78 113 146 179 219 273 337
#     4  11  23  40  60  83 116 146 193 238 284 342
#     4   9  17  34  52  82 115 149 180 228 280 337
#
# _framework density 26.341705999999999
#
# number of rings (size 3 to 8) (size 9 to 14) (size 15 to 20)
#    0.000    2.250    2.500    0.000    3.500    2.000 
#    0.000    0.000    0.000    0.000    0.000    1.750 
#    0.000    0.125    0.000    0.000    0.000    0.000 
#
# Total GULP energy -89310.416731 kJ/mol
# GULP energy per Si atom -5581.901046 kJ/mol
# Density = 2.628175 g / cm^3
# Si number density = 26.341706 Si / 1000 Ang^3
#
#
#
# Elastic Constant Matrix: (Units=GPa)
#
#
# Indices 1 2 3 4 5 6 
#
# 1 121.7359 19.7217 -9.8857 -5.5382 16.8072 -13.4566
# 2 19.7217 84.6048 -16.2551 7.2009 10.6755 -7.2044
# 3 -9.8857 -16.2551 33.7327 -12.0465 9.7975 -7.9960
# 4 -5.5382 7.2009 -12.0465 30.6045 -6.1527 9.5566
# 5 16.8072 10.6755 9.7975 -6.1527 31.1356 -8.9349
# 6 -13.4566 -7.2044 -7.9960 9.5566 -8.9349 44.3048
#
#
#
# Elastic Compliance Matrix: (Units=1/GPa)
#
#
# Indices 1 2 3 4 5 6 
#
# 1 0.009929 -0.000460 0.005758 0.002266 -0.005906 0.002300
# 2 -0.000460 0.015079 0.009114 -0.002470 -0.007419 0.002994
# 3 0.005758 0.009114 0.046202 0.011956 -0.016801 0.005602
# 4 0.002266 -0.002470 0.011956 0.040652 0.002208 -0.005879
# 5 -0.005906 -0.007419 -0.016801 0.002208 0.044267 0.002419
# 6 0.002300 0.002994 0.005602 -0.005879 0.002419 0.026523
#
#
# Mechanical properties :
#
#
# Convention : Reuss Voigt Hill
#
# Bulk Modulus (GPa) = 9.99658 25.24833 17.62245
# Shear Modulus (GPa) = 26.71329 37.64183 32.17756
#
# Velocity S-wave (km/s) = 3.18796 3.78429 3.49885
# Velocity P-wave (km/s) = 4.16581 5.35726 4.79865
#
# Compressibility (1/GPa) = 0.10003422
#
# Stress axis : x y z
#
# Youngs Moduli (GPa) = 100.71065 66.31652 21.64431
#
# Poissons Ratio (x) = 0.03050 -0.12463
# Poissons Ratio (y) = 0.04632 -0.19726
# Poissons Ratio (z) = -0.57991 -0.60440
#
# Static dielectric constant tensor:
#      x y z
#    x 2.107070 -0.018560 0.082270 
#    y -0.018560 2.171840 -0.080820 
#    z 0.082270 -0.080820 2.243910 
# 
# From -- ./inp_files/136793.got.cif
#   From: 2010.05.17/outbox.cif.g08.bks.cpg/sg2_69_cif.got.tgz:136793.got - 2010.06.03 11:33:40.
