data_PCOD9088729
_publ_section_title
;
Structure prediction by ZEFSAII (Michael W. Deem and Ramdas Pophale) SiO2 
 PCOD9088729
Probable space group: P -1
;
_chemical_formula_sum "Si O2"
_cell_formula_units_Z 16
_cell_length_a 9.334967
_cell_length_b 8.951965
_cell_length_c 15.277145
_cell_angle_alpha 41.606202
_cell_angle_beta 88.386358
_cell_angle_gamma 81.476381
_cell_volume 831.675321
_symmetry_space_group_name_H-M "P -1"
_symmetry_group_IT_number 2
_symmetry_cell_setting 'triclinic'
loop_
_space_group_symop_operation_xyz
x,y,z
-x,-y,-z
loop_
_atom_site_type_symbol
_atom_site_label
_atom_site_fract_x
_atom_site_fract_y
_atom_site_fract_z
Si Si1 0.085060 0.867083 0.137229
Si Si2 0.771724 0.707241 0.008050
Si Si3 0.442291 0.262925 0.861466
Si Si4 0.218280 0.759340 0.861269
Si Si5 0.548963 0.809700 0.810911
Si Si6 0.431708 0.314113 0.632817
Si Si7 0.901826 0.719888 0.358803
Si Si8 0.705542 0.426255 0.868588
O O1 0.198417 0.662264 0.178572
O O2 0.982907 0.757578 0.250983
O O3 0.154139 0.068664 0.095080
O O4 0.000000 0.000000 0.000000
O O5 0.629860 0.760739 0.924196
O O6 0.719566 0.681687 0.119783
O O7 0.845967 0.453128 0.084618
O O8 0.459647 0.301370 0.742004
O O9 0.546653 0.391901 0.857602
O O10 0.500000 0.000000 0.000000
O O11 0.391034 0.733745 0.845388
O O12 0.133992 0.012158 0.723739
O O13 0.227874 0.727274 0.981157
O O14 0.667288 0.683050 0.794983
O O15 0.505964 0.079558 0.687776
O O16 0.500000 0.500000 0.500000
O O17 0.258008 0.340149 0.618206
O O18 0.000000 0.500000 0.500000
#
# Coordination Sequence:
#
# PCOD9088729 Si02
#       8
#     2   2   2   2   2   2   2   2
#     4  12  24  39  59  94 129 172 212 253 315 380
#     4  11  20  33  68  95 129 157 206 267 321 370
#     4  12  18  34  64 100 119 153 207 265 314 360
#     4  10  19  40  61 101 126 159 207 269 320 363
#     4  10  19  37  62  99 128 149 207 276 323 357
#     4  11  25  43  65  92 123 169 218 259 312 381
#     4  11  26  44  61  86 134 174 208 256 313 384
#     4  11  19  34  65  95 127 152 202 271 319 358
#
# _framework density 19.238277
#
# number of rings (size 3 to 8) (size 9 to 14) (size 15 to 20)
#    0.000    1.000    6.250    2.250    3.500    0.500 
#    0.000    1.875    0.000    2.250    0.000    0.000 
#    0.000    0.000    0.000    0.000    0.000    0.000 
#
# Total GULP energy -89127.728390 kJ/mol
# GULP energy per Si atom -5570.483024 kJ/mol
# Density = 1.919449 g / cm^3
# Si number density = 19.238277 Si / 1000 Ang^3
#
#
#
# Elastic Constant Matrix: (Units=GPa)
#
#
# Indices 1 2 3 4 5 6 
#
# 1 70.4246 56.9684 59.4918 -11.3132 -14.9914 -15.5733
# 2 56.9684 126.8424 64.4464 -18.3822 -7.0687 -5.5121
# 3 59.4918 64.4464 138.1549 -13.1717 -10.7979 -6.8087
# 4 -11.3132 -18.3822 -13.1717 23.3723 -5.8185 2.0352
# 5 -14.9914 -7.0687 -10.7979 -5.8185 37.3584 2.0014
# 6 -15.5733 -5.5121 -6.8087 2.0352 2.0014 24.0939
#
#
#
# Elastic Compliance Matrix: (Units=1/GPa)
#
#
# Indices 1 2 3 4 5 6 
#
# 1 0.036744 -0.009680 -0.009052 0.006103 0.010304 0.017606
# 2 -0.009680 0.013791 -0.002039 0.005154 -0.000845 -0.004043
# 3 -0.009052 -0.002039 0.012017 0.000989 -0.000231 -0.002986
# 4 0.006103 0.005154 0.000989 0.053354 0.012025 -0.000102
# 5 0.010304 -0.000845 -0.000231 0.012025 0.032405 0.002694
# 6 0.017606 -0.004043 -0.002986 -0.000102 0.002694 0.050900
#
#
# Mechanical properties :
#
#
# Convention : Reuss Voigt Hill
#
# Bulk Modulus (GPa) = 47.59663 77.47055 62.53359
# Shear Modulus (GPa) = 20.18125 27.26595 23.72360
#
# Velocity S-wave (km/s) = 3.24236 3.76876 3.51543
# Velocity P-wave (km/s) = 6.22989 7.70029 7.00378
#
# Compressibility (1/GPa) = 0.02100989
#
# Stress axis : x y z
#
# Youngs Moduli (GPa) = 27.21558 72.50922 83.21842
#
# Poissons Ratio (x) = 0.70185 0.75331
# Poissons Ratio (y) = 0.26343 0.16969
# Poissons Ratio (z) = 0.24636 0.14785
#
# Static dielectric constant tensor:
#      x y z
#    x 1.733790 -0.075560 0.856150 
#    y -0.075560 1.697410 -0.616570 
#    z 0.856150 -0.616570 31.455060 
# 
# From -- ./inp_files/188454.got.cif
#   From: 2010.05.17/outbox.cif.g08.bks.cpg/sg2_95_cif.got.tgz:188454.got - 2010.06.03 11:33:40.
