data_PCOD9088517
_publ_section_title
;
Structure prediction by ZEFSAII (Michael W. Deem and Ramdas Pophale) SiO2 
 PCOD9088517
Probable space group: P -1
;
_chemical_formula_sum "Si O2"
_cell_formula_units_Z 16
_cell_length_a 7.764728
_cell_length_b 8.402571
_cell_length_c 17.320604
_cell_angle_alpha 96.402933
_cell_angle_beta 132.233154
_cell_angle_gamma 113.946533
_cell_volume 629.382117
_symmetry_space_group_name_H-M "P -1"
_symmetry_group_IT_number 2
_symmetry_cell_setting 'triclinic'
loop_
_space_group_symop_operation_xyz
x,y,z
-x,-y,-z
loop_
_atom_site_type_symbol
_atom_site_label
_atom_site_fract_x
_atom_site_fract_y
_atom_site_fract_z
Si Si1 0.753940 0.005537 0.467530
Si Si2 0.373931 0.424446 0.721344
Si Si3 0.211911 0.814451 0.738577
Si Si4 0.387429 0.267356 0.451403
Si Si5 0.897021 0.777869 0.119411
Si Si6 0.508988 0.244167 0.320794
Si Si7 0.294548 0.566589 0.850330
Si Si8 0.342214 0.790787 0.183715
O O1 0.570961 0.824502 0.466881
O O2 0.519198 0.939800 0.323559
O O3 0.000000 0.000000 0.500000
O O4 0.005499 0.233980 0.595318
O O5 0.471473 0.557068 0.680000
O O6 0.458366 0.585598 0.822327
O O7 0.551424 0.341925 0.787924
O O8 0.238115 0.718879 0.661246
O O9 0.149936 0.668628 0.783861
O O10 0.976260 0.856623 0.668971
O O11 0.535213 0.053173 0.843263
O O12 0.500000 0.500000 0.500000
O O13 0.534087 0.246487 0.420974
O O14 0.894578 0.676039 0.193062
O O15 0.989517 0.671997 0.084612
O O16 0.564834 0.703095 0.001542
O O17 0.158703 0.024900 0.191905
#
# Coordination Sequence:
#
# PCOD9088517 Si02
#       8
#     2   2   2   2   2   2   2   2
#     4  10  19  37  61  91 131 165 200 255 312 373
#     4  10  20  39  64  91 126 164 207 257 315 372
#     4  10  23  42  62  94 126 167 207 259 313 369
#     4  12  23  38  65  94 132 171 205 258 312 376
#     4  10  23  44  62  91 123 160 215 263 318 370
#     4  10  24  41  64  96 125 165 217 257 309 380
#     4  10  23  43  65  86 126 163 206 274 312 371
#     4  10  21  39  65  90 127 166 208 257 309 384
#
# _framework density 25.421759999999999
#
# number of rings (size 3 to 8) (size 9 to 14) (size 15 to 20)
#    0.000    1.750    2.500    2.250    3.500    5.500 
#    6.750    3.750    0.000    0.000    0.000    0.000 
#    0.000    0.000    0.000    0.000    0.000    0.000 
#
# Total GULP energy -89168.385771 kJ/mol
# GULP energy per Si atom -5573.024111 kJ/mol
# Density = 2.536390 g / cm^3
# Si number density = 25.421760 Si / 1000 Ang^3
#
#
#
# Elastic Constant Matrix: (Units=GPa)
#
#
# Indices 1 2 3 4 5 6 
#
# 1 66.2660 -3.6537 7.4844 -3.7554 5.7678 -1.0992
# 2 -3.6537 142.8344 26.2639 -16.6358 1.2653 21.6403
# 3 7.4844 26.2639 57.7653 -9.2711 11.6029 3.9506
# 4 -3.7554 -16.6358 -9.2711 34.1427 6.6200 0.4914
# 5 5.7678 1.2653 11.6029 6.6200 22.8700 -2.9675
# 6 -1.0992 21.6403 3.9506 0.4914 -2.9675 41.5138
#
#
#
# Elastic Compliance Matrix: (Units=1/GPa)
#
#
# Indices 1 2 3 4 5 6 
#
# 1 0.015805 0.001035 -0.001193 0.002753 -0.004280 -0.000346
# 2 0.001035 0.008680 -0.003010 0.003755 -0.000861 -0.004317
# 3 -0.001193 -0.003010 0.022800 0.007217 -0.013407 -0.001676
# 4 0.002753 0.003755 0.007217 0.036476 -0.015657 -0.004122
# 5 -0.004280 -0.000861 -0.013407 -0.015657 0.056948 0.005868
# 6 -0.000346 -0.004317 -0.001676 -0.004122 0.005868 0.026957
#
#
# Mechanical properties :
#
#
# Convention : Reuss Voigt Hill
#
# Bulk Modulus (GPa) = 24.42023 36.33943 30.37983
# Shear Modulus (GPa) = 26.64496 35.49004 31.06750
#
# Velocity S-wave (km/s) = 3.24097 3.74043 3.49962
# Velocity P-wave (km/s) = 4.86129 5.74283 5.32035
#
# Compressibility (1/GPa) = 0.04094966
#
# Stress axis : x y z
#
# Youngs Moduli (GPa) = 63.26979 115.20743 43.85912
#
# Poissons Ratio (x) = -0.11920 0.05232
# Poissons Ratio (y) = -0.06546 0.13200
# Poissons Ratio (z) = 0.07548 0.34673
#
# Static dielectric constant tensor:
#      x y z
#    x 2.101840 -0.032480 0.005300 
#    y -0.032480 2.132240 0.049900 
#    z 0.005300 0.049900 2.187650 
# 
# From -- ./inp_files/216007.got.cif
#   From: 2010.05.17/outbox.cif.g08.bks.cpg/sg2_109_cif.got.tgz:216007.got - 2010.06.03 11:33:40.
