data_PCOD9088224
_publ_section_title
;
Structure prediction by ZEFSAII (Michael W. Deem and Ramdas Pophale) SiO2 
 PCOD9088224
Probable space group: P -1
;
_chemical_formula_sum "Si O2"
_cell_formula_units_Z 14
_cell_length_a 24.925278
_cell_length_b 14.739192
_cell_length_c 5.221186
_cell_angle_alpha 85.234979
_cell_angle_beta 97.220340
_cell_angle_gamma 162.917733
_cell_volume 554.437004
_symmetry_space_group_name_H-M "P -1"
_symmetry_group_IT_number 2
_symmetry_cell_setting 'triclinic'
loop_
_space_group_symop_operation_xyz
x,y,z
-x,-y,-z
loop_
_atom_site_type_symbol
_atom_site_label
_atom_site_fract_x
_atom_site_fract_y
_atom_site_fract_z
Si Si1 0.832722 0.772027 0.232759
Si Si2 0.282458 0.161389 0.511625
Si Si3 0.424937 0.779295 0.966635
Si Si4 0.203057 0.710629 0.054890
Si Si5 0.910954 0.076912 0.046837
Si Si6 0.240044 0.886154 0.517674
Si Si7 0.363883 0.532012 0.316002
O O1 0.981515 0.087736 0.160659
O O2 0.802706 0.736670 0.522292
O O3 0.773441 0.570799 0.193000
O O4 0.682894 0.569326 0.981165
O O5 0.500000 0.500000 0.500000
O O6 0.230064 0.120248 0.763416
O O7 0.195589 0.920273 0.510612
O O8 0.187811 0.067883 0.252581
O O9 0.587287 0.988457 0.862266
O O10 0.500000 0.000000 0.000000
O O11 0.421755 0.729283 0.258540
O O12 0.199525 0.760492 0.773821
O O13 0.160474 0.710879 0.259378
O O14 0.072995 0.413050 0.059217
O O15 0.462590 0.242276 0.532500
#
# Coordination Sequence:
#
# PCOD9088224 Si02
#       7
#     2   2   2   2   2   2   2
#     4  10  19  37  60  82 121 155 191 243 300 352
#     4  12  26  38  66  89 119 161 220 241 276 367
#     4   9  21  39  67  92 111 156 207 243 292 370
#     4  11  24  39  62  86 129 158 191 252 313 350
#     4  12  25  40  58  93 124 163 195 248 309 341
#     4  11  20  40  58  86 119 163 198 247 297 337
#     4   9  18  35  61  85 114 153 192 250 294 340
#
# _framework density 25.25084
#
# number of rings (size 3 to 8) (size 9 to 14) (size 15 to 20)
#    0.857    0.571    1.429    4.714    0.000    4.000 
#    0.000    0.714    0.000    0.857    0.000    0.000 
#    0.000    0.000    0.000    0.000    0.000    0.000 
#
# Total GULP energy -78053.312791 kJ/mol
# GULP energy per Si atom -5575.236628 kJ/mol
# Density = 2.519337 g / cm^3
# Si number density = 25.250840 Si / 1000 Ang^3
#
#
#
# Elastic Constant Matrix: (Units=GPa)
#
#
# Indices 1 2 3 4 5 6 
#
# 1 92.1700 39.2508 34.1713 -10.5915 -8.8840 -44.6379
# 2 39.2508 94.8751 35.0389 -17.4852 -9.3852 -28.1264
# 3 34.1713 35.0389 158.7478 -12.3707 -16.6493 -17.1565
# 4 -10.5915 -17.4852 -12.3707 40.9494 -6.2661 3.2528
# 5 -8.8840 -9.3852 -16.6493 -6.2661 39.5919 -9.3925
# 6 -44.6379 -28.1264 -17.1565 3.2528 -9.3925 67.4293
#
#
#
# Elastic Compliance Matrix: (Units=1/GPa)
#
#
# Indices 1 2 3 4 5 6 
#
# 1 0.019386 -0.002624 -0.001309 0.003546 0.006623 0.012157
# 2 -0.002624 0.014907 -0.001354 0.005583 0.004319 0.004469
# 3 -0.001309 -0.001354 0.007408 0.001711 0.002957 0.000783
# 4 0.003546 0.005583 0.001711 0.029168 0.008619 0.004905
# 5 0.006623 0.004319 0.002957 0.008619 0.033013 0.011121
# 6 0.012157 0.004469 0.000783 0.004905 0.011121 0.026254
#
#
# Mechanical properties :
#
#
# Convention : Reuss Voigt Hill
#
# Bulk Modulus (GPa) = 32.12727 62.52389 47.32558
# Shear Modulus (GPa) = 33.09371 45.41626 39.25498
#
# Velocity S-wave (km/s) = 3.62415 4.24560 3.94712
# Velocity P-wave (km/s) = 5.50122 6.98916 6.28935
#
# Compressibility (1/GPa) = 0.03112621
#
# Stress axis : x y z
#
# Youngs Moduli (GPa) = 51.58418 67.08285 134.98747
#
# Poissons Ratio (x) = 0.17602 0.17669
# Poissons Ratio (y) = 0.13535 0.18283
# Poissons Ratio (z) = 0.06752 0.09086
#
# Static dielectric constant tensor:
#      x y z
#    x 2.183660 -0.039210 -0.053420 
#    y -0.039210 2.157340 0.022710 
#    z -0.053420 0.022710 1.939750 
# 
# From -- ./inp_files/127153.got.cif
#   From: 2010.05.17/outbox.cif.g08.bks.cpg/sg2_64_cif.got.tgz:127153.got - 2010.06.03 11:33:40.
