data_PCOD9088744
_publ_section_title
;
Structure prediction by ZEFSAII (Michael W. Deem and Ramdas Pophale) SiO2 
 PCOD9088744
Probable space group: P -1
;
_chemical_formula_sum "Si O2"
_cell_formula_units_Z 16
_cell_length_a 11.830970
_cell_length_b 12.213701
_cell_length_c 9.617891
_cell_angle_alpha 128.290362
_cell_angle_beta 54.550246
_cell_angle_gamma 141.687671
_cell_volume 663.567951
_symmetry_space_group_name_H-M "P -1"
_symmetry_group_IT_number 2
_symmetry_cell_setting 'triclinic'
loop_
_space_group_symop_operation_xyz
x,y,z
-x,-y,-z
loop_
_atom_site_type_symbol
_atom_site_label
_atom_site_fract_x
_atom_site_fract_y
_atom_site_fract_z
Si Si1 0.845247 0.696680 0.029595
Si Si2 0.172705 0.010331 0.360197
Si Si3 0.057888 0.389206 0.816775
Si Si4 0.858415 0.899508 0.848629
Si Si5 0.908279 0.617586 0.631030
Si Si6 0.526043 0.312621 0.989167
Si Si7 0.548631 0.369153 0.347616
Si Si8 0.682268 0.218122 0.578784
O O1 0.933178 0.665825 0.817545
O O2 0.627072 0.524351 0.041366
O O3 0.891733 0.665766 0.123539
O O4 0.937104 0.908463 0.114185
O O5 0.191116 0.048793 0.213713
O O6 0.378390 0.182958 0.404306
O O7 0.000000 0.000000 0.500000
O O8 0.107567 0.812850 0.287148
O O9 0.234047 0.511126 0.683941
O O10 0.000000 0.500000 0.000000
O O11 0.848951 0.728289 0.701661
O O12 0.687997 0.828408 0.011111
O O13 0.746693 0.391015 0.566113
O O14 0.114337 0.718664 0.509806
O O15 0.628666 0.257944 0.792834
O O16 0.545722 0.319827 0.147994
O O17 0.500000 0.500000 0.500000
O O18 0.500000 0.000000 0.500000
#
# Coordination Sequence:
#
# PCOD9088744 Si02
#       8
#     2   2   2   2   2   2   2   2
#     4   9  19  36  59  83 119 149 190 245 299 341
#     4  10  20  38  60  84 120 156 196 249 303 353
#     4  10  21  38  61  89 118 157 200 250 301 353
#     4  10  20  35  61  85 112 150 198 240 291 353
#     4  10  21  37  58  88 113 154 196 236 290 357
#     4   9  20  36  56  87 113 153 191 240 292 351
#     4  10  19  37  63  84 116 152 198 248 302 357
#     4  10  21  38  57  79 126 159 188 237 295 346
#
# _framework density 24.112072999999999
#
# number of rings (size 3 to 8) (size 9 to 14) (size 15 to 20)
#    0.000    2.250    1.250    1.125    0.000    3.500 
#    9.000    0.000    2.750    0.000    0.000    0.000 
#    0.000    0.000    0.000    0.000    0.000    0.000 
#
# Total GULP energy -89147.447432 kJ/mol
# GULP energy per Si atom -5571.715465 kJ/mol
# Density = 2.405719 g / cm^3
# Si number density = 24.112073 Si / 1000 Ang^3
#
#
#
# Elastic Constant Matrix: (Units=GPa)
#
#
# Indices 1 2 3 4 5 6 
#
# 1 33.3600 23.4046 -0.5636 -6.0357 0.2673 -6.2349
# 2 23.4046 240.4083 55.5514 3.4566 -26.3446 16.0862
# 3 -0.5636 55.5514 99.1731 -6.0130 -8.4602 5.4183
# 4 -6.0357 3.4566 -6.0130 42.1292 -3.1046 -9.5787
# 5 0.2673 -26.3446 -8.4602 -3.1046 39.6005 -5.1807
# 6 -6.2349 16.0862 5.4183 -9.5787 -5.1807 21.4030
#
#
#
# Elastic Compliance Matrix: (Units=1/GPa)
#
#
# Indices 1 2 3 4 5 6 
#
# 1 0.040372 -0.006255 0.003286 0.011472 -0.000120 0.020735
# 2 -0.006255 0.006249 -0.003164 -0.003172 0.002417 -0.006552
# 3 0.003286 -0.003164 0.012030 0.002928 0.000911 0.001821
# 4 0.011472 -0.003172 0.002928 0.030761 0.003411 0.019577
# 5 -0.000120 0.002417 0.000911 0.003411 0.028142 0.006256
# 6 0.020735 -0.006552 0.001821 0.019577 0.006256 0.067502
#
#
# Mechanical properties :
#
#
# Convention : Reuss Voigt Hill
#
# Bulk Modulus (GPa) = 21.55919 58.85848 40.20884
# Shear Modulus (GPa) = 23.49825 40.26314 31.88070
#
# Velocity S-wave (km/s) = 3.12515 4.09079 3.64014
# Velocity P-wave (km/s) = 4.68858 6.83931 5.86340
#
# Compressibility (1/GPa) = 0.04638393
#
# Stress axis : x y z
#
# Youngs Moduli (GPa) = 24.76978 160.03836 83.12551
#
# Poissons Ratio (x) = 1.00105 -0.27312
# Poissons Ratio (y) = 0.15494 0.26299
# Poissons Ratio (z) = -0.08138 0.50632
#
# Static dielectric constant tensor:
#      x y z
#    x 2.095370 0.086360 0.161030 
#    y 0.086360 2.074210 0.076470 
#    z 0.161030 0.076470 2.226590 
# 
# From -- ./inp_files/455057.got.cif
#   From: 2010.05.17/outbox.cif.g08.bks.cpg/sg2_228_cif.got.tgz:455057.got - 2010.06.03 11:33:40.
