data_PCOD9088452
_publ_section_title
;
Structure prediction by ZEFSAII (Michael W. Deem and Ramdas Pophale) SiO2 
 PCOD9088452
Probable space group: P -1
;
_chemical_formula_sum "Si O2"
_cell_formula_units_Z 16
_cell_length_a 19.869660
_cell_length_b 12.340074
_cell_length_c 6.287241
_cell_angle_alpha 45.048714
_cell_angle_beta 120.764918
_cell_angle_gamma 142.488278
_cell_volume 660.040470
_symmetry_space_group_name_H-M "P -1"
_symmetry_group_IT_number 2
_symmetry_cell_setting 'triclinic'
loop_
_space_group_symop_operation_xyz
x,y,z
-x,-y,-z
loop_
_atom_site_type_symbol
_atom_site_label
_atom_site_fract_x
_atom_site_fract_y
_atom_site_fract_z
Si Si1 0.903701 0.660882 0.242831
Si Si2 0.427407 0.122957 0.288499
Si Si3 0.900338 0.194391 0.911296
Si Si4 0.624693 0.199006 0.009289
Si Si5 0.717996 0.872694 0.703345
Si Si6 0.325157 0.534234 0.930230
Si Si7 0.257558 0.850375 0.020919
Si Si8 0.958377 0.047138 0.557326
O O1 0.770489 0.478743 0.274973
O O2 0.958933 0.740395 0.454988
O O3 0.976648 0.656873 0.201066
O O4 0.915968 0.854719 0.909383
O O5 0.392884 0.226844 0.215711
O O6 0.557524 0.276538 0.259082
O O7 0.375293 0.915955 0.631588
O O8 0.364247 0.035938 0.082836
O O9 0.889700 0.069489 0.271711
O O10 0.850062 0.280188 0.816922
O O11 0.817634 0.027598 0.821029
O O12 0.651930 0.401193 0.872111
O O13 0.715965 0.270122 0.891009
O O14 0.500000 0.000000 0.000000
O O15 0.741513 0.025400 0.341715
O O16 0.704961 0.683252 0.862368
O O17 0.000000 0.000000 0.500000
#
# Coordination Sequence:
#
# PCOD9088452 Si02
#       8
#     2   2   2   2   2   2   2   2
#     4  10  20  33  54  92 126 162 199 251 298 363
#     4  10  23  43  63  87 123 165 204 248 316 368
#     4  10  19  37  61  87 127 164 201 242 311 364
#     4  11  24  45  63  85 120 169 207 251 308 372
#     4  10  22  39  64  97 123 158 202 262 301 361
#     4  12  22  39  62  94 129 154 207 258 301 362
#     4  10  21  42  66  87 121 171 205 243 310 366
#     4   9  17  34  56  84 130 164 197 238 312 361
#
# _framework density 24.240938
#
# number of rings (size 3 to 8) (size 9 to 14) (size 15 to 20)
#    0.000    1.750    1.250    4.500    0.000    0.500 
#   11.250    0.625    0.000   10.500    0.000    0.000 
#    0.000    0.000    0.000    0.000    0.000    0.000 
#
# Total GULP energy -89309.530205 kJ/mol
# GULP energy per Si atom -5581.845638 kJ/mol
# Density = 2.418576 g / cm^3
# Si number density = 24.240938 Si / 1000 Ang^3
#
#
#
# Elastic Constant Matrix: (Units=GPa)
#
#
# Indices 1 2 3 4 5 6 
#
# 1 257.5890 73.8142 14.5204 -1.8375 -13.8279 -4.4306
# 2 73.8142 97.0444 55.3657 23.9336 -12.3740 -15.2892
# 3 14.5204 55.3657 101.1590 31.7686 -9.8020 7.6355
# 4 -1.8375 23.9336 31.7686 37.5553 4.2389 0.6365
# 5 -13.8279 -12.3740 -9.8020 4.2389 30.8390 -0.1933
# 6 -4.4306 -15.2892 7.6355 0.6365 -0.1933 51.0736
#
#
#
# Elastic Compliance Matrix: (Units=1/GPa)
#
#
# Indices 1 2 3 4 5 6 
#
# 1 0.005553 -0.006202 0.001938 0.002585 0.000251 -0.001696
# 2 -0.006202 0.024951 -0.010354 -0.008170 0.005117 0.008600
# 3 0.001938 -0.010354 0.019228 -0.009945 0.004157 -0.005666
# 4 0.002585 -0.008170 -0.009945 0.041638 -0.011011 -0.001295
# 5 0.000251 0.005117 0.004157 -0.011011 0.037435 0.001211
# 6 -0.001696 0.008600 -0.005666 -0.001295 0.001211 0.022875
#
#
# Mechanical properties :
#
#
# Convention : Reuss Voigt Hill
#
# Bulk Modulus (GPa) = 48.78962 82.57701 65.68332
# Shear Modulus (GPa) = 26.63169 44.69972 35.66571
#
# Velocity S-wave (km/s) = 3.31815 4.29881 3.83991
# Velocity P-wave (km/s) = 5.90345 7.66673 6.84213
#
# Compressibility (1/GPa) = 0.02049616
#
# Stress axis : x y z
#
# Youngs Moduli (GPa) = 180.08616 40.07863 52.00837
#
# Poissons Ratio (x) = 0.24857 -0.10078
# Poissons Ratio (y) = 1.11688 0.53847
# Poissons Ratio (z) = -0.34897 0.41496
#
# Static dielectric constant tensor:
#      x y z
#    x 1.979050 0.063530 0.012900 
#    y 0.063530 1.892440 -0.006630 
#    z 0.012900 -0.006630 1.963030 
# 
# From -- ./inp_files/118477.got.cif
#   From: 2010.05.17/outbox.cif.g08.bks.cpg/sg2_60_cif.got.tgz:118477.got - 2010.06.03 11:33:40.
