data_PCOD9088450
_publ_section_title
;
Structure prediction by ZEFSAII (Michael W. Deem and Ramdas Pophale) SiO2 
 PCOD9088450
Probable space group: P -1
;
_chemical_formula_sum "Si O2"
_cell_formula_units_Z 16
_cell_length_a 18.519668
_cell_length_b 9.259009
_cell_length_c 12.167361
_cell_angle_alpha 76.906057
_cell_angle_beta 35.817314
_cell_angle_gamma 50.379576
_cell_volume 719.047610
_symmetry_space_group_name_H-M "P -1"
_symmetry_group_IT_number 2
_symmetry_cell_setting 'triclinic'
loop_
_space_group_symop_operation_xyz
x,y,z
-x,-y,-z
loop_
_atom_site_type_symbol
_atom_site_label
_atom_site_fract_x
_atom_site_fract_y
_atom_site_fract_z
Si Si1 0.046214 0.854498 0.295527
Si Si2 0.829199 0.679248 0.948804
Si Si3 0.261987 0.741884 0.250763
Si Si4 0.789609 0.623631 0.774570
Si Si5 0.842598 0.387178 0.136232
Si Si6 0.751129 0.566948 0.599669
Si Si7 0.818192 0.122727 0.081532
Si Si8 0.509379 0.212006 0.331532
O O1 0.178569 0.834340 0.215322
O O2 0.158272 0.591113 0.208926
O O3 0.031959 0.939985 0.179742
O O4 0.828536 0.050995 0.590718
O O5 0.722662 0.766537 0.944895
O O6 0.051089 0.540040 0.676390
O O7 0.865772 0.486415 0.995132
O O8 0.678200 0.920274 0.169316
O O9 0.180157 0.661887 0.408079
O O10 0.500000 0.500000 0.000000
O O11 0.676929 0.714275 0.780433
O O12 0.000000 0.500000 0.500000
O O13 0.756912 0.313544 0.206329
O O14 0.687495 0.606739 0.377531
O O15 0.056116 0.128507 0.970797
O O16 0.583357 0.698220 0.691570
O O17 0.632603 0.235046 0.221617
#
# Coordination Sequence:
#
# PCOD9088450 Si02
#       8
#     2   2   2   2   2   2   2   2
#     4  10  19  37  61  87 122 168 209 258 324 374
#     4  11  23  44  68  94 137 177 219 271 325 396
#     4  10  20  34  60  95 127 161 208 263 320 389
#     4   9  20  40  64  90 128 173 213 259 321 397
#     4  11  25  44  68  98 127 178 226 271 334 383
#     4  10  23  41  65 100 132 173 220 263 333 396
#     4  11  24  44  69  93 132 173 223 279 323 392
#     4  12  24  40  67  99 135 169 219 280 327 388
#
# _framework density 22.251657000000002
#
# number of rings (size 3 to 8) (size 9 to 14) (size 15 to 20)
#    0.000    1.500    1.250    3.750    0.000    7.500 
#    0.000    3.750    0.000    0.000    0.000    0.000 
#    0.000    0.000    0.000    0.000    0.000    0.000 
#
# Total GULP energy -89278.573984 kJ/mol
# GULP energy per Si atom -5579.910874 kJ/mol
# Density = 2.220101 g / cm^3
# Si number density = 22.251657 Si / 1000 Ang^3
#
#
#
# Elastic Constant Matrix: (Units=GPa)
#
#
# Indices 1 2 3 4 5 6 
#
# 1 144.6258 37.3327 35.8732 4.4760 5.2962 -13.9549
# 2 37.3327 77.1470 30.7300 -5.7004 4.6763 -15.3842
# 3 35.8732 30.7300 77.3877 9.7310 17.1709 -0.5574
# 4 4.4760 -5.7004 9.7310 26.8254 -0.1423 7.6970
# 5 5.2962 4.6763 17.1709 -0.1423 37.7095 3.0974
# 6 -13.9549 -15.3842 -0.5574 7.6970 3.0974 31.7342
#
#
#
# Elastic Compliance Matrix: (Units=1/GPa)
#
#
# Indices 1 2 3 4 5 6 
#
# 1 0.008602 -0.002652 -0.002706 -0.001845 0.000109 0.002886
# 2 -0.002652 0.018612 -0.006906 0.005059 0.000699 0.006440
# 3 -0.002706 -0.006906 0.019553 -0.007693 -0.007565 -0.001590
# 4 -0.001845 0.005059 -0.007693 0.044234 0.004092 -0.009622
# 5 0.000109 0.000699 -0.007565 0.004092 0.030180 -0.003684
# 6 0.002886 0.006440 -0.001590 -0.009622 -0.003684 0.038568
#
#
# Mechanical properties :
#
#
# Convention : Reuss Voigt Hill
#
# Bulk Modulus (GPa) = 44.96571 56.33691 50.65131
# Shear Modulus (GPa) = 26.08378 32.26880 29.17629
#
# Velocity S-wave (km/s) = 3.42748 3.81225 3.62497
# Velocity P-wave (km/s) = 5.99293 6.68959 6.35082
#
# Compressibility (1/GPa) = 0.02223917
#
# Stress axis : x y z
#
# Youngs Moduli (GPa) = 116.25613 53.72787 51.14302
#
# Poissons Ratio (x) = 0.14250 0.13837
# Poissons Ratio (y) = 0.30833 0.35321
# Poissons Ratio (z) = 0.31453 0.37106
#
# Static dielectric constant tensor:
#      x y z
#    x 1.879340 0.018070 0.030920 
#    y 0.018070 1.788440 0.007390 
#    z 0.030920 0.007390 1.848160 
# 
# From -- ./inp_files/462097.got.cif
#   From: 2010.05.17/outbox.cif.g08.bks.cpg/sg2_232_cif.got.tgz:462097.got - 2010.06.03 11:33:40.
