data_PCOD9088098
_publ_section_title
;
Structure prediction by ZEFSAII (Michael W. Deem and Ramdas Pophale) SiO2 
 PCOD9088098
Probable space group: P -1
;
_chemical_formula_sum "Si O2"
_cell_formula_units_Z 16
_cell_length_a 15.373397
_cell_length_b 28.391568
_cell_length_c 8.382203
_cell_angle_alpha 129.784607
_cell_angle_beta 59.309707
_cell_angle_gamma 161.760200
_cell_volume 804.674333
_symmetry_space_group_name_H-M "P -1"
_symmetry_group_IT_number 2
_symmetry_cell_setting 'triclinic'
loop_
_space_group_symop_operation_xyz
x,y,z
-x,-y,-z
loop_
_atom_site_type_symbol
_atom_site_label
_atom_site_fract_x
_atom_site_fract_y
_atom_site_fract_z
Si Si1 0.125875 0.004724 0.530561
Si Si2 0.012891 0.196689 0.602090
Si Si3 0.405250 0.286542 0.853289
Si Si4 0.742931 0.149434 0.959713
Si Si5 0.386517 0.416269 0.250206
Si Si6 0.755401 0.057236 0.188848
Si Si7 0.870475 0.521256 0.681656
Si Si8 0.480277 0.789994 0.710668
O O1 0.249129 0.140341 0.773842
O O2 0.354860 0.117908 0.416107
O O3 0.082288 0.925909 0.525393
O O4 0.807985 0.829846 0.356144
O O5 0.376330 0.415805 0.726612
O O6 0.872497 0.162735 0.788223
O O7 0.874130 0.133019 0.420703
O O8 0.731911 0.453202 0.840431
O O9 0.413769 0.358202 0.077955
O O10 0.543824 0.074119 0.852724
O O11 0.019141 0.349543 0.197623
O O12 0.500000 0.000000 0.000000
O O13 0.500000 0.500000 0.500000
O O14 0.030164 0.229398 0.181119
O O15 0.682180 0.943893 0.977081
O O16 0.623986 0.338214 0.425541
O O17 0.174199 0.654467 0.686758
#
# Coordination Sequence:
#
# PCOD9088098 Si02
#       8
#     2   2   2   2   2   2   2   2
#     4  10  21  35  61  85 109 150 193 241 274 336
#     4  11  22  38  58  86 116 151 191 233 288 341
#     4  10  19  37  59  82 113 148 195 232 285 330
#     4  11  22  36  60  88 113 146 193 240 283 337
#     4  10  21  37  58  83 119 157 184 233 289 342
#     4  10  21  38  58  80 117 156 183 233 289 341
#     4   9  18  32  56  86 107 145 187 237 281 327
#     4   9  17  35  59  79 113 147 189 232 282 335
#
# _framework density 19.88382
#
# number of rings (size 3 to 8) (size 9 to 14) (size 15 to 20)
#    0.000    2.000    2.500    1.875    0.000    1.500 
#    0.000    2.500    5.500   19.500    0.000    0.000 
#    0.000    0.000    0.000    0.000    0.000    0.000 
#
# Total GULP energy -89168.390204 kJ/mol
# GULP energy per Si atom -5573.024388 kJ/mol
# Density = 1.983856 g / cm^3
# Si number density = 19.883820 Si / 1000 Ang^3
#
#
#
# Elastic Constant Matrix: (Units=GPa)
#
#
# Indices 1 2 3 4 5 6 
#
# 1 50.8252 17.6102 -3.0488 3.4567 -11.7737 -11.8254
# 2 17.6102 100.2861 14.3562 5.1367 -2.5611 -3.5107
# 3 -3.0488 14.3562 64.2791 9.1856 -15.6052 -15.9142
# 4 3.4567 5.1367 9.1856 31.0451 -2.9807 -10.6077
# 5 -11.7737 -2.5611 -15.6052 -2.9807 25.1069 10.0867
# 6 -11.8254 -3.5107 -15.9142 -10.6077 10.0867 35.7289
#
#
#
# Elastic Compliance Matrix: (Units=1/GPa)
#
#
# Indices 1 2 3 4 5 6 
#
# 1 0.026998 -0.005207 0.007798 -0.000437 0.013757 0.007884
# 2 -0.005207 0.011346 -0.003809 -0.001065 -0.003074 -0.001754
# 3 0.007798 -0.003809 0.022402 -0.003015 0.013872 0.007373
# 4 -0.000437 -0.001065 -0.003015 0.036486 -0.001769 0.009740
# 5 0.013757 -0.003074 0.013872 -0.001769 0.056847 -0.006144
# 6 0.007884 -0.001754 0.007373 0.009740 -0.006144 0.038336
#
#
# Mechanical properties :
#
#
# Convention : Reuss Voigt Hill
#
# Bulk Modulus (GPa) = 17.15046 30.35842 23.75444
# Shear Modulus (GPa) = 23.33292 30.80770 27.07031
#
# Velocity S-wave (km/s) = 3.42930 3.94049 3.69375
# Velocity P-wave (km/s) = 4.93196 6.00036 5.49220
#
# Compressibility (1/GPa) = 0.05830748
#
# Stress axis : x y z
#
# Youngs Moduli (GPa) = 37.03963 88.13803 44.63935
#
# Poissons Ratio (x) = 0.45897 -0.34808
# Poissons Ratio (y) = 0.19288 0.17005
# Poissons Ratio (z) = -0.28882 0.33575
#
# Static dielectric constant tensor:
#      x y z
#    x 1.711620 0.003470 -0.029940 
#    y 0.003470 1.736770 0.032240 
#    z -0.029940 0.032240 1.728150 
# 
# From -- ./inp_files/256255.got.cif
#   From: 2010.05.17/outbox.cif.g08.bks.cpg/sg2_129_cif.got.tgz:256255.got - 2010.06.03 11:33:40.
