data_PCOD9088672
_publ_section_title
;
Structure prediction by ZEFSAII (Michael W. Deem and Ramdas Pophale) SiO2 
 PCOD9088672
Probable space group: P -1
;
_chemical_formula_sum "Si O2"
_cell_formula_units_Z 14
_cell_length_a 11.414856
_cell_length_b 6.615432
_cell_length_c 11.410720
_cell_angle_alpha 102.422191
_cell_angle_beta 128.531572
_cell_angle_gamma 104.699228
_cell_volume 567.181760
_symmetry_space_group_name_H-M "P -1"
_symmetry_group_IT_number 2
_symmetry_cell_setting 'triclinic'
loop_
_space_group_symop_operation_xyz
x,y,z
-x,-y,-z
loop_
_atom_site_type_symbol
_atom_site_label
_atom_site_fract_x
_atom_site_fract_y
_atom_site_fract_z
Si Si1 0.723210 0.737676 0.348333
Si Si2 0.085661 0.833903 0.664297
Si Si3 0.099553 0.779136 0.119698
Si Si4 0.703238 0.368717 0.112546
Si Si5 0.575419 0.930062 0.816751
Si Si6 0.639621 0.034012 0.492574
Si Si7 0.789786 0.751733 0.018205
O O1 0.644266 0.517686 0.178199
O O2 0.881941 0.724724 0.504675
O O3 0.815384 0.989655 0.361982
O O4 0.618543 0.795474 0.387737
O O5 0.153161 0.657439 0.726378
O O6 0.140676 0.018281 0.827997
O O7 0.257707 0.909547 0.143464
O O8 0.181249 0.839439 0.309318
O O9 0.937757 0.820149 0.024176
O O10 0.000000 0.500000 0.000000
O O11 0.767099 0.535406 0.057887
O O12 0.579322 0.102812 0.945834
O O13 0.402001 0.835493 0.621522
O O14 0.614970 0.725127 0.853812
O O15 0.500000 0.000000 0.500000
#
# Coordination Sequence:
#
# PCOD9088672 Si02
#       7
#     2   2   2   2   2   2   2
#     4  10  19  37  63  90 130 160 206 258 316 365
#     4   9  19  34  62  96 124 158 206 272 304 360
#     4  11  20  38  68  90 120 167 218 259 301 368
#     4  10  20  36  62  96 119 159 213 252 313 368
#     4  10  22  39  62  89 133 164 202 258 316 373
#     4  10  23  42  63  91 132 167 200 258 318 371
#     4  10  19  37  62  91 123 164 211 258 307 363
#
# _framework density 24.683444000000001
#
# number of rings (size 3 to 8) (size 9 to 14) (size 15 to 20)
#    0.000    2.000    2.857    0.857    0.000    0.571 
#    0.000    8.571    3.143    0.000    0.000    0.000 
#    0.000    0.000    0.000    0.000    0.000    0.000 
#
# Total GULP energy -78168.584777 kJ/mol
# GULP energy per Si atom -5583.470341 kJ/mol
# Density = 2.462726 g / cm^3
# Si number density = 24.683444 Si / 1000 Ang^3
#
#
#
# Elastic Constant Matrix: (Units=GPa)
#
#
# Indices 1 2 3 4 5 6 
#
# 1 131.6414 60.0209 17.7148 0.1534 -21.6621 -13.5503
# 2 60.0209 136.1194 58.9311 -23.7571 -4.8707 -17.1210
# 3 17.7148 58.9311 88.1992 -17.2456 -15.3946 -21.4286
# 4 0.1534 -23.7571 -17.2456 38.8431 -10.0327 -8.5640
# 5 -21.6621 -4.8707 -15.3946 -10.0327 26.8991 4.0785
# 6 -13.5503 -17.1210 -21.4286 -8.5640 4.0785 39.4621
#
#
#
# Elastic Compliance Matrix: (Units=1/GPa)
#
#
# Indices 1 2 3 4 5 6 
#
# 1 0.012073 -0.006300 0.005099 0.002164 0.011787 0.003433
# 2 -0.006300 0.014303 -0.008417 0.003666 -0.006068 0.000895
# 3 0.005099 -0.008417 0.025437 0.014263 0.020506 0.012888
# 4 0.002164 0.003666 0.014263 0.044438 0.024538 0.017187
# 5 0.011787 -0.006068 0.020506 0.024538 0.064761 0.011181
# 6 0.003433 0.000895 0.012888 0.017187 0.011181 0.036480
#
#
# Mechanical properties :
#
#
# Convention : Reuss Voigt Hill
#
# Bulk Modulus (GPa) = 30.69554 69.92153 50.30853
# Shear Modulus (GPa) = 21.96958 35.66040 28.81499
#
# Velocity S-wave (km/s) = 2.98661 3.80506 3.42040
# Velocity P-wave (km/s) = 4.93516 6.90604 6.00205
#
# Compressibility (1/GPa) = 0.03257803
#
# Stress axis : x y z
#
# Youngs Moduli (GPa) = 82.83032 69.91330 39.31325
#
# Poissons Ratio (x) = 0.44043 -0.20045
# Poissons Ratio (y) = 0.52180 0.33088
# Poissons Ratio (z) = -0.42233 0.58843
#
# Static dielectric constant tensor:
#      x y z
#    x 1.961750 0.053890 0.008450 
#    y 0.053890 1.956720 -0.034340 
#    z 0.008450 -0.034340 1.979850 
# 
# From -- ./inp_files/410941.got.cif
#   From: 2010.05.17/outbox.cif.g08.bks.cpg/sg2_206_cif.got.tgz:410941.got - 2010.06.03 11:33:40.
