data_PCOD9088704
_publ_section_title
;
Structure prediction by ZEFSAII (Michael W. Deem and Ramdas Pophale) SiO2 
 PCOD9088704
Probable space group: P -1
;
_chemical_formula_sum "Si O2"
_cell_formula_units_Z 16
_cell_length_a 10.742370
_cell_length_b 16.081844
_cell_length_c 13.242967
_cell_angle_alpha 130.961938
_cell_angle_beta 32.854527
_cell_angle_gamma 147.994124
_cell_volume 644.858896
_symmetry_space_group_name_H-M "P -1"
_symmetry_group_IT_number 2
_symmetry_cell_setting 'triclinic'
loop_
_space_group_symop_operation_xyz
x,y,z
-x,-y,-z
loop_
_atom_site_type_symbol
_atom_site_label
_atom_site_fract_x
_atom_site_fract_y
_atom_site_fract_z
Si Si1 0.474367 0.872547 0.862006
Si Si2 0.669564 0.331996 0.350350
Si Si3 0.028819 0.849993 0.412361
Si Si4 0.152110 0.242489 0.151041
Si Si5 0.243304 0.505981 0.404618
Si Si6 0.455347 0.089164 0.481055
Si Si7 0.788275 0.796409 0.144015
Si Si8 0.536901 0.851958 0.019563
O O1 0.197463 0.709444 0.855842
O O2 0.520988 0.815236 0.884035
O O3 0.767988 0.997542 0.681038
O O4 0.500000 0.000000 0.000000
O O5 0.836465 0.491645 0.423130
O O6 0.595005 0.224800 0.410691
O O7 0.349405 0.271503 0.462744
O O8 0.143987 0.925159 0.506036
O O9 0.188249 0.785351 0.234510
O O10 0.211488 0.372126 0.279353
O O11 0.328894 0.200493 0.047434
O O12 0.747835 0.103774 0.311689
O O13 0.280131 0.283829 0.980556
O O14 0.622594 0.671065 0.247842
O O15 0.000000 0.500000 0.500000
O O16 0.359575 0.132553 0.675856
O O17 0.182577 0.953983 0.006064
#
# Coordination Sequence:
#
# PCOD9088704 Si02
#       8
#     2   2   2   2   2   2   2   2
#     4   9  18  33  59  91 124 165 210 264 318 371
#     4  10  19  38  63  91 125 169 221 267 314 382
#     4  10  19  37  62  94 131 164 214 272 320 387
#     4  12  24  43  63  98 140 165 216 274 320 393
#     4  11  23  45  66  92 130 176 222 259 317 403
#     4  10  20  38  65  95 128 162 218 271 325 371
#     4  11  22  40  66  93 129 176 210 262 332 377
#     4  11  23  39  63 103 134 163 215 275 332 378
#
# _framework density 24.811629
#
# number of rings (size 3 to 8) (size 9 to 14) (size 15 to 20)
#    0.000    1.500    3.750    4.500    0.000    0.500 
#    2.250    1.250    0.000    0.000    0.000    0.000 
#    0.000    0.000    0.000    0.000    0.000    0.000 
#
# Total GULP energy -89212.146444 kJ/mol
# GULP energy per Si atom -5575.759153 kJ/mol
# Density = 2.475516 g / cm^3
# Si number density = 24.811629 Si / 1000 Ang^3
#
#
#
# Elastic Constant Matrix: (Units=GPa)
#
#
# Indices 1 2 3 4 5 6 
#
# 1 79.2183 32.0632 45.0676 22.3123 -17.2027 15.7376
# 2 32.0632 53.4510 25.6602 33.2052 14.6155 23.7011
# 3 45.0676 25.6602 160.8454 35.6319 -14.5119 18.2841
# 4 22.3123 33.2052 35.6319 40.3609 21.7419 18.8408
# 5 -17.2027 14.6155 -14.5119 21.7419 49.6721 7.3137
# 6 15.7376 23.7011 18.2841 18.8408 7.3137 27.2601
#
#
#
# Elastic Compliance Matrix: (Units=1/GPa)
#
#
# Indices 1 2 3 4 5 6 
#
# 1 0.025325 -0.011274 -0.000592 -0.014167 0.018038 0.000531
# 2 -0.011274 0.050477 0.003090 -0.027071 -0.003072 -0.019916
# 3 -0.000592 0.003090 0.010248 -0.015678 0.008854 -0.000758
# 4 -0.014167 -0.027071 -0.015678 0.098241 -0.042418 -0.014287
# 5 0.018038 -0.003072 0.008854 -0.042418 0.048032 0.002750
# 6 0.000531 -0.019916 -0.000758 -0.014287 0.002750 0.063338
#
#
# Mechanical properties :
#
#
# Convention : Reuss Voigt Hill
#
# Bulk Modulus (GPa) = 14.59891 55.45516 35.02704
# Shear Modulus (GPa) = 14.87900 36.17354 25.52627
#
# Velocity S-wave (km/s) = 2.45149 3.82242 3.21098
# Velocity P-wave (km/s) = 3.72958 6.47149 5.28157
#
# Compressibility (1/GPa) = 0.06849827
#
# Stress axis : x y z
#
# Youngs Moduli (GPa) = 39.48691 19.81120 97.57862
#
# Poissons Ratio (x) = 0.22335 0.05774
# Poissons Ratio (y) = 0.44517 -0.30152
# Poissons Ratio (z) = 0.02337 -0.06122
#
# Static dielectric constant tensor:
#      x y z
#    x 2.019660 0.018310 -0.027970 
#    y 0.018310 2.104970 0.015420 
#    z -0.027970 0.015420 2.115490 
# 
# From -- ./inp_files/523787.got.cif
#   From: 2010.05.17/outbox.cif.g08.bks.cpg/sg2_262_cif.got.tgz:523787.got - 2010.06.03 11:33:40.
