data_PCOD9088202
_publ_section_title
;
Structure prediction by ZEFSAII (Michael W. Deem and Ramdas Pophale) SiO2 
 PCOD9088202
Probable space group: P -1
;
_chemical_formula_sum "Si O2"
_cell_formula_units_Z 14
_cell_length_a 5.705948
_cell_length_b 21.098583
_cell_length_c 13.163592
_cell_angle_alpha 157.082598
_cell_angle_beta 114.036846
_cell_angle_gamma 65.717123
_cell_volume 560.681332
_symmetry_space_group_name_H-M "P -1"
_symmetry_group_IT_number 2
_symmetry_cell_setting 'triclinic'
loop_
_space_group_symop_operation_xyz
x,y,z
-x,-y,-z
loop_
_atom_site_type_symbol
_atom_site_label
_atom_site_fract_x
_atom_site_fract_y
_atom_site_fract_z
Si Si1 0.716968 0.088592 0.608042
Si Si2 0.758021 0.491641 0.627888
Si Si3 0.970542 0.414754 0.760641
Si Si4 0.971209 0.120915 0.075464
Si Si5 0.248202 0.581314 0.776178
Si Si6 0.471637 0.238629 0.391438
Si Si7 0.623068 0.880807 0.599819
O O1 0.588594 0.124213 0.528893
O O2 0.500000 0.000000 0.500000
O O3 0.735035 0.250566 0.915504
O O4 0.000000 0.000000 0.500000
O O5 0.882450 0.528175 0.816032
O O6 0.805849 0.294020 0.329636
O O7 0.458413 0.558247 0.687533
O O8 0.941592 0.569050 0.693624
O O9 0.764345 0.281621 0.517454
O O10 0.235071 0.301040 0.629785
O O11 0.000000 0.500000 0.000000
O O12 0.258371 0.169380 0.176295
O O13 0.814636 0.020212 0.820010
O O14 0.000000 0.000000 0.000000
O O15 0.346828 0.428670 0.641070
O O16 0.478155 0.102940 0.280504
#
# Coordination Sequence:
#
# PCOD9088202 Si02
#       7
#     2   2   2   2   2   2   2
#     4  12  29  48  65  91 128 176 227 276 320 370
#     4  10  19  37  59  99 130 167 195 257 324 393
#     4  11  21  31  56  96 136 165 208 247 326 399
#     4   9  17  38  57  97 139 166 202 252 334 409
#     4  10  20  40  67  88 130 162 210 265 326 383
#     4   9  20  35  62 101 125 166 194 267 332 391
#     4  11  22  40  64  91 132 171 211 266 323 392
#
# _framework density 24.969619000000002
#
# number of rings (size 3 to 8) (size 9 to 14) (size 15 to 20)
#    0.000    1.714    4.286    2.571    4.000    1.714 
#    7.714    0.000    0.000   12.000    0.000    0.000 
#    0.000    0.000    0.000    0.000    0.000    0.000 
#
# Total GULP energy -77945.233546 kJ/mol
# GULP energy per Si atom -5567.516682 kJ/mol
# Density = 2.491279 g / cm^3
# Si number density = 24.969619 Si / 1000 Ang^3
#
#
#
# Elastic Constant Matrix: (Units=GPa)
#
#
# Indices 1 2 3 4 5 6 
#
# 1 173.7093 38.8350 69.7156 -1.4530 5.9218 -22.3738
# 2 38.8350 87.3036 13.7564 -6.2986 8.9379 -20.7067
# 3 69.7156 13.7564 154.7176 8.6155 -11.4969 -3.9416
# 4 -1.4530 -6.2986 8.6155 25.9702 -5.2385 2.5147
# 5 5.9218 8.9379 -11.4969 -5.2385 40.3057 3.0062
# 6 -22.3738 -20.7067 -3.9416 2.5147 3.0062 30.9988
#
#
#
# Elastic Compliance Matrix: (Units=1/GPa)
#
#
# Indices 1 2 3 4 5 6 
#
# 1 0.008270 -0.001797 -0.003632 0.000366 -0.002139 0.004484
# 2 -0.001797 0.014976 -0.000688 0.002177 -0.003626 0.008794
# 3 -0.003632 -0.000688 0.008459 -0.002379 0.002946 -0.002098
# 4 0.000366 0.002177 -0.002379 0.040931 0.004278 -0.002320
# 5 -0.002139 -0.003626 0.002946 0.004278 0.027820 -0.006637
# 6 0.004484 0.008794 -0.002098 -0.002320 -0.006637 0.041935
#
#
# Mechanical properties :
#
#
# Convention : Reuss Voigt Hill
#
# Bulk Modulus (GPa) = 51.36010 73.37161 62.36585
# Shear Modulus (GPa) = 31.03357 39.01649 35.02503
#
# Velocity S-wave (km/s) = 3.52924 3.95721 3.74933
# Velocity P-wave (km/s) = 6.10090 7.09419 6.61621
#
# Compressibility (1/GPa) = 0.01947037
#
# Stress axis : x y z
#
# Youngs Moduli (GPa) = 120.92519 66.77167 118.21843
#
# Poissons Ratio (x) = 0.12001 0.42932
# Poissons Ratio (y) = 0.21735 0.08138
# Poissons Ratio (z) = 0.43915 0.04596
#
# Static dielectric constant tensor:
#      x y z
#    x 2.154350 -0.074140 0.169590 
#    y -0.074140 1.925390 0.029060 
#    z 0.169590 0.029060 1.884240 
# 
# From -- ./inp_files/486044.got.cif
#   From: 2010.05.17/outbox.cif.g08.bks.cpg/sg2_244_cif.got.tgz:486044.got - 2010.06.03 11:33:40.
