data_PCOD9088156
_publ_section_title
;
Structure prediction by ZEFSAII (Michael W. Deem and Ramdas Pophale) SiO2 
 PCOD9088156
Probable space group: P -1
;
_chemical_formula_sum "Si O2"
_cell_formula_units_Z 14
_cell_length_a 13.096019
_cell_length_b 7.246784
_cell_length_c 8.821467
_cell_angle_alpha 53.072238
_cell_angle_beta 110.690401
_cell_angle_gamma 126.635014
_cell_volume 537.021249
_symmetry_space_group_name_H-M "P -1"
_symmetry_group_IT_number 2
_symmetry_cell_setting 'triclinic'
loop_
_space_group_symop_operation_xyz
x,y,z
-x,-y,-z
loop_
_atom_site_type_symbol
_atom_site_label
_atom_site_fract_x
_atom_site_fract_y
_atom_site_fract_z
Si Si1 0.881201 0.628124 0.462926
Si Si2 0.358469 0.547372 0.102262
Si Si3 0.421528 0.148219 0.355503
Si Si4 0.881902 0.140058 0.206134
Si Si5 0.266505 0.804918 0.164877
Si Si6 0.733781 0.252896 0.299768
Si Si7 0.071562 0.083651 0.158418
O O1 0.849261 0.418104 0.682369
O O2 0.784770 0.470022 0.353264
O O3 0.855776 0.857547 0.398994
O O4 0.018399 0.808602 0.364589
O O5 0.339800 0.680325 0.176641
O O6 0.221242 0.273974 0.134746
O O7 0.463140 0.460516 0.215215
O O8 0.364418 0.723741 0.874166
O O9 0.355382 0.025704 0.221970
O O10 0.328046 0.031997 0.509244
O O11 0.500000 0.000000 0.500000
O O12 0.850715 0.296528 0.236027
O O13 0.017304 0.244520 0.145390
O O14 0.786945 0.086477 0.044899
O O15 0.000000 0.000000 0.000000
#
# Coordination Sequence:
#
# PCOD9088156 Si02
#       7
#     2   2   2   2   2   2   2
#     4   9  19  36  54  85 127 156 191 228 278 345
#     4  11  22  41  59  88 126 146 202 241 280 354
#     4  11  25  44  62  84 114 151 203 257 300 340
#     4   9  20  37  58  87 125 155 190 230 281 352
#     4  10  21  38  62  88 113 160 193 239 295 345
#     4  10  20  39  63  86 115 161 190 236 299 347
#     4  10  19  37  59  87 129 163 180 235 280 345
#
# _framework density 26.069732999999999
#
# number of rings (size 3 to 8) (size 9 to 14) (size 15 to 20)
#    0.857    1.143    1.429    2.571    0.000    4.000 
#    5.143    5.000    0.000    0.000    0.000    0.000 
#    0.000    0.000    0.000    0.000    0.000    0.000 
#
# Total GULP energy -78309.607108 kJ/mol
# GULP energy per Si atom -5593.543365 kJ/mol
# Density = 2.601040 g / cm^3
# Si number density = 26.069733 Si / 1000 Ang^3
#
#
#
# Elastic Constant Matrix: (Units=GPa)
#
#
# Indices 1 2 3 4 5 6 
#
# 1 95.7636 33.8288 28.7209 14.0648 13.4081 -26.8189
# 2 33.8288 43.1878 12.5233 7.7634 -4.7974 -29.9599
# 3 28.7209 12.5233 108.4583 5.3810 -2.1312 -8.4595
# 4 14.0648 7.7634 5.3810 31.2455 -5.2934 -12.4263
# 5 13.4081 -4.7974 -2.1312 -5.2934 39.0850 -11.8558
# 6 -26.8189 -29.9599 -8.4595 -12.4263 -11.8558 36.4759
#
#
#
# Elastic Compliance Matrix: (Units=1/GPa)
#
#
# Indices 1 2 3 4 5 6 
#
# 1 0.020177 -0.026988 -0.003371 -0.011829 -0.017421 -0.017806
# 2 -0.026988 0.128455 0.001129 0.039673 0.067255 0.121303
# 3 -0.003371 0.001129 0.010142 0.000639 0.002489 0.001827
# 4 -0.011829 0.039673 0.000639 0.053867 0.032300 0.052886
# 5 -0.017421 0.067255 0.002489 0.032300 0.067351 0.075904
# 6 -0.017806 0.121303 0.001827 0.052886 0.075904 0.157069
#
#
# Mechanical properties :
#
#
# Convention : Reuss Voigt Hill
#
# Bulk Modulus (GPa) = 9.96870 44.17287 27.07078
# Shear Modulus (GPa) = 9.45252 32.85037 21.15145
#
# Velocity S-wave (km/s) = 1.90623 3.55363 2.85150
# Velocity P-wave (km/s) = 2.94570 5.81538 4.60954
#
# Compressibility (1/GPa) = 0.10031402
#
# Stress axis : x y z
#
# Youngs Moduli (GPa) = 49.56150 7.78482 98.59758
#
# Poissons Ratio (x) = 0.21010 0.33238
# Poissons Ratio (y) = 1.33756 -0.11131
# Poissons Ratio (z) = 0.16708 -0.00879
#
# Static dielectric constant tensor:
#      x y z
#    x 2.136180 0.028110 0.028780 
#    y 0.028110 2.022090 -0.051580 
#    z 0.028780 -0.051580 2.033780 
# 
# From -- ./inp_files/227066.got.cif
#   From: 2010.05.17/outbox.cif.g08.bks.cpg/sg2_114_cif.got.tgz:227066.got - 2010.06.03 11:33:40.
