data_PCOD9088749
_publ_section_title
;
Structure prediction by ZEFSAII (Michael W. Deem and Ramdas Pophale) SiO2 
 PCOD9088749
Probable space group: P -1
;
_chemical_formula_sum "Si O2"
_cell_formula_units_Z 14
_cell_length_a 8.974814
_cell_length_b 11.287646
_cell_length_c 20.423604
_cell_angle_alpha 45.019194
_cell_angle_beta 149.694870
_cell_angle_gamma 133.267036
_cell_volume 721.945473
_symmetry_space_group_name_H-M "P -1"
_symmetry_group_IT_number 2
_symmetry_cell_setting 'triclinic'
loop_
_space_group_symop_operation_xyz
x,y,z
-x,-y,-z
loop_
_atom_site_type_symbol
_atom_site_label
_atom_site_fract_x
_atom_site_fract_y
_atom_site_fract_z
Si Si1 0.689393 0.092989 0.693841
Si Si2 0.620841 0.664750 0.436988
Si Si3 0.329155 0.713721 0.667358
Si Si4 0.732090 0.175479 0.535291
Si Si5 0.566060 0.767061 0.235282
Si Si6 0.651904 0.417486 0.911980
Si Si7 0.623463 0.926474 0.009149
O O1 0.504250 0.176441 0.643355
O O2 0.699936 0.208021 0.586849
O O3 0.032338 0.091858 0.844616
O O4 0.524307 0.898849 0.689491
O O5 0.500000 0.500000 0.500000
O O6 0.515778 0.653009 0.325933
O O7 0.983922 0.700073 0.561840
O O8 0.329190 0.697577 0.594068
O O9 0.474478 0.562601 0.808446
O O10 0.075063 0.157083 0.662409
O O11 0.500000 0.000000 0.500000
O O12 0.471479 0.662607 0.173693
O O13 0.408691 0.930865 0.112009
O O14 0.585813 0.262866 0.999700
O O15 0.000000 0.500000 0.000000
O O16 0.500000 0.000000 0.000000
#
# Coordination Sequence:
#
# PCOD9088749 Si02
#       7
#     2   2   2   2   2   2   2
#     4  11  20  39  62  88 119 164 201 248 303 366
#     4  11  25  39  60  88 128 162 199 248 311 364
#     4  10  22  38  59  89 123 155 206 252 301 355
#     4   9  19  33  62  88 114 152 205 249 296 348
#     4  10  22  40  60  91 121 161 204 248 304 361
#     4  11  22  36  64  95 120 155 205 260 298 352
#     4  10  19  37  63  84 120 154 205 249 298 348
#
# _framework density 19.392045
#
# number of rings (size 3 to 8) (size 9 to 14) (size 15 to 20)
#    0.000    1.714    2.857    3.000    4.000    1.714 
#    0.000    1.429    0.000    3.429    0.000    0.000 
#    0.000    0.000    0.000    0.000    0.000    0.000 
#
# Total GULP energy -78094.620844 kJ/mol
# GULP energy per Si atom -5578.187203 kJ/mol
# Density = 1.934791 g / cm^3
# Si number density = 19.392045 Si / 1000 Ang^3
#
#
#
# Elastic Constant Matrix: (Units=GPa)
#
#
# Indices 1 2 3 4 5 6 
#
# 1 62.7695 20.4595 16.2614 -2.5086 6.6203 5.2499
# 2 20.4595 97.7300 47.6282 -3.2748 7.7091 16.1166
# 3 16.2614 47.6282 73.8513 0.4179 15.3826 7.1723
# 4 -2.5086 -3.2748 0.4179 37.6323 3.0445 5.6469
# 5 6.6203 7.7091 15.3826 3.0445 35.3647 -4.5355
# 6 5.2499 16.1166 7.1723 5.6469 -4.5355 30.2734
#
#
#
# Elastic Compliance Matrix: (Units=1/GPa)
#
#
# Indices 1 2 3 4 5 6 
#
# 1 0.017607 -0.002262 -0.001711 0.001509 -0.002457 -0.002093
# 2 -0.002262 0.016516 -0.009505 0.002391 -0.000096 -0.006609
# 3 -0.001711 -0.009505 0.021588 -0.000503 -0.007047 -0.000720
# 4 0.001509 0.002391 -0.000503 0.028301 -0.003956 -0.007287
# 5 -0.002457 -0.000096 -0.007047 -0.003956 0.033171 0.007854
# 6 -0.002093 -0.006609 -0.000720 -0.007287 0.007854 0.039620
#
#
# Mechanical properties :
#
#
# Convention : Reuss Voigt Hill
#
# Bulk Modulus (GPa) = 34.77911 44.78322 39.78117
# Shear Modulus (GPa) = 25.86087 30.65419 28.25753
#
# Velocity S-wave (km/s) = 3.65578 3.98019 3.82143
# Velocity P-wave (km/s) = 5.98275 6.65329 6.32691
#
# Compressibility (1/GPa) = 0.02875289
#
# Stress axis : x y z
#
# Youngs Moduli (GPa) = 56.79716 60.54911 46.32224
#
# Poissons Ratio (x) = 0.13699 0.07927
# Poissons Ratio (y) = 0.12850 0.44028
# Poissons Ratio (z) = 0.09720 0.57551
#
# Static dielectric constant tensor:
#      x y z
#    x 1.681920 0.009700 -0.036480 
#    y 0.009700 1.685530 -0.026120 
#    z -0.036480 -0.026120 1.684600 
# 
# From -- ./inp_files/177667.got.cif
#   From: 2010.05.17/outbox.cif.g08.bks.cpg/sg2_89_cif.got.tgz:177667.got - 2010.06.03 11:33:40.
