data_PCOD9088177
_publ_section_title
;
Structure prediction by ZEFSAII (Michael W. Deem and Ramdas Pophale) SiO2 
 PCOD9088177
Probable space group: P -1
;
_chemical_formula_sum "Si O2"
_cell_formula_units_Z 14
_cell_length_a 10.837726
_cell_length_b 5.532857
_cell_length_c 15.320256
_cell_angle_alpha 61.731681
_cell_angle_beta 123.309699
_cell_angle_gamma 97.015282
_cell_volume 664.192645
_symmetry_space_group_name_H-M "P -1"
_symmetry_group_IT_number 2
_symmetry_cell_setting 'triclinic'
loop_
_space_group_symop_operation_xyz
x,y,z
-x,-y,-z
loop_
_atom_site_type_symbol
_atom_site_label
_atom_site_fract_x
_atom_site_fract_y
_atom_site_fract_z
Si Si1 0.963318 0.935038 0.636429
Si Si2 0.441905 0.166025 0.120930
Si Si3 0.859516 0.561534 0.523723
Si Si4 0.663362 0.638759 0.275550
Si Si5 0.677922 0.699399 0.586411
Si Si6 0.267521 0.545534 0.849852
Si Si7 0.514248 0.799581 0.671190
O O1 0.951301 0.775758 0.566974
O O2 0.812343 0.864647 0.634593
O O3 0.117532 0.773453 0.765739
O O4 0.948266 0.267351 0.574110
O O5 0.588345 0.307317 0.134674
O O6 0.409967 0.181346 0.209084
O O7 0.503854 0.847869 0.170932
O O8 0.309767 0.331274 0.982171
O O9 0.753691 0.717587 0.380078
O O10 0.756908 0.492021 0.577689
O O11 0.743087 0.619611 0.216729
O O12 0.630405 0.336653 0.340562
O O13 0.610727 0.617204 0.664579
O O14 0.546818 0.902582 0.447720
#
# Coordination Sequence:
#
# PCOD9088177 Si02
#       7
#     2   2   2   2   2   2   2
#     4  10  22  41  57  90 124 159 193 245 298 362
#     4  10  21  40  58  87 111 163 202 247 290 355
#     4  10  21  38  59  90 123 149 198 237 312 349
#     4  11  20  36  59  89 117 153 200 250 295 353
#     4   9  20  36  60  89 123 153 192 246 304 357
#     4  10  24  38  59  79 123 158 207 239 296 347
#     4  10  19  37  59  90 121 151 198 246 300 351
#
# _framework density 21.078220999999999
#
# number of rings (size 3 to 8) (size 9 to 14) (size 15 to 20)
#    0.857    1.143    2.857    0.429    4.000    2.857 
#    0.000    0.714    0.000    1.714    0.000    0.000 
#    0.000    0.000    0.000    0.000    0.000    0.000 
#
# Total GULP energy -78091.005746 kJ/mol
# GULP energy per Si atom -5577.928982 kJ/mol
# Density = 2.103025 g / cm^3
# Si number density = 21.078221 Si / 1000 Ang^3
#
#
#
# Elastic Constant Matrix: (Units=GPa)
#
#
# Indices 1 2 3 4 5 6 
#
# 1 68.6399 11.8739 44.7073 9.2194 -9.1724 -21.6566
# 2 11.8739 84.4507 42.0126 -4.3039 3.9695 -21.5358
# 3 44.7073 42.0126 135.0559 -5.6429 -0.6171 -21.3290
# 4 9.2194 -4.3039 -5.6429 24.8247 -8.0800 1.7721
# 5 -9.1724 3.9695 -0.6171 -8.0800 31.3155 5.8436
# 6 -21.6566 -21.5358 -21.3290 1.7721 5.8436 32.3982
#
#
#
# Elastic Compliance Matrix: (Units=1/GPa)
#
#
# Indices 1 2 3 4 5 6 
#
# 1 0.025078 0.003245 -0.007500 -0.011075 0.001249 0.014364
# 2 0.003245 0.016534 -0.004572 -0.001328 -0.003607 0.010873
# 3 -0.007500 -0.004572 0.011374 0.004619 -0.000050 -0.000808
# 4 -0.011075 -0.001328 0.004619 0.049754 0.011735 -0.010083
# 5 0.001249 -0.003607 -0.000050 0.011735 0.037461 -0.008995
# 6 0.014364 0.010873 -0.000808 -0.010083 -0.008995 0.049337
#
#
# Mechanical properties :
#
#
# Convention : Reuss Voigt Hill
#
# Bulk Modulus (GPa) = 28.30254 53.92603 41.11428
# Shear Modulus (GPa) = 22.83401 30.34453 26.58927
#
# Velocity S-wave (km/s) = 3.29492 3.79834 3.55555
# Velocity P-wave (km/s) = 5.28506 6.69894 6.03356
#
# Compressibility (1/GPa) = 0.03533252
#
# Stress axis : x y z
#
# Youngs Moduli (GPa) = 39.87483 60.48079 87.91623
#
# Poissons Ratio (x) = -0.19624 0.65934
# Poissons Ratio (y) = -0.12938 0.40198
# Poissons Ratio (z) = 0.29905 0.27654
#
# Static dielectric constant tensor:
#      x y z
#    x 1.816150 0.011000 -0.005880 
#    y 0.011000 1.845120 0.005510 
#    z -0.005880 0.005510 1.732620 
# 
# From -- ./inp_files/74089.got.cif
#   From: 2010.05.17/outbox.cif.g08.bks.cpg/sg2_38_cif.got.tgz:74089.got - 2010.06.03 11:33:40.
