data_PCOD9088993
_publ_section_title
;
Structure prediction by ZEFSAII (Michael W. Deem and Ramdas Pophale) SiO2 
 PCOD9088993
Probable space group: P -1
;
_chemical_formula_sum "Si O2"
_cell_formula_units_Z 16
_cell_length_a 16.264317
_cell_length_b 11.814506
_cell_length_c 14.998967
_cell_angle_alpha 30.101235
_cell_angle_beta 34.366626
_cell_angle_gamma 53.246684
_cell_volume 744.629423
_symmetry_space_group_name_H-M "P -1"
_symmetry_group_IT_number 2
_symmetry_cell_setting 'triclinic'
loop_
_space_group_symop_operation_xyz
x,y,z
-x,-y,-z
loop_
_atom_site_type_symbol
_atom_site_label
_atom_site_fract_x
_atom_site_fract_y
_atom_site_fract_z
Si Si1 0.735064 0.645111 0.607099
Si Si2 0.700511 0.431529 0.169230
Si Si3 0.637698 0.856390 0.402139
Si Si4 0.904492 0.945714 0.713987
Si Si5 0.052730 0.727752 0.864582
Si Si6 0.233930 0.561372 0.098960
Si Si7 0.137660 0.712299 0.352523
Si Si8 0.913159 0.926286 0.985503
O O1 0.612689 0.726689 0.609189
O O2 0.704176 0.563072 0.793387
O O3 0.756082 0.426121 0.682059
O O4 0.905598 0.882453 0.290004
O O5 0.512152 0.285515 0.429677
O O6 0.783284 0.254577 0.251883
O O7 0.763896 0.674100 0.009675
O O8 0.759065 0.511095 0.960714
O O9 0.796041 0.841799 0.230105
O O10 0.676286 0.143096 0.180518
O O11 0.030599 0.938208 0.681632
O O12 0.838857 0.142733 0.673533
O O13 0.000000 0.000000 0.500000
O O14 0.931151 0.700389 0.072563
O O15 0.000000 0.500000 0.000000
O O16 0.047551 0.484105 0.345260
O O17 0.156215 0.922359 0.119575
#
# Coordination Sequence:
#
# PCOD9088993 Si02
#       8
#     2   2   2   2   2   2   2   2
#     4  11  22  37  64  94 120 172 212 248 309 361
#     4  11  24  41  59  96 128 162 204 260 319 365
#     4  12  24  38  60  98 133 160 203 255 323 374
#     4  10  20  40  66  87 118 161 214 258 297 372
#     4   9  21  39  63  89 115 163 214 247 304 369
#     4  11  21  40  62  89 131 161 205 264 299 369
#     4  10  19  38  65  90 116 159 223 254 295 360
#     4  10  19  37  64  91 124 161 211 257 297 377
#
# _framework density 21.487200000000001
#
# number of rings (size 3 to 8) (size 9 to 14) (size 15 to 20)
#    0.000    1.500    3.750    2.250    1.750    0.500 
#    2.250    6.250    0.000    0.000    0.000    0.000 
#    0.000    0.000    0.000    0.000    0.000    0.000 
#
# Total GULP energy -89353.396266 kJ/mol
# GULP energy per Si atom -5584.587267 kJ/mol
# Density = 2.143829 g / cm^3
# Si number density = 21.487200 Si / 1000 Ang^3
#
#
#
# Elastic Constant Matrix: (Units=GPa)
#
#
# Indices 1 2 3 4 5 6 
#
# 1 127.5095 29.3535 37.9274 -4.2453 3.8563 1.7254
# 2 29.3535 95.1126 19.0275 -14.1032 -1.9050 19.7137
# 3 37.9274 19.0275 67.2733 -11.3934 -4.3477 0.1580
# 4 -4.2453 -14.1032 -11.3934 26.7064 10.1233 0.0919
# 5 3.8563 -1.9050 -4.3477 10.1233 27.7124 0.7250
# 6 1.7254 19.7137 0.1580 0.0919 0.7250 30.6834
#
#
#
# Elastic Compliance Matrix: (Units=1/GPa)
#
#
# Indices 1 2 3 4 5 6 
#
# 1 0.009983 -0.002479 -0.005264 -0.001226 -0.001966 0.001108
# 2 -0.002479 0.014524 -0.001565 0.007118 -0.001262 -0.009175
# 3 -0.005264 -0.001565 0.019392 0.006067 0.001421 0.001150
# 4 -0.001226 0.007118 0.006067 0.049862 -0.016490 -0.004295
# 5 -0.001966 -0.001262 0.001421 -0.016490 0.042520 -0.000041
# 6 0.001108 -0.009175 0.001150 -0.004295 -0.000041 0.038432
#
#
# Mechanical properties :
#
#
# Convention : Reuss Voigt Hill
#
# Bulk Modulus (GPa) = 39.55305 51.39024 45.47164
# Shear Modulus (GPa) = 24.78247 30.59291 27.68769
#
# Velocity S-wave (km/s) = 3.39980 3.77739 3.59356
# Velocity P-wave (km/s) = 5.81887 6.55694 6.19890
#
# Compressibility (1/GPa) = 0.02528250
#
# Stress axis : x y z
#
# Youngs Moduli (GPa) = 100.17358 68.85222 51.56776
#
# Poissons Ratio (x) = 0.17066 0.27147
# Poissons Ratio (y) = 0.24830 0.08070
# Poissons Ratio (z) = 0.52735 0.10775
#
# Static dielectric constant tensor:
#      x y z
#    x 1.836030 0.009820 0.033560 
#    y 0.009820 1.827460 -0.014860 
#    z 0.033560 -0.014860 1.789870 
# 
# From -- ./inp_files/398100.got.cif
#   From: 2010.05.17/outbox.cif.g08.bks.cpg/sg2_200_cif.got.tgz:398100.got - 2010.06.03 11:33:40.
