data_PCOD9088833
_publ_section_title
;
Structure prediction by ZEFSAII (Michael W. Deem and Ramdas Pophale) SiO2 
 PCOD9088833
Probable space group: P -1
;
_chemical_formula_sum "Si O2"
_cell_formula_units_Z 16
_cell_length_a 7.950205
_cell_length_b 8.901350
_cell_length_c 16.201020
_cell_angle_alpha 101.052380
_cell_angle_beta 45.629356
_cell_angle_gamma 111.430032
_cell_volume 759.383965
_symmetry_space_group_name_H-M "P -1"
_symmetry_group_IT_number 2
_symmetry_cell_setting 'triclinic'
loop_
_space_group_symop_operation_xyz
x,y,z
-x,-y,-z
loop_
_atom_site_type_symbol
_atom_site_label
_atom_site_fract_x
_atom_site_fract_y
_atom_site_fract_z
Si Si1 0.322621 0.678538 0.288922
Si Si2 0.905912 0.131767 0.855536
Si Si3 0.865937 0.600124 0.316481
Si Si4 0.529885 0.719743 0.568522
Si Si5 0.220811 0.048500 0.863458
Si Si6 0.515152 0.119536 0.132360
Si Si7 0.812394 0.071381 0.519967
Si Si8 0.743575 0.676859 0.669820
O O1 0.600636 0.765560 0.169563
O O2 0.280402 0.807554 0.380918
O O3 0.270134 0.505159 0.329643
O O4 0.122622 0.654230 0.283332
O O5 0.072323 0.305071 0.780809
O O6 0.085480 0.039131 0.821457
O O7 0.722842 0.022727 0.837523
O O8 0.727139 0.152182 0.993091
O O9 0.670526 0.665447 0.439354
O O10 0.747199 0.405906 0.340157
O O11 0.656448 0.689296 0.607201
O O12 0.587585 0.910677 0.556984
O O13 0.389443 0.941711 0.822732
O O14 0.000000 0.000000 0.000000
O O15 0.433863 0.271224 0.200919
O O16 0.984147 0.185978 0.403485
O O17 0.000000 0.000000 0.500000
#
# Coordination Sequence:
#
# PCOD9088833 Si02
#       8
#     2   2   2   2   2   2   2   2
#     4  12  22  39  65  95 133 176 215 268 333 385
#     4  10  21  40  70  99 127 175 218 272 329 387
#     4  11  21  39  63  98 138 168 214 281 323 388
#     4  10  22  38  65  92 132 175 216 270 332 384
#     4  10  21  40  68  95 123 173 221 265 322 390
#     4  10  21  42  69  95 133 169 219 276 326 385
#     4  10  19  37  63  90 123 175 219 264 325 391
#     4  11  22  40  64  95 130 176 223 264 331 394
#
# _framework density 21.069710000000001
#
# number of rings (size 3 to 8) (size 9 to 14) (size 15 to 20)
#    0.000    1.500    3.750    3.375    0.000    0.000 
#    4.500    8.125    0.000    0.000    0.000    0.000 
#    0.000    0.000    0.000    0.000    0.000    0.000 
#
# Total GULP energy -89325.567737 kJ/mol
# GULP energy per Si atom -5582.847984 kJ/mol
# Density = 2.102175 g / cm^3
# Si number density = 21.069710 Si / 1000 Ang^3
#
#
#
# Elastic Constant Matrix: (Units=GPa)
#
#
# Indices 1 2 3 4 5 6 
#
# 1 67.6893 37.1266 29.1302 -13.4100 -11.9014 -0.5475
# 2 37.1266 167.4100 59.9617 -15.5528 -2.3236 -6.4965
# 3 29.1302 59.9617 87.6528 -22.2775 -1.7526 -0.5745
# 4 -13.4100 -15.5528 -22.2775 34.2793 3.4719 -4.7390
# 5 -11.9014 -2.3236 -1.7526 3.4719 17.0300 -7.4172
# 6 -0.5475 -6.4965 -0.5745 -4.7390 -7.4172 25.2010
#
#
#
# Elastic Compliance Matrix: (Units=1/GPa)
#
#
# Indices 1 2 3 4 5 6 
#
# 1 0.021457 -0.002529 -0.004120 0.003676 0.015664 0.005022
# 2 -0.002529 0.008344 -0.004883 -0.000087 -0.000294 0.001882
# 3 -0.004120 -0.004883 0.018146 0.008266 -0.003549 -0.000425
# 4 0.003676 -0.000087 0.008266 0.037008 -0.001146 0.006868
# 5 0.015664 -0.000294 -0.003549 -0.001146 0.079697 0.023425
# 6 0.005022 0.001882 -0.000425 0.006868 0.023425 0.048451
#
#
# Mechanical properties :
#
#
# Convention : Reuss Voigt Hill
#
# Bulk Modulus (GPa) = 40.19082 63.90990 52.05036
# Shear Modulus (GPa) = 20.45308 28.40430 24.42869
#
# Velocity S-wave (km/s) = 3.11904 3.67565 3.40872
# Velocity P-wave (km/s) = 5.66461 6.95789 6.34429
#
# Compressibility (1/GPa) = 0.02488130
#
# Stress axis : x y z
#
# Youngs Moduli (GPa) = 46.60567 119.84529 55.10961
#
# Poissons Ratio (x) = 0.30306 0.22708
# Poissons Ratio (y) = 0.11786 0.26912
# Poissons Ratio (z) = 0.19204 0.58524
#
# Static dielectric constant tensor:
#      x y z
#    x 1.809320 0.010990 -0.040600 
#    y 0.010990 1.759390 -0.014250 
#    z -0.040600 -0.014250 1.843340 
# 
# From -- ./inp_files/557290.got.cif
#   From: 2010.05.17/outbox.cif.g08.bks.cpg/sg2_279_cif.got.tgz:557290.got - 2010.06.03 11:33:40.
