data_PCOD9088447
_publ_section_title
;
Structure prediction by ZEFSAII (Michael W. Deem and Ramdas Pophale) SiO2 
 PCOD9088447
Probable space group: P -1
;
_chemical_formula_sum "Si O2"
_cell_formula_units_Z 15
_cell_length_a 12.386722
_cell_length_b 13.091480
_cell_length_c 12.939433
_cell_angle_alpha 30.412065
_cell_angle_beta 128.657294
_cell_angle_gamma 144.256657
_cell_volume 600.018175
_symmetry_space_group_name_H-M "P -1"
_symmetry_group_IT_number 2
_symmetry_cell_setting 'triclinic'
loop_
_space_group_symop_operation_xyz
x,y,z
-x,-y,-z
loop_
_atom_site_type_symbol
_atom_site_label
_atom_site_fract_x
_atom_site_fract_y
_atom_site_fract_z
Si Si1 0.680177 0.925958 0.928307
Si Si2 0.687003 0.411995 0.502044
Si Si3 0.128934 0.854336 0.366422
Si Si4 0.137903 0.870070 0.922011
Si Si5 0.663200 0.329253 0.333401
Si Si6 0.500000 0.500000 0.500000
Si Si7 0.276442 0.374911 0.099736
Si Si8 0.659182 0.323444 0.787740
O O1 0.648910 0.135862 0.728160
O O2 0.799522 0.007376 0.824427
O O3 0.468252 0.626540 0.053049
O O4 0.802332 0.004752 0.034406
O O5 0.633450 0.407368 0.357141
O O6 0.610544 0.400669 0.579788
O O7 0.910041 0.677788 0.408735
O O8 0.156703 0.641293 0.575195
O O9 0.242625 0.102671 0.300601
O O10 0.921977 0.721664 0.898855
O O11 0.295516 0.142532 0.710406
O O12 0.160008 0.643404 0.131665
O O13 0.500000 0.000000 0.500000
O O14 0.686732 0.498234 0.104356
O O15 0.619507 0.487486 0.679499
O O16 0.500000 0.000000 0.000000
#
# Coordination Sequence:
#
# PCOD9088447 Si02
#       8
#     2   2   2   2   2   1   2   2
#     4  10  21  39  59  89 129 164 209 249 302 373
#     4  10  19  37  61  87 120 166 206 250 308 368
#     4  11  22  37  57  90 128 162 213 249 293 375
#     4  10  22  39  63  88 118 163 204 254 313 371
#     4  11  21  36  57  86 128 166 201 243 301 364
#     4  10  20  40  66  90 116 156 204 266 322 358
#     4  12  23  39  61  92 129 167 205 255 306 362
#     4   9  19  37  62  88 114 150 208 257 306 368
#
# _framework density 24.999241999999999
#
# number of rings (size 3 to 8) (size 9 to 14) (size 15 to 20)
#    0.000    1.600    2.667    5.200    0.000    3.200 
#    0.000    0.667    0.000   20.000    0.000    0.000 
#    0.000    0.000    0.000    0.000    0.000    0.000 
#
# Total GULP energy -83606.834442 kJ/mol
# GULP energy per Si atom -5573.788963 kJ/mol
# Density = 2.494234 g / cm^3
# Si number density = 24.999242 Si / 1000 Ang^3
#
#
#
# Elastic Constant Matrix: (Units=GPa)
#
#
# Indices 1 2 3 4 5 6 
#
# 1 138.6467 31.0603 67.5588 0.3128 -7.8516 23.2348
# 2 31.0603 71.5453 40.4336 -22.7216 -9.9357 22.6212
# 3 67.5588 40.4336 130.2198 0.6458 23.1127 14.4216
# 4 0.3128 -22.7216 0.6458 46.8990 5.7821 -1.3788
# 5 -7.8516 -9.9357 23.1127 5.7821 63.1778 9.3925
# 6 23.2348 22.6212 14.4216 -1.3788 9.3925 33.9934
#
#
#
# Elastic Compliance Matrix: (Units=1/GPa)
#
#
# Indices 1 2 3 4 5 6 
#
# 1 0.011712 0.002091 -0.006807 0.000121 0.005455 -0.008012
# 2 0.002091 0.031031 -0.010470 0.013250 0.010741 -0.020068
# 3 -0.006807 -0.010470 0.015221 -0.003932 -0.008807 0.007437
# 4 0.000121 0.013250 -0.003932 0.027348 0.002028 -0.006683
# 5 0.005455 0.010741 -0.008807 0.002028 0.023235 -0.013478
# 6 -0.008012 -0.020068 0.007437 -0.006683 -0.013478 0.048546
#
#
# Mechanical properties :
#
#
# Convention : Reuss Voigt Hill
#
# Bulk Modulus (GPa) = 36.24170 68.72414 52.48292
# Shear Modulus (GPa) = 25.42423 42.23799 33.83111
#
# Velocity S-wave (km/s) = 3.19250 4.11490 3.68269
# Velocity P-wave (km/s) = 5.30264 7.08002 6.25479
#
# Compressibility (1/GPa) = 0.02759253
#
# Stress axis : x y z
#
# Youngs Moduli (GPa) = 85.38028 32.22599 65.69898
#
# Poissons Ratio (x) = -0.06740 0.44723
# Poissons Ratio (y) = -0.17856 0.68786
# Poissons Ratio (z) = 0.58121 0.33740
#
# Static dielectric constant tensor:
#      x y z
#    x 2.133160 0.022490 0.026230 
#    y 0.022490 2.077580 0.079950 
#    z 0.026230 0.079950 2.004840 
# 
# From -- ./inp_files/534136.got.cif
#   From: 2010.05.17/outbox.cif.g08.bks.cpg/sg2_268_cif.got.tgz:534136.got - 2010.06.03 11:33:40.
