data_PCOD9088834
_publ_section_title
;
Structure prediction by ZEFSAII (Michael W. Deem and Ramdas Pophale) SiO2 
 PCOD9088834
Probable space group: P -1
;
_chemical_formula_sum "Si O2"
_cell_formula_units_Z 16
_cell_length_a 14.218778
_cell_length_b 7.971186
_cell_length_c 12.221306
_cell_angle_alpha 143.190454
_cell_angle_beta 77.926848
_cell_angle_gamma 117.455003
_cell_volume 702.334182
_symmetry_space_group_name_H-M "P -1"
_symmetry_group_IT_number 2
_symmetry_cell_setting 'triclinic'
loop_
_space_group_symop_operation_xyz
x,y,z
-x,-y,-z
loop_
_atom_site_type_symbol
_atom_site_label
_atom_site_fract_x
_atom_site_fract_y
_atom_site_fract_z
Si Si1 0.158051 0.997762 0.736984
Si Si2 0.531205 0.858425 0.812979
Si Si3 0.775107 0.961568 0.034003
Si Si4 0.260328 0.203121 0.273952
Si Si5 0.287807 0.511352 0.639942
Si Si6 0.613947 0.501855 0.995232
Si Si7 0.902522 0.453815 0.920797
Si Si8 0.085752 0.881979 0.458554
O O1 0.140966 0.857257 0.791072
O O2 0.293706 0.203907 0.797775
O O3 0.093769 0.812569 0.547705
O O4 0.122934 0.266728 0.902732
O O5 0.412678 0.581517 0.653829
O O6 0.616528 0.731341 0.747846
O O7 0.500000 0.000000 0.000000
O O8 0.583890 0.158543 0.872276
O O9 0.685134 0.614211 0.924772
O O10 0.720375 0.188077 0.153231
O O11 0.807219 0.887868 0.870529
O O12 0.203117 0.880736 0.191923
O O13 0.258501 0.462453 0.491686
O O14 0.203392 0.199283 0.565625
O O15 0.500000 0.500000 0.000000
O O16 0.930112 0.407347 0.766618
O O17 0.000000 0.500000 0.000000
O O18 0.000000 0.000000 0.500000
#
# Coordination Sequence:
#
# PCOD9088834 Si02
#       8
#     2   2   2   2   2   2   2   2
#     4  10  21  40  62  90 123 157 207 248 310 365
#     4  12  19  36  65  89 120 166 204 258 305 356
#     4  10  22  38  60  83 131 160 191 246 312 364
#     4  11  22  39  59  92 124 159 210 253 304 371
#     4  11  23  37  62  92 122 160 209 253 307 365
#     4  10  19  37  63  90 125 167 201 240 314 372
#     4  11  22  39  69  90 116 161 213 263 306 359
#     4  11  23  40  67  91 118 159 212 263 306 359
#
# _framework density 22.781178000000001
#
# number of rings (size 3 to 8) (size 9 to 14) (size 15 to 20)
#    0.750    0.500    5.000    1.875    0.000    1.000 
#    0.000    1.875    0.000    0.000    0.000    0.000 
#    0.000    0.000    0.000    0.000    0.000    0.000 
#
# Total GULP energy -89251.546372 kJ/mol
# GULP energy per Si atom -5578.221648 kJ/mol
# Density = 2.272933 g / cm^3
# Si number density = 22.781178 Si / 1000 Ang^3
#
#
#
# Elastic Constant Matrix: (Units=GPa)
#
#
# Indices 1 2 3 4 5 6 
#
# 1 63.5474 -3.0233 15.8623 -0.4803 26.6678 -0.0282
# 2 -3.0233 58.8932 14.4642 -17.4949 1.9243 3.7352
# 3 15.8623 14.4642 122.1291 -42.0074 13.0640 3.3481
# 4 -0.4803 -17.4949 -42.0074 45.0273 -5.2119 6.9109
# 5 26.6678 1.9243 13.0640 -5.2119 31.4676 -4.8950
# 6 -0.0282 3.7352 3.3481 6.9109 -4.8950 23.6693
#
#
#
# Elastic Compliance Matrix: (Units=1/GPa)
#
#
# Indices 1 2 3 4 5 6 
#
# 1 0.025533 0.001906 -0.002102 -0.002926 -0.021936 -0.003655
# 2 0.001906 0.020181 0.001170 0.009666 -0.002784 -0.006746
# 3 -0.002102 0.001170 0.013525 0.013765 -0.002663 -0.006670
# 4 -0.002926 0.009666 0.013765 0.041206 0.000606 -0.015382
# 5 -0.021936 -0.002784 -0.002663 0.000606 0.053564 0.011690
# 6 -0.003655 -0.006746 -0.006670 -0.015382 0.011690 0.051161
#
#
# Mechanical properties :
#
#
# Convention : Reuss Voigt Hill
#
# Bulk Modulus (GPa) = 16.34321 33.24179 24.79250
# Shear Modulus (GPa) = 22.35963 34.51727 28.43845
#
# Velocity S-wave (km/s) = 3.13628 3.89674 3.53701
# Velocity P-wave (km/s) = 4.50606 5.90504 5.25234
#
# Compressibility (1/GPa) = 0.06118747
#
# Stress axis : x y z
#
# Youngs Moduli (GPa) = 39.16440 49.55269 73.93731
#
# Poissons Ratio (x) = -0.09447 0.15540
# Poissons Ratio (y) = -0.07466 -0.08648
# Poissons Ratio (z) = 0.08231 -0.05796
#
# Static dielectric constant tensor:
#      x y z
#    x 1.918340 0.010010 0.107200 
#    y 0.010010 1.885140 -0.023950 
#    z 0.107200 -0.023950 1.941380 
# 
# From -- ./inp_files/448358.got.cif
#   From: 2010.05.17/outbox.cif.g08.bks.cpg/sg2_225_cif.got.tgz:448358.got - 2010.06.03 11:33:40.
