data_PCOD9088698
_publ_section_title
;
Structure prediction by ZEFSAII (Michael W. Deem and Ramdas Pophale) SiO2 
 PCOD9088698
Probable space group: P -1
;
_chemical_formula_sum "Si O2"
_cell_formula_units_Z 16
_cell_length_a 13.835413
_cell_length_b 5.059708
_cell_length_c 16.156857
_cell_angle_alpha 86.487844
_cell_angle_beta 143.413610
_cell_angle_gamma 106.834502
_cell_volume 615.474489
_symmetry_space_group_name_H-M "P -1"
_symmetry_group_IT_number 2
_symmetry_cell_setting 'triclinic'
loop_
_space_group_symop_operation_xyz
x,y,z
-x,-y,-z
loop_
_atom_site_type_symbol
_atom_site_label
_atom_site_fract_x
_atom_site_fract_y
_atom_site_fract_z
Si Si1 0.429099 0.104907 0.787690
Si Si2 0.826356 0.196484 0.229588
Si Si3 0.487923 0.356195 0.257138
Si Si4 0.756177 0.361539 0.718968
Si Si5 0.588894 0.009525 0.461595
Si Si6 0.897145 0.882134 0.682340
Si Si7 0.671963 0.602486 0.060195
Si Si8 0.070645 0.203794 0.963733
O O1 0.391523 0.319121 0.694309
O O2 0.273359 0.945184 0.750686
O O3 0.482062 0.868180 0.783146
O O4 0.597840 0.364290 0.941778
O O5 0.812870 0.502375 0.203039
O O6 0.018450 0.229347 0.332196
O O7 0.724384 0.944330 0.095802
O O8 0.541683 0.253047 0.381539
O O9 0.280490 0.303158 0.116114
O O10 0.663148 0.071004 0.606035
O O11 0.786139 0.615090 0.671223
O O12 0.948651 0.390438 0.880176
O O13 0.589838 0.284843 0.667337
O O14 0.771041 0.014147 0.551979
O O15 0.028933 0.089447 0.841271
O O16 0.500000 0.500000 0.000000
O O17 0.000000 0.000000 0.000000
#
# Coordination Sequence:
#
# PCOD9088698 Si02
#       8
#     2   2   2   2   2   2   2   2
#     4  11  23  41  63 100 140 185 226 279 340 400
#     4  11  23  40  65  99 138 183 234 276 330 407
#     4  12  26  43  71 102 144 180 225 284 353 402
#     4  10  23  46  69  93 134 179 232 278 345 415
#     4  10  24  46  67  96 131 185 232 274 342 424
#     4  11  25  41  72  98 133 187 230 281 337 416
#     4  10  19  37  62  93 135 180 220 275 336 398
#     4  11  24  43  65 107 140 167 224 295 354 402
#
# _framework density 25.996205
#
# number of rings (size 3 to 8) (size 9 to 14) (size 15 to 20)
#    0.000    1.250    1.250    5.625    8.750    1.500 
#    0.000    1.250    0.000    0.000    0.000    0.000 
#    0.000    0.000    0.000    0.000    0.000    0.000 
#
# Total GULP energy -89127.656057 kJ/mol
# GULP energy per Si atom -5570.478504 kJ/mol
# Density = 2.593704 g / cm^3
# Si number density = 25.996205 Si / 1000 Ang^3
#
#
#
# Elastic Constant Matrix: (Units=GPa)
#
#
# Indices 1 2 3 4 5 6 
#
# 1 118.7336 41.5112 59.6159 -8.6398 -4.0281 1.1528
# 2 41.5112 102.1278 56.6762 -14.6626 -1.1894 7.4424
# 3 59.6159 56.6762 130.3296 -36.7977 6.2734 -18.3500
# 4 -8.6398 -14.6626 -36.7977 30.3739 -16.8898 -11.1389
# 5 -4.0281 -1.1894 6.2734 -16.8898 38.7069 -4.1262
# 6 1.1528 7.4424 -18.3500 -11.1389 -4.1262 51.6891
#
#
#
# Elastic Compliance Matrix: (Units=1/GPa)
#
#
# Indices 1 2 3 4 5 6 
#
# 1 0.012793 -0.001149 -0.010013 -0.013700 -0.003798 -0.006930
# 2 -0.001149 0.014627 -0.009192 -0.008655 -0.002749 -0.007428
# 3 -0.010013 -0.009192 0.035675 0.058241 0.021342 0.028466
# 4 -0.013700 -0.008655 0.058241 0.151408 0.061305 0.059750
# 5 -0.003798 -0.002749 0.021342 0.061305 0.051351 0.025367
# 6 -0.006930 -0.007428 0.028466 0.059750 0.025367 0.045577
#
#
# Mechanical properties :
#
#
# Convention : Reuss Voigt Hill
#
# Bulk Modulus (GPa) = 44.67101 74.08864 59.37983
# Shear Modulus (GPa) = 13.90420 37.04649 25.47535
#
# Velocity S-wave (km/s) = 2.31520 3.77911 3.13383
# Velocity P-wave (km/s) = 4.93638 6.89956 5.99882
#
# Compressibility (1/GPa) = 0.02238588
#
# Stress axis : x y z
#
# Youngs Moduli (GPa) = 78.16698 68.36773 28.03060
#
# Poissons Ratio (x) = 0.07857 0.28067
# Poissons Ratio (y) = 0.08983 0.25767
# Poissons Ratio (z) = 0.78269 0.62846
#
# Static dielectric constant tensor:
#      x y z
#    x 2.497830 0.056000 0.118350 
#    y 0.056000 2.005880 0.090300 
#    z 0.118350 0.090300 2.276150 
# 
# From -- ./inp_files/571681.got.cif
#   From: 2010.05.17/outbox.cif.g08.bks.cpg/sg2_286_cif.got.tgz:571681.got - 2010.06.03 11:33:40.
