data_PCOD9088978
_publ_section_title
;
Structure prediction by ZEFSAII (Michael W. Deem and Ramdas Pophale) SiO2 
 PCOD9088978
Probable space group: P -1
;
_chemical_formula_sum "Si O2"
_cell_formula_units_Z 16
_cell_length_a 9.625394
_cell_length_b 19.706611
_cell_length_c 10.071146
_cell_angle_alpha 34.917636
_cell_angle_beta 106.583034
_cell_angle_gamma 125.067279
_cell_volume 821.671333
_symmetry_space_group_name_H-M "P -1"
_symmetry_group_IT_number 2
_symmetry_cell_setting 'triclinic'
loop_
_space_group_symop_operation_xyz
x,y,z
-x,-y,-z
loop_
_atom_site_type_symbol
_atom_site_label
_atom_site_fract_x
_atom_site_fract_y
_atom_site_fract_z
Si Si1 0.635490 0.971836 0.835600
Si Si2 0.321896 0.360319 0.254007
Si Si3 0.693116 0.033278 0.301133
Si Si4 0.622858 0.798599 0.882929
Si Si5 0.549469 0.830189 0.328636
Si Si6 0.083800 0.175799 0.233730
Si Si7 0.227654 0.537959 0.114715
Si Si8 0.183734 0.690117 0.607024
O O1 0.776070 0.153179 0.593725
O O2 0.448035 0.930044 0.786443
O O3 0.697928 0.896784 0.879154
O O4 0.588032 0.905166 0.076743
O O5 0.381890 0.269247 0.485456
O O6 0.167956 0.254623 0.270771
O O7 0.254268 0.424690 0.233702
O O8 0.500000 0.500000 0.000000
O O9 0.909687 0.168471 0.160651
O O10 0.637655 0.907130 0.598309
O O11 0.656453 0.956411 0.270862
O O12 0.748993 0.754046 0.937467
O O13 0.408749 0.654055 0.064836
O O14 0.335538 0.731915 0.471958
O O15 0.000000 0.000000 0.500000
O O16 0.026883 0.437892 0.287253
O O17 0.221834 0.630092 0.844486
#
# Coordination Sequence:
#
# PCOD9088978 Si02
#       8
#     2   2   2   2   2   2   2   2
#     4  11  24  38  65  89 128 161 200 254 311 356
#     4  12  20  40  65  91 120 164 204 247 304 363
#     4  10  19  37  64  90 119 155 208 254 296 350
#     4  11  20  39  57  97 119 157 208 257 296 350
#     4  11  21  43  62  90 124 165 200 249 310 368
#     4  10  20  35  64  91 119 150 212 257 289 344
#     4  11  22  35  63  91 123 152 209 255 296 357
#     4  10  21  38  60  92 118 161 203 252 300 361
#
# _framework density 19.472507
#
# number of rings (size 3 to 8) (size 9 to 14) (size 15 to 20)
#    0.000    1.250    7.500    1.875    3.500    1.000 
#    0.000    5.000    2.750    0.000    0.000    0.000 
#    0.000    0.000    0.000    0.000    0.000    0.000 
#
# Total GULP energy -89359.127912 kJ/mol
# GULP energy per Si atom -5584.945495 kJ/mol
# Density = 1.942819 g / cm^3
# Si number density = 19.472507 Si / 1000 Ang^3
#
#
#
# Elastic Constant Matrix: (Units=GPa)
#
#
# Indices 1 2 3 4 5 6 
#
# 1 53.6864 21.6553 36.8348 -8.0175 -12.1146 11.8387
# 2 21.6553 68.9621 34.0482 -7.1996 -15.2734 -2.6514
# 3 36.8348 34.0482 25.5222 -12.3022 1.7545 -0.3854
# 4 -8.0175 -7.1996 -12.3022 22.3080 -1.8911 -8.3226
# 5 -12.1146 -15.2734 1.7545 -1.8911 17.7120 -9.9383
# 6 11.8387 -2.6514 -0.3854 -8.3226 -9.9383 34.4891
#
#
#
# Elastic Compliance Matrix: (Units=1/GPa)
#
#
# Indices 1 2 3 4 5 6 
#
# 1 0.000289 -0.023003 0.035476 0.007251 -0.026507 -0.007360
# 2 -0.023003 0.010498 0.026186 0.013983 -0.001003 0.012081
# 3 0.035476 0.026186 -0.050800 -0.000351 0.054598 0.004916
# 4 0.007251 0.013983 -0.000351 0.064314 0.037971 0.025044
# 5 -0.026507 -0.001003 0.054598 0.037971 0.055654 0.034832
# 6 -0.007360 0.012081 0.004916 0.025044 0.034832 0.048585
#
#
# Mechanical properties :
#
#
# Convention : Reuss Voigt Hill
#
# Bulk Modulus (GPa) = 26.80659 37.02747 31.91703
# Shear Modulus (GPa) = 78.54509 18.61065 48.57787
#
# Velocity S-wave (km/s) = 6.35798 3.09486 5.00011
# Velocity P-wave (km/s) = 8.22769 5.64158 7.05416
#
# Compressibility (1/GPa) = 0.03730427
#
# Stress axis : x y z
#
# Youngs Moduli (GPa) = 3457.26464 95.25910 -19.68513
#
# Poissons Ratio (x) = 2.19121 0.69834
# Poissons Ratio (y) = 79.52630 0.51547
# Poissons Ratio (z) = -122.64892 -2.49441
#
# Static dielectric constant tensor:
#      x y z
#    x 1.740880 0.006840 -0.007290 
#    y 0.006840 1.672430 -0.024660 
#    z -0.007290 -0.024660 1.662100 
# 
# From -- ./inp_files/216540.got.cif
#   From: 2010.05.17/outbox.cif.g08.bks.cpg/sg2_109_cif.got.tgz:216540.got - 2010.06.03 11:33:40.
