data_PCOD9088804
_publ_section_title
;
Structure prediction by ZEFSAII (Michael W. Deem and Ramdas Pophale) SiO2 
 PCOD9088804
Probable space group: P -1
;
_chemical_formula_sum "Si O2"
_cell_formula_units_Z 16
_cell_length_a 16.441056
_cell_length_b 13.928480
_cell_length_c 9.969825
_cell_angle_alpha 60.216172
_cell_angle_beta 101.537704
_cell_angle_gamma 47.777052
_cell_volume 817.187141
_symmetry_space_group_name_H-M "P -1"
_symmetry_group_IT_number 2
_symmetry_cell_setting 'triclinic'
loop_
_space_group_symop_operation_xyz
x,y,z
-x,-y,-z
loop_
_atom_site_type_symbol
_atom_site_label
_atom_site_fract_x
_atom_site_fract_y
_atom_site_fract_z
Si Si1 0.954034 0.574859 0.207176
Si Si2 0.820728 0.473768 0.739612
Si Si3 0.430785 0.050803 0.293415
Si Si4 0.393719 0.319365 0.930634
Si Si5 0.328586 0.618123 0.850131
Si Si6 0.019660 0.806382 0.294701
Si Si7 0.959814 0.099255 0.204863
Si Si8 0.771300 0.901168 0.188106
O O1 0.836507 0.760006 0.172164
O O2 0.075964 0.530763 0.219949
O O3 0.102575 0.303863 0.504970
O O4 0.791274 0.726576 0.945662
O O5 0.877405 0.353676 0.698088
O O6 0.589667 0.772520 0.480298
O O7 0.903715 0.287698 0.004261
O O8 0.435210 0.154309 0.130709
O O9 0.500000 0.000000 0.500000
O O10 0.545861 0.154007 0.974771
O O11 0.172958 0.589708 0.613221
O O12 0.415026 0.396267 0.984828
O O13 0.165802 0.851608 0.524735
O O14 0.207010 0.744983 0.857827
O O15 0.500000 0.500000 0.000000
O O16 0.829960 0.957889 0.148153
O O17 0.977332 0.986974 0.171081
#
# Coordination Sequence:
#
# PCOD9088804 Si02
#       8
#     2   2   2   2   2   2   2   2
#     4  10  22  38  59  88 120 159 195 245 300 350
#     4  11  23  40  60  90 124 157 192 250 306 354
#     4  12  25  39  56  87 126 162 197 241 300 360
#     4  11  21  37  61  89 115 157 203 246 297 353
#     4  10  22  41  63  86 116 161 202 244 289 350
#     4  10  21  38  65  88 117 153 202 255 298 347
#     4  10  22  40  61  89 119 156 202 241 297 360
#     4  10  19  37  63  89 115 149 206 251 292 350
#
# _framework density 19.579357999999999
#
# number of rings (size 3 to 8) (size 9 to 14) (size 15 to 20)
#    0.000    1.500    2.500    2.625    0.000    3.500 
#    2.250    0.000    0.000    8.250    0.000    0.000 
#    0.000    0.000    0.000    0.000    0.000    0.000 
#
# Total GULP energy -89403.461786 kJ/mol
# GULP energy per Si atom -5587.716362 kJ/mol
# Density = 1.953479 g / cm^3
# Si number density = 19.579358 Si / 1000 Ang^3
#
#
#
# Elastic Constant Matrix: (Units=GPa)
#
#
# Indices 1 2 3 4 5 6 
#
# 1 72.6618 6.7143 30.5433 0.5464 0.9775 3.4820
# 2 6.7143 20.7268 -6.4132 -1.2637 -3.5694 3.5847
# 3 30.5433 -6.4132 56.6663 4.0112 -4.8419 6.1097
# 4 0.5464 -1.2637 4.0112 29.2934 6.4294 -0.0065
# 5 0.9775 -3.5694 -4.8419 6.4294 35.5073 -5.1959
# 6 3.4820 3.5847 6.1097 -0.0065 -5.1959 18.9326
#
#
#
# Elastic Compliance Matrix: (Units=1/GPa)
#
#
# Indices 1 2 3 4 5 6 
#
# 1 0.020084 -0.011196 -0.012674 0.001641 -0.003475 0.001563
# 2 -0.011196 0.059631 0.014712 -0.000697 0.006657 -0.012152
# 3 -0.012674 0.014712 0.027735 -0.004065 0.005177 -0.007985
# 4 0.001641 -0.000697 -0.004065 0.036248 -0.007360 -0.000866
# 5 -0.003475 0.006657 0.005177 -0.007360 0.031913 0.006464
# 6 0.001563 -0.012152 -0.007985 -0.000866 0.006464 0.059183
#
#
# Mechanical properties :
#
#
# Convention : Reuss Voigt Hill
#
# Bulk Modulus (GPa) = 11.21918 23.52707 17.37312
# Shear Modulus (GPa) = 17.67898 24.69404 21.18651
#
# Velocity S-wave (km/s) = 3.00816 3.55523 3.29307
# Velocity P-wave (km/s) = 4.21994 5.37543 4.83234
#
# Compressibility (1/GPa) = 0.08913311
#
# Stress axis : x y z
#
# Youngs Moduli (GPa) = 49.79080 16.76971 36.05602
#
# Poissons Ratio (x) = 0.18776 0.45698
# Poissons Ratio (y) = 0.55747 -0.53046
# Poissons Ratio (z) = 0.63105 -0.24672
#
# Static dielectric constant tensor:
#      x y z
#    x 1.656420 0.008340 0.003170 
#    y 0.008340 1.702450 0.006030 
#    z 0.003170 0.006030 1.660000 
# 
# From -- ./inp_files/307108.got.cif
#   From: 2010.05.17/outbox.cif.g08.bks.cpg/sg2_154_cif.got.tgz:307108.got - 2010.06.03 11:33:40.
