data_PCOD9088286
_publ_section_title
;
Structure prediction by ZEFSAII (Michael W. Deem and Ramdas Pophale) SiO2 
 PCOD9088286
Probable space group: P -1
;
_chemical_formula_sum "Si O2"
_cell_formula_units_Z 16
_cell_length_a 9.832297
_cell_length_b 8.828439
_cell_length_c 10.955443
_cell_angle_alpha 65.675736
_cell_angle_beta 94.822935
_cell_angle_gamma 83.948291
_cell_volume 853.153188
_symmetry_space_group_name_H-M "P -1"
_symmetry_group_IT_number 2
_symmetry_cell_setting 'triclinic'
loop_
_space_group_symop_operation_xyz
x,y,z
-x,-y,-z
loop_
_atom_site_type_symbol
_atom_site_label
_atom_site_fract_x
_atom_site_fract_y
_atom_site_fract_z
Si Si1 0.649010 0.545443 0.021084
Si Si2 0.647659 0.915088 0.804666
Si Si3 0.792639 0.624753 0.247324
Si Si4 0.065997 0.738451 0.593968
Si Si5 0.853832 0.223791 0.133876
Si Si6 0.904336 0.871454 0.988254
Si Si7 0.217076 0.037780 0.459097
Si Si8 0.670812 0.950162 0.269768
O O1 0.658825 0.717463 0.896893
O O2 0.500000 0.500000 0.000000
O O3 0.682505 0.570669 0.158971
O O4 0.759245 0.393585 0.029757
O O5 0.759147 0.964482 0.893556
O O6 0.696463 0.940105 0.662408
O O7 0.490671 0.998774 0.788740
O O8 0.881643 0.456902 0.366546
O O9 0.722635 0.758869 0.296064
O O10 0.882214 0.730860 0.132131
O O11 0.120423 0.759293 0.727219
O O12 0.903330 0.806969 0.567019
O O13 0.137876 0.877020 0.481081
O O14 0.002941 0.210152 0.089207
O O15 0.767672 0.067904 0.168088
O O16 0.000000 0.000000 0.000000
O O17 0.308744 0.016806 0.595656
#
# Coordination Sequence:
#
# PCOD9088286 Si02
#       8
#     2   2   2   2   2   2   2   2
#     4  10  21  37  62  89 118 155 192 243 299 358
#     4  11  23  38  62  90 120 156 203 236 292 357
#     4  10  23  37  60  90 120 153 194 244 306 344
#     4   9  20  38  62  85 114 154 204 247 280 351
#     4  10  19  37  60  87 120 154 195 241 298 346
#     4  11  22  36  61  93 123 151 192 249 298 355
#     4  10  21  39  64  84 113 162 204 242 286 340
#     4  11  22  39  60  86 125 158 192 242 296 354
#
# _framework density 18.753961
#
# number of rings (size 3 to 8) (size 9 to 14) (size 15 to 20)
#    0.000    1.750    3.750    0.375    1.750    5.000 
#    0.000    0.625    0.000    0.000    0.000    0.000 
#    0.000    0.000    0.000    0.000    0.000    0.000 
#
# Total GULP energy -89202.220809 kJ/mol
# GULP energy per Si atom -5575.138801 kJ/mol
# Density = 1.871128 g / cm^3
# Si number density = 18.753961 Si / 1000 Ang^3
#
#
#
# Elastic Constant Matrix: (Units=GPa)
#
#
# Indices 1 2 3 4 5 6 
#
# 1 102.5551 12.3040 16.3871 -8.8327 18.6904 1.9659
# 2 12.3040 68.6217 8.5169 -17.4368 12.3200 -1.2941
# 3 16.3871 8.5169 54.0357 -11.0953 -2.8435 -3.5717
# 4 -8.8327 -17.4368 -11.0953 22.3489 -9.3177 9.5579
# 5 18.6904 12.3200 -2.8435 -9.3177 23.1085 0.1575
# 6 1.9659 -1.2941 -3.5717 9.5579 0.1575 31.4107
#
#
#
# Elastic Compliance Matrix: (Units=1/GPa)
#
#
# Indices 1 2 3 4 5 6 
#
# 1 0.012454 -0.000116 -0.004823 -0.002047 -0.011426 -0.000652
# 2 -0.000116 0.018984 -0.000495 0.014252 -0.004317 -0.003582
# 3 -0.004823 -0.000495 0.023943 0.016115 0.013622 -0.001968
# 4 -0.002047 0.014252 0.016115 0.086140 0.030936 -0.023819
# 5 -0.011426 -0.004317 0.013622 0.030936 0.069020 -0.007674
# 6 -0.000652 -0.003582 -0.001968 -0.023819 -0.007674 0.038792
#
#
# Mechanical properties :
#
#
# Convention : Reuss Voigt Hill
#
# Bulk Modulus (GPa) = 22.46527 33.29205 27.87866
# Shear Modulus (GPa) = 18.17934 27.90726 23.04330
#
# Velocity S-wave (km/s) = 3.11683 3.86174 3.50911
# Velocity P-wave (km/s) = 4.99578 6.13796 5.59609
#
# Compressibility (1/GPa) = 0.04451315
#
# Stress axis : x y z
#
# Youngs Moduli (GPa) = 80.29590 52.67669 41.76620
#
# Poissons Ratio (x) = 0.00609 0.20145
# Poissons Ratio (y) = 0.00928 0.02066
# Poissons Ratio (z) = 0.38730 0.02606
#
# Static dielectric constant tensor:
#      x y z
#    x 1.646690 -0.029650 0.021510 
#    y -0.029650 1.654080 0.005750 
#    z 0.021510 0.005750 1.663410 
# 
# From -- ./inp_files/176283.got.cif
#   From: 2010.05.17/outbox.cif.g08.bks.cpg/sg2_89_cif.got.tgz:176283.got - 2010.06.03 11:33:40.
