data_PCOD9088595
_publ_section_title
;
Structure prediction by ZEFSAII (Michael W. Deem and Ramdas Pophale) SiO2 
 PCOD9088595
Probable space group: P -1
;
_chemical_formula_sum "Si O2"
_cell_formula_units_Z 16
_cell_length_a 19.887437
_cell_length_b 13.428236
_cell_length_c 16.562507
_cell_angle_alpha 41.285258
_cell_angle_beta 22.266549
_cell_angle_gamma 27.367486
_cell_volume 704.669923
_symmetry_space_group_name_H-M "P -1"
_symmetry_group_IT_number 2
_symmetry_cell_setting 'triclinic'
loop_
_space_group_symop_operation_xyz
x,y,z
-x,-y,-z
loop_
_atom_site_type_symbol
_atom_site_label
_atom_site_fract_x
_atom_site_fract_y
_atom_site_fract_z
Si Si1 0.379643 0.753640 0.161137
Si Si2 0.859134 0.957634 0.901170
Si Si3 0.226109 0.478055 0.709871
Si Si4 0.143767 0.132263 0.325358
Si Si5 0.375592 0.656975 0.771815
Si Si6 0.581059 0.207337 0.636069
Si Si7 0.970055 0.465209 0.860780
Si Si8 0.796467 0.988116 0.139908
O O1 0.632022 0.490386 0.076875
O O2 0.135533 0.786075 0.412283
O O3 0.311100 0.934343 0.188996
O O4 0.366837 0.825159 0.041434
O O5 0.960137 0.732761 0.889449
O O6 0.153126 0.857671 0.630583
O O7 0.757420 0.021355 0.067095
O O8 0.373476 0.504431 0.472010
O O9 0.441571 0.284325 0.656643
O O10 0.126564 0.417673 0.795915
O O11 0.097994 0.336637 0.231418
O O12 0.295185 0.012685 0.316079
O O13 0.097123 0.863063 0.904243
O O14 0.409487 0.775956 0.722524
O O15 0.315838 0.425678 0.854641
O O16 0.160333 0.214445 0.760806
#
# Coordination Sequence:
#
# PCOD9088595 Si02
#       8
#     2   2   2   2   2   2   2   2
#     4  10  19  37  62  86 119 159 196 245 296 359
#     4  11  21  39  63  90 119 156 203 246 299 349
#     4  12  21  37  61  90 122 151 197 253 296 348
#     4  10  20  36  58  93 123 151 194 247 309 347
#     4  11  23  43  61  86 120 165 205 234 297 361
#     4  11  22  33  61  89 121 154 196 249 297 347
#     4  12  22  37  59  94 125 151 195 253 305 347
#     4  11  25  40  62  89 120 163 203 241 292 364
#
# _framework density 22.705666999999998
#
# number of rings (size 3 to 8) (size 9 to 14) (size 15 to 20)
#    0.000    1.000    5.000    4.125    0.000    1.000 
#    0.000    0.000    0.000    0.750    0.000    0.000 
#    0.000    0.000    0.000    0.000    0.000    0.000 
#
# Total GULP energy -89378.556426 kJ/mol
# GULP energy per Si atom -5586.159777 kJ/mol
# Density = 2.265399 g / cm^3
# Si number density = 22.705667 Si / 1000 Ang^3
#
#
#
# Elastic Constant Matrix: (Units=GPa)
#
#
# Indices 1 2 3 4 5 6 
#
# 1 133.7451 66.2743 4.1714 -2.1588 21.9989 -29.0357
# 2 66.2743 142.8197 9.5251 -13.5741 27.4414 -9.4770
# 3 4.1714 9.5251 32.0840 -5.8534 3.0862 -3.2215
# 4 -2.1588 -13.5741 -5.8534 21.2608 1.4428 -1.6237
# 5 21.9989 27.4414 3.0862 1.4428 31.6951 -1.9520
# 6 -29.0357 -9.4770 -3.2215 -1.6237 -1.9520 50.1633
#
#
#
# Elastic Compliance Matrix: (Units=1/GPa)
#
#
# Indices 1 2 3 4 5 6 
#
# 1 0.011450 -0.004294 0.000602 -0.000714 -0.003906 0.005680
# 2 -0.004294 0.010958 -0.000866 0.006741 -0.006761 -0.000516
# 3 0.000602 -0.000866 0.033579 0.009162 -0.003199 0.002513
# 4 -0.000714 0.006741 0.009162 0.054588 -0.008540 0.002883
# 5 -0.003906 -0.006761 -0.003199 -0.008540 0.040665 -0.002437
# 6 0.005680 -0.000516 0.002513 0.002883 -0.002437 0.023285
#
#
# Mechanical properties :
#
#
# Convention : Reuss Voigt Hill
#
# Bulk Modulus (GPa) = 21.33607 52.06561 36.70084
# Shear Modulus (GPa) = 25.09224 35.86904 30.48064
#
# Velocity S-wave (km/s) = 3.32792 3.97891 3.66789
# Velocity P-wave (km/s) = 4.91772 6.63998 5.84266
#
# Compressibility (1/GPa) = 0.04686899
#
# Stress axis : x y z
#
# Youngs Moduli (GPa) = 87.33744 91.26017 29.78081
#
# Poissons Ratio (x) = 0.39186 -0.01792
# Poissons Ratio (y) = 0.37502 0.02580
# Poissons Ratio (z) = -0.05256 0.07908
#
# Static dielectric constant tensor:
#      x y z
#    x 1.856610 -0.012880 -0.051560 
#    y -0.012880 1.888960 -0.015230 
#    z -0.051560 -0.015230 1.880400 
# 
# From -- ./inp_files/278185.got.cif
#   From: 2010.05.17/outbox.cif.g08.bks.cpg/sg2_140_cif.got.tgz:278185.got - 2010.06.03 11:33:40.
