data_PCOD9088825
_publ_section_title
;
Structure prediction by ZEFSAII (Michael W. Deem and Ramdas Pophale) SiO2 
 PCOD9088825
Probable space group: P -1
;
_chemical_formula_sum "Si O2"
_cell_formula_units_Z 16
_cell_length_a 24.115840
_cell_length_b 9.707614
_cell_length_c 14.720458
_cell_angle_alpha 142.895777
_cell_angle_beta 161.224835
_cell_angle_gamma 46.684010
_cell_volume 625.342444
_symmetry_space_group_name_H-M "P -1"
_symmetry_group_IT_number 2
_symmetry_cell_setting 'triclinic'
loop_
_space_group_symop_operation_xyz
x,y,z
-x,-y,-z
loop_
_atom_site_type_symbol
_atom_site_label
_atom_site_fract_x
_atom_site_fract_y
_atom_site_fract_z
Si Si1 0.862666 0.978171 0.068814
Si Si2 0.179799 0.006350 0.183397
Si Si3 0.192026 0.499022 0.158040
Si Si4 0.407527 0.913209 0.185475
Si Si5 0.360756 0.392186 0.809328
Si Si6 0.898618 0.554105 0.204244
Si Si7 0.368250 0.791901 0.748448
Si Si8 0.401917 0.199320 0.143309
O O1 0.987581 0.237831 0.439997
O O2 0.910231 0.929569 0.013676
O O3 0.659499 0.987729 0.777563
O O4 0.857231 0.770005 0.020753
O O5 0.388784 0.076010 0.511278
O O6 0.203188 0.152560 0.393078
O O7 0.115519 0.714932 0.931578
O O8 0.207757 0.638123 0.351509
O O9 0.393909 0.660747 0.510334
O O10 0.056621 0.453690 0.838156
O O11 0.391594 0.091152 0.171895
O O12 0.297401 0.616862 0.855694
O O13 0.500000 0.500000 0.000000
O O14 0.493436 0.332858 0.058540
O O15 0.710349 0.619895 0.946500
O O16 0.500000 0.000000 0.000000
O O17 0.307993 0.944505 0.810189
#
# Coordination Sequence:
#
# PCOD9088825 Si02
#       8
#     2   2   2   2   2   2   2   2
#     4  12  26  38  59  94 125 162 206 248 294 363
#     4  11  22  42  64  88 119 165 202 248 309 357
#     4  11  21  39  63  89 119 158 206 248 297 358
#     4  11  21  39  65  93 120 155 207 254 301 355
#     4  10  19  37  63  90 119 151 197 259 304 350
#     4  12  24  42  60  87 132 164 196 249 305 360
#     4  10  20  36  60  96 119 148 201 259 302 352
#     4  11  21  39  66  92 120 159 199 254 309 357
#
# _framework density 25.585982000000001
#
# number of rings (size 3 to 8) (size 9 to 14) (size 15 to 20)
#    0.000    1.000    5.000    4.500    0.000    2.000 
#    0.000    2.500    0.000    0.000    0.000    0.000 
#    0.000    0.000    0.000    0.000    0.000    0.000 
#
# Total GULP energy -89120.098820 kJ/mol
# GULP energy per Si atom -5570.006176 kJ/mol
# Density = 2.552775 g / cm^3
# Si number density = 25.585982 Si / 1000 Ang^3
#
#
#
# Elastic Constant Matrix: (Units=GPa)
#
#
# Indices 1 2 3 4 5 6 
#
# 1 -125.0655 -343.2081 -470.5168 -175.2312 499.7443 233.8699
# 2 -343.2081 -642.6545 -937.3232 -340.4200 1071.3106 485.4712
# 3 -470.5168 -937.3232-1133.9413 -429.8447 1331.3952 569.0292
# 4 -175.2312 -340.4200 -429.8447 -121.3738 494.5990 204.1760
# 5 499.7443 1071.3106 1331.3952 494.5990-1455.6168 -638.7074
# 6 233.8699 485.4712 569.0292 204.1760 -638.7074 -242.4847
#
#
#
# Elastic Compliance Matrix: (Units=1/GPa)
#
#
# Indices 1 2 3 4 5 6 
#
# 1 0.028634 -0.006495 0.006384 0.002116 0.013859 -0.005128
# 2 -0.006495 0.011413 -0.006643 -0.005118 0.001229 -0.006552
# 3 0.006384 -0.006643 0.018304 -0.002924 0.010155 0.006599
# 4 0.002116 -0.005118 -0.002924 0.028345 -0.000356 0.009736
# 5 0.013859 0.001229 0.010155 -0.000356 0.020073 -0.013512
# 6 -0.005128 -0.006552 0.006599 0.009736 -0.013512 0.037087
#
#
# Mechanical properties :
#
#
# Convention : Reuss Voigt Hill
#
# Bulk Modulus (GPa) = 22.29975 -600.41749 -289.05887
# Shear Modulus (GPa) = 29.01759 -373.93594 -172.45918
#
# Velocity S-wave (km/s) = 3.37132 -12.10232 -8.21889
# Velocity P-wave (km/s) = 4.88763 20.74763 14.25789
#
# Compressibility (1/GPa) = 0.04484355
#
# Stress axis : x y z
#
# Youngs Moduli (GPa) = 34.92320 87.62252 54.63419
#
# Poissons Ratio (x) = 0.56907 -0.34879
# Poissons Ratio (y) = 0.22681 0.36294
# Poissons Ratio (z) = -0.22296 0.58208
#
# Static dielectric constant tensor:
#      x y z
#    x 2.016980 -0.016500 -0.065050 
#    y -0.016500 2.059480 -0.011720 
#    z -0.065050 -0.011720 2.226100 
# 
# From -- ./inp_files/331901.got.cif
#   From: 2010.05.17/outbox.cif.g08.bks.cpg/sg2_166_cif.got.tgz:331901.got - 2010.06.03 11:33:40.
