data_PCOD9088702
_publ_section_title
;
Structure prediction by ZEFSAII (Michael W. Deem and Ramdas Pophale) SiO2 
 PCOD9088702
Probable space group: P -1
;
_chemical_formula_sum "Si O2"
_cell_formula_units_Z 14
_cell_length_a 7.530378
_cell_length_b 9.420682
_cell_length_c 13.731427
_cell_angle_alpha 58.631617
_cell_angle_beta 133.575661
_cell_angle_gamma 106.568628
_cell_volume 598.283853
_symmetry_space_group_name_H-M "P -1"
_symmetry_group_IT_number 2
_symmetry_cell_setting 'triclinic'
loop_
_space_group_symop_operation_xyz
x,y,z
-x,-y,-z
loop_
_atom_site_type_symbol
_atom_site_label
_atom_site_fract_x
_atom_site_fract_y
_atom_site_fract_z
Si Si1 0.443152 0.832686 0.093798
Si Si2 0.297367 0.598095 0.456685
Si Si3 0.770046 0.519849 0.047563
Si Si4 0.984511 0.679246 0.631295
Si Si5 0.918252 0.854289 0.951770
Si Si6 0.440508 0.545040 0.750448
Si Si7 0.484540 0.887064 0.321924
O O1 0.586075 0.655557 0.176652
O O2 0.496104 0.846117 0.225007
O O3 0.149576 0.820840 0.979168
O O4 0.500000 0.000000 0.000000
O O5 0.500000 0.500000 0.500000
O O6 0.083463 0.482247 0.399406
O O7 0.400843 0.585653 0.608496
O O8 0.294599 0.782276 0.346476
O O9 0.881227 0.689237 0.056947
O O10 0.707512 0.544262 0.901580
O O11 0.500000 0.500000 0.000000
O O12 0.958199 0.373317 0.216857
O O13 0.761657 0.826535 0.484902
O O14 0.250903 0.685322 0.682465
O O15 0.650139 0.926672 0.784799
O O16 0.000000 0.000000 0.000000
#
# Coordination Sequence:
#
# PCOD9088702 Si02
#       7
#     2   2   2   2   2   2   2
#     4  11  24  38  65 103 132 175 226 277 333 398
#     4  10  19  37  62  94 127 170 224 271 323 394
#     4  10  24  42  69 101 135 180 221 280 344 390
#     4  10  20  38  65  96 129 174 220 275 330 394
#     4  10  23  43  66  94 136 179 222 267 334 409
#     4  11  23  39  65 100 136 168 228 280 333 402
#     4  10  22  38  65  93 128 172 226 275 331 383
#
# _framework density 23.400265000000001
#
# number of rings (size 3 to 8) (size 9 to 14) (size 15 to 20)
#    0.000    1.714    2.857    2.143   12.000    0.571 
#    0.000    3.571    0.000    0.000    0.000    0.000 
#    0.000    0.000    0.000    0.000    0.000    0.000 
#
# Total GULP energy -78003.019583 kJ/mol
# GULP energy per Si atom -5571.644256 kJ/mol
# Density = 2.334701 g / cm^3
# Si number density = 23.400265 Si / 1000 Ang^3
#
#
#
# Elastic Constant Matrix: (Units=GPa)
#
#
# Indices 1 2 3 4 5 6 
#
# 1 71.4836 21.7882 45.0259 -9.5339 16.1600 14.2284
# 2 21.7882 54.4354 12.9696 -4.9606 -2.6204 21.0074
# 3 45.0259 12.9696 178.8493 2.0896 6.9455 0.4525
# 4 -9.5339 -4.9606 2.0896 44.5119 -11.4998 2.1952
# 5 16.1600 -2.6204 6.9455 -11.4998 62.9543 -5.6254
# 6 14.2284 21.0074 0.4525 2.1952 -5.6254 21.7938
#
#
#
# Elastic Compliance Matrix: (Units=1/GPa)
#
#
# Indices 1 2 3 4 5 6 
#
# 1 0.022828 -0.002085 -0.005377 0.004106 -0.005919 -0.014724
# 2 -0.002085 0.031318 -0.001737 0.004634 0.000269 -0.029188
# 3 -0.005377 -0.001737 0.007051 -0.001764 0.000690 0.005394
# 4 0.004106 0.004634 -0.001764 0.025193 0.003146 -0.008837
# 5 -0.005919 0.000269 0.000690 0.003146 0.018636 0.008084
# 6 -0.014724 -0.029188 0.005394 -0.008837 0.008084 0.086497
#
#
# Mechanical properties :
#
#
# Convention : Reuss Voigt Hill
#
# Bulk Modulus (GPa) = 23.36429 51.59285 37.47857
# Shear Modulus (GPa) = 22.30287 40.85098 31.57693
#
# Velocity S-wave (km/s) = 3.09059 4.18275 3.67744
# Velocity P-wave (km/s) = 4.76885 6.73966 5.83802
#
# Compressibility (1/GPa) = 0.04280037
#
# Stress axis : x y z
#
# Youngs Moduli (GPa) = 43.80657 31.93046 141.82336
#
# Poissons Ratio (x) = 0.06656 0.76253
# Poissons Ratio (y) = 0.09132 0.24635
# Poissons Ratio (z) = 0.23553 0.05546
#
# Static dielectric constant tensor:
#      x y z
#    x 2.182160 0.276310 -0.055030 
#    y 0.276310 2.268090 -0.017610 
#    z -0.055030 -0.017610 1.814260 
# 
# From -- ./inp_files/500106.got.cif
#   From: 2010.05.17/outbox.cif.g08.bks.cpg/sg2_251_cif.got.tgz:500106.got - 2010.06.03 11:33:40.
