data_PCOD9088328
_publ_section_title
;
Structure prediction by ZEFSAII (Michael W. Deem and Ramdas Pophale) SiO2 
 PCOD9088328
Probable space group: P -1
;
_chemical_formula_sum "Si O2"
_cell_formula_units_Z 14
_cell_length_a 12.014439
_cell_length_b 9.666816
_cell_length_c 7.690822
_cell_angle_alpha 47.325822
_cell_angle_beta 94.252431
_cell_angle_gamma 104.443988
_cell_volume 630.280498
_symmetry_space_group_name_H-M "P -1"
_symmetry_group_IT_number 2
_symmetry_cell_setting 'triclinic'
loop_
_space_group_symop_operation_xyz
x,y,z
-x,-y,-z
loop_
_atom_site_type_symbol
_atom_site_label
_atom_site_fract_x
_atom_site_fract_y
_atom_site_fract_z
Si Si1 0.062934 0.541534 0.661736
Si Si2 0.726020 0.078633 0.705240
Si Si3 0.369859 0.678010 0.266640
Si Si4 0.118301 0.168162 0.896079
Si Si5 0.838991 0.625449 0.646361
Si Si6 0.453578 0.475563 0.758251
Si Si7 0.342185 0.249404 0.267187
O O1 0.175875 0.723666 0.503027
O O2 0.097799 0.341993 0.866130
O O3 0.000000 0.500000 0.500000
O O4 0.964580 0.593332 0.724426
O O5 0.643443 0.137507 0.786611
O O6 0.665153 0.963201 0.627918
O O7 0.789951 0.932039 0.926993
O O8 0.254132 0.583138 0.223944
O O9 0.380637 0.524421 0.550202
O O10 0.480401 0.684558 0.155030
O O11 0.151633 0.255979 0.633970
O O12 0.000000 0.000000 0.000000
O O13 0.779346 0.735723 0.682926
O O14 0.557304 0.669229 0.648841
O O15 0.380320 0.402974 0.982516
#
# Coordination Sequence:
#
# PCOD9088328 Si02
#       7
#     2   2   2   2   2   2   2
#     4  10  19  37  60  90 124 154 203 247 281 362
#     4  12  22  36  65  95 119 157 204 245 303 355
#     4  10  19  38  69  86 113 164 207 247 290 360
#     4  11  19  36  63  88 119 161 204 242 279 355
#     4  10  19  39  61  88 127 160 194 243 304 354
#     4   9  21  43  62  87 121 157 206 254 299 351
#     4  10  23  38  60  91 126 156 193 257 310 355
#
# _framework density 22.212332
#
# number of rings (size 3 to 8) (size 9 to 14) (size 15 to 20)
#    0.000    1.714    5.714    0.857    0.000    1.714 
#    0.000    6.429    0.000    0.000    0.000    0.000 
#    0.000    0.000    0.000    0.000    0.000    0.000 
#
# Total GULP energy -78240.884671 kJ/mol
# GULP energy per Si atom -5588.634619 kJ/mol
# Density = 2.216178 g / cm^3
# Si number density = 22.212332 Si / 1000 Ang^3
#
#
#
# Elastic Constant Matrix: (Units=GPa)
#
#
# Indices 1 2 3 4 5 6 
#
# 1 88.3651 32.9794 23.4791 -7.0189 6.8635 -23.9210
# 2 32.9794 122.5825 6.1246 -28.0156 -0.0539 -10.3031
# 3 23.4791 6.1246 46.3938 -12.6104 -1.4868 -4.7920
# 4 -7.0189 -28.0156 -12.6104 36.9952 -7.2104 -0.8980
# 5 6.8635 -0.0539 -1.4868 -7.2104 22.1384 -0.2354
# 6 -23.9210 -10.3031 -4.7920 -0.8980 -0.2354 42.2855
#
#
#
# Elastic Compliance Matrix: (Units=1/GPa)
#
#
# Indices 1 2 3 4 5 6 
#
# 1 0.017822 -0.004741 -0.009082 -0.004590 -0.007559 0.007758
# 2 -0.004741 0.011661 0.003906 0.010281 0.005118 0.000849
# 3 -0.009082 0.003906 0.029405 0.013005 0.009030 -0.000527
# 4 -0.004590 0.010281 0.013005 0.041529 0.015872 0.002353
# 5 -0.007559 0.005118 0.009030 0.015872 0.053288 -0.001372
# 6 0.007758 0.000849 -0.000527 0.002353 -0.001372 0.028227
#
#
# Mechanical properties :
#
#
# Convention : Reuss Voigt Hill
#
# Bulk Modulus (GPa) = 25.60529 42.50083 34.05306
# Shear Modulus (GPa) = 23.27908 33.26770 28.27339
#
# Velocity S-wave (km/s) = 3.24083 3.87423 3.57160
# Velocity P-wave (km/s) = 5.05535 6.26006 5.68968
#
# Compressibility (1/GPa) = 0.03905443
#
# Stress axis : x y z
#
# Youngs Moduli (GPa) = 56.11018 85.75242 34.00757
#
# Poissons Ratio (x) = 0.40658 0.30886
# Poissons Ratio (y) = 0.26604 -0.13284
# Poissons Ratio (z) = 0.50960 -0.33497
#
# Static dielectric constant tensor:
#      x y z
#    x 1.858380 0.018090 0.006510 
#    y 0.018090 1.881660 0.020530 
#    z 0.006510 0.020530 1.816210 
# 
# From -- ./inp_files/221394.got.cif
#   From: 2010.05.17/outbox.cif.g08.bks.cpg/sg2_111_cif.got.tgz:221394.got - 2010.06.03 11:33:40.
