data_PCOD9088104
_publ_section_title
;
Structure prediction by ZEFSAII (Michael W. Deem and Ramdas Pophale) SiO2 
 PCOD9088104
Probable space group: P -1
;
_chemical_formula_sum "Si O2"
_cell_formula_units_Z 16
_cell_length_a 17.433127
_cell_length_b 9.829254
_cell_length_c 14.960422
_cell_angle_alpha 38.854922
_cell_angle_beta 37.340348
_cell_angle_gamma 66.089251
_cell_volume 806.906820
_symmetry_space_group_name_H-M "P -1"
_symmetry_group_IT_number 2
_symmetry_cell_setting 'triclinic'
loop_
_space_group_symop_operation_xyz
x,y,z
-x,-y,-z
loop_
_atom_site_type_symbol
_atom_site_label
_atom_site_fract_x
_atom_site_fract_y
_atom_site_fract_z
Si Si1 0.139463 0.177601 0.845873
Si Si2 0.123200 0.446709 0.885109
Si Si3 0.657871 0.063803 0.959750
Si Si4 0.494777 0.698445 0.781643
Si Si5 0.459120 0.802779 0.453457
Si Si6 0.711646 0.569674 0.715595
Si Si7 0.509336 0.463499 0.710273
Si Si8 0.072219 0.920621 0.220930
O O1 0.110510 0.366442 0.834191
O O2 0.305504 0.358313 0.555419
O O3 0.135840 0.990953 0.023406
O O4 0.000000 0.000000 0.000000
O O5 0.292592 0.684978 0.627801
O O6 0.000000 0.500000 0.000000
O O7 0.098132 0.193493 0.088326
O O8 0.572254 0.921565 0.204253
O O9 0.570503 0.844115 0.077116
O O10 0.656365 0.322842 0.827193
O O11 0.830693 0.145989 0.773573
O O12 0.656390 0.746159 0.637649
O O13 0.452959 0.531053 0.816533
O O14 0.505332 0.967586 0.628727
O O15 0.376099 0.539768 0.053054
O O16 0.465300 0.577286 0.610027
O O17 0.891416 0.713744 0.489115
#
# Coordination Sequence:
#
# PCOD9088104 Si02
#       8
#     2   2   2   2   2   2   2   2
#     4  10  21  34  57  88 118 144 182 245 295 331
#     4  10  20  33  58  84 116 149 184 229 295 345
#     4  11  20  37  64  84 112 156 195 238 279 344
#     4  10  24  37  60  82 118 156 192 237 282 342
#     4  11  19  39  60  89 114 151 189 237 296 349
#     4  10  22  41  57  80 115 162 202 218 283 350
#     4  12  20  39  61  90 117 142 196 247 289 335
#     4  10  19  37  59  83 114 151 194 233 281 347
#
# _framework density 19.828807000000001
#
# number of rings (size 3 to 8) (size 9 to 14) (size 15 to 20)
#    0.750    0.750    3.750    2.625    1.750    0.500 
#    0.000    0.625    0.000    0.000    0.000    0.000 
#    0.000    0.000    0.000    0.000    0.000    0.000 
#
# Total GULP energy -89247.612424 kJ/mol
# GULP energy per Si atom -5577.975776 kJ/mol
# Density = 1.978368 g / cm^3
# Si number density = 19.828807 Si / 1000 Ang^3
#
#
#
# Elastic Constant Matrix: (Units=GPa)
#
#
# Indices 1 2 3 4 5 6 
#
# 1 31.8524 6.9233 11.1266 3.6378 -12.1634 4.9770
# 2 6.9233 112.7204 26.5939 -6.6614 -1.4745 15.4415
# 3 11.1266 26.5939 79.4880 6.2032 -25.6718 5.6466
# 4 3.6378 -6.6614 6.2032 27.2594 -3.4398 -5.1523
# 5 -12.1634 -1.4745 -25.6718 -3.4398 25.6515 -5.6972
# 6 4.9770 15.4415 5.6466 -5.1523 -5.6972 35.0578
#
#
#
# Elastic Compliance Matrix: (Units=1/GPa)
#
#
# Indices 1 2 3 4 5 6 
#
# 1 0.039590 -0.002650 0.002229 -0.004367 0.019768 -0.002242
# 2 -0.002650 0.010936 -0.005296 0.002601 -0.006527 -0.004266
# 3 0.002229 -0.005296 0.021278 -0.003346 0.021969 0.001667
# 4 -0.004367 0.002601 -0.003346 0.040007 0.001456 0.006129
# 5 0.019768 -0.006527 0.021969 0.001456 0.072041 0.008451
# 6 -0.002242 -0.004266 0.001667 0.006129 0.008451 0.032727
#
#
# Mechanical properties :
#
#
# Convention : Reuss Voigt Hill
#
# Bulk Modulus (GPa) = 16.56410 34.81649 25.69029
# Shear Modulus (GPa) = 20.15013 29.55487 24.85250
#
# Velocity S-wave (km/s) = 3.19126 3.86489 3.54411
# Velocity P-wave (km/s) = 4.68514 6.12480 5.45269
#
# Compressibility (1/GPa) = 0.06037154
#
# Stress axis : x y z
#
# Youngs Moduli (GPa) = 25.25898 91.43695 46.99619
#
# Poissons Ratio (x) = 0.24231 -0.10477
# Poissons Ratio (y) = 0.06694 0.24889
# Poissons Ratio (z) = -0.05631 0.48424
#
# Static dielectric constant tensor:
#      x y z
#    x 1.718540 -0.002060 0.004980 
#    y -0.002060 1.695340 -0.015230 
#    z 0.004980 -0.015230 1.698430 
# 
# From -- ./inp_files/576979.got.cif
#   From: 2010.05.17/outbox.cif.g08.bks.cpg/sg2_289_cif.got.tgz:576979.got - 2010.06.03 11:33:40.
