data_PCOD9088745
_publ_section_title
;
Structure prediction by ZEFSAII (Michael W. Deem and Ramdas Pophale) SiO2 
 PCOD9088745
Probable space group: P -1
;
_chemical_formula_sum "Si O2"
_cell_formula_units_Z 12
_cell_length_a 6.865554
_cell_length_b 15.375930
_cell_length_c 6.933217
_cell_angle_alpha 127.685589
_cell_angle_beta 117.476270
_cell_angle_gamma 49.520455
_cell_volume 438.030147
_symmetry_space_group_name_H-M "P -1"
_symmetry_group_IT_number 2
_symmetry_cell_setting 'triclinic'
loop_
_space_group_symop_operation_xyz
x,y,z
-x,-y,-z
loop_
_atom_site_type_symbol
_atom_site_label
_atom_site_fract_x
_atom_site_fract_y
_atom_site_fract_z
Si Si1 0.871718 0.262885 0.504379
Si Si2 0.717923 0.271223 0.891756
Si Si3 0.331412 0.345315 0.270858
Si Si4 0.827574 0.598934 0.274868
Si Si5 0.740549 0.877903 0.039900
Si Si6 0.245882 0.995195 0.414764
O O1 0.790295 0.287454 0.727156
O O2 0.604455 0.335335 0.362895
O O3 0.070452 0.308927 0.620152
O O4 0.019124 0.107136 0.334229
O O5 0.419940 0.385669 0.930015
O O6 0.982627 0.230317 0.071900
O O7 0.693482 0.147519 0.748596
O O8 0.267718 0.365263 0.498271
O O9 0.080645 0.457745 0.204454
O O10 0.366027 0.209047 0.048499
O O11 0.823225 0.948768 0.325111
O O12 0.500000 0.000000 0.000000
O O13 0.500000 0.000000 0.500000
#
# Coordination Sequence:
#
# PCOD9088745 Si02
#       6
#     2   2   2   2   2   2
#     4  10  19  37  63  84 117 162 197 239 297 354
#     4  10  21  39  62  85 118 160 197 242 296 358
#     4  10  22  38  59  92 124 151 198 253 292 343
#     4  10  20  39  63  86 118 166 200 229 300 370
#     4  11  22  39  61  90 125 150 194 260 295 334
#     4  11  21  39  65  85 117 162 200 234 301 364
#
# _framework density 27.395374
#
# number of rings (size 3 to 8) (size 9 to 14) (size 15 to 20)
#    0.000    1.667    1.667    5.500    0.000    0.667 
#    3.000    5.000    0.000    0.000    0.000    0.000 
#    0.000    0.000    0.000    0.000    0.000    0.000 
#
# Total GULP energy -67145.518798 kJ/mol
# GULP energy per Si atom -5595.459900 kJ/mol
# Density = 2.733302 g / cm^3
# Si number density = 27.395374 Si / 1000 Ang^3
#
#
#
# Elastic Constant Matrix: (Units=GPa)
#
#
# Indices 1 2 3 4 5 6 
#
# 1 168.3525 49.6963 -3.0909 -12.6161 11.1361 -37.9303
# 2 49.6963 231.2939 26.5870 -22.2084 19.0606 -42.6604
# 3 -3.0909 26.5870 47.8045 -8.6962 6.9112 -6.8290
# 4 -12.6161 -22.2084 -8.6962 43.9503 -4.7274 20.4130
# 5 11.1361 19.0606 6.9112 -4.7274 41.0861 -9.7403
# 6 -37.9303 -42.6604 -6.8290 20.4130 -9.7403 50.1699
#
#
#
# Elastic Compliance Matrix: (Units=1/GPa)
#
#
# Indices 1 2 3 4 5 6 
#
# 1 0.007389 -0.000811 0.001695 -0.000429 -0.000738 0.005159
# 2 -0.000811 0.005528 -0.002414 0.000392 -0.001090 0.003387
# 3 0.001695 -0.002414 0.023458 0.003373 -0.002776 0.000511
# 4 -0.000429 0.000392 0.003373 0.028702 0.000013 -0.011208
# 5 -0.000738 -0.001090 -0.002776 0.000013 0.026280 0.003234
# 6 0.005159 0.003387 0.000511 -0.011208 0.003234 0.031970
#
#
# Mechanical properties :
#
#
# Convention : Reuss Voigt Hill
#
# Bulk Modulus (GPa) = 30.01724 65.98172 47.99948
# Shear Modulus (GPa) = 36.36536 51.99182 44.17859
#
# Velocity S-wave (km/s) = 3.64734 4.36114 4.02011
# Velocity P-wave (km/s) = 5.35894 7.03538 6.25360
#
# Compressibility (1/GPa) = 0.03331419
#
# Stress axis : x y z
#
# Youngs Moduli (GPa) = 135.32734 180.91349 42.62861
#
# Poissons Ratio (x) = 0.14680 -0.07224
# Poissons Ratio (y) = 0.10981 0.10290
# Poissons Ratio (z) = -0.22933 0.43670
#
# Static dielectric constant tensor:
#      x y z
#    x 2.310800 -0.037390 -0.159360 
#    y -0.037390 2.237810 -0.053950 
#    z -0.159360 -0.053950 2.132880 
# 
# From -- ./inp_files/265964.got.cif
#   From: 2010.05.17/outbox.cif.g08.bks.cpg/sg2_133_cif.got.tgz:265964.got - 2010.06.03 11:33:40.
