data_PCOD9088293
_publ_section_title
;
Structure prediction by ZEFSAII (Michael W. Deem and Ramdas Pophale) SiO2 
 PCOD9088293
Probable space group: P -1
;
_chemical_formula_sum "Si O2"
_cell_formula_units_Z 14
_cell_length_a 22.776355
_cell_length_b 10.046638
_cell_length_c 17.530336
_cell_angle_alpha 155.068678
_cell_angle_beta 156.667411
_cell_angle_gamma 23.489838
_cell_volume 577.667847
_symmetry_space_group_name_H-M "P -1"
_symmetry_group_IT_number 2
_symmetry_cell_setting 'triclinic'
loop_
_space_group_symop_operation_xyz
x,y,z
-x,-y,-z
loop_
_atom_site_type_symbol
_atom_site_label
_atom_site_fract_x
_atom_site_fract_y
_atom_site_fract_z
Si Si1 0.852377 0.269189 0.272912
Si Si2 0.601365 0.715573 0.733553
Si Si3 0.116847 0.474090 0.771092
Si Si4 0.417152 0.230282 0.909571
Si Si5 0.069621 0.575326 0.342223
Si Si6 0.004054 0.243954 0.956530
Si Si7 0.596942 0.637956 0.288011
O O1 0.736305 0.604323 0.251289
O O2 0.721230 0.319921 0.210347
O O3 0.003217 0.326768 0.515998
O O4 0.917049 0.911484 0.112962
O O5 0.500000 0.500000 0.500000
O O6 0.800124 0.450495 0.818081
O O7 0.566039 0.883873 0.864214
O O8 0.520021 0.019508 0.727282
O O9 0.318413 0.213479 0.857330
O O10 0.057827 0.508682 0.805401
O O11 0.066850 0.870023 0.885387
O O12 0.485070 0.516490 0.140796
O O13 0.263133 0.334640 0.479556
O O14 0.064096 0.482781 0.200026
O O15 0.000000 0.000000 0.500000
#
# Coordination Sequence:
#
# PCOD9088293 Si02
#       7
#     2   2   2   2   2   2   2
#     4   9  18  37  64  92 119 161 209 251 301 372
#     4  11  20  34  61  98 126 155 203 263 312 360
#     4  10  21  41  65  90 125 168 208 253 311 378
#     4  10  19  37  60  87 122 165 204 252 309 362
#     4  11  24  43  63  91 127 169 210 255 309 374
#     4  11  21  38  67  96 122 163 212 254 307 374
#     4  10  22  42  64  88 128 167 202 256 312 364
#
# _framework density 24.235378999999998
#
# number of rings (size 3 to 8) (size 9 to 14) (size 15 to 20)
#    0.000    1.714    0.000    8.143    0.000    1.143 
#    0.000   27.857    0.000   15.429    0.000    1.000 
#    0.000    0.000    0.000    0.000    0.000    0.000 
#
# Total GULP energy -78362.896549 kJ/mol
# GULP energy per Si atom -5597.349754 kJ/mol
# Density = 2.418022 g / cm^3
# Si number density = 24.235379 Si / 1000 Ang^3
#
#
#
# Elastic Constant Matrix: (Units=GPa)
#
#
# Indices 1 2 3 4 5 6 
#
# 1 95.4209 6.4066 28.0403 -5.0000 1.3685 -8.7964
# 2 6.4066 89.3652 24.9986 -14.3218 -9.1602 -15.8967
# 3 28.0403 24.9986 105.0649 -5.0936 -3.7303 -5.5884
# 4 -5.0000 -14.3218 -5.0936 41.5767 -5.0279 2.3278
# 5 1.3685 -9.1602 -3.7303 -5.0279 50.7447 -3.0356
# 6 -8.7964 -15.8967 -5.5884 2.3278 -3.0356 33.4451
#
#
#
# Elastic Compliance Matrix: (Units=1/GPa)
#
#
# Indices 1 2 3 4 5 6 
#
# 1 0.011654 0.000680 -0.003076 0.001085 -0.000144 0.002786
# 2 0.000680 0.014147 -0.002871 0.004628 0.003165 0.006388
# 3 -0.003076 -0.002871 0.011021 0.000052 0.000362 -0.000303
# 4 0.001085 0.004628 0.000052 0.026146 0.003460 0.000988
# 5 -0.000144 0.003165 0.000362 0.003460 0.020841 0.003178
# 6 0.002786 0.006388 -0.000303 0.000988 0.003178 0.033838
#
#
# Mechanical properties :
#
#
# Convention : Reuss Voigt Hill
#
# Bulk Modulus (GPa) = 38.04101 45.41576 41.72838
# Shear Modulus (GPa) = 36.51103 40.51367 38.51235
#
# Velocity S-wave (km/s) = 3.88560 4.09305 3.99067
# Velocity P-wave (km/s) = 5.98841 6.41229 6.20397
#
# Compressibility (1/GPa) = 0.02628742
#
# Stress axis : x y z
#
# Youngs Moduli (GPa) = 85.80762 70.68655 90.73324
#
# Poissons Ratio (x) = -0.04806 0.27913
# Poissons Ratio (y) = -0.05834 0.26049
# Poissons Ratio (z) = 0.26397 0.20294
#
# Static dielectric constant tensor:
#      x y z
#    x 1.968990 0.020990 -0.014430 
#    y 0.020990 1.968010 0.024800 
#    z -0.014430 0.024800 1.928510 
# 
# From -- ./inp_files/602381.got.cif
#   From: 2010.05.17/outbox.cif.g08.bks.cpg/sg2_302_cif.got.tgz:602381.got - 2010.06.03 11:33:40.
