data_PCOD9088788
_publ_section_title
;
Structure prediction by ZEFSAII (Michael W. Deem and Ramdas Pophale) SiO2 
 PCOD9088788
Probable space group: P -1
;
_chemical_formula_sum "Si O2"
_cell_formula_units_Z 16
_cell_length_a 11.101018
_cell_length_b 9.135779
_cell_length_c 13.353878
_cell_angle_alpha 117.830606
_cell_angle_beta 55.705932
_cell_angle_gamma 81.590724
_cell_volume 819.607867
_symmetry_space_group_name_H-M "P -1"
_symmetry_group_IT_number 2
_symmetry_cell_setting 'triclinic'
loop_
_space_group_symop_operation_xyz
x,y,z
-x,-y,-z
loop_
_atom_site_type_symbol
_atom_site_label
_atom_site_fract_x
_atom_site_fract_y
_atom_site_fract_z
Si Si1 0.205440 0.751404 0.608497
Si Si2 0.466286 0.201105 0.030592
Si Si3 0.556274 0.984616 0.728798
Si Si4 0.186047 0.869644 0.070733
Si Si5 0.656128 0.013576 0.476035
Si Si6 0.751457 0.071148 0.169464
Si Si7 0.796336 0.590556 0.610045
Si Si8 0.974612 0.706862 0.096816
O O1 0.241113 0.769018 0.714517
O O2 0.233488 0.550896 0.490718
O O3 0.328861 0.807846 0.513341
O O4 0.999017 0.930052 0.744032
O O5 0.302722 0.373813 0.225939
O O6 0.643539 0.189706 0.965611
O O7 0.500000 0.000000 0.000000
O O8 0.447637 0.175737 0.913842
O O9 0.632965 0.022869 0.608147
O O10 0.429960 0.913622 0.733392
O O11 0.708810 0.803274 0.664558
O O12 0.150501 0.696634 0.034309
O O13 0.214639 0.911756 0.956437
O O14 0.835875 0.819917 0.287702
O O15 0.500000 0.000000 0.500000
O O16 0.890950 0.858477 0.089196
O O17 0.000000 0.500000 0.500000
O O18 0.000000 0.500000 0.000000
#
# Coordination Sequence:
#
# PCOD9088788 Si02
#       8
#     2   2   2   2   2   2   2   2
#     4  10  21  36  61  90 125 149 196 252 296 349
#     4  10  20  38  61  82 118 158 197 240 298 348
#     4  11  21  40  64  86 118 166 199 236 302 362
#     4  10  19  39  61  86 119 158 199 237 302 358
#     4  10  20  41  59  86 127 160 192 237 308 360
#     4  10  19  37  63  88 116 156 196 241 308 346
#     4  11  24  40  59  93 119 152 206 256 290 344
#     4  10  22  37  59  91 123 155 194 248 296 349
#
# _framework density 19.521531
#
# number of rings (size 3 to 8) (size 9 to 14) (size 15 to 20)
#    0.000    2.000    5.000    3.000    0.000    3.500 
#    0.000    6.250    0.000    0.000    0.000    0.000 
#    0.000    0.000    0.000    0.000    0.000    0.000 
#
# Total GULP energy -89249.246763 kJ/mol
# GULP energy per Si atom -5578.077923 kJ/mol
# Density = 1.947710 g / cm^3
# Si number density = 19.521531 Si / 1000 Ang^3
#
#
#
# Elastic Constant Matrix: (Units=GPa)
#
#
# Indices 1 2 3 4 5 6 
#
# 1 94.6926 7.7763 28.4407 -0.1248 -5.1597 21.1516
# 2 7.7763 45.5785 24.6938 -13.3458 12.6067 15.8340
# 3 28.4407 24.6938 77.0866 -12.7472 18.0171 7.7480
# 4 -0.1248 -13.3458 -12.7472 30.7752 5.9880 3.1512
# 5 -5.1597 12.6067 18.0171 5.9880 42.4066 -6.5512
# 6 21.1516 15.8340 7.7480 3.1512 -6.5512 29.1483
#
#
#
# Elastic Compliance Matrix: (Units=1/GPa)
#
#
# Indices 1 2 3 4 5 6 
#
# 1 0.014502 0.004360 -0.005825 0.000451 0.001160 -0.011132
# 2 0.004360 0.051823 -0.004044 0.029298 -0.023263 -0.038636
# 3 -0.005825 -0.004044 0.020349 0.008758 -0.009715 -0.002116
# 4 0.000451 0.029298 0.008758 0.056818 -0.025088 -0.030352
# 5 0.001160 -0.023263 -0.009715 -0.025088 0.042421 0.026625
# 6 -0.011132 -0.038636 -0.002116 -0.030352 0.026625 0.073201
#
#
# Mechanical properties :
#
#
# Convention : Reuss Voigt Hill
#
# Bulk Modulus (GPa) = 13.21774 37.68659 25.45217
# Shear Modulus (GPa) = 16.92907 30.89580 23.91243
#
# Velocity S-wave (km/s) = 2.94802 3.98257 3.50369
# Velocity P-wave (km/s) = 4.28641 6.36356 5.42532
#
# Compressibility (1/GPa) = 0.07565587
#
# Stress axis : x y z
#
# Youngs Moduli (GPa) = 68.95490 19.29657 49.14338
#
# Poissons Ratio (x) = -0.08414 0.28625
# Poissons Ratio (y) = -0.30065 0.19874
# Poissons Ratio (z) = 0.40165 0.07804
#
# Static dielectric constant tensor:
#      x y z
#    x 1.724680 -0.003610 0.014360 
#    y -0.003610 1.673070 0.003810 
#    z 0.014360 0.003810 1.728850 
# 
# From -- ./inp_files/513541.got.cif
#   From: 2010.05.17/outbox.cif.g08.bks.cpg/sg2_257_cif.got.tgz:513541.got - 2010.06.03 11:33:40.
