data_PCOD9088245
_publ_section_title
;
Structure prediction by ZEFSAII (Michael W. Deem and Ramdas Pophale) SiO2 
 PCOD9088245
Probable space group: P -1
;
_chemical_formula_sum "Si O2"
_cell_formula_units_Z 16
_cell_length_a 5.152125
_cell_length_b 9.403783
_cell_length_c 19.161881
_cell_angle_alpha 88.927874
_cell_angle_beta 39.797308
_cell_angle_gamma 78.033465
_cell_volume 566.477545
_symmetry_space_group_name_H-M "P -1"
_symmetry_group_IT_number 2
_symmetry_cell_setting 'triclinic'
loop_
_space_group_symop_operation_xyz
x,y,z
-x,-y,-z
loop_
_atom_site_type_symbol
_atom_site_label
_atom_site_fract_x
_atom_site_fract_y
_atom_site_fract_z
Si Si1 0.221881 0.107475 0.359101
Si Si2 0.326499 0.698135 0.151441
Si Si3 0.954774 0.566580 0.921924
Si Si4 0.588430 0.626611 0.526695
Si Si5 0.893189 0.866802 0.450769
Si Si6 0.515600 0.999889 0.081060
Si Si7 0.500985 0.239206 0.183563
Si Si8 0.207002 0.498155 0.713251
O O1 0.168199 0.136474 0.452591
O O2 0.578542 0.143982 0.239226
O O3 0.802940 0.221629 0.408550
O O4 0.257775 0.933900 0.348733
O O5 0.339307 0.867305 0.148175
O O6 0.899581 0.659884 0.265262
O O7 0.730166 0.585635 0.109862
O O8 0.459789 0.626324 0.046759
O O9 0.063994 0.558191 0.818648
O O10 0.103085 0.706463 0.919901
O O11 0.500000 0.500000 0.500000
O O12 0.953761 0.695325 0.422295
O O13 0.586313 0.559304 0.605312
O O14 0.500000 0.000000 0.500000
O O15 0.313066 0.148540 0.167612
O O16 0.500000 0.000000 0.000000
O O17 0.000000 0.000000 0.000000
O O18 0.157922 0.400005 0.263076
#
# Coordination Sequence:
#
# PCOD9088245 Si02
#       8
#     2   2   2   2   2   2   2   2
#     4   9  19  37  60  85 114 154 206 246 301 372
#     4  10  22  36  59  86 119 157 200 248 307 364
#     4  10  19  37  60  84 118 153 205 244 305 359
#     4  10  21  36  56  86 118 151 194 252 317 359
#     4   9  18  36  58  83 114 154 198 246 304 367
#     4  12  26  43  62  92 130 167 207 260 318 369
#     4  10  21  37  60  89 115 160 204 256 304 370
#     4  10  21  37  60  86 113 159 205 252 298 383
#
# _framework density 28.244719
#
# number of rings (size 3 to 8) (size 9 to 14) (size 15 to 20)
#    0.000    2.000    1.250    1.875    1.750    1.500 
#    0.000    3.750    0.000    0.000    0.000    0.000 
#    0.000    0.000    0.000    0.000    0.000    0.000 
#
# Total GULP energy -89277.704176 kJ/mol
# GULP energy per Si atom -5579.856511 kJ/mol
# Density = 2.818043 g / cm^3
# Si number density = 28.244719 Si / 1000 Ang^3
#
#
#
# Elastic Constant Matrix: (Units=GPa)
#
#
# Indices 1 2 3 4 5 6 
#
# 1 80.0973 44.2167 21.0065 -21.4688 21.4907 -0.0435
# 2 44.2167 280.2737 60.8427 -66.8388 9.4228 10.0360
# 3 21.0065 60.8427 131.4028 -43.6391 23.1517 12.3202
# 4 -21.4688 -66.8388 -43.6391 61.5991 1.8130 -6.1014
# 5 21.4907 9.4228 23.1517 1.8130 47.4281 -3.3943
# 6 -0.0435 10.0360 12.3202 -6.1014 -3.3943 49.3043
#
#
#
# Elastic Compliance Matrix: (Units=1/GPa)
#
#
# Indices 1 2 3 4 5 6 
#
# 1 0.016486 -0.001300 0.001154 0.005398 -0.007974 0.000110
# 2 -0.001300 0.005002 -0.000478 0.004612 -0.000373 -0.000355
# 3 0.001154 -0.000478 0.011745 0.008174 -0.006637 -0.002282
# 4 0.005398 0.004612 0.008174 0.029164 -0.008463 0.000050
# 5 -0.007974 -0.000373 -0.006637 -0.008463 0.028524 0.002644
# 6 0.000110 -0.000355 -0.002282 0.000050 0.002644 0.021113
#
#
# Mechanical properties :
#
#
# Convention : Reuss Voigt Hill
#
# Bulk Modulus (GPa) = 31.26451 82.65618 56.96035
# Shear Modulus (GPa) = 40.34126 56.04682 48.19404
#
# Velocity S-wave (km/s) = 3.78335 4.45941 4.13522
# Velocity P-wave (km/s) = 5.49347 7.47282 6.55825
#
# Compressibility (1/GPa) = 0.03198514
#
# Stress axis : x y z
#
# Youngs Moduli (GPa) = 60.65672 199.93174 85.14576
#
# Poissons Ratio (x) = 0.25988 -0.09823
# Poissons Ratio (y) = 0.07884 0.04066
# Poissons Ratio (z) = -0.06998 0.09547
#
# Static dielectric constant tensor:
#      x y z
#    x 2.500580 0.089380 -0.261660 
#    y 0.089380 2.306520 0.015310 
#    z -0.261660 0.015310 2.603910 
# 
# From -- ./inp_files/37396.got.cif
#   From: 2010.05.17/outbox.cif.g08.bks.cpg/sg2_19_cif.got.tgz:37396.got - 2010.06.03 11:33:40.
