data_PCOD9088730
_publ_section_title
;
Structure prediction by ZEFSAII (Michael W. Deem and Ramdas Pophale) SiO2 
 PCOD9088730
Probable space group: P -1
;
_chemical_formula_sum "Si O2"
_cell_formula_units_Z 14
_cell_length_a 10.303142
_cell_length_b 17.241253
_cell_length_c 17.106111
_cell_angle_alpha 23.252200
_cell_angle_beta 28.116669
_cell_angle_gamma 30.840324
_cell_volume 546.001866
_symmetry_space_group_name_H-M "P -1"
_symmetry_group_IT_number 2
_symmetry_cell_setting 'triclinic'
loop_
_space_group_symop_operation_xyz
x,y,z
-x,-y,-z
loop_
_atom_site_type_symbol
_atom_site_label
_atom_site_fract_x
_atom_site_fract_y
_atom_site_fract_z
Si Si1 0.937595 0.980695 0.889992
Si Si2 0.468554 0.385464 0.816169
Si Si3 0.002742 0.174094 0.521943
Si Si4 0.267189 0.446253 0.348229
Si Si5 0.801641 0.570927 0.352343
Si Si6 0.554342 0.019100 0.280365
Si Si7 0.772221 0.942711 0.731668
O O1 0.091692 0.038437 0.678092
O O2 0.157574 0.930789 0.891280
O O3 0.707556 0.191662 0.834891
O O4 0.800996 0.795183 0.117576
O O5 0.525835 0.437782 0.826778
O O6 0.543843 0.557936 0.561162
O O7 0.193762 0.294740 0.045118
O O8 0.833999 0.401121 0.425695
O O9 0.281569 0.166565 0.329660
O O10 0.807776 0.061067 0.680924
O O11 0.417105 0.208339 0.492365
O O12 0.000000 0.500000 0.500000
O O13 0.106588 0.501622 0.300796
O O14 0.502379 0.006118 0.227584
O O15 0.000000 0.000000 0.500000
#
# Coordination Sequence:
#
# PCOD9088730 Si02
#       7
#     2   2   2   2   2   2   2
#     4  11  22  39  72  95 122 171 206 269 324 357
#     4  10  22  41  65  93 132 154 219 265 306 373
#     4  10  23  46  58  94 136 164 215 256 310 385
#     4  10  19  37  63 102 127 154 213 266 314 368
#     4  10  22  38  64  98 126 161 209 263 320 371
#     4  11  21  41  70  93 128 172 206 265 317 367
#     4  10  24  44  65  88 130 175 207 256 317 378
#
# _framework density 25.640940000000001
#
# number of rings (size 3 to 8) (size 9 to 14) (size 15 to 20)
#    0.000    1.714    4.286    1.286    4.000    4.000 
#    7.714    2.857    0.000    0.000    0.000    0.000 
#    0.000    0.000    0.000    0.000    0.000    0.000 
#
# Total GULP energy -78272.142193 kJ/mol
# GULP energy per Si atom -5590.867299 kJ/mol
# Density = 2.558258 g / cm^3
# Si number density = 25.640940 Si / 1000 Ang^3
#
#
#
# Elastic Constant Matrix: (Units=GPa)
#
#
# Indices 1 2 3 4 5 6 
#
# 1 120.0902 14.8731 20.1756 -14.7841 -24.6686 18.3158
# 2 14.8731 62.3944 18.0854 -0.4962 -4.7771 8.6655
# 3 20.1756 18.0854 148.1058 -10.0527 -35.8311 17.5871
# 4 -14.7841 -0.4962 -10.0527 32.8135 6.1329 -4.3528
# 5 -24.6686 -4.7771 -35.8311 6.1329 49.3509 -7.1605
# 6 18.3158 8.6655 17.5871 -4.3528 -7.1605 33.2602
#
#
#
# Elastic Compliance Matrix: (Units=1/GPa)
#
#
# Indices 1 2 3 4 5 6 
#
# 1 0.010416 -0.001705 0.000596 0.003464 0.004434 -0.004199
# 2 -0.001705 0.017297 -0.001800 -0.001309 -0.000750 -0.002948
# 3 0.000596 -0.001800 0.008770 0.001426 0.005872 -0.003045
# 4 0.003464 -0.001309 0.001426 0.032906 -0.001198 0.001728
# 5 0.004434 -0.000750 0.005872 -0.001198 0.026859 0.000274
# 6 -0.004199 -0.002948 -0.003045 0.001728 0.000274 0.035042
#
#
# Mechanical properties :
#
#
# Convention : Reuss Voigt Hill
#
# Bulk Modulus (GPa) = 32.61253 48.53986 40.57620
# Shear Modulus (GPa) = 33.93753 41.58199 37.75976
#
# Velocity S-wave (km/s) = 3.64203 4.03141 3.84166
# Velocity P-wave (km/s) = 5.51656 6.37506 5.96128
#
# Compressibility (1/GPa) = 0.03066306
#
# Stress axis : x y z
#
# Youngs Moduli (GPa) = 96.00740 57.81352 114.03123
#
# Poissons Ratio (x) = 0.09860 -0.06794
# Poissons Ratio (y) = 0.16373 0.20527
# Poissons Ratio (z) = -0.05720 0.10407
#
# Static dielectric constant tensor:
#      x y z
#    x 2.046940 -0.062460 -0.027530 
#    y -0.062460 2.029350 0.030710 
#    z -0.027530 0.030710 2.147710 
# 
# From -- ./inp_files/596166.got.cif
#   From: 2010.05.17/outbox.cif.g08.bks.cpg/sg2_299_cif.got.tgz:596166.got - 2010.06.03 11:33:40.
