data_PCOD9088678
_publ_section_title
;
Structure prediction by ZEFSAII (Michael W. Deem and Ramdas Pophale) SiO2 
 PCOD9088678
Probable space group: P -1
;
_chemical_formula_sum "Si O2"
_cell_formula_units_Z 16
_cell_length_a 14.055138
_cell_length_b 9.216029
_cell_length_c 10.312659
_cell_angle_alpha 102.379633
_cell_angle_beta 125.510502
_cell_angle_gamma 41.411874
_cell_volume 655.742828
_symmetry_space_group_name_H-M "P -1"
_symmetry_group_IT_number 2
_symmetry_cell_setting 'triclinic'
loop_
_space_group_symop_operation_xyz
x,y,z
-x,-y,-z
loop_
_atom_site_type_symbol
_atom_site_label
_atom_site_fract_x
_atom_site_fract_y
_atom_site_fract_z
Si Si1 0.962904 0.596268 0.844184
Si Si2 0.375785 0.146808 0.087805
Si Si3 0.154818 0.814924 0.700824
Si Si4 0.346053 0.910580 0.853659
Si Si5 0.308501 0.352948 0.335935
Si Si6 0.711822 0.067587 0.621697
Si Si7 0.918917 0.139086 0.826814
Si Si8 0.967819 0.707483 0.511548
O O1 0.822133 0.617179 0.670901
O O2 0.848328 0.861613 0.799040
O O3 0.171640 0.399405 0.915863
O O4 0.000000 0.500000 0.000000
O O5 0.385463 0.962258 0.026675
O O6 0.519310 0.123868 0.138076
O O7 0.382559 0.166160 0.248970
O O8 0.339929 0.736186 0.812119
O O9 0.145745 0.642826 0.662118
O O10 0.000000 0.000000 0.500000
O O11 0.069698 0.956882 0.797401
O O12 0.136687 0.152092 0.679290
O O13 0.169082 0.610230 0.206867
O O14 0.497775 0.238149 0.513012
O O15 0.813688 0.905704 0.539631
O O16 0.739745 0.213838 0.668039
O O17 0.000000 0.000000 0.000000
O O18 0.000000 0.500000 0.500000
#
# Coordination Sequence:
#
# PCOD9088678 Si02
#       8
#     2   2   2   2   2   2   2   2
#     4  10  21  37  60  86 122 166 215 270 337 389
#     4  10  20  35  63  92 125 175 218 277 337 396
#     4   9  21  41  66  98 132 175 228 278 335 404
#     4  10  19  37  62  91 128 174 225 269 338 402
#     4  11  22  40  64  95 132 173 229 283 333 409
#     4  11  22  40  61  96 128 170 226 283 336 407
#     4  11  23  40  68 100 136 180 219 278 351 410
#     4  10  20  36  64  94 128 169 221 281 337 397
#
# _framework density 24.399809000000001
#
# number of rings (size 3 to 8) (size 9 to 14) (size 15 to 20)
#    0.000    1.750    1.250    3.750    0.000    3.000 
#    0.000    0.000    0.000   17.250    0.000    0.000 
#    0.000    0.000    0.000    0.000    0.000    0.000 
#
# Total GULP energy -89216.766372 kJ/mol
# GULP energy per Si atom -5576.047898 kJ/mol
# Density = 2.434427 g / cm^3
# Si number density = 24.399809 Si / 1000 Ang^3
#
#
#
# Elastic Constant Matrix: (Units=GPa)
#
#
# Indices 1 2 3 4 5 6 
#
# 1 96.5184 24.4270 37.4733 28.2235 43.8947 26.5056
# 2 24.4270 61.4052 26.2100 19.1555 15.7238 32.2183
# 3 37.4733 26.2100 69.2590 12.4659 23.5217 9.9902
# 4 28.2235 19.1555 12.4659 34.0237 7.3185 6.0148
# 5 43.8947 15.7238 23.5217 7.3185 74.9207 11.8487
# 6 26.5056 32.2183 9.9902 6.0148 11.8487 43.0306
#
#
#
# Elastic Compliance Matrix: (Units=1/GPa)
#
#
# Indices 1 2 3 4 5 6 
#
# 1 0.025683 0.010534 -0.008686 -0.019007 -0.010104 -0.016252
# 2 0.010534 0.040315 -0.011404 -0.021053 -0.004266 -0.029909
# 3 -0.008686 -0.011404 0.021827 0.004368 -0.001145 0.008526
# 4 -0.019007 -0.021053 0.004368 0.050922 0.006430 0.017568
# 5 -0.010104 -0.004266 -0.001145 0.006430 0.019347 0.003458
# 6 -0.016252 -0.029909 0.008526 0.017568 0.003458 0.050256
#
#
# Mechanical properties :
#
#
# Convention : Reuss Voigt Hill
#
# Bulk Modulus (GPa) = 14.55305 44.82257 29.68781
# Shear Modulus (GPa) = 19.97076 39.66650 29.81863
#
# Velocity S-wave (km/s) = 2.86401 4.03636 3.49963
# Velocity P-wave (km/s) = 4.11268 6.33505 5.34074
#
# Compressibility (1/GPa) = 0.06871411
#
# Stress axis : x y z
#
# Youngs Moduli (GPa) = 38.93599 24.80469 45.81519
#
# Poissons Ratio (x) = -0.26130 0.39794
# Poissons Ratio (y) = -0.41017 0.52248
# Poissons Ratio (z) = 0.33819 0.28287
#
# Static dielectric constant tensor:
#      x y z
#    x 2.042480 -0.015290 0.002050 
#    y -0.015290 1.970740 0.045340 
#    z 0.002050 0.045340 1.998410 
# 
# From -- ./inp_files/447889.got.cif
#   From: 2010.05.17/outbox.cif.g08.bks.cpg/sg2_224_cif.got.tgz:447889.got - 2010.06.03 11:33:40.
