data_PCOD9088720
_publ_section_title
;
Structure prediction by ZEFSAII (Michael W. Deem and Ramdas Pophale) SiO2 
 PCOD9088720
Probable space group: P -1
;
_chemical_formula_sum "Si O2"
_cell_formula_units_Z 16
_cell_length_a 8.100324
_cell_length_b 18.962130
_cell_length_c 13.809536
_cell_angle_alpha 23.645884
_cell_angle_beta 54.804698
_cell_angle_gamma 56.159807
_cell_volume 692.518701
_symmetry_space_group_name_H-M "P -1"
_symmetry_group_IT_number 2
_symmetry_cell_setting 'triclinic'
loop_
_space_group_symop_operation_xyz
x,y,z
-x,-y,-z
loop_
_atom_site_type_symbol
_atom_site_label
_atom_site_fract_x
_atom_site_fract_y
_atom_site_fract_z
Si Si1 0.511145 0.079698 0.585298
Si Si2 0.573348 0.713525 0.064157
Si Si3 0.068371 0.525473 0.826147
Si Si4 0.024368 0.132726 0.672978
Si Si5 0.382637 0.764482 0.845260
Si Si6 0.975261 0.757364 0.101236
Si Si7 0.820793 0.392384 0.580940
Si Si8 0.674540 0.438052 0.115336
O O1 0.265506 0.079435 0.674138
O O2 0.576152 0.095933 0.429397
O O3 0.580024 0.255735 0.389136
O O4 0.622439 0.913591 0.812743
O O5 0.754603 0.562736 0.190267
O O6 0.406490 0.657084 0.264995
O O7 0.481666 0.747314 0.942158
O O8 0.190236 0.507484 0.908070
O O9 0.000119 0.731795 0.578187
O O10 0.865941 0.431671 0.986644
O O11 0.934177 0.260720 0.628844
O O12 0.912165 0.958436 0.905267
O O13 0.493013 0.589530 0.977554
O O14 0.147475 0.775623 0.938758
O O15 0.837348 0.604151 0.306753
O O16 0.077156 0.672029 0.270962
#
# Coordination Sequence:
#
# PCOD9088720 Si02
#       8
#     2   2   2   2   2   2   2   2
#     4  12  22  36  69 101 116 167 221 264 316 382
#     4  10  23  42  61  89 134 172 202 267 323 377
#     4  10  24  43  58  90 137 172 201 259 336 378
#     4  12  23  41  70 100 123 169 223 265 309 389
#     4  10  19  37  62  97 127 155 211 270 316 373
#     4  10  22  38  66 100 129 166 207 277 322 363
#     4  10  22  42  63  95 133 165 218 266 317 368
#     4  10  22  39  62  91 137 168 202 263 331 390
#
# _framework density 23.104071999999999
#
# number of rings (size 3 to 8) (size 9 to 14) (size 15 to 20)
#    0.000    1.500    3.750    1.875    1.750    2.000 
#    2.250    0.625    0.000    0.000    0.000    0.000 
#    0.000    0.000    0.000    0.000    0.000    0.000 
#
# Total GULP energy -89127.886510 kJ/mol
# GULP energy per Si atom -5570.492907 kJ/mol
# Density = 2.305149 g / cm^3
# Si number density = 23.104072 Si / 1000 Ang^3
#
#
#
# Elastic Constant Matrix: (Units=GPa)
#
#
# Indices 1 2 3 4 5 6 
#
# 1 52.7872 16.2827 13.6847 3.8199 -10.6449 0.9467
# 2 16.2827 97.9228 31.9294 0.4076 -23.6474 -3.9859
# 3 13.6847 31.9294 118.4664 -26.9214 -31.0620 -4.4877
# 4 3.8199 0.4076 -26.9214 35.9943 2.7086 6.1105
# 5 -10.6449 -23.6474 -31.0620 2.7086 30.3571 -2.2963
# 6 0.9467 -3.9859 -4.4877 6.1105 -2.2963 28.7400
#
#
#
# Elastic Compliance Matrix: (Units=1/GPa)
#
#
# Indices 1 2 3 4 5 6 
#
# 1 0.021140 -0.001857 -0.001559 -0.003738 0.004703 -0.000027
# 2 -0.001857 0.013184 -0.001506 -0.002193 0.008485 0.002799
# 3 -0.001559 -0.001506 0.014582 0.009990 0.012383 0.000985
# 4 -0.003738 -0.002193 0.009990 0.036447 0.003490 -0.006091
# 5 0.004703 0.008485 0.012383 0.003490 0.054053 0.006532
# 6 -0.000027 0.002799 0.000985 -0.006091 0.006532 0.037154
#
#
# Mechanical properties :
#
#
# Convention : Reuss Voigt Hill
#
# Bulk Modulus (GPa) = 25.60040 43.66334 34.63187
# Shear Modulus (GPa) = 25.07206 32.83691 28.95449
#
# Velocity S-wave (km/s) = 3.29778 3.77405 3.54393
# Velocity P-wave (km/s) = 5.06014 6.15880 5.63630
#
# Compressibility (1/GPa) = 0.03906189
#
# Stress axis : x y z
#
# Youngs Moduli (GPa) = 47.30321 75.84885 68.57946
#
# Poissons Ratio (x) = 0.14083 0.10691
# Poissons Ratio (y) = 0.08783 0.10331
# Poissons Ratio (z) = 0.07374 0.11426
#
# Static dielectric constant tensor:
#      x y z
#    x 1.979280 0.101440 0.015700 
#    y 0.101440 2.045940 0.057270 
#    z 0.015700 0.057270 1.932580 
# 
# From -- ./inp_files/508036.got.cif
#   From: 2010.05.17/outbox.cif.g08.bks.cpg/sg2_255_cif.got.tgz:508036.got - 2010.06.03 11:33:40.
