data_PCOD9088178
_publ_section_title
;
Structure prediction by ZEFSAII (Michael W. Deem and Ramdas Pophale) SiO2 
 PCOD9088178
Probable space group: P -1
;
_chemical_formula_sum "Si O2"
_cell_formula_units_Z 16
_cell_length_a 15.700119
_cell_length_b 7.123947
_cell_length_c 11.260427
_cell_angle_alpha 68.070112
_cell_angle_beta 35.602394
_cell_angle_gamma 84.154400
_cell_volume 630.862891
_symmetry_space_group_name_H-M "P -1"
_symmetry_group_IT_number 2
_symmetry_cell_setting 'triclinic'
loop_
_space_group_symop_operation_xyz
x,y,z
-x,-y,-z
loop_
_atom_site_type_symbol
_atom_site_label
_atom_site_fract_x
_atom_site_fract_y
_atom_site_fract_z
Si Si1 0.081336 0.441888 0.259032
Si Si2 0.124641 0.612289 0.937421
Si Si3 0.594737 0.047117 0.607530
Si Si4 0.293112 0.778354 0.298809
Si Si5 0.101023 0.192845 0.757760
Si Si6 0.667705 0.858837 0.022780
Si Si7 0.997690 0.175489 0.630811
Si Si8 0.572066 0.564181 0.711307
O O1 0.091454 0.661586 0.267171
O O2 0.894253 0.308836 0.483331
O O3 0.111495 0.291954 0.365537
O O4 0.170746 0.479266 0.020980
O O5 0.271353 0.815942 0.672000
O O6 0.000000 0.500000 0.000000
O O7 0.007407 0.670773 0.142680
O O8 0.669208 0.150008 0.624814
O O9 0.437329 0.101135 0.760206
O O10 0.551107 0.786079 0.721478
O O11 0.360444 0.584437 0.245751
O O12 0.354417 0.982042 0.093197
O O13 0.274901 0.328917 0.573135
O O14 0.096855 0.134217 0.637890
O O15 0.000000 0.000000 0.000000
O O16 0.576827 0.613735 0.138937
O O17 0.852103 0.955627 0.819093
#
# Coordination Sequence:
#
# PCOD9088178 Si02
#       8
#     2   2   2   2   2   2   2   2
#     4   9  17  34  63  88 116 162 210 254 309 362
#     4  11  18  33  61  90 123 152 209 261 301 364
#     4  11  21  33  60  94 122 162 207 257 309 368
#     4  10  19  37  59  90 121 164 214 256 305 366
#     4  11  21  38  64  92 116 162 209 256 313 361
#     4  10  23  39  60  87 127 170 202 252 319 378
#     4   9  19  38  64  86 120 167 206 250 318 374
#     4  11  20  36  61  89 127 157 211 260 300 373
#
# _framework density 25.362089000000001
#
# number of rings (size 3 to 8) (size 9 to 14) (size 15 to 20)
#    0.000    1.750    5.000    2.250    0.000    2.000 
#    0.000    3.125    8.250    3.750    0.000    0.000 
#    0.000    0.000    0.000    0.000    0.000    0.000 
#
# Total GULP energy -89243.886229 kJ/mol
# GULP energy per Si atom -5577.742889 kJ/mol
# Density = 2.530436 g / cm^3
# Si number density = 25.362089 Si / 1000 Ang^3
#
#
#
# Elastic Constant Matrix: (Units=GPa)
#
#
# Indices 1 2 3 4 5 6 
#
# 1 80.2937 32.8557 47.3210 -12.1696 10.2063 8.1627
# 2 32.8557 109.1654 47.0919 -31.7936 7.1450 12.3136
# 3 47.3210 47.0919 174.1645 -26.3785 14.9600 25.5404
# 4 -12.1696 -31.7936 -26.3785 46.6138 2.0903 -3.9700
# 5 10.2063 7.1450 14.9600 2.0903 39.9452 2.5876
# 6 8.1627 12.3136 25.5404 -3.9700 2.5876 22.6847
#
#
#
# Elastic Compliance Matrix: (Units=1/GPa)
#
#
# Indices 1 2 3 4 5 6 
#
# 1 0.016008 -0.003181 -0.003237 0.000275 -0.002318 -0.000076
# 2 -0.003181 0.013154 -0.000950 0.007367 -0.001344 -0.003483
# 3 -0.003237 -0.000950 0.008520 0.002798 -0.001873 -0.007208
# 4 0.000275 0.007367 0.002798 0.028142 -0.003786 -0.001892
# 5 -0.002318 -0.001344 -0.001873 -0.003786 0.026770 -0.000043
# 6 -0.000076 -0.003483 -0.007208 -0.001892 -0.000043 0.053790
#
#
# Mechanical properties :
#
#
# Convention : Reuss Voigt Hill
#
# Bulk Modulus (GPa) = 43.58284 68.68453 56.13369
# Shear Modulus (GPa) = 29.62614 37.60574 33.61594
#
# Velocity S-wave (km/s) = 3.42149 3.85483 3.64461
# Velocity P-wave (km/s) = 5.72978 6.85225 6.31600
#
# Compressibility (1/GPa) = 0.02294481
#
# Stress axis : x y z
#
# Youngs Moduli (GPa) = 62.46901 76.02054 117.37015
#
# Poissons Ratio (x) = 0.24182 0.37997
# Poissons Ratio (y) = 0.19871 0.11155
# Poissons Ratio (z) = 0.20224 0.07225
#
# Static dielectric constant tensor:
#      x y z
#    x 3.244130 0.001840 0.546350 
#    y 0.001840 1.842790 0.053140 
#    z 0.546350 0.053140 2.210200 
# 
# From -- ./inp_files/462884.got.cif
#   From: 2010.05.17/outbox.cif.g08.bks.cpg/sg2_232_cif.got.tgz:462884.got - 2010.06.03 11:33:40.
