data_PCOD9088420
_publ_section_title
;
Structure prediction by ZEFSAII (Michael W. Deem and Ramdas Pophale) SiO2 
 PCOD9088420
Probable space group: P -1
;
_chemical_formula_sum "Si O2"
_cell_formula_units_Z 16
_cell_length_a 26.938003
_cell_length_b 5.290584
_cell_length_c 17.684892
_cell_angle_alpha 93.707814
_cell_angle_beta 18.170992
_cell_angle_gamma 89.058588
_cell_volume 759.400776
_symmetry_space_group_name_H-M "P -1"
_symmetry_group_IT_number 2
_symmetry_cell_setting 'triclinic'
loop_
_space_group_symop_operation_xyz
x,y,z
-x,-y,-z
loop_
_atom_site_type_symbol
_atom_site_label
_atom_site_fract_x
_atom_site_fract_y
_atom_site_fract_z
Si Si1 0.630852 0.126715 0.082394
Si Si2 0.261540 0.262874 0.591444
Si Si3 0.901176 0.499006 0.921944
Si Si4 0.376732 0.397196 0.002390
Si Si5 0.002999 0.262538 0.070028
Si Si6 0.277891 0.873673 0.441513
Si Si7 0.180858 0.644921 0.435022
Si Si8 0.838294 0.997317 0.930878
O O1 0.434497 0.222572 0.380305
O O2 0.673188 0.358523 0.977197
O O3 0.660961 0.858996 0.985447
O O4 0.726286 0.073549 0.021587
O O5 0.144475 0.549102 0.758887
O O6 0.295766 0.147465 0.454690
O O7 0.146126 0.116366 0.804062
O O8 0.837897 0.249903 0.986596
O O9 0.913075 0.559752 0.993760
O O10 0.085195 0.471036 0.620318
O O11 0.799280 0.762945 0.032441
O O12 0.572541 0.325610 0.735500
O O13 0.285122 0.478633 0.215334
O O14 0.907947 0.122326 0.263815
O O15 0.283893 0.786068 0.344510
O O16 0.027496 0.869030 0.629593
#
# Coordination Sequence:
#
# PCOD9088420 Si02
#       8
#     2   2   2   2   2   2   2   2
#     4  11  24  40  57  84 121 148 194 237 281 335
#     4  10  21  36  60  87 114 150 187 235 294 338
#     4   9  21  38  59  86 112 150 194 236 277 335
#     4  11  23  38  58  88 115 154 188 236 286 334
#     4  10  19  37  61  86 112 149 189 237 288 346
#     4  10  19  39  57  87 117 148 185 242 282 344
#     4   9  22  36  61  84 117 153 193 229 283 338
#     4  10  21  40  59  80 119 154 190 236 279 330
#
# _framework density 21.069244000000001
#
# number of rings (size 3 to 8) (size 9 to 14) (size 15 to 20)
#    0.750    1.250    1.250    2.250    1.750    1.000 
#    0.000    3.125    0.000    0.000    0.000    0.000 
#    0.000    0.000    0.000    0.000    0.000    0.000 
#
# Total GULP energy -89208.978570 kJ/mol
# GULP energy per Si atom -5575.561161 kJ/mol
# Density = 2.102129 g / cm^3
# Si number density = 21.069244 Si / 1000 Ang^3
#
#
#
# Elastic Constant Matrix: (Units=GPa)
#
#
# Indices 1 2 3 4 5 6 
#
# 1 130.8058 24.4761 42.2494 22.5584 -17.5704 10.4273
# 2 24.4761 88.4096 16.5104 28.4234 -0.9650 6.0871
# 3 42.2494 16.5104 38.4482 16.0035 4.8820 7.2117
# 4 22.5584 28.4234 16.0035 19.2875 0.0967 3.6400
# 5 -17.5704 -0.9650 4.8820 0.0967 32.8956 1.2233
# 6 10.4273 6.0871 7.2117 3.6400 1.2233 33.2958
#
#
#
# Elastic Compliance Matrix: (Units=1/GPa)
#
#
# Indices 1 2 3 4 5 6 
#
# 1 0.014983 0.000721 -0.015584 -0.005475 0.010398 -0.001232
# 2 0.000721 0.022547 0.005829 -0.038644 0.000347 -0.001398
# 3 -0.015584 0.005829 0.059844 -0.039131 -0.016761 -0.004254
# 4 -0.005475 -0.038644 -0.039131 0.147456 0.001275 0.001088
# 5 0.010398 0.000347 -0.016761 0.001275 0.038493 -0.001243
# 6 -0.001232 -0.001398 -0.004254 0.001088 -0.001243 0.031523
#
#
# Mechanical properties :
#
#
# Convention : Reuss Voigt Hill
#
# Bulk Modulus (GPa) = 12.60942 47.12615 29.86779
# Shear Modulus (GPa) = 13.91404 28.72430 21.31917
#
# Velocity S-wave (km/s) = 2.57260 3.69633 3.18443
# Velocity P-wave (km/s) = 3.84995 6.37440 5.26570
#
# Compressibility (1/GPa) = 0.07930577
#
# Stress axis : x y z
#
# Youngs Moduli (GPa) = 66.74360 44.35218 16.71005
#
# Poissons Ratio (x) = -0.03197 0.26041
# Poissons Ratio (y) = -0.04811 -0.09740
# Poissons Ratio (z) = 1.04012 -0.25853
#
# Static dielectric constant tensor:
#      x y z
#    x 1.754920 -0.018390 0.017350 
#    y -0.018390 1.861720 -0.022240 
#    z 0.017350 -0.022240 1.761210 
# 
# From -- ./inp_files/75165.got.cif
#   From: 2010.05.17/outbox.cif.g08.bks.cpg/sg2_38_cif.got.tgz:75165.got - 2010.06.03 11:33:40.
