data_PCOD9088340
_publ_section_title
;
Structure prediction by ZEFSAII (Michael W. Deem and Ramdas Pophale) SiO2 
 PCOD9088340
Probable space group: P -1
;
_chemical_formula_sum "Si O2"
_cell_formula_units_Z 14
_cell_length_a 9.511989
_cell_length_b 12.252151
_cell_length_c 22.403104
_cell_angle_alpha 146.310488
_cell_angle_beta 152.882229
_cell_angle_gamma 37.936476
_cell_volume 648.085714
_symmetry_space_group_name_H-M "P -1"
_symmetry_group_IT_number 2
_symmetry_cell_setting 'triclinic'
loop_
_space_group_symop_operation_xyz
x,y,z
-x,-y,-z
loop_
_atom_site_type_symbol
_atom_site_label
_atom_site_fract_x
_atom_site_fract_y
_atom_site_fract_z
Si Si1 0.693890 0.768207 0.469139
Si Si2 0.288241 0.550360 0.046194
Si Si3 0.231890 0.445983 0.475788
Si Si4 0.195241 0.372887 0.201699
Si Si5 0.920898 0.278713 0.170744
Si Si6 0.087668 0.746462 0.170306
Si Si7 0.510782 0.025235 0.086430
O O1 0.781176 0.691503 0.533667
O O2 0.406668 0.667323 0.289743
O O3 0.990957 0.660267 0.492146
O O4 0.500000 0.000000 0.500000
O O5 0.121605 0.544209 0.917086
O O6 0.159994 0.392615 0.969009
O O7 0.657625 0.478518 0.149413
O O8 0.176869 0.747855 0.134541
O O9 0.589868 0.480081 0.624128
O O10 0.126071 0.333085 0.327630
O O11 0.118387 0.239527 0.167067
O O12 0.401337 0.244374 0.170074
O O13 0.726443 0.106773 0.035168
O O14 0.880015 0.954658 0.208838
O O15 0.500000 0.000000 0.000000
#
# Coordination Sequence:
#
# PCOD9088340 Si02
#       7
#     2   2   2   2   2   2   2
#     4  11  23  38  65  98 132 166 221 278 329 383
#     4  10  20  37  65  87 120 166 209 264 317 388
#     4  11  25  41  69  94 134 180 218 268 334 390
#     4  12  23  43  65  95 131 173 219 269 329 399
#     4  11  25  43  63  95 134 173 216 267 333 399
#     4  10  19  37  60  92 121 154 217 268 318 373
#     4  11  24  38  68  96 126 167 218 277 328 381
#
# _framework density 21.602079
#
# number of rings (size 3 to 8) (size 9 to 14) (size 15 to 20)
#    0.000    1.143    4.286    2.143    6.000    0.000 
#    0.000    0.000    0.000    2.571    0.000    0.000 
#    0.000    0.000    0.000    0.000    0.000    0.000 
#
# Total GULP energy -78057.426107 kJ/mol
# GULP energy per Si atom -5575.530436 kJ/mol
# Density = 2.155291 g / cm^3
# Si number density = 21.602079 Si / 1000 Ang^3
#
#
#
# Elastic Constant Matrix: (Units=GPa)
#
#
# Indices 1 2 3 4 5 6 
#
# 1 82.0351 4.3242 21.6761 -3.7629 -10.4099 8.7473
# 2 4.3242 62.7568 12.8747 -7.4539 -7.8907 -1.4688
# 3 21.6761 12.8747 112.1198 -25.0627 -16.8945 4.2466
# 4 -3.7629 -7.4539 -25.0627 34.9443 8.8842 -0.0228
# 5 -10.4099 -7.8907 -16.8945 8.8842 25.6702 4.8484
# 6 8.7473 -1.4688 4.2466 -0.0228 4.8484 20.2546
#
#
#
# Elastic Compliance Matrix: (Units=1/GPa)
#
#
# Indices 1 2 3 4 5 6 
#
# 1 0.014199 -0.000144 -0.001808 -0.001429 0.006397 -0.007296
# 2 -0.000144 0.016850 -0.000930 0.001967 0.003717 0.000591
# 3 -0.001808 -0.000930 0.011741 0.006777 0.004914 -0.002917
# 4 -0.001429 0.001967 0.006777 0.035820 -0.008164 0.001334
# 5 0.006397 0.003717 0.004914 -0.008164 0.051759 -0.015922
# 6 -0.007296 0.000591 -0.002917 0.001334 -0.015922 0.056990
#
#
# Mechanical properties :
#
#
# Convention : Reuss Voigt Hill
#
# Bulk Modulus (GPa) = 27.00670 37.18464 32.09567
# Shear Modulus (GPa) = 24.33515 30.70958 27.52237
#
# Velocity S-wave (km/s) = 3.36001 3.77451 3.57327
# Velocity P-wave (km/s) = 5.25185 6.02052 5.64927
#
# Compressibility (1/GPa) = 0.03702785
#
# Stress axis : x y z
#
# Youngs Moduli (GPa) = 70.42562 59.34722 85.17112
#
# Poissons Ratio (x) = 0.00853 0.15398
# Poissons Ratio (y) = 0.01012 0.07918
# Poissons Ratio (z) = 0.12732 0.05517
#
# Static dielectric constant tensor:
#      x y z
#    x 1.780190 -0.048530 -0.004100 
#    y -0.048530 1.926110 0.056650 
#    z -0.004100 0.056650 1.879200 
# 
# From -- ./inp_files/270815.got.cif
#   From: 2010.05.17/outbox.cif.g08.bks.cpg/sg2_136_cif.got.tgz:270815.got - 2010.06.03 11:33:40.
