data_PCOD9088913
_publ_section_title
;
Structure prediction by ZEFSAII (Michael W. Deem and Ramdas Pophale) SiO2 
 PCOD9088913
Probable space group: P -1
;
_chemical_formula_sum "Si O2"
_cell_formula_units_Z 15
_cell_length_a 7.435386
_cell_length_b 27.483453
_cell_length_c 23.488107
_cell_angle_alpha 167.147677
_cell_angle_beta 34.422491
_cell_angle_gamma 144.461123
_cell_volume 601.815828
_symmetry_space_group_name_H-M "P -1"
_symmetry_group_IT_number 2
_symmetry_cell_setting 'triclinic'
loop_
_space_group_symop_operation_xyz
x,y,z
-x,-y,-z
loop_
_atom_site_type_symbol
_atom_site_label
_atom_site_fract_x
_atom_site_fract_y
_atom_site_fract_z
Si Si1 0.000000 0.500000 0.000000
Si Si2 0.936900 0.809795 0.684958
Si Si3 0.473882 0.132669 0.468472
Si Si4 0.408527 0.632323 0.947432
Si Si5 0.713022 0.485673 0.602362
Si Si6 0.829158 0.328420 0.110968
Si Si7 0.575641 0.005139 0.899655
Si Si8 0.806528 0.471708 0.850332
O O1 0.159766 0.265234 0.701251
O O2 0.340387 0.588960 0.981367
O O3 0.850612 0.560123 0.403244
O O4 0.317594 0.854297 0.629541
O O5 0.790263 0.974679 0.865011
O O6 0.734034 0.860456 0.851518
O O7 0.720680 0.252371 0.586506
O O8 0.391585 0.885252 0.226069
O O9 0.722006 0.556450 0.746832
O O10 0.105137 0.486301 0.832039
O O11 0.479427 0.651837 0.825078
O O12 0.000000 0.500000 0.500000
O O13 0.557666 0.238591 0.359671
O O14 0.107325 0.341388 0.006030
O O15 0.782326 0.128721 0.937860
O O16 0.500000 0.500000 0.000000
#
# Coordination Sequence:
#
# PCOD9088913 Si02
#       8
#     1   2   2   2   2   2   2   2
#     4  12  26  42  68 100 126 174 232 276 322 414
#     4   9  20  37  62  93 138 168 213 279 334 401
#     4  11  24  45  67  96 134 178 218 277 344 390
#     4  11  25  46  66  96 137 172 226 281 334 400
#     4  10  22  39  61  93 135 175 217 279 338 400
#     4   9  20  35  60  92 126 172 227 269 325 408
#     4  10  19  37  63  97 128 176 226 267 337 403
#     4  10  21  43  68  88 129 174 218 277 332 385
#
# _framework density 24.924567
#
# number of rings (size 3 to 8) (size 9 to 14) (size 15 to 20)
#    0.000    1.867    1.333    2.400    0.000    5.867 
#    0.000    2.667    0.000    0.000    0.000    0.000 
#    0.000    0.000    0.000    0.000    0.000    0.000 
#
# Total GULP energy -83631.001357 kJ/mol
# GULP energy per Si atom -5575.400090 kJ/mol
# Density = 2.486784 g / cm^3
# Si number density = 24.924567 Si / 1000 Ang^3
#
#
#
# Elastic Constant Matrix: (Units=GPa)
#
#
# Indices 1 2 3 4 5 6 
#
# 1 61.2121 17.3381 2.8247 1.6064 -6.5103 9.4602
# 2 17.3381 209.6436 54.2992 -6.1325 -12.3242 -22.5677
# 3 2.8247 54.2992 86.8723 11.6754 9.1402 -8.8659
# 4 1.6064 -6.1325 11.6754 53.4652 0.7194 -11.1804
# 5 -6.5103 -12.3242 9.1402 0.7194 22.7664 8.0407
# 6 9.4602 -22.5677 -8.8659 -11.1804 8.0407 28.5670
#
#
#
# Elastic Compliance Matrix: (Units=1/GPa)
#
#
# Indices 1 2 3 4 5 6 
#
# 1 0.020144 -0.002313 -0.001069 -0.003461 0.009598 -0.012886
# 2 -0.002313 0.006917 -0.004418 0.002865 0.002947 0.005151
# 3 -0.001069 -0.004418 0.016182 -0.003120 -0.010360 0.003581
# 4 -0.003461 0.002865 -0.003120 0.022390 -0.003165 0.012095
# 5 0.009598 0.002947 -0.010360 -0.003165 0.060401 -0.022306
# 6 -0.012886 0.005151 0.003581 0.012095 -0.022306 0.055466
#
#
# Mechanical properties :
#
#
# Convention : Reuss Voigt Hill
#
# Bulk Modulus (GPa) = 36.17460 56.29469 46.23464
# Shear Modulus (GPa) = 24.23488 39.84412 32.03950
#
# Velocity S-wave (km/s) = 3.12160 4.00257 3.58922
# Velocity P-wave (km/s) = 5.24763 6.63294 5.98053
#
# Compressibility (1/GPa) = 0.02764371
#
# Stress axis : x y z
#
# Youngs Moduli (GPa) = 49.64171 144.56919 61.79725
#
# Poissons Ratio (x) = 0.33444 0.06605
# Poissons Ratio (y) = 0.11484 0.27300
# Poissons Ratio (z) = 0.05306 0.63866
#
# Static dielectric constant tensor:
#      x y z
#    x 2.106390 -0.048510 -0.020300 
#    y -0.048510 2.059360 -0.056440 
#    z -0.020300 -0.056440 1.920470 
# 
# From -- ./inp_files/617739.got.cif
#   From: 2010.05.17/outbox.cif.g08.bks.cpg/sg2_309_cif.got.tgz:617739.got - 2010.06.03 11:33:40.
