data_PCOD9088847
_publ_section_title
;
Structure prediction by ZEFSAII (Michael W. Deem and Ramdas Pophale) SiO2 
 PCOD9088847
Probable space group: P -1
;
_chemical_formula_sum "Si O2"
_cell_formula_units_Z 16
_cell_length_a 9.759188
_cell_length_b 9.270809
_cell_length_c 19.313620
_cell_angle_alpha 132.322525
_cell_angle_beta 142.549189
_cell_angle_gamma 42.602484
_cell_volume 702.261137
_symmetry_space_group_name_H-M "P -1"
_symmetry_group_IT_number 2
_symmetry_cell_setting 'triclinic'
loop_
_space_group_symop_operation_xyz
x,y,z
-x,-y,-z
loop_
_atom_site_type_symbol
_atom_site_label
_atom_site_fract_x
_atom_site_fract_y
_atom_site_fract_z
Si Si1 0.606920 0.914223 0.590711
Si Si2 0.272313 0.859919 0.032442
Si Si3 0.921880 0.887791 0.528330
Si Si4 0.936608 0.332930 0.726811
Si Si5 0.267319 0.478352 0.811465
Si Si6 0.398410 0.536760 0.548217
Si Si7 0.397720 0.012150 0.886533
Si Si8 0.117955 0.730344 0.699186
O O1 0.671202 0.660753 0.532061
O O2 0.876227 0.912607 0.703833
O O3 0.500000 0.000000 0.500000
O O4 0.367682 0.043141 0.585875
O O5 0.467709 0.719130 0.124857
O O6 0.394868 0.998996 0.088945
O O7 0.262506 0.690017 0.916773
O O8 0.000000 0.000000 0.000000
O O9 0.152073 0.763031 0.529449
O O10 0.005135 0.727782 0.577424
O O11 0.921568 0.114005 0.624352
O O12 0.051537 0.429710 0.745345
O O13 0.147916 0.238570 0.841124
O O14 0.645957 0.498233 0.679993
O O15 0.229426 0.528853 0.731058
O O16 0.500000 0.500000 0.500000
O O17 0.317201 0.819038 0.789793
O O18 0.500000 0.000000 0.000000
#
# Coordination Sequence:
#
# PCOD9088847 Si02
#       8
#     2   2   2   2   2   2   2   2
#     4   9  20  38  58  89 125 160 199 253 313 359
#     4  10  22  40  60  89 123 164 208 256 315 369
#     4   9  21  40  60  89 129 160 207 257 310 378
#     4   9  21  37  61  91 122 166 207 259 312 364
#     4  10  20  38  61  85 124 158 207 265 300 362
#     4  11  22  40  63  89 126 168 206 253 316 379
#     4  10  19  39  64  86 126 166 201 254 316 362
#     4  10  19  37  63  91 120 165 208 256 308 366
#
# _framework density 22.783548
#
# number of rings (size 3 to 8) (size 9 to 14) (size 15 to 20)
#    0.000    2.250    1.250    1.500    0.000    7.000 
#    2.250    5.625    0.000    0.000    0.000    0.000 
#    0.000    0.000    0.000    0.000    0.000    0.000 
#
# Total GULP energy -89332.696234 kJ/mol
# GULP energy per Si atom -5583.293515 kJ/mol
# Density = 2.273169 g / cm^3
# Si number density = 22.783548 Si / 1000 Ang^3
#
#
#
# Elastic Constant Matrix: (Units=GPa)
#
#
# Indices 1 2 3 4 5 6 
#
# 1 109.8832 46.5623 43.2198 -17.4029 36.8209 1.0933
# 2 46.5623 80.6732 34.3566 -10.8514 22.7428 0.0918
# 3 43.2198 34.3566 82.3776 -22.4942 21.2735 -3.4083
# 4 -17.4029 -10.8514 -22.4942 37.4958 6.5795 10.0984
# 5 36.8209 22.7428 21.2735 6.5795 43.3750 -13.2194
# 6 1.0933 0.0918 -3.4083 10.0984 -13.2194 58.7603
#
#
#
# Elastic Compliance Matrix: (Units=1/GPa)
#
#
# Indices 1 2 3 4 5 6 
#
# 1 0.018814 -0.004108 -0.000780 0.011769 -0.017130 -0.006265
# 2 -0.004108 0.018053 -0.003328 0.002742 -0.005315 -0.001812
# 3 -0.000780 -0.003328 0.020291 0.013687 -0.010708 -0.003564
# 4 0.011769 0.002742 0.013687 0.050484 -0.030350 -0.014933
# 5 -0.017130 -0.005315 -0.010708 -0.030350 0.055547 0.017418
# 6 -0.006265 -0.001812 -0.003564 -0.014933 0.017418 0.023416
#
#
# Mechanical properties :
#
#
# Convention : Reuss Voigt Hill
#
# Bulk Modulus (GPa) = 24.55311 57.91237 41.23274
# Shear Modulus (GPa) = 23.08279 37.84591 30.46435
#
# Velocity S-wave (km/s) = 3.18643 4.08009 3.66063
# Velocity P-wave (km/s) = 4.93334 6.90434 6.00032
#
# Compressibility (1/GPa) = 0.04072804
#
# Stress axis : x y z
#
# Youngs Moduli (GPa) = 53.15166 55.39264 49.28215
#
# Poissons Ratio (x) = 0.22753 0.03843
# Poissons Ratio (y) = 0.21833 0.16400
# Poissons Ratio (z) = 0.04144 0.18433
#
# Static dielectric constant tensor:
#      x y z
#    x 1.960720 0.009530 0.043250 
#    y 0.009530 1.867870 -0.013020 
#    z 0.043250 -0.013020 1.943910 
# 
# From -- ./inp_files/588074.got.cif
#   From: 2010.05.17/outbox.cif.g08.bks.cpg/sg2_295_cif.got.tgz:588074.got - 2010.06.03 11:33:40.
