data_PCOD9088382
_publ_section_title
;
Structure prediction by ZEFSAII (Michael W. Deem and Ramdas Pophale) SiO2 
 PCOD9088382
Probable space group: P -1
;
_chemical_formula_sum "Si O2"
_cell_formula_units_Z 16
_cell_length_a 15.485967
_cell_length_b 5.378509
_cell_length_c 10.561000
_cell_angle_alpha 90.843343
_cell_angle_beta 126.393298
_cell_angle_gamma 73.823640
_cell_volume 667.020464
_symmetry_space_group_name_H-M "P -1"
_symmetry_group_IT_number 2
_symmetry_cell_setting 'triclinic'
loop_
_space_group_symop_operation_xyz
x,y,z
-x,-y,-z
loop_
_atom_site_type_symbol
_atom_site_label
_atom_site_fract_x
_atom_site_fract_y
_atom_site_fract_z
Si Si1 0.347038 0.206414 0.067954
Si Si2 0.212472 0.704089 0.534880
Si Si3 0.187303 0.228708 0.610698
Si Si4 0.579971 0.347963 0.957466
Si Si5 0.812292 0.272294 0.786261
Si Si6 0.009995 0.355459 0.674697
Si Si7 0.562085 0.512017 0.682477
Si Si8 0.124093 0.268767 0.034383
O O1 0.332024 0.489184 0.989736
O O2 0.441314 0.209372 0.256911
O O3 0.242764 0.190599 0.059426
O O4 0.376227 0.966439 0.993588
O O5 0.257524 0.420814 0.638968
O O6 0.219145 0.686922 0.389099
O O7 0.075991 0.792351 0.447351
O O8 0.252577 0.928478 0.630975
O O9 0.124205 0.283237 0.691278
O O10 0.075775 0.346704 0.421064
O O11 0.522224 0.384237 0.767504
O O12 0.500000 0.500000 0.000000
O O13 0.694266 0.363300 0.762717
O O14 0.879151 0.462783 0.896851
O O15 0.872770 0.966050 0.870192
O O16 0.038181 0.301147 0.844101
O O17 0.500000 0.500000 0.500000
#
# Coordination Sequence:
#
# PCOD9088382 Si02
#       8
#     2   2   2   2   2   2   2   2
#     4   9  19  37  56  83 113 144 187 230 281 338
#     4  10  20  37  56  80 115 147 186 241 277 327
#     4   9  20  38  55  81 109 152 191 237 278 326
#     4  10  19  37  61  82 112 148 182 237 284 336
#     4  11  23  38  56  82 121 144 190 238 283 337
#     4   9  22  34  62  78 114 151 196 227 285 334
#     4   9  21  39  61  84 112 153 188 233 294 347
#     4  11  21  37  56  84 114 156 183 229 286 339
#
# _framework density 23.987271
#
# number of rings (size 3 to 8) (size 9 to 14) (size 15 to 20)
#    1.500    0.750    1.250    1.500    1.750    1.500 
#    0.000    2.500    0.000    0.000    0.000    0.000 
#    0.000    0.000    0.000    0.000    0.000    0.000 
#
# Total GULP energy -89198.186995 kJ/mol
# GULP energy per Si atom -5574.886687 kJ/mol
# Density = 2.393268 g / cm^3
# Si number density = 23.987271 Si / 1000 Ang^3
#
#
#
# Elastic Constant Matrix: (Units=GPa)
#
#
# Indices 1 2 3 4 5 6 
#
# 1 79.6850 27.4833 3.2265 -0.4490 -31.7919 -4.4026
# 2 27.4833 175.9011 16.2867 13.5040 -8.0132 24.8519
# 3 3.2265 16.2867 86.3094 19.8295 -16.3820 9.1524
# 4 -0.4490 13.5040 19.8295 17.6878 -1.7626 -7.3466
# 5 -31.7919 -8.0132 -16.3820 -1.7626 33.7622 3.0606
# 6 -4.4026 24.8519 9.1524 -7.3466 3.0606 34.2777
#
#
#
# Elastic Compliance Matrix: (Units=1/GPa)
#
#
# Indices 1 2 3 4 5 6 
#
# 1 0.022478 -0.003643 0.002520 0.004260 0.021397 0.003858
# 2 -0.003643 0.008593 0.002998 -0.014392 0.000274 -0.010607
# 3 0.002520 0.002998 0.023002 -0.033433 0.013988 -0.016406
# 4 0.004260 -0.014392 -0.033433 0.123535 -0.013491 0.047590
# 5 0.021397 0.000274 0.013988 -0.013491 0.056744 -0.009144
# 6 0.003858 -0.010607 -0.016406 0.047590 -0.009144 0.052756
#
#
# Mechanical properties :
#
#
# Convention : Reuss Voigt Hill
#
# Bulk Modulus (GPa) = 17.29378 48.43207 32.86292
# Shear Modulus (GPa) = 16.52179 36.80548 26.66363
#
# Velocity S-wave (km/s) = 2.62730 3.92136 3.33764
# Velocity P-wave (km/s) = 4.05325 6.38258 5.34631
#
# Compressibility (1/GPa) = 0.05782426
#
# Stress axis : x y z
#
# Youngs Moduli (GPa) = 44.48870 116.37938 43.47428
#
# Poissons Ratio (x) = 0.42394 -0.10957
# Poissons Ratio (y) = 0.16206 -0.13035
# Poissons Ratio (z) = -0.11213 -0.34893
#
# Static dielectric constant tensor:
#      x y z
#    x 1.952850 0.060470 0.014820 
#    y 0.060470 2.006360 -0.072380 
#    z 0.014820 -0.072380 1.976070 
# 
# From -- ./inp_files/441202.got.cif
#   From: 2010.05.17/outbox.cif.g08.bks.cpg/sg2_221_cif.got.tgz:441202.got - 2010.06.03 11:33:40.
