data_PCOD9088214
_publ_section_title
;
Structure prediction by ZEFSAII (Michael W. Deem and Ramdas Pophale) SiO2 
 PCOD9088214
Probable space group: P -1
;
_chemical_formula_sum "Si O2"
_cell_formula_units_Z 14
_cell_length_a 9.855670
_cell_length_b 6.509414
_cell_length_c 18.435851
_cell_angle_alpha 120.881427
_cell_angle_beta 43.652510
_cell_angle_gamma 130.893559
_cell_volume 615.381481
_symmetry_space_group_name_H-M "P -1"
_symmetry_group_IT_number 2
_symmetry_cell_setting 'triclinic'
loop_
_space_group_symop_operation_xyz
x,y,z
-x,-y,-z
loop_
_atom_site_type_symbol
_atom_site_label
_atom_site_fract_x
_atom_site_fract_y
_atom_site_fract_z
Si Si1 0.071817 0.375789 0.266444
Si Si2 0.765673 0.644033 0.012370
Si Si3 0.689178 0.767142 0.727385
Si Si4 0.531884 0.340147 0.349204
Si Si5 0.200478 0.975387 0.817764
Si Si6 0.857175 0.729071 0.409157
Si Si7 0.561887 0.194830 0.907835
O O1 0.217746 0.351947 0.269134
O O2 0.242606 0.586753 0.180327
O O3 0.917246 0.106678 0.230118
O O4 0.919504 0.505227 0.376701
O O5 0.657054 0.791653 0.031061
O O6 0.746014 0.733383 0.117316
O O7 0.633520 0.329307 0.983633
O O8 0.018994 0.769753 0.909498
O O9 0.533610 0.588876 0.689950
O O10 0.568274 0.920896 0.839948
O O11 0.915520 0.996876 0.642321
O O12 0.599348 0.100047 0.271954
O O13 0.736962 0.594577 0.355010
O O14 0.321259 0.243061 0.466702
#
# Coordination Sequence:
#
# PCOD9088214 Si02
#       7
#     2   2   2   2   2   2   2
#     4   9  20  36  55  84 114 137 183 230 271 329
#     4   9  16  32  58  75 105 150 183 220 276 318
#     4  11  20  37  59  84 113 145 178 230 278 323
#     4  10  19  37  60  82 109 148 187 220 274 333
#     4   9  17  33  56  79 107 148 183 223 273 325
#     4   9  21  39  57  82 113 145 182 226 271 331
#     4   9  18  34  56  81 108 145 183 224 271 327
#
# _framework density 22.750115000000001
#
# number of rings (size 3 to 8) (size 9 to 14) (size 15 to 20)
#    0.000    2.571    1.429    1.286    0.000    0.571 
#    2.571   13.571    0.000    0.000    0.000    0.000 
#    0.000    0.000    0.000    0.000    0.000    0.000 
#
# Total GULP energy -78239.620697 kJ/mol
# GULP energy per Si atom -5588.544336 kJ/mol
# Density = 2.269834 g / cm^3
# Si number density = 22.750115 Si / 1000 Ang^3
#
#
#
# Elastic Constant Matrix: (Units=GPa)
#
#
# Indices 1 2 3 4 5 6 
#
# 1 133.5596 23.7516 37.0509 18.0123 14.5647 -1.9265
# 2 23.7516 29.5864 18.2709 10.3160 10.1562 9.5474
# 3 37.0509 18.2709 129.7316 21.6168 -18.2866 -2.8022
# 4 18.0123 10.3160 21.6168 18.3232 2.4217 1.3559
# 5 14.5647 10.1562 -18.2866 2.4217 38.4301 0.5837
# 6 -1.9265 9.5474 -2.8022 1.3559 0.5837 18.4340
#
#
#
# Elastic Compliance Matrix: (Units=1/GPa)
#
#
# Indices 1 2 3 4 5 6 
#
# 1 0.009936 -0.005864 -0.001535 -0.004612 -0.002720 0.004268
# 2 -0.005864 0.066774 -0.008057 -0.017435 -0.017634 -0.034581
# 3 -0.001535 -0.008057 0.012429 -0.010303 0.009178 0.006369
# 4 -0.004612 -0.017435 -0.010303 0.081487 -0.003699 0.001105
# 5 -0.002720 -0.017634 0.009178 -0.003699 0.036171 0.009371
# 6 0.004268 -0.034581 0.006369 0.001105 0.009371 0.073194
#
#
# Mechanical properties :
#
#
# Convention : Reuss Voigt Hill
#
# Bulk Modulus (GPa) = 17.17392 50.11382 33.64387
# Shear Modulus (GPa) = 15.13721 29.29106 22.21414
#
# Velocity S-wave (km/s) = 2.58227 3.59209 3.12819
# Velocity P-wave (km/s) = 4.05662 6.26736 5.27902
#
# Compressibility (1/GPa) = 0.05822781
#
# Stress axis : x y z
#
# Youngs Moduli (GPa) = 100.64384 14.97587 80.45546
#
# Poissons Ratio (x) = 0.08782 0.12347
# Poissons Ratio (y) = 0.59019 0.64823
# Poissons Ratio (z) = 0.15446 0.12066
#
# Static dielectric constant tensor:
#      x y z
#    x 1.846200 0.039840 0.015520 
#    y 0.039840 1.860410 0.019530 
#    z 0.015520 0.019530 1.857390 
# 
# From -- ./inp_files/90950.got.cif
#   From: 2010.05.17/outbox.cif.g08.bks.cpg/sg2_46_cif.got.tgz:90950.got - 2010.06.03 11:33:40.
