data_PCOD9088406
_publ_section_title
;
Structure prediction by ZEFSAII (Michael W. Deem and Ramdas Pophale) SiO2 
 PCOD9088406
Probable space group: P -1
;
_chemical_formula_sum "Si O2"
_cell_formula_units_Z 14
_cell_length_a 13.990911
_cell_length_b 9.185525
_cell_length_c 9.470792
_cell_angle_alpha 84.370414
_cell_angle_beta 40.758409
_cell_angle_gamma 78.280543
_cell_volume 775.097087
_symmetry_space_group_name_H-M "P -1"
_symmetry_group_IT_number 2
_symmetry_cell_setting 'triclinic'
loop_
_space_group_symop_operation_xyz
x,y,z
-x,-y,-z
loop_
_atom_site_type_symbol
_atom_site_label
_atom_site_fract_x
_atom_site_fract_y
_atom_site_fract_z
Si Si1 0.660595 0.944914 0.895169
Si Si2 0.253486 0.263950 0.922848
Si Si3 0.843779 0.683904 0.533353
Si Si4 0.327090 0.806964 0.946645
Si Si5 0.817157 0.458716 0.826654
Si Si6 0.150730 0.022151 0.901187
Si Si7 0.657826 0.790416 0.471052
O O1 0.770849 0.839824 0.675188
O O2 0.654326 0.842080 0.050995
O O3 0.500000 0.000000 0.000000
O O4 0.716115 0.089701 0.877395
O O5 0.132665 0.168653 0.009729
O O6 0.344713 0.277837 0.676647
O O7 0.190277 0.419578 0.052607
O O8 0.803016 0.552761 0.688819
O O9 0.773333 0.689723 0.456679
O O10 0.022380 0.651950 0.336563
O O11 0.495959 0.817609 0.717969
O O12 0.223357 0.882022 0.927721
O O13 0.307276 0.639965 0.009119
O O14 0.273476 0.061643 0.649855
O O15 0.000000 0.000000 0.000000
#
# Coordination Sequence:
#
# PCOD9088406 Si02
#       7
#     2   2   2   2   2   2   2
#     4  10  19  37  61  85 113 156 191 244 290 337
#     4   8  21  37  60  84 121 151 192 239 287 348
#     4  10  21  39  61  79 119 158 197 237 293 338
#     4  11  21  35  62  88 119 149 197 243 289 347
#     4  10  22  40  58  85 119 158 194 239 286 354
#     4   9  19  37  59  86 114 153 192 238 288 339
#     4  10  20  36  61  86 117 153 189 245 290 342
#
# _framework density 18.062253999999999
#
# number of rings (size 3 to 8) (size 9 to 14) (size 15 to 20)
#    0.857    1.429    1.429    1.286    0.000    2.286 
#    0.000    2.857    0.000    0.000    0.000    0.000 
#    0.000    0.000    0.000    0.000    0.000    0.000 
#
# Total GULP energy -77958.287856 kJ/mol
# GULP energy per Si atom -5568.449133 kJ/mol
# Density = 1.802114 g / cm^3
# Si number density = 18.062254 Si / 1000 Ang^3
#
#
#
# Elastic Constant Matrix: (Units=GPa)
#
#
# Indices 1 2 3 4 5 6 
#
# 1 100.2990 32.5814 21.7871 0.1040 4.4896 -4.4667
# 2 32.5814 72.8055 33.3084 2.0142 -0.2238 11.0488
# 3 21.7871 33.3084 61.6806 0.4374 6.5414 8.4540
# 4 0.1040 2.0142 0.4374 30.0754 3.4658 -5.8484
# 5 4.4896 -0.2238 6.5414 3.4658 26.1192 -4.4113
# 6 -4.4667 11.0488 8.4540 -5.8484 -4.4113 18.1032
#
#
#
# Elastic Compliance Matrix: (Units=1/GPa)
#
#
# Indices 1 2 3 4 5 6 
#
# 1 0.012843 -0.005986 -0.002435 0.002105 -0.000489 0.008520
# 2 -0.005986 0.022172 -0.008395 -0.003865 0.001826 -0.011893
# 3 -0.002435 -0.008395 0.023475 -0.000595 -0.006856 -0.008303
# 4 0.002105 -0.003865 -0.000595 0.036606 -0.002683 0.014328
# 5 -0.000489 0.001826 -0.006856 -0.002683 0.042389 0.011429
# 6 0.008520 -0.011893 -0.008303 0.014328 0.011429 0.075891
#
#
# Mechanical properties :
#
#
# Convention : Reuss Voigt Hill
#
# Bulk Modulus (GPa) = 40.22753 45.57101 42.89927
# Shear Modulus (GPa) = 19.58533 24.66675 22.12604
#
# Velocity S-wave (km/s) = 3.29648 3.69948 3.50378
# Velocity P-wave (km/s) = 6.06704 6.59795 6.33806
#
# Compressibility (1/GPa) = 0.02485860
#
# Stress axis : x y z
#
# Youngs Moduli (GPa) = 77.86481 45.10152 42.59817
#
# Poissons Ratio (x) = 0.26999 0.10371
# Poissons Ratio (y) = 0.46612 0.35761
# Poissons Ratio (z) = 0.18956 0.37863
#
# Static dielectric constant tensor:
#      x y z
#    x 1.613780 0.002020 0.027770 
#    y 0.002020 1.623790 0.001050 
#    z 0.027770 0.001050 1.636380 
# 
# From -- ./inp_files/238841.got.cif
#   From: 2010.05.17/outbox.cif.g08.bks.cpg/sg2_120_cif.got.tgz:238841.got - 2010.06.03 11:33:40.
