data_PCOD9088862
_publ_section_title
;
Structure prediction by ZEFSAII (Michael W. Deem and Ramdas Pophale) SiO2 
 PCOD9088862
Probable space group: P -1
;
_chemical_formula_sum "Si O2"
_cell_formula_units_Z 14
_cell_length_a 12.404011
_cell_length_b 8.998923
_cell_length_c 21.559688
_cell_angle_alpha 139.995627
_cell_angle_beta 158.596606
_cell_angle_gamma 45.063568
_cell_volume 564.324640
_symmetry_space_group_name_H-M "P -1"
_symmetry_group_IT_number 2
_symmetry_cell_setting 'triclinic'
loop_
_space_group_symop_operation_xyz
x,y,z
-x,-y,-z
loop_
_atom_site_type_symbol
_atom_site_label
_atom_site_fract_x
_atom_site_fract_y
_atom_site_fract_z
Si Si1 0.786083 0.757321 0.887526
Si Si2 0.333867 0.079029 0.686858
Si Si3 0.661020 0.055153 0.495643
Si Si4 0.043490 0.152094 0.225516
Si Si5 0.369513 0.465044 0.648242
Si Si6 0.845991 0.516961 0.715692
Si Si7 0.753889 0.445163 0.255796
O O1 0.644069 0.540091 0.777732
O O2 0.891063 0.674310 0.850529
O O3 0.540206 0.946562 0.802007
O O4 0.007081 0.900593 0.095275
O O5 0.412636 0.994099 0.632175
O O6 0.373045 0.355767 0.791882
O O7 0.000000 0.000000 0.500000
O O8 0.706330 0.804942 0.467977
O O9 0.396483 0.163478 0.428790
O O10 0.913022 0.255828 0.688194
O O11 0.992626 0.355734 0.213554
O O12 0.829955 0.212580 0.186340
O O13 0.412950 0.576422 0.775282
O O14 0.076382 0.551466 0.484501
O O15 0.500000 0.500000 0.500000
#
# Coordination Sequence:
#
# PCOD9088862 Si02
#       7
#     2   2   2   2   2   2   2
#     4  12  23  37  65  92 128 154 199 250 314 354
#     4  11  20  37  65  90 115 163 204 255 288 355
#     4  10  22  39  66  89 121 158 208 247 299 354
#     4  11  23  39  62  94 126 157 195 256 305 361
#     4  10  22  41  62  91 116 165 204 248 295 361
#     4  10  19  37  63  92 112 155 204 254 283 352
#     4  10  22  40  62  85 124 160 210 244 292 358
#
# _framework density 24.808416999999999
#
# number of rings (size 3 to 8) (size 9 to 14) (size 15 to 20)
#    0.000    1.429    4.286    3.000    0.000    4.000 
#    0.000    0.000    0.000    0.000    0.000    0.000 
#    0.000    0.000    0.000    0.000    0.000    0.000 
#
# Total GULP energy -78234.595836 kJ/mol
# GULP energy per Si atom -5588.185417 kJ/mol
# Density = 2.475195 g / cm^3
# Si number density = 24.808417 Si / 1000 Ang^3
#
#
#
# Elastic Constant Matrix: (Units=GPa)
#
#
# Indices 1 2 3 4 5 6 
#
# 1 91.1587 26.7405 8.2831 5.1549 -18.4603 -3.4533
# 2 26.7405 94.0123 11.0412 20.0221 0.2690 10.2625
# 3 8.2831 11.0412 51.3385 18.8436 -11.0212 6.2313
# 4 5.1549 20.0221 18.8436 28.0552 -10.2708 -4.1889
# 5 -18.4603 0.2690 -11.0212 -10.2708 27.8145 12.3339
# 6 -3.4533 10.2625 6.2313 -4.1889 12.3339 40.2001
#
#
#
# Elastic Compliance Matrix: (Units=1/GPa)
#
#
# Indices 1 2 3 4 5 6 
#
# 1 0.014646 -0.005343 -0.000855 0.005958 0.011733 -0.000224
# 2 -0.005343 0.015458 0.001951 -0.014309 -0.006318 -0.004260
# 3 -0.000855 0.001951 0.029187 -0.019304 0.008105 -0.009594
# 4 0.005958 -0.014309 -0.019304 0.065112 0.016558 0.008862
# 5 0.011733 -0.006318 0.008105 0.016558 0.059906 -0.015290
# 6 -0.000224 -0.004260 -0.009594 0.008862 -0.015290 0.033046
#
#
# Mechanical properties :
#
#
# Convention : Reuss Voigt Hill
#
# Bulk Modulus (GPa) = 19.68677 36.51545 28.10111
# Shear Modulus (GPa) = 20.59465 31.91027 26.25246
#
# Velocity S-wave (km/s) = 2.88435 3.59035 3.25654
# Velocity P-wave (km/s) = 4.36410 5.65141 5.04895
#
# Compressibility (1/GPa) = 0.05079553
#
# Stress axis : x y z
#
# Youngs Moduli (GPa) = 68.28028 64.68997 34.26210
#
# Poissons Ratio (x) = 0.34566 0.02929
# Poissons Ratio (y) = 0.36485 -0.06683
# Poissons Ratio (z) = 0.05836 -0.12619
#
# Static dielectric constant tensor:
#      x y z
#    x 1.936710 -0.025760 -0.021630 
#    y -0.025760 2.024760 -0.021120 
#    z -0.021630 -0.021120 2.014180 
# 
# From -- ./inp_files/154307.got.cif
#   From: 2010.05.17/outbox.cif.g08.bks.cpg/sg2_78_cif.got.tgz:154307.got - 2010.06.03 11:33:40.
