data_PCOD9088579
_publ_section_title
;
Structure prediction by ZEFSAII (Michael W. Deem and Ramdas Pophale) SiO2 
 PCOD9088579
Probable space group: P -1
;
_chemical_formula_sum "Si O2"
_cell_formula_units_Z 16
_cell_length_a 15.808395
_cell_length_b 11.239963
_cell_length_c 8.462763
_cell_angle_alpha 64.183688
_cell_angle_beta 63.763614
_cell_angle_gamma 27.119558
_cell_volume 611.592827
_symmetry_space_group_name_H-M "P -1"
_symmetry_group_IT_number 2
_symmetry_cell_setting 'triclinic'
loop_
_space_group_symop_operation_xyz
x,y,z
-x,-y,-z
loop_
_atom_site_type_symbol
_atom_site_label
_atom_site_fract_x
_atom_site_fract_y
_atom_site_fract_z
Si Si1 0.004990 0.315476 0.451453
Si Si2 0.738964 0.867732 0.872918
Si Si3 0.611733 0.674912 0.310531
Si Si4 0.146239 0.560835 0.036426
Si Si5 0.320829 0.131985 0.717241
Si Si6 0.181173 0.734935 0.405596
Si Si7 0.256307 0.954149 0.748591
Si Si8 0.781631 0.266834 0.972454
O O1 0.108954 0.211011 0.260389
O O2 0.168173 0.100140 0.569014
O O3 0.852795 0.617285 0.399038
O O4 0.883337 0.332543 0.556138
O O5 0.783055 0.673763 0.865693
O O6 0.545567 0.144947 0.795444
O O7 0.738962 0.837867 0.074075
O O8 0.578449 0.849475 0.340755
O O9 0.645552 0.503209 0.483997
O O10 0.801277 0.465048 0.171677
O O11 0.259081 0.531800 0.065196
O O12 0.929184 0.820337 0.114565
O O13 0.392776 0.906308 0.718458
O O14 0.226996 0.752160 0.195478
O O15 0.000000 0.000000 0.500000
O O16 0.320523 0.724911 0.849345
O O17 0.000000 0.000000 0.000000
#
# Coordination Sequence:
#
# PCOD9088579 Si02
#       8
#     2   2   2   2   2   2   2   2
#     4  11  22  36  62  96 120 152 209 255 306 348
#     4  11  23  40  61  89 127 163 198 254 310 355
#     4  10  24  40  63  90 121 164 204 247 308 361
#     4  10  19  37  62  84 127 160 199 247 303 356
#     4  10  21  37  62  91 118 159 207 251 294 354
#     4  11  22  39  67  94 117 157 209 255 294 366
#     4  11  21  35  62  95 121 154 207 261 297 353
#     4  10  20  36  59  93 121 156 197 254 309 347
#
# _framework density 26.161196
#
# number of rings (size 3 to 8) (size 9 to 14) (size 15 to 20)
#    0.000    1.500    3.750    3.750    5.250    0.000 
#    0.000    4.375    0.000    3.750    0.000    0.000 
#    0.000    0.000    0.000    0.000    0.000    0.000 
#
# Total GULP energy -89420.137287 kJ/mol
# GULP energy per Si atom -5588.758580 kJ/mol
# Density = 2.610165 g / cm^3
# Si number density = 26.161196 Si / 1000 Ang^3
#
#
#
# Elastic Constant Matrix: (Units=GPa)
#
#
# Indices 1 2 3 4 5 6 
#
# 1 75.5419 15.3563 38.9160 0.5263 1.9536 10.5177
# 2 15.3563 56.2976 24.7130 -0.0028 4.8720 0.1280
# 3 38.9160 24.7130 161.5403 -15.6753 -5.2824 -2.8198
# 4 0.5263 -0.0028 -15.6753 24.9221 -11.7891 -1.0035
# 5 1.9536 4.8720 -5.2824 -11.7891 29.5881 1.1228
# 6 10.5177 0.1280 -2.8198 -1.0035 1.1228 24.1638
#
#
#
# Elastic Compliance Matrix: (Units=1/GPa)
#
#
# Indices 1 2 3 4 5 6 
#
# 1 0.017324 -0.002427 -0.004546 -0.005105 -0.003282 -0.008118
# 2 -0.002427 0.020277 -0.003126 -0.004517 -0.005561 0.000655
# 3 -0.004546 -0.003126 0.008821 0.008433 0.005632 0.003113
# 4 -0.005105 -0.004517 0.008433 0.057742 0.025424 0.004447
# 5 -0.003282 -0.005561 0.005632 0.025424 0.046026 0.001032
# 6 -0.008118 0.000655 0.003113 0.004447 0.001032 0.045414
#
#
# Mechanical properties :
#
#
# Convention : Reuss Voigt Hill
#
# Bulk Modulus (GPa) = 38.13654 50.15006 44.14330
# Shear Modulus (GPa) = 22.26736 30.02778 26.14757
#
# Velocity S-wave (km/s) = 2.92063 3.39159 3.16488
# Velocity P-wave (km/s) = 5.09731 5.87779 5.50141
#
# Compressibility (1/GPa) = 0.02622157
#
# Stress axis : x y z
#
# Youngs Moduli (GPa) = 57.72338 49.31793 113.36988
#
# Poissons Ratio (x) = 0.11972 0.51543
# Poissons Ratio (y) = 0.14012 0.35438
# Poissons Ratio (z) = 0.26244 0.15416
#
# Static dielectric constant tensor:
#      x y z
#    x 2.069950 0.040130 -0.003170 
#    y 0.040130 2.151540 -0.011220 
#    z -0.003170 -0.011220 2.061190 
# 
# From -- ./inp_files/244150.got.cif
#   From: 2010.05.17/outbox.cif.g08.bks.cpg/sg2_123_cif.got.tgz:244150.got - 2010.06.03 11:33:40.
