data_PCOD9088697
_publ_section_title
;
Structure prediction by ZEFSAII (Michael W. Deem and Ramdas Pophale) SiO2 
 PCOD9088697
Probable space group: P -1
;
_chemical_formula_sum "Si O2"
_cell_formula_units_Z 14
_cell_length_a 12.059255
_cell_length_b 14.749935
_cell_length_c 17.013163
_cell_angle_alpha 150.164441
_cell_angle_beta 48.169629
_cell_angle_gamma 152.075538
_cell_volume 637.498512
_symmetry_space_group_name_H-M "P -1"
_symmetry_group_IT_number 2
_symmetry_cell_setting 'triclinic'
loop_
_space_group_symop_operation_xyz
x,y,z
-x,-y,-z
loop_
_atom_site_type_symbol
_atom_site_label
_atom_site_fract_x
_atom_site_fract_y
_atom_site_fract_z
Si Si1 0.083043 0.398862 0.342950
Si Si2 0.479229 0.502340 0.207587
Si Si3 0.827732 0.866794 0.174425
Si Si4 0.684337 0.762257 0.680880
Si Si5 0.808803 0.667012 0.299098
Si Si6 0.195868 0.731938 0.952936
Si Si7 0.979137 0.253157 0.104735
O O1 0.073771 0.417418 0.267427
O O2 0.000000 0.500000 0.500000
O O3 0.359014 0.567246 0.349894
O O4 0.873679 0.051080 0.219883
O O5 0.577591 0.640756 0.177361
O O6 0.735167 0.671557 0.253017
O O7 0.252635 0.122008 0.041294
O O8 0.091942 0.137694 0.309231
O O9 0.831448 0.675463 0.986137
O O10 0.500000 0.500000 0.500000
O O11 0.469243 0.588333 0.718079
O O12 0.819669 0.098888 0.860663
O O13 0.907981 0.560328 0.180594
O O14 0.000000 0.000000 0.500000
O O15 0.102004 0.674605 0.864924
O O16 0.500000 0.000000 0.000000
#
# Coordination Sequence:
#
# PCOD9088697 Si02
#       7
#     2   2   2   2   2   2   2
#     4  11  25  42  64  94 130 171 222 282 335 388
#     4  11  21  42  66  94 129 174 225 268 333 400
#     4  10  21  41  65  92 129 172 221 268 329 398
#     4  10  19  37  62  93 133 175 213 271 332 387
#     4  11  21  38  64  97 136 176 219 272 327 399
#     4   9  18  39  64  89 132 171 214 270 329 393
#     4  10  21  42  68  91 129 172 220 274 330 394
#
# _framework density 21.960833999999998
#
# number of rings (size 3 to 8) (size 9 to 14) (size 15 to 20)
#    0.000    1.714    5.714    2.571    0.000    6.286 
#    0.000    9.286    0.000    0.000    0.000    0.000 
#    0.000    0.000    0.000    0.000    0.000    0.000 
#
# Total GULP energy -77948.796372 kJ/mol
# GULP energy per Si atom -5567.771169 kJ/mol
# Density = 2.191085 g / cm^3
# Si number density = 21.960834 Si / 1000 Ang^3
#
#
#
# Elastic Constant Matrix: (Units=GPa)
#
#
# Indices 1 2 3 4 5 6 
#
# 1 151.6124 22.6246 52.6737 -11.9415 -2.4919 -7.3414
# 2 22.6246 119.8688 9.5242 -18.6267 -10.0494 -13.0256
# 3 52.6737 9.5242 91.4027 -14.0752 -0.2666 6.4478
# 4 -11.9415 -18.6267 -14.0752 31.7179 -1.2649 2.3975
# 5 -2.4919 -10.0494 -0.2666 -1.2649 33.6331 -5.6293
# 6 -7.3414 -13.0256 6.4478 2.3975 -5.6293 33.4869
#
#
#
# Elastic Compliance Matrix: (Units=1/GPa)
#
#
# Indices 1 2 3 4 5 6 
#
# 1 0.008632 -0.000816 -0.005016 0.000377 0.000814 0.002651
# 2 -0.000816 0.010105 -0.000012 0.005472 0.003835 0.004007
# 3 -0.005016 -0.000012 0.014920 0.005032 -0.000817 -0.004474
# 4 0.000377 0.005472 0.005032 0.037304 0.002950 -0.000933
# 5 0.000814 0.003835 -0.000817 0.002950 0.032220 0.007033
# 6 0.002651 0.004007 -0.004474 -0.000933 0.007033 0.034113
#
#
# Mechanical properties :
#
#
# Convention : Reuss Voigt Hill
#
# Bulk Modulus (GPa) = 45.51641 59.16988 52.34314
# Shear Modulus (GPa) = 31.98910 38.30500 35.14705
#
# Velocity S-wave (km/s) = 3.82074 4.18094 4.00489
# Velocity P-wave (km/s) = 6.34313 7.09288 6.72845
#
# Compressibility (1/GPa) = 0.02197010
#
# Stress axis : x y z
#
# Youngs Moduli (GPa) = 115.85470 98.96527 67.02247
#
# Poissons Ratio (x) = 0.08074 0.33617
# Poissons Ratio (y) = 0.09451 0.00078
# Poissons Ratio (z) = 0.58110 0.00115
#
# Static dielectric constant tensor:
#      x y z
#    x 1.617810 0.012340 0.021340 
#    y 0.012340 1.810950 0.014440 
#    z 0.021340 0.014440 1.878630 
# 
# From -- ./inp_files/569968.got.cif
#   From: 2010.05.17/outbox.cif.g08.bks.cpg/sg2_285_cif.got.tgz:569968.got - 2010.06.03 11:33:40.
