data_PCOD9088033
_publ_section_title
;
Structure prediction by ZEFSAII (Michael W. Deem and Ramdas Pophale) SiO2 
 PCOD9088033
Probable space group: P -1
;
_chemical_formula_sum "Si O2"
_cell_formula_units_Z 16
_cell_length_a 11.079167
_cell_length_b 13.628635
_cell_length_c 12.794358
_cell_angle_alpha 60.719878
_cell_angle_beta 98.379427
_cell_angle_gamma 147.207892
_cell_volume 754.953323
_symmetry_space_group_name_H-M "P -1"
_symmetry_group_IT_number 2
_symmetry_cell_setting 'triclinic'
loop_
_space_group_symop_operation_xyz
x,y,z
-x,-y,-z
loop_
_atom_site_type_symbol
_atom_site_label
_atom_site_fract_x
_atom_site_fract_y
_atom_site_fract_z
Si Si1 0.791919 0.749791 0.356884
Si Si2 0.116902 0.912120 0.857547
Si Si3 0.562828 0.386451 0.135063
Si Si4 0.458172 0.789476 0.084865
Si Si5 0.833837 0.961875 0.558446
Si Si6 0.115829 0.786699 0.709998
Si Si7 0.840771 0.941529 0.926639
Si Si8 0.683274 0.240138 0.128202
O O1 0.500000 0.500000 0.500000
O O2 0.822883 0.908750 0.253514
O O3 0.976710 0.852643 0.417487
O O4 0.917787 0.798473 0.242934
O O5 0.033252 0.783443 0.806995
O O6 0.371150 0.059341 0.866442
O O7 0.856762 0.681504 0.016487
O O8 0.433228 0.295655 0.280095
O O9 0.353309 0.262245 0.086477
O O10 0.602041 0.288225 0.153225
O O11 0.151361 0.496993 0.217471
O O12 0.627063 0.830536 0.028226
O O13 0.456629 0.878150 0.942670
O O14 0.788819 0.035209 0.445717
O O15 0.000000 0.000000 0.500000
O O16 0.335258 0.877014 0.730888
O O17 0.000000 0.000000 0.000000
O O18 0.000000 0.500000 0.000000
#
# Coordination Sequence:
#
# PCOD9088033 Si02
#       8
#     2   2   2   2   2   2   2   2
#     4  11  24  37  56  88 122 165 206 246 313 377
#     4  12  21  38  66  90 120 168 206 256 310 370
#     4  10  23  39  62  95 124 164 217 249 315 375
#     4  10  21  37  62  95 119 158 210 261 306 365
#     4  11  24  39  58  90 130 168 201 258 310 374
#     4  11  22  42  65  90 125 166 210 255 316 360
#     4  10  19  37  58  86 122 165 200 257 305 364
#     4   9  18  41  66  90 123 157 214 268 299 369
#
# _framework density 21.193363000000002
#
# number of rings (size 3 to 8) (size 9 to 14) (size 15 to 20)
#    0.000    1.500    6.250    0.750    0.000    5.000 
#    0.000    0.000    0.000    0.750    0.000    0.000 
#    0.000    0.000    0.000    0.000    0.000    0.000 
#
# Total GULP energy -89109.042759 kJ/mol
# GULP energy per Si atom -5569.315172 kJ/mol
# Density = 2.114513 g / cm^3
# Si number density = 21.193363 Si / 1000 Ang^3
#
#
#
# Elastic Constant Matrix: (Units=GPa)
#
#
# Indices 1 2 3 4 5 6 
#
# 1 83.8396 6.3020 11.2114 7.2565 23.9160 14.1751
# 2 6.3020 86.2462 36.3769 6.1523 17.2267 29.2048
# 3 11.2114 36.3769 105.3110 3.7169 9.4742 3.6876
# 4 7.2565 6.1523 3.7169 37.9905 9.5726 4.7346
# 5 23.9160 17.2267 9.4742 9.5726 41.9067 12.3115
# 6 14.1751 29.2048 3.6876 4.7346 12.3115 33.2552
#
#
#
# Elastic Compliance Matrix: (Units=1/GPa)
#
#
# Indices 1 2 3 4 5 6 
#
# 1 0.015232 0.003394 -0.001862 -0.000552 -0.007677 -0.006346
# 2 0.003394 0.020867 -0.006603 -0.000231 -0.003798 -0.017601
# 3 -0.001862 -0.006603 0.011833 -0.000306 -0.000441 0.005487
# 4 -0.000552 -0.000231 -0.000306 0.028065 -0.005494 -0.001490
# 5 -0.007677 -0.003798 -0.000441 -0.005494 0.032510 -0.004597
# 6 -0.006346 -0.017601 0.005487 -0.001490 -0.004597 0.049538
#
#
# Mechanical properties :
#
#
# Convention : Reuss Voigt Hill
#
# Bulk Modulus (GPa) = 26.46197 42.57527 34.51862
# Shear Modulus (GPa) = 27.65743 37.39757 32.52750
#
# Velocity S-wave (km/s) = 3.61640 4.20526 3.92190
# Velocity P-wave (km/s) = 5.47274 6.61147 6.06887
#
# Compressibility (1/GPa) = 0.03779009
#
# Stress axis : x y z
#
# Youngs Moduli (GPa) = 65.65165 47.92286 84.50928
#
# Poissons Ratio (x) = -0.16264 0.15732
# Poissons Ratio (y) = -0.22281 0.55802
# Poissons Ratio (z) = 0.12222 0.31644
#
# Static dielectric constant tensor:
#      x y z
#    x 1.857920 -0.027900 -0.023410 
#    y -0.027900 1.841510 -0.002090 
#    z -0.023410 -0.002090 1.865620 
# 
# From -- ./inp_files/433839.got.cif
#   From: 2010.05.17/outbox.cif.g08.bks.cpg/sg2_217_cif.got.tgz:433839.got - 2010.06.03 11:33:40.
