data_PCOD9088496
_publ_section_title
;
Structure prediction by ZEFSAII (Michael W. Deem and Ramdas Pophale) SiO2 
 PCOD9088496
Probable space group: P -1
;
_chemical_formula_sum "Si O2"
_cell_formula_units_Z 12
_cell_length_a 11.528693
_cell_length_b 5.449497
_cell_length_c 7.902080
_cell_angle_alpha 89.999719
_cell_angle_beta 84.108833
_cell_angle_gamma 89.999923
_cell_volume 493.830803
_symmetry_space_group_name_H-M "P -1"
_symmetry_group_IT_number 2
_symmetry_cell_setting 'triclinic'
loop_
_space_group_symop_operation_xyz
x,y,z
-x,-y,-z
loop_
_atom_site_type_symbol
_atom_site_label
_atom_site_fract_x
_atom_site_fract_y
_atom_site_fract_z
Si Si1 0.732327 0.249993 0.523724
Si Si2 0.992042 0.250000 0.333702
Si Si3 0.710590 0.750017 0.105078
Si Si4 0.944054 0.750002 0.284760
Si Si5 0.582432 0.250018 0.225048
Si Si6 0.695042 0.749990 0.731410
O O1 0.853023 0.249997 0.400012
O O2 0.726284 0.498778 0.631470
O O3 0.622618 0.250011 0.414244
O O4 0.726279 0.001192 0.631455
O O5 0.010599 0.500655 0.232264
O O6 0.053838 0.250002 0.508232
O O7 0.010602 0.999345 0.232266
O O8 0.817326 0.750009 0.221103
O O9 0.636587 0.501043 0.142869
O O10 0.636593 0.999003 0.142861
O O11 0.752186 0.750006 0.906620
O O12 0.444617 0.250012 0.224797
#
# Coordination Sequence:
#
# PCOD9088496 Si02
#       6
#     2   2   2   2   2   2
#     4  12  22  41  59  89 119 159 195 242 298 345
#     4  10  20  36  63  86 114 146 200 243 287 342
#     4  12  22  41  62  89 118 156 201 243 291 345
#     4  10  19  37  61  90 108 150 199 246 280 344
#     4  12  23  41  63  84 117 165 207 232 280 354
#     4  12  26  38  58  90 128 154 190 248 300 344
#
# _framework density 24.299821999999999
#
# number of rings (size 3 to 8) (size 9 to 14) (size 15 to 20)
#    0.000    0.667    3.333    6.000    0.000    0.000 
#    0.000    1.667    0.000    0.000    0.000    0.000 
#    0.000    0.000    0.000    0.000    0.000    0.000 
#
# Total GULP energy -67253.224022 kJ/mol
# GULP energy per Si atom -5604.435335 kJ/mol
# Density = 2.424451 g / cm^3
# Si number density = 24.299822 Si / 1000 Ang^3
#
#
#
# Elastic Constant Matrix: (Units=GPa)
#
#
# Indices 1 2 3 4 5 6 
#
# 1 147.0094 40.7427 18.8551 -1.9163 12.5302 1.2573
# 2 40.7427 278.7084 59.3496 -15.4287 -10.8127 -3.2019
# 3 18.8551 59.3496 67.6922 -3.7020 12.5280 2.9120
# 4 -1.9163 -15.4287 -3.7020 25.8395 3.0530 -9.9752
# 5 12.5302 -10.8127 12.5280 3.0530 22.1022 0.2472
# 6 1.2573 -3.2019 2.9120 -9.9752 0.2472 20.0923
#
#
#
# Elastic Compliance Matrix: (Units=1/GPa)
#
#
# Indices 1 2 3 4 5 6 
#
# 1 0.007592 -0.001290 -0.000040 0.000164 -0.004929 -0.000533
# 2 -0.001290 0.005353 -0.005424 0.002783 0.006006 0.003028
# 3 -0.000040 -0.005424 0.022578 0.000364 -0.015437 -0.003763
# 4 0.000164 0.002783 0.000364 0.051150 -0.006292 0.025852
# 5 -0.004929 0.006006 -0.015437 -0.006292 0.060600 -0.000367
# 6 -0.000533 0.003028 -0.003763 0.025852 -0.000367 0.063671
#
#
# Mechanical properties :
#
#
# Convention : Reuss Voigt Hill
#
# Bulk Modulus (GPa) = 45.42113 81.25607 63.33860
# Shear Modulus (GPa) = 21.57125 38.57097 30.07111
#
# Velocity S-wave (km/s) = 2.98268 3.98841 3.52163
# Velocity P-wave (km/s) = 5.53122 7.39739 6.53130
#
# Compressibility (1/GPa) = 0.02201619
#
# Stress axis : x y z
#
# Youngs Moduli (GPa) = 131.72488 186.79830 44.29053
#
# Poissons Ratio (x) = 0.24088 0.00177
# Poissons Ratio (y) = 0.16986 0.24023
# Poissons Ratio (z) = 0.00526 1.01320
#
# Static dielectric constant tensor:
#      x y z
#    x 1.903690 -0.001070 -0.009890 
#    y -0.001070 1.999180 -0.009090 
#    z -0.009890 -0.009090 1.898990 
# 
# From -- ./inp_files/59783.got.cif
#   From: 2010.05.17/outbox.cif.g08.bks.cpg/sg2_30_cif.got.tgz:59783.got - 2010.06.03 11:33:40.
