data_PCOD9088945
_publ_section_title
;
Structure prediction by ZEFSAII (Michael W. Deem and Ramdas Pophale) SiO2 
 PCOD9088945
Probable space group: P -1
;
_chemical_formula_sum "Si O2"
_cell_formula_units_Z 14
_cell_length_a 14.454251
_cell_length_b 8.776153
_cell_length_c 14.433532
_cell_angle_alpha 33.515738
_cell_angle_beta 137.199782
_cell_angle_gamma 119.561949
_cell_volume 651.817760
_symmetry_space_group_name_H-M "P -1"
_symmetry_group_IT_number 2
_symmetry_cell_setting 'triclinic'
loop_
_space_group_symop_operation_xyz
x,y,z
-x,-y,-z
loop_
_atom_site_type_symbol
_atom_site_label
_atom_site_fract_x
_atom_site_fract_y
_atom_site_fract_z
Si Si1 0.236256 0.332086 0.806314
Si Si2 0.884541 0.138557 0.763550
Si Si3 0.937207 0.731790 0.449353
Si Si4 0.093605 0.654959 0.855028
Si Si5 0.441470 0.655320 0.780471
Si Si6 0.707076 0.824076 0.870876
Si Si7 0.169449 0.192218 0.286699
O O1 0.157292 0.176465 0.759495
O O2 0.354975 0.444692 0.786280
O O3 0.104324 0.609032 0.605344
O O4 0.298054 0.152759 0.034209
O O5 0.893367 0.459044 0.592076
O O6 0.733225 0.105379 0.703242
O O7 0.902568 0.961414 0.768611
O O8 0.000000 0.000000 0.000000
O O9 0.898599 0.029898 0.325121
O O10 0.934731 0.711098 0.751184
O O11 0.150873 0.437362 0.922872
O O12 0.185170 0.470987 0.101910
O O13 0.573915 0.719970 0.795286
O O14 0.318885 0.964810 0.541457
O O15 0.500000 0.500000 0.000000
#
# Coordination Sequence:
#
# PCOD9088945 Si02
#       7
#     2   2   2   2   2   2   2
#     4  10  19  37  64  86 118 165 205 242 294 373
#     4  11  21  36  60  94 118 159 209 253 290 367
#     4  11  19  36  63  89 121 157 201 254 311 344
#     4  10  22  36  61  98 121 154 195 271 309 342
#     4  10  20  39  64  88 119 170 209 235 293 384
#     4  10  23  38  61  94 121 155 210 247 296 365
#     4  10  20  41  61  91 126 160 202 250 311 357
#
# _framework density 21.478394999999999
#
# number of rings (size 3 to 8) (size 9 to 14) (size 15 to 20)
#    0.000    1.714    4.286    0.857    0.000    2.857 
#    0.000    0.714    0.000    1.714    0.000    0.000 
#    0.000    0.000    0.000    0.000    0.000    0.000 
#
# Total GULP energy -77995.675833 kJ/mol
# GULP energy per Si atom -5571.119702 kJ/mol
# Density = 2.142951 g / cm^3
# Si number density = 21.478395 Si / 1000 Ang^3
#
#
#
# Elastic Constant Matrix: (Units=GPa)
#
#
# Indices 1 2 3 4 5 6 
#
# 1 110.3525 39.7859 20.7758 1.7450 -5.1347 33.4660
# 2 39.7859 67.6473 40.0807 -11.0538 -4.8960 25.6665
# 3 20.7758 40.0807 77.6363 -6.0787 -2.9095 0.0685
# 4 1.7450 -11.0538 -6.0787 40.0962 9.8323 -5.3969
# 5 -5.1347 -4.8960 -2.9095 9.8323 27.6999 -3.3812
# 6 33.4660 25.6665 0.0685 -5.3969 -3.3812 41.9924
#
#
#
# Elastic Compliance Matrix: (Units=1/GPa)
#
#
# Indices 1 2 3 4 5 6 
#
# 1 0.013658 -0.004228 -0.001679 -0.003626 0.001844 -0.008616
# 2 -0.004228 0.033820 -0.015939 0.004911 -0.000258 -0.016665
# 3 -0.001679 -0.015939 0.021591 0.000359 0.000370 0.011121
# 4 -0.003626 0.004911 0.000359 0.029299 -0.009817 0.002863
# 5 0.001844 -0.000258 0.000370 -0.009817 0.040000 0.000647
# 6 -0.008616 -0.016665 0.011121 0.002863 0.000647 0.041268
#
#
# Mechanical properties :
#
#
# Convention : Reuss Voigt Hill
#
# Bulk Modulus (GPa) = 39.40713 50.76899 45.08806
# Shear Modulus (GPa) = 21.57149 32.29061 26.93105
#
# Velocity S-wave (km/s) = 3.17256 3.88158 3.54484
# Velocity P-wave (km/s) = 5.63980 6.61645 6.14755
#
# Compressibility (1/GPa) = 0.02537612
#
# Stress axis : x y z
#
# Youngs Moduli (GPa) = 73.21491 29.56837 46.31613
#
# Poissons Ratio (x) = 0.12502 0.07779
# Poissons Ratio (y) = 0.30956 0.73823
# Poissons Ratio (z) = 0.12296 0.47129
#
# Static dielectric constant tensor:
#      x y z
#    x 1.835860 0.029130 -0.059770 
#    y 0.029130 1.800990 0.002760 
#    z -0.059770 0.002760 1.829970 
# 
# From -- ./inp_files/527173.got.cif
#   From: 2010.05.17/outbox.cif.g08.bks.cpg/sg2_264_cif.got.tgz:527173.got - 2010.06.03 11:33:40.
