data_PCOD9088550
_publ_section_title
;
Structure prediction by ZEFSAII (Michael W. Deem and Ramdas Pophale) SiO2 
 PCOD9088550
Probable space group: P -1
;
_chemical_formula_sum "Si O2"
_cell_formula_units_Z 16
_cell_length_a 8.045670
_cell_length_b 12.885573
_cell_length_c 11.972150
_cell_angle_alpha 51.644308
_cell_angle_beta 59.028384
_cell_angle_gamma 50.163910
_cell_volume 733.115686
_symmetry_space_group_name_H-M "P -1"
_symmetry_group_IT_number 2
_symmetry_cell_setting 'triclinic'
loop_
_space_group_symop_operation_xyz
x,y,z
-x,-y,-z
loop_
_atom_site_type_symbol
_atom_site_label
_atom_site_fract_x
_atom_site_fract_y
_atom_site_fract_z
Si Si1 0.706481 0.231496 0.918806
Si Si2 0.249289 0.250412 0.055370
Si Si3 0.375917 0.650266 0.513448
Si Si4 0.112905 0.390024 0.429390
Si Si5 0.067599 0.560019 0.777391
Si Si6 0.110795 0.815295 0.864070
Si Si7 0.480019 0.592346 0.727940
Si Si8 0.005791 0.866180 0.333567
O O1 0.587797 0.409145 0.811512
O O2 0.880400 0.150749 0.814351
O O3 0.511651 0.184586 0.014669
O O4 0.827502 0.203443 0.014518
O O5 0.143907 0.312356 0.172501
O O6 0.133096 0.159924 0.101599
O O7 0.151185 0.401820 0.912933
O O8 0.500000 0.500000 0.500000
O O9 0.255421 0.613491 0.685185
O O10 0.526828 0.667971 0.541585
O O11 0.205509 0.784884 0.408760
O O12 0.317179 0.391115 0.295568
O O13 0.000000 0.500000 0.500000
O O14 0.939794 0.453751 0.342667
O O15 0.124993 0.228715 0.555842
O O16 0.286404 0.668316 0.836821
O O17 0.129540 0.957688 0.714426
#
# Coordination Sequence:
#
# PCOD9088550 Si02
#       8
#     2   2   2   2   2   2   2   2
#     4  12  23  45  69  95 133 176 231 270 317 405
#     4  11  21  40  67  93 133 173 215 270 332 382
#     4  11  19  40  66  91 128 164 223 273 313 392
#     4  11  22  40  68  95 128 172 222 276 333 386
#     4  10  19  37  61  97 127 158 219 282 310 381
#     4  12  27  43  64 102 139 174 216 274 342 393
#     4  12  21  41  70  99 120 177 226 272 331 384
#     4  11  26  45  62  97 140 172 215 281 333 398
#
# _framework density 21.824659
#
# number of rings (size 3 to 8) (size 9 to 14) (size 15 to 20)
#    0.000    0.750    5.000    3.750    0.000    1.500 
#    2.250    0.000    0.000    0.000    0.000    0.000 
#    0.000    0.000    0.000    0.000    0.000    0.000 
#
# Total GULP energy -89135.146703 kJ/mol
# GULP energy per Si atom -5570.946669 kJ/mol
# Density = 2.177499 g / cm^3
# Si number density = 21.824659 Si / 1000 Ang^3
#
#
#
# Elastic Constant Matrix: (Units=GPa)
#
#
# Indices 1 2 3 4 5 6 
#
# 1 68.6414 -7.7299 20.6838 1.3188 -9.7634 13.1116
# 2 -7.7299 19.5676 8.0955 2.5204 5.0364 3.7965
# 3 20.6838 8.0955 71.9446 14.0165 9.6123 11.2169
# 4 1.3188 2.5204 14.0165 17.0954 -3.2277 -7.1931
# 5 -9.7634 5.0364 9.6123 -3.2277 55.5669 5.1781
# 6 13.1116 3.7965 11.2169 -7.1931 5.1781 22.7281
#
#
#
# Elastic Compliance Matrix: (Units=1/GPa)
#
#
# Indices 1 2 3 4 5 6 
#
# 1 0.020872 0.012462 -0.004905 -0.004541 0.004441 -0.014150
# 2 0.012462 0.064297 -0.004290 -0.015867 -0.001917 -0.020397
# 3 -0.004905 -0.004290 0.023856 -0.025892 -0.004673 -0.015357
# 4 -0.004541 -0.015867 -0.025892 0.104539 0.006566 0.049637
# 5 0.004441 -0.001917 -0.004673 0.006566 0.020373 -0.002499
# 6 -0.014150 -0.020397 -0.015357 0.049637 -0.002499 0.079426
#
#
# Mechanical properties :
#
#
# Convention : Reuss Voigt Hill
#
# Bulk Modulus (GPa) = 8.65373 22.47248 15.56310
# Shear Modulus (GPa) = 14.47811 28.35169 21.41490
#
# Velocity S-wave (km/s) = 2.57842 3.60817 3.13585
# Velocity P-wave (km/s) = 3.58302 5.26096 4.50087
#
# Compressibility (1/GPa) = 0.11555707
#
# Stress axis : x y z
#
# Youngs Moduli (GPa) = 47.91135 15.55280 41.91901
#
# Poissons Ratio (x) = -0.19382 0.20563
# Poissons Ratio (y) = -0.59706 0.17984
# Poissons Ratio (z) = 0.23502 0.06672
#
# Static dielectric constant tensor:
#      x y z
#    x 1.961730 -0.006430 -0.042440 
#    y -0.006430 1.744330 0.003220 
#    z -0.042440 0.003220 1.802400 
# 
# From -- ./inp_files/391993.got.cif
#   From: 2010.05.17/outbox.cif.g08.bks.cpg/sg2_196_cif.got.tgz:391993.got - 2010.06.03 11:33:40.
