data_PCOD9088498
_publ_section_title
;
Structure prediction by ZEFSAII (Michael W. Deem and Ramdas Pophale) SiO2 
 PCOD9088498
Probable space group: P -1
;
_chemical_formula_sum "Si O2"
_cell_formula_units_Z 16
_cell_length_a 20.365212
_cell_length_b 12.772842
_cell_length_c 18.448964
_cell_angle_alpha 31.648824
_cell_angle_beta 159.220520
_cell_angle_gamma 157.315081
_cell_volume 654.347156
_symmetry_space_group_name_H-M "P -1"
_symmetry_group_IT_number 2
_symmetry_cell_setting 'triclinic'
loop_
_space_group_symop_operation_xyz
x,y,z
-x,-y,-z
loop_
_atom_site_type_symbol
_atom_site_label
_atom_site_fract_x
_atom_site_fract_y
_atom_site_fract_z
Si Si1 0.695990 0.213097 0.925370
Si Si2 0.764163 0.153070 0.723393
Si Si3 0.264817 0.284984 0.322710
Si Si4 0.411517 0.831182 0.312278
Si Si5 0.810145 0.222531 0.190022
Si Si6 0.713453 0.411787 0.282873
Si Si7 0.214470 0.203850 0.969117
Si Si8 0.131599 0.891473 0.538821
O O1 0.712419 0.462986 0.807199
O O2 0.753494 0.214567 0.899626
O O3 0.393154 0.957960 0.766640
O O4 0.847243 0.222543 0.141221
O O5 0.709673 0.204117 0.716620
O O6 0.030672 0.464744 0.800128
O O7 0.500000 0.000000 0.500000
O O8 0.772550 0.916704 0.873473
O O9 0.509855 0.338243 0.519886
O O10 0.183601 0.132693 0.406167
O O11 0.047880 0.061464 0.176533
O O12 0.675894 0.148481 0.395620
O O13 0.907988 0.128812 0.403428
O O14 0.500000 0.000000 0.000000
O O15 0.441804 0.284728 0.106671
O O16 0.907555 0.623984 0.419986
O O17 0.765157 0.549794 0.176732
#
# Coordination Sequence:
#
# PCOD9088498 Si02
#       8
#     2   2   2   2   2   2   2   2
#     4  10  20  36  61  89 119 162 202 246 299 362
#     4  11  22  40  64  88 121 164 206 251 313 364
#     4  10  19  37  61  90 117 160 204 246 297 359
#     4  10  21  35  61  92 118 158 203 253 294 367
#     4  10  20  36  59  89 121 159 202 244 305 363
#     4   9  18  34  55  89 117 149 203 252 298 351
#     4   9  18  34  59  84 114 156 198 248 300 357
#     4   9  18  32  59  83 114 157 193 242 301 354
#
# _framework density 24.451853
#
# number of rings (size 3 to 8) (size 9 to 14) (size 15 to 20)
#    0.000    2.250    1.250    3.000    0.000    5.000 
#    0.000    0.625   13.750    6.750    0.000    0.000 
#    0.000    0.000    0.000    0.000    0.000    0.000 
#
# Total GULP energy -89103.397528 kJ/mol
# GULP energy per Si atom -5568.962345 kJ/mol
# Density = 2.439620 g / cm^3
# Si number density = 24.451853 Si / 1000 Ang^3
#
#
#
# Elastic Constant Matrix: (Units=GPa)
#
#
# Indices 1 2 3 4 5 6 
#
# 1 73.5974 1.7584 17.6675 -11.9221 -19.2573 -0.1245
# 2 1.7584 115.3206 19.7731 8.8150 6.3246 -8.4326
# 3 17.6675 19.7731 98.0301 3.7995 -27.2633 4.0337
# 4 -11.9221 8.8150 3.7995 40.9692 4.2519 -5.1607
# 5 -19.2573 6.3246 -27.2633 4.2519 37.3023 -0.4815
# 6 -0.1245 -8.4326 4.0337 -5.1607 -0.4815 24.3796
#
#
#
# Elastic Compliance Matrix: (Units=1/GPa)
#
#
# Indices 1 2 3 4 5 6 
#
# 1 0.016504 -0.000755 -0.000964 0.004415 0.007454 0.001065
# 2 -0.000755 0.009788 -0.003088 -0.001162 -0.004128 0.003565
# 3 -0.000964 -0.003088 0.014211 -0.002511 0.010650 -0.003745
# 4 0.004415 -0.001162 -0.002511 0.027146 -0.002379 0.005735
# 5 0.007454 -0.004128 0.010650 -0.002379 0.039374 -0.002878
# 6 0.001065 0.003565 -0.003745 0.005735 -0.002878 0.044033
#
#
# Mechanical properties :
#
#
# Convention : Reuss Voigt Hill
#
# Bulk Modulus (GPa) = 32.37300 40.59401 36.48351
# Shear Modulus (GPa) = 29.24539 37.04683 33.14611
#
# Velocity S-wave (km/s) = 3.46213 3.89664 3.68580
# Velocity P-wave (km/s) = 5.40833 6.07312 5.75034
#
# Compressibility (1/GPa) = 0.03088994
#
# Stress axis : x y z
#
# Youngs Moduli (GPa) = 60.59001 102.16226 70.36844
#
# Poissons Ratio (x) = 0.07711 0.06784
# Poissons Ratio (y) = 0.04573 0.21729
# Poissons Ratio (z) = 0.05841 0.31547
#
# Static dielectric constant tensor:
#      x y z
#    x 2.030170 0.099010 -0.013620 
#    y 0.099010 2.058630 -0.015660 
#    z -0.013620 -0.015660 1.979690 
# 
# From -- ./inp_files/602118.got.cif
#   From: 2010.05.17/outbox.cif.g08.bks.cpg/sg2_302_cif.got.tgz:602118.got - 2010.06.03 11:33:40.
