data_PCOD9088974
_publ_section_title
;
Structure prediction by ZEFSAII (Michael W. Deem and Ramdas Pophale) SiO2 
 PCOD9088974
Probable space group: P -1
;
_chemical_formula_sum "Si O2"
_cell_formula_units_Z 16
_cell_length_a 18.217508
_cell_length_b 5.239180
_cell_length_c 23.007054
_cell_angle_alpha 98.943368
_cell_angle_beta 18.614240
_cell_angle_gamma 89.407576
_cell_volume 599.625044
_symmetry_space_group_name_H-M "P -1"
_symmetry_group_IT_number 2
_symmetry_cell_setting 'triclinic'
loop_
_space_group_symop_operation_xyz
x,y,z
-x,-y,-z
loop_
_atom_site_type_symbol
_atom_site_label
_atom_site_fract_x
_atom_site_fract_y
_atom_site_fract_z
Si Si1 0.439786 0.872650 0.237558
Si Si2 0.870026 0.314147 0.951422
Si Si3 0.387817 0.525632 0.733530
Si Si4 0.180202 0.435670 0.208951
Si Si5 0.307340 0.138169 0.466292
Si Si6 0.669462 0.639381 0.353821
Si Si7 0.687098 0.360589 0.774757
Si Si8 0.787041 0.035381 0.901516
O O1 0.230548 0.856624 0.350623
O O2 0.372910 0.107288 0.347050
O O3 0.583505 0.561095 0.152795
O O4 0.654798 0.884613 0.035604
O O5 0.961661 0.075671 0.822443
O O6 0.064020 0.448837 0.814378
O O7 0.825243 0.260340 0.050174
O O8 0.577740 0.665869 0.585091
O O9 0.264359 0.483662 0.765792
O O10 0.551597 0.189067 0.623988
O O11 0.138856 0.567226 0.309300
O O12 0.012399 0.692384 0.295269
O O13 0.090755 0.196440 0.252232
O O14 0.497399 0.286863 0.955335
O O15 0.500000 0.500000 0.500000
O O16 0.500000 0.000000 0.500000
O O17 0.471917 0.675751 0.919073
#
# Coordination Sequence:
#
# PCOD9088974 Si02
#       8
#     2   2   2   2   2   2   2   2
#     4   9  20  39  63  90 127 168 228 263 322 395
#     4  10  23  44  69  93 131 184 217 269 335 405
#     4  11  25  47  70  95 138 175 225 265 339 404
#     4  10  22  36  60  92 133 169 223 274 334 388
#     4  11  24  42  67  99 129 175 221 281 323 387
#     4  12  29  45  69 107 139 167 218 281 331 395
#     4   9  20  38  58  90 129 178 217 270 334 396
#     4  10  19  37  64  89 123 172 223 265 325 400
#
# _framework density 26.683343000000001
#
# number of rings (size 3 to 8) (size 9 to 14) (size 15 to 20)
#    0.000    1.750    1.250    1.500    5.250    4.500 
#    0.000    3.750    0.000    0.000    0.000    0.000 
#    0.000    0.000    0.000    0.000    0.000    0.000 
#
# Total GULP energy -89372.009855 kJ/mol
# GULP energy per Si atom -5585.750616 kJ/mol
# Density = 2.662261 g / cm^3
# Si number density = 26.683343 Si / 1000 Ang^3
#
#
#
# Elastic Constant Matrix: (Units=GPa)
#
#
# Indices 1 2 3 4 5 6 
#
# 1 201.3164 64.6000 30.1789 1.2135 5.6098 68.5112
# 2 64.6000 128.1822 10.3532 0.5246 -7.0024 42.0360
# 3 30.1789 10.3532 26.9313 -0.4160 7.4134 17.9219
# 4 1.2135 0.5246 -0.4160 30.7215 11.6277 2.2177
# 5 5.6098 -7.0024 7.4134 11.6277 42.7440 -1.4494
# 6 68.5112 42.0360 17.9219 2.2177 -1.4494 59.4307
#
#
#
# Elastic Compliance Matrix: (Units=1/GPa)
#
#
# Indices 1 2 3 4 5 6 
#
# 1 0.008741 -0.001585 -0.003548 0.000678 -0.001245 -0.007941
# 2 -0.001585 0.010540 0.001244 -0.000273 0.001591 -0.005954
# 3 -0.003548 0.001244 0.052229 0.005693 -0.010379 -0.013006
# 4 0.000678 -0.000273 0.005693 0.037197 -0.011375 -0.003971
# 5 -0.001245 0.001591 -0.010379 -0.011375 0.028868 0.004568
# 6 -0.007941 -0.005954 -0.013006 -0.003971 0.004568 0.034374
#
#
# Mechanical properties :
#
#
# Convention : Reuss Voigt Hill
#
# Bulk Modulus (GPa) = 15.69052 62.96602 39.32827
# Shear Modulus (GPa) = 24.87920 43.33243 34.10582
#
# Velocity S-wave (km/s) = 3.05681 4.03420 3.57903
# Velocity P-wave (km/s) = 4.28391 6.73412 5.64359
#
# Compressibility (1/GPa) = 0.06373276
#
# Stress axis : x y z
#
# Youngs Moduli (GPa) = 114.40489 94.87247 19.14657
#
# Poissons Ratio (x) = 0.15040 0.06793
# Poissons Ratio (y) = 0.18136 -0.02383
# Poissons Ratio (z) = 0.40588 -0.11806
#
# Static dielectric constant tensor:
#      x y z
#    x 2.096280 -0.019840 0.067390 
#    y -0.019840 2.182580 -0.000840 
#    z 0.067390 -0.000840 2.217580 
# 
# From -- ./inp_files/140785.got.cif
#   From: 2010.05.17/outbox.cif.g08.bks.cpg/sg2_71_cif.got.tgz:140785.got - 2010.06.03 11:33:40.
