data_PCOD9088289
_publ_section_title
;
Structure prediction by ZEFSAII (Michael W. Deem and Ramdas Pophale) SiO2 
 PCOD9088289
Probable space group: P -1
;
_chemical_formula_sum "Si O2"
_cell_formula_units_Z 16
_cell_length_a 20.460360
_cell_length_b 8.919940
_cell_length_c 26.368852
_cell_angle_alpha 147.293078
_cell_angle_beta 161.050363
_cell_angle_gamma 41.117929
_cell_volume 819.310250
_symmetry_space_group_name_H-M "P -1"
_symmetry_group_IT_number 2
_symmetry_cell_setting 'triclinic'
loop_
_space_group_symop_operation_xyz
x,y,z
-x,-y,-z
loop_
_atom_site_type_symbol
_atom_site_label
_atom_site_fract_x
_atom_site_fract_y
_atom_site_fract_z
Si Si1 0.269185 0.848398 0.180802
Si Si2 0.959342 0.713692 0.186078
Si Si3 0.134305 0.090854 0.043742
Si Si4 0.907997 0.351371 0.338437
Si Si5 0.634616 0.350913 0.594207
Si Si6 0.927523 0.492137 0.213101
Si Si7 0.450115 0.297391 0.954738
Si Si8 0.141206 0.771159 0.542585
O O1 0.213331 0.974425 0.121308
O O2 0.489090 0.044874 0.414573
O O3 0.231553 0.513095 0.045284
O O4 0.096629 0.886562 0.105329
O O5 0.984112 0.608229 0.231339
O O6 0.164391 0.693763 0.300407
O O7 0.932841 0.031367 0.260095
O O8 0.278539 0.407044 0.230975
O O9 0.130084 0.851305 0.930515
O O10 0.000000 0.500000 0.500000
O O11 0.033241 0.541187 0.439233
O O12 0.664525 0.338820 0.153339
O O13 0.500000 0.500000 0.500000
O O14 0.727806 0.602890 0.115893
O O15 0.113315 0.615179 0.423551
O O16 0.359671 0.969677 0.777141
O O17 0.500000 0.500000 0.000000
O O18 0.000000 0.000000 0.500000
#
# Coordination Sequence:
#
# PCOD9088289 Si02
#       8
#     2   2   2   2   2   2   2   2
#     4   8  15  31  48  77 123 149 184 236 298 345
#     4  10  22  34  55  91 123 149 195 251 300 342
#     4   8  15  28  49  84 112 147 190 247 280 342
#     4  12  25  40  61  90 121 156 200 255 301 346
#     4   9  16  31  54  82 121 157 190 240 297 352
#     4  10  19  37  60  87 122 154 203 250 293 353
#     4  11  23  42  61  81 118 164 201 240 297 362
#     4  10  21  41  60  81 116 157 201 248 294 352
#
# _framework density 19.528621000000001
#
# number of rings (size 3 to 8) (size 9 to 14) (size 15 to 20)
#    0.000    2.250    2.500    3.750    0.000    6.000 
#    2.250    0.000    0.000    3.000    0.000    7.875 
#    0.000    0.000    0.000    0.000    0.000    0.000 
#
# Total GULP energy -89222.246395 kJ/mol
# GULP energy per Si atom -5576.390400 kJ/mol
# Density = 1.948417 g / cm^3
# Si number density = 19.528621 Si / 1000 Ang^3
#
#
#
# Elastic Constant Matrix: (Units=GPa)
#
#
# Indices 1 2 3 4 5 6 
#
# 1 33.1656 25.3028 55.8566 15.7962 -14.2162 -9.9841
# 2 25.3028 70.2036 56.1874 28.5334 -12.4984 -13.6615
# 3 55.8566 56.1874 203.7399 32.9422 -13.0173 -12.7096
# 4 15.7962 28.5334 32.9422 40.3238 -3.4037 -3.4416
# 5 -14.2162 -12.4984 -13.0173 -3.4037 29.6685 8.9910
# 6 -9.9841 -13.6615 -12.7096 -3.4416 8.9910 23.6063
#
#
#
# Elastic Compliance Matrix: (Units=1/GPa)
#
#
# Indices 1 2 3 4 5 6 
#
# 1 0.082288 -0.004297 -0.017073 -0.012117 0.025172 0.011770
# 2 -0.004297 0.025782 -0.003089 -0.013043 0.003459 0.008221
# 3 -0.017073 -0.003089 0.010011 0.000155 -0.004502 -0.001882
# 4 -0.012117 -0.013043 0.000155 0.037765 -0.005374 -0.005037
# 5 0.025172 0.003459 -0.004502 -0.005374 0.047222 -0.008545
# 6 0.011770 0.008221 -0.001882 -0.005037 -0.008545 0.053604
#
#
# Mechanical properties :
#
#
# Convention : Reuss Voigt Hill
#
# Bulk Modulus (GPa) = 14.45878 64.64476 39.55177
# Shear Modulus (GPa) = 15.21391 30.03721 22.62556
#
# Velocity S-wave (km/s) = 2.79419 3.92613 3.40749
# Velocity P-wave (km/s) = 4.22255 7.32988 5.98152
#
# Compressibility (1/GPa) = 0.06916213
#
# Stress axis : x y z
#
# Youngs Moduli (GPa) = 12.15239 38.78600 99.89257
#
# Poissons Ratio (x) = 0.16667 1.70547
# Poissons Ratio (y) = 0.05222 0.30861
# Poissons Ratio (z) = 0.20748 0.11983
#
# Static dielectric constant tensor:
#      x y z
#    x 1.665030 0.008050 -0.008030 
#    y 0.008050 1.698520 0.019210 
#    z -0.008030 0.019210 1.716230 
# 
# From -- ./inp_files/620697.got.cif
#   From: 2010.05.17/outbox.cif.g08.bks.cpg/sg2_311_cif.got.tgz:620697.got - 2010.06.03 11:33:40.
