data_PCOD9088162
_publ_section_title
;
Structure prediction by ZEFSAII (Michael W. Deem and Ramdas Pophale) SiO2 
 PCOD9088162
Probable space group: P -1
;
_chemical_formula_sum "Si O2"
_cell_formula_units_Z 14
_cell_length_a 18.679852
_cell_length_b 9.217265
_cell_length_c 7.697514
_cell_angle_alpha 51.964488
_cell_angle_beta 147.782893
_cell_angle_gamma 123.057450
_cell_volume 555.594232
_symmetry_space_group_name_H-M "P -1"
_symmetry_group_IT_number 2
_symmetry_cell_setting 'triclinic'
loop_
_space_group_symop_operation_xyz
x,y,z
-x,-y,-z
loop_
_atom_site_type_symbol
_atom_site_label
_atom_site_fract_x
_atom_site_fract_y
_atom_site_fract_z
Si Si1 0.224857 0.558963 0.405791
Si Si2 0.561111 0.616411 0.268371
Si Si3 0.755880 0.057709 0.659226
Si Si4 0.031671 0.315531 0.375166
Si Si5 0.637007 0.020202 0.074213
Si Si6 0.046869 0.009143 0.327424
Si Si7 0.408501 0.288019 0.339962
O O1 0.337115 0.478222 0.578710
O O2 0.257000 0.767175 0.376080
O O3 0.165236 0.443669 0.532841
O O4 0.093484 0.561930 0.009939
O O5 0.558413 0.822005 0.034412
O O6 0.434917 0.469908 0.142868
O O7 0.610213 0.646429 0.546843
O O8 0.657749 0.062662 0.289824
O O9 0.708429 0.873191 0.805101
O O10 0.910809 0.060189 0.904869
O O11 0.998807 0.200924 0.563436
O O12 0.036199 0.158318 0.351537
O O13 0.792058 0.994050 0.360733
O O14 0.548524 0.179315 0.698368
#
# Coordination Sequence:
#
# PCOD9088162 Si02
#       7
#     2   2   2   2   2   2   2
#     4  10  19  37  59  88 120 154 197 245 296 351
#     4  10  20  39  65  82 113 167 198 235 293 361
#     4  10  22  38  58  90 126 146 194 259 288 342
#     4   9  19  35  58  88 121 154 193 241 302 361
#     4  11  21  42  63  86 120 164 195 241 298 357
#     4  10  19  37  63  88 116 155 198 244 298 348
#     4  10  23  42  62  86 121 160 202 238 294 361
#
# _framework density 25.198245
#
# number of rings (size 3 to 8) (size 9 to 14) (size 15 to 20)
#    0.000    2.000    1.429    3.000    0.000    0.571 
#   10.286    3.571    0.000    0.000    0.000    0.000 
#    0.000    0.000    0.000    0.000    0.000    0.000 
#
# Total GULP energy -78191.938735 kJ/mol
# GULP energy per Si atom -5585.138481 kJ/mol
# Density = 2.514089 g / cm^3
# Si number density = 25.198245 Si / 1000 Ang^3
#
#
#
# Elastic Constant Matrix: (Units=GPa)
#
#
# Indices 1 2 3 4 5 6 
#
# 1 75.2155 44.9365 33.8476 -2.9397 39.5385 5.1161
# 2 44.9365 171.9536 36.5577 7.7695 17.2774 25.5109
# 3 33.8476 36.5577 93.4999 15.8639 32.5895 8.1075
# 4 -2.9397 7.7695 15.8639 31.3220 12.7552 9.4520
# 5 39.5385 17.2774 32.5895 12.7552 37.7317 -5.1950
# 6 5.1161 25.5109 8.1075 9.4520 -5.1950 43.4430
#
#
#
# Elastic Compliance Matrix: (Units=1/GPa)
#
#
# Indices 1 2 3 4 5 6 
#
# 1 0.070756 -0.008077 0.004327 0.053990 -0.096241 -0.027652
# 2 -0.008077 0.007986 -0.002073 -0.004481 0.007916 -0.001430
# 3 0.004327 -0.002073 0.016867 0.001883 -0.019503 -0.005182
# 4 0.053990 -0.004481 0.001883 0.083210 -0.088796 -0.032801
# 5 -0.096241 0.007916 -0.019503 -0.088796 0.177596 0.050882
# 6 -0.027652 -0.001430 -0.005182 -0.032801 0.050882 0.041303
#
#
# Mechanical properties :
#
#
# Convention : Reuss Voigt Hill
#
# Bulk Modulus (GPa) = 11.91026 63.48360 37.69693
# Shear Modulus (GPa) = 11.43237 37.52115 24.47676
#
# Velocity S-wave (km/s) = 2.13233 3.86299 3.12006
# Velocity P-wave (km/s) = 3.28623 6.71903 5.28889
#
# Compressibility (1/GPa) = 0.08396121
#
# Stress axis : x y z
#
# Youngs Moduli (GPa) = 14.13304 125.21191 59.28670
#
# Poissons Ratio (x) = 1.01139 -0.25650
# Poissons Ratio (y) = 0.11416 0.12292
# Poissons Ratio (z) = -0.06115 0.25961
#
# Static dielectric constant tensor:
#      x y z
#    x 2.024250 0.053590 -0.036110 
#    y 0.053590 1.973090 -0.016220 
#    z -0.036110 -0.016220 2.103190 
# 
# From -- ./inp_files/233286.got.cif
#   From: 2010.05.17/outbox.cif.g08.bks.cpg/sg2_117_cif.got.tgz:233286.got - 2010.06.03 11:33:40.
