data_PCOD9088650
_publ_section_title
;
Structure prediction by ZEFSAII (Michael W. Deem and Ramdas Pophale) SiO2 
 PCOD9088650
Probable space group: P -1
;
_chemical_formula_sum "Si O2"
_cell_formula_units_Z 12
_cell_length_a 16.765112
_cell_length_b 15.257166
_cell_length_c 5.089842
_cell_angle_alpha 124.555082
_cell_angle_beta 44.995780
_cell_angle_gamma 147.946634
_cell_volume 486.735922
_symmetry_space_group_name_H-M "P -1"
_symmetry_group_IT_number 2
_symmetry_cell_setting 'triclinic'
loop_
_space_group_symop_operation_xyz
x,y,z
-x,-y,-z
loop_
_atom_site_type_symbol
_atom_site_label
_atom_site_fract_x
_atom_site_fract_y
_atom_site_fract_z
Si Si1 0.855565 0.963737 0.431458
Si Si2 0.289631 0.800859 0.408729
Si Si3 0.860604 0.667600 0.569097
Si Si4 0.404877 0.091496 0.395654
Si Si5 0.771833 0.369183 0.223116
Si Si6 0.309930 0.361163 0.570934
O O1 0.712573 0.907419 0.470327
O O2 0.760473 0.810893 0.582027
O O3 0.965279 0.141487 0.592283
O O4 0.000000 0.000000 0.000000
O O5 0.230268 0.713438 0.673419
O O6 0.181907 0.661885 0.198129
O O7 0.296039 0.929421 0.547508
O O8 0.490388 0.903880 0.059686
O O9 0.875966 0.552480 0.327860
O O10 0.713240 0.598896 0.586308
O O11 0.809482 0.663988 0.977662
O O12 0.566684 0.254334 0.462792
O O13 0.500000 0.500000 0.500000
#
# Coordination Sequence:
#
# PCOD9088650 Si02
#       6
#     2   2   2   2   2   2
#     4  10  23  43  59  92 129 164 196 248 312 366
#     4   9  20  37  64  92 113 154 211 258 286 352
#     4  11  23  40  58  89 129 156 196 255 306 361
#     4   9  20  38  64  87 121 158 207 247 303 349
#     4  10  19  37  62  90 118 152 208 249 304 346
#     4  11  23  41  62  87 117 166 212 245 290 359
#
# _framework density 24.654026000000002
#
# number of rings (size 3 to 8) (size 9 to 14) (size 15 to 20)
#    1.000    1.000    0.000    3.500    2.333    1.333 
#    6.000    1.667    0.000    0.000    0.000    0.000 
#    0.000    0.000    0.000    0.000    0.000    0.000 
#
# Total GULP energy -67159.460690 kJ/mol
# GULP energy per Si atom -5596.621724 kJ/mol
# Density = 2.459791 g / cm^3
# Si number density = 24.654026 Si / 1000 Ang^3
#
#
#
# Elastic Constant Matrix: (Units=GPa)
#
#
# Indices 1 2 3 4 5 6 
#
# 1 132.4290 8.9538 30.1295 -3.5504 1.0192 -9.9578
# 2 8.9538 138.2062 13.3318 11.9804 -2.6520 -22.9604
# 3 30.1295 13.3318 66.1721 -4.4879 -8.7182 7.3414
# 4 -3.5504 11.9804 -4.4879 14.5917 10.6805 -0.9319
# 5 1.0192 -2.6520 -8.7182 10.6805 32.3057 4.3807
# 6 -9.9578 -22.9604 7.3414 -0.9319 4.3807 39.2715
#
#
#
# Elastic Compliance Matrix: (Units=1/GPa)
#
#
# Indices 1 2 3 4 5 6 
#
# 1 0.009000 0.000158 -0.004732 0.003083 -0.003066 0.003674
# 2 0.000158 0.009343 -0.002913 -0.010039 0.002546 0.005525
# 3 -0.004732 -0.002913 0.019518 0.003038 0.005129 -0.007051
# 4 0.003083 -0.010039 0.003038 0.103746 -0.034489 0.000653
# 5 -0.003066 0.002546 0.005129 -0.034489 0.044870 -0.006071
# 6 0.003674 0.005525 -0.007051 0.000653 -0.006071 0.031636
#
#
# Mechanical properties :
#
#
# Convention : Reuss Voigt Hill
#
# Bulk Modulus (GPa) = 43.69318 49.07083 46.38200
# Shear Modulus (GPa) = 20.77146 36.19325 28.48235
#
# Velocity S-wave (km/s) = 2.90576 3.83567 3.40263
# Velocity P-wave (km/s) = 5.38693 6.28995 5.85587
#
# Compressibility (1/GPa) = 0.02288687
#
# Stress axis : x y z
#
# Youngs Moduli (GPa) = 111.11566 107.02898 51.23603
#
# Poissons Ratio (x) = -0.01687 0.24244
# Poissons Ratio (y) = -0.01751 0.14923
# Poissons Ratio (z) = 0.52578 0.31173
#
# Static dielectric constant tensor:
#      x y z
#    x 1.888440 0.045180 -0.022310 
#    y 0.045180 1.980200 -0.032260 
#    z -0.022310 -0.032260 2.007980 
# 
# From -- ./inp_files/23835.got.cif
#   From: 2010.05.17/outbox.cif.g08.bks.cpg/sg2_12_cif.got.tgz:23835.got - 2010.06.03 11:33:40.
