data_PCOD9088540
_publ_section_title
;
Structure prediction by ZEFSAII (Michael W. Deem and Ramdas Pophale) SiO2 
 PCOD9088540
Probable space group: P -1
;
_chemical_formula_sum "Si O2"
_cell_formula_units_Z 16
_cell_length_a 9.317407
_cell_length_b 14.884773
_cell_length_c 17.776417
_cell_angle_alpha 35.415457
_cell_angle_beta 143.650075
_cell_angle_gamma 147.431672
_cell_volume 711.321385
_symmetry_space_group_name_H-M "P -1"
_symmetry_group_IT_number 2
_symmetry_cell_setting 'triclinic'
loop_
_space_group_symop_operation_xyz
x,y,z
-x,-y,-z
loop_
_atom_site_type_symbol
_atom_site_label
_atom_site_fract_x
_atom_site_fract_y
_atom_site_fract_z
Si Si1 0.584140 0.982389 0.424470
Si Si2 0.144482 0.759943 0.511175
Si Si3 0.973087 0.061344 0.213772
Si Si4 0.217199 0.303722 0.001991
Si Si5 0.548978 0.406094 0.512772
Si Si6 0.455317 0.108061 0.149103
Si Si7 0.616572 0.151845 0.818802
Si Si8 0.096300 0.208703 0.328710
O O1 0.394218 0.822092 0.513833
O O2 0.834320 0.953270 0.523774
O O3 0.718078 0.178427 0.389621
O O4 0.377521 0.967452 0.281534
O O5 0.880063 0.553620 0.530805
O O6 0.049628 0.906272 0.359521
O O7 0.110262 0.173909 0.119206
O O8 0.080989 0.202194 0.234703
O O9 0.624922 0.938168 0.158151
O O10 0.316239 0.221777 0.033654
O O11 0.500000 0.500000 0.000000
O O12 0.939020 0.314450 0.861544
O O13 0.500000 0.500000 0.500000
O O14 0.499420 0.220905 0.655484
O O15 0.345006 0.361552 0.384870
O O16 0.802944 0.198848 0.233121
O O17 0.351480 0.007089 0.094949
#
# Coordination Sequence:
#
# PCOD9088540 Si02
#       8
#     2   2   2   2   2   2   2   2
#     4  10  19  37  61  94 133 172 213 256 338 403
#     4  10  21  34  65  99 135 172 207 272 332 396
#     4  10  22  47  67  96 131 184 221 266 336 406
#     4  12  28  46  70  96 130 178 235 284 320 387
#     4  12  23  38  66 109 138 164 217 278 336 391
#     4  11  22  43  67  93 129 178 221 264 332 400
#     4  11  25  44  69  96 138 182 221 265 331 409
#     4  10  23  39  68 101 133 170 213 276 340 395
#
# _framework density 22.49335
#
# number of rings (size 3 to 8) (size 9 to 14) (size 15 to 20)
#    0.000    1.250    3.750    1.875    5.250    0.500 
#    2.250    2.500    0.000    0.000    0.000    0.000 
#    0.000    0.000    0.000    0.000    0.000    0.000 
#
# Total GULP energy -89201.281617 kJ/mol
# GULP energy per Si atom -5575.080101 kJ/mol
# Density = 2.244215 g / cm^3
# Si number density = 22.493350 Si / 1000 Ang^3
#
#
#
# Elastic Constant Matrix: (Units=GPa)
#
#
# Indices 1 2 3 4 5 6 
#
# 1 122.3795 30.8826 9.8133 2.5250 18.1563 22.0973
# 2 30.8826 109.5162 6.0083 20.1189 9.4559 31.0291
# 3 9.8133 6.0083 38.8180 12.2110 5.7606 10.9422
# 4 2.5250 20.1189 12.2110 32.0999 4.1751 5.1713
# 5 18.1563 9.4559 5.7606 4.1751 26.6958 5.2619
# 6 22.0973 31.0291 10.9422 5.1713 5.2619 38.1221
#
#
#
# Elastic Compliance Matrix: (Units=1/GPa)
#
#
# Indices 1 2 3 4 5 6 
#
# 1 0.010138 -0.001605 -0.001025 0.001941 -0.005668 -0.003756
# 2 -0.001605 0.013892 0.003930 -0.008254 -0.001376 -0.010195
# 3 -0.001025 0.003930 0.032745 -0.012770 -0.003844 -0.009741
# 4 0.001941 -0.008254 -0.012770 0.040735 -0.002824 0.004123
# 5 -0.005668 -0.001376 -0.003844 -0.002824 0.043084 -0.000054
# 6 -0.003756 -0.010195 -0.009741 0.004123 -0.000054 0.038951
#
#
# Mechanical properties :
#
#
# Convention : Reuss Voigt Hill
#
# Bulk Modulus (GPa) = 16.84208 40.45799 28.65004
# Shear Modulus (GPa) = 25.41473 34.31752 29.86613
#
# Velocity S-wave (km/s) = 3.36501 3.91023 3.64782
# Velocity P-wave (km/s) = 4.75411 6.19776 5.52330
#
# Compressibility (1/GPa) = 0.05937510
#
# Stress axis : x y z
#
# Youngs Moduli (GPa) = 98.64091 71.98419 30.53858
#
# Poissons Ratio (x) = 0.11557 0.03130
# Poissons Ratio (y) = 0.15836 -0.12003
# Poissons Ratio (z) = 0.10110 -0.28292
#
# Static dielectric constant tensor:
#      x y z
#    x 1.887110 -0.019480 -0.022010 
#    y -0.019480 1.893290 0.047280 
#    z -0.022010 0.047280 1.887080 
# 
# From -- ./inp_files/185283.got.cif
#   From: 2010.05.17/outbox.cif.g08.bks.cpg/sg2_93_cif.got.tgz:185283.got - 2010.06.03 11:33:40.
