data_PCOD9088490
_publ_section_title
;
Structure prediction by ZEFSAII (Michael W. Deem and Ramdas Pophale) SiO2 
 PCOD9088490
Probable space group: P -1
;
_chemical_formula_sum "Si O2"
_cell_formula_units_Z 16
_cell_length_a 13.081951
_cell_length_b 8.655981
_cell_length_c 14.019578
_cell_angle_alpha 60.369852
_cell_angle_beta 150.382394
_cell_angle_gamma 103.590552
_cell_volume 607.815181
_symmetry_space_group_name_H-M "P -1"
_symmetry_group_IT_number 2
_symmetry_cell_setting 'triclinic'
loop_
_space_group_symop_operation_xyz
x,y,z
-x,-y,-z
loop_
_atom_site_type_symbol
_atom_site_label
_atom_site_fract_x
_atom_site_fract_y
_atom_site_fract_z
Si Si1 0.917581 0.839535 0.015246
Si Si2 0.551263 0.309010 0.165218
Si Si3 0.839229 0.260975 0.583108
Si Si4 0.745374 0.051356 0.235223
Si Si5 0.264230 0.299043 0.594028
Si Si6 0.662783 0.590411 0.565815
Si Si7 0.196260 0.618086 0.918965
Si Si8 0.615897 0.712486 0.692874
O O1 0.923556 0.850037 0.132184
O O2 0.106070 0.611754 0.211942
O O3 0.696799 0.853132 0.775094
O O4 0.000000 0.000000 0.000000
O O5 0.786942 0.213706 0.449058
O O6 0.571633 0.148680 0.153952
O O7 0.500000 0.500000 0.000000
O O8 0.351009 0.414743 0.047177
O O9 0.791568 0.489812 0.469385
O O10 0.642485 0.246069 0.496208
O O11 0.712647 0.217371 0.078277
O O12 0.720400 0.850977 0.263455
O O13 0.000000 0.000000 0.500000
O O14 0.431327 0.281886 0.645932
O O15 0.053392 0.305019 0.354593
O O16 0.500000 0.500000 0.500000
O O17 0.669586 0.717082 0.623420
O O18 0.230537 0.523198 0.079885
#
# Coordination Sequence:
#
# PCOD9088490 Si02
#       8
#     2   2   2   2   2   2   2   2
#     4  11  24  40  60  93 126 163 218 261 310 375
#     4   9  19  38  61  87 120 164 203 250 319 375
#     4  10  21  40  63  88 129 166 208 256 320 377
#     4   9  19  37  62  93 120 152 206 263 305 370
#     4  10  19  37  61  89 124 159 212 258 302 372
#     4  11  21  41  63  91 127 172 213 252 322 378
#     4   9  18  36  62  84 123 162 205 247 317 368
#     4  11  20  40  66  87 126 175 205 262 314 378
#
# _framework density 26.323792999999998
#
# number of rings (size 3 to 8) (size 9 to 14) (size 15 to 20)
#    0.000    2.000    5.000    0.375    0.000    1.500 
#    6.750   11.250    0.000    0.000    0.000    0.000 
#    0.000    0.000    0.000    0.000    0.000    0.000 
#
# Total GULP energy -89267.934337 kJ/mol
# GULP energy per Si atom -5579.245896 kJ/mol
# Density = 2.626388 g / cm^3
# Si number density = 26.323793 Si / 1000 Ang^3
#
#
#
# Elastic Constant Matrix: (Units=GPa)
#
#
# Indices 1 2 3 4 5 6 
#
# 1 72.5353 34.4000 17.5426 1.4447 -19.6610 3.0305
# 2 34.4000 145.4819 25.2577 6.6130 -13.9225 32.7190
# 3 17.5426 25.2577 94.2098 9.4789 -27.7779 -7.9769
# 4 1.4447 6.6130 9.4789 43.2349 -3.0435 -5.6807
# 5 -19.6610 -13.9225 -27.7779 -3.0435 48.2804 3.8580
# 6 3.0305 32.7190 -7.9769 -5.6807 3.8580 45.2206
#
#
#
# Elastic Compliance Matrix: (Units=1/GPa)
#
#
# Indices 1 2 3 4 5 6 
#
# 1 0.017113 -0.003681 -0.000539 0.000635 0.005555 0.001028
# 2 -0.003681 0.010010 -0.002294 -0.001875 0.000563 -0.007684
# 3 -0.000539 -0.002294 0.013749 -0.001739 0.006654 0.003335
# 4 0.000635 -0.001875 -0.001739 0.024305 -0.000075 0.004067
# 5 0.005555 0.000563 0.006654 -0.000075 0.027115 -0.001929
# 6 0.001028 -0.007684 0.003335 0.004067 -0.001929 0.028868
#
#
# Mechanical properties :
#
#
# Convention : Reuss Voigt Hill
#
# Bulk Modulus (GPa) = 35.91445 51.84754 43.88099
# Shear Modulus (GPa) = 34.85083 43.01562 38.93323
#
# Velocity S-wave (km/s) = 3.64253 4.04678 3.84997
# Velocity P-wave (km/s) = 5.60033 6.44780 6.03895
#
# Compressibility (1/GPa) = 0.02784395
#
# Stress axis : x y z
#
# Youngs Moduli (GPa) = 58.43628 99.90296 72.73226
#
# Poissons Ratio (x) = 0.36777 0.03917
# Poissons Ratio (y) = 0.21512 0.16685
# Poissons Ratio (z) = 0.03147 0.22918
#
# Static dielectric constant tensor:
#      x y z
#    x 2.218970 -0.014030 -0.014580 
#    y -0.014030 2.113820 0.032300 
#    z -0.014580 0.032300 2.274360 
# 
# From -- ./inp_files/528343.got.cif
#   From: 2010.05.17/outbox.cif.g08.bks.cpg/sg2_265_cif.got.tgz:528343.got - 2010.06.03 11:33:40.
