data_PCOD9088625
_publ_section_title
;
Structure prediction by ZEFSAII (Michael W. Deem and Ramdas Pophale) SiO2 
 PCOD9088625
Probable space group: P -1
;
_chemical_formula_sum "Si O2"
_cell_formula_units_Z 14
_cell_length_a 7.648567
_cell_length_b 17.002625
_cell_length_c 9.851309
_cell_angle_alpha 129.984240
_cell_angle_beta 127.203787
_cell_angle_gamma 32.573683
_cell_volume 522.259615
_symmetry_space_group_name_H-M "P -1"
_symmetry_group_IT_number 2
_symmetry_cell_setting 'triclinic'
loop_
_space_group_symop_operation_xyz
x,y,z
-x,-y,-z
loop_
_atom_site_type_symbol
_atom_site_label
_atom_site_fract_x
_atom_site_fract_y
_atom_site_fract_z
Si Si1 0.194884 0.951027 0.260864
Si Si2 0.299761 0.341796 0.279044
Si Si3 0.594386 0.635268 0.212142
Si Si4 0.559398 0.078985 0.947763
Si Si5 0.210726 0.222331 0.320406
Si Si6 0.920352 0.254918 0.493349
Si Si7 0.555646 0.499014 0.818568
O O1 0.356723 0.813073 0.281689
O O2 0.415911 0.902786 0.179904
O O3 0.100538 0.089240 0.445208
O O4 0.878468 0.010700 0.103854
O O5 0.365433 0.270286 0.379465
O O6 0.587727 0.318553 0.346139
O O7 0.958745 0.519558 0.314190
O O8 0.281131 0.247049 0.070268
O O9 0.426954 0.603049 0.183407
O O10 0.646276 0.572437 0.015368
O O11 0.584007 0.947800 0.825019
O O12 0.148752 0.222259 0.449058
O O13 0.831396 0.356181 0.238453
O O14 0.789427 0.383518 0.678670
#
# Coordination Sequence:
#
# PCOD9088625 Si02
#       7
#     2   2   2   2   2   2   2
#     4   9  18  35  61  87 121 159 203 244 298 368
#     4  10  22  36  64  95 117 157 208 253 294 358
#     4  10  21  37  61  91 124 158 201 250 306 361
#     4   9  17  34  59  89 118 157 206 245 293 359
#     4  10  19  37  62  88 122 156 204 251 292 358
#     4  10  22  40  65  89 118 163 207 244 302 358
#     4  10  21  38  61  88 124 165 195 246 312 363
#
# _framework density 26.80659
#
# number of rings (size 3 to 8) (size 9 to 14) (size 15 to 20)
#    0.000    2.286    1.429    1.714    0.000    3.429 
#    0.000    0.000    3.143    1.714    0.000    0.000 
#    0.000    0.000    0.000    0.000    0.000    0.000 
#
# Total GULP energy -78460.478225 kJ/mol
# GULP energy per Si atom -5604.319873 kJ/mol
# Density = 2.674558 g / cm^3
# Si number density = 26.806590 Si / 1000 Ang^3
#
#
#
# Elastic Constant Matrix: (Units=GPa)
#
#
# Indices 1 2 3 4 5 6 
#
# 1 81.2287 18.6222 10.1234 4.0469 -3.0106 5.1829
# 2 18.6222 131.2823 5.6013 17.3121 -8.2370 27.0983
# 3 10.1234 5.6013 73.4847 34.4494 -7.4550 -4.3114
# 4 4.0469 17.3121 34.4494 47.2400 -10.7616 0.4555
# 5 -3.0106 -8.2370 -7.4550 -10.7616 37.5632 3.1751
# 6 5.1829 27.0983 -4.3114 0.4555 3.1751 43.0198
#
#
#
# Elastic Compliance Matrix: (Units=1/GPa)
#
#
# Indices 1 2 3 4 5 6 
#
# 1 0.012994 -0.001721 -0.002256 0.001320 0.000660 -0.000770
# 2 -0.001721 0.009610 0.001079 -0.003740 0.001604 -0.005816
# 3 -0.002256 0.001079 0.021357 -0.015892 -0.000422 0.001932
# 4 0.001320 -0.003740 -0.015892 0.035454 0.006309 -0.000237
# 5 0.000660 0.001604 -0.000422 0.006309 0.029033 -0.003342
# 6 -0.000770 -0.005816 0.001932 -0.000237 -0.003342 0.027444
#
#
# Mechanical properties :
#
#
# Convention : Reuss Voigt Hill
#
# Bulk Modulus (GPa) = 26.20145 39.40993 32.80569
# Shear Modulus (GPa) = 32.38129 42.34119 37.36124
#
# Velocity S-wave (km/s) = 3.47934 3.97861 3.73732
# Velocity P-wave (km/s) = 5.09280 5.98659 5.55769
#
# Compressibility (1/GPa) = 0.03816583
#
# Stress axis : x y z
#
# Youngs Moduli (GPa) = 76.95609 104.06296 46.82231
#
# Poissons Ratio (x) = 0.17906 0.10564
# Poissons Ratio (y) = 0.13242 -0.05053
# Poissons Ratio (z) = 0.17364 -0.11231
#
# Static dielectric constant tensor:
#      x y z
#    x 2.031740 -0.003990 -0.007370 
#    y -0.003990 2.053720 -0.044270 
#    z -0.007370 -0.044270 2.168770 
# 
# From -- ./inp_files/218379.got.cif
#   From: 2010.05.17/outbox.cif.g08.bks.cpg/sg2_110_cif.got.tgz:218379.got - 2010.06.03 11:33:40.
