data_PCOD9088902
_publ_section_title
;
Structure prediction by ZEFSAII (Michael W. Deem and Ramdas Pophale) SiO2 
 PCOD9088902
Probable space group: P -1
;
_chemical_formula_sum "Si O2"
_cell_formula_units_Z 14
_cell_length_a 11.721592
_cell_length_b 16.094814
_cell_length_c 5.358035
_cell_angle_alpha 67.070288
_cell_angle_beta 52.993070
_cell_angle_gamma 40.335133
_cell_volume 517.767140
_symmetry_space_group_name_H-M "P -1"
_symmetry_group_IT_number 2
_symmetry_cell_setting 'triclinic'
loop_
_space_group_symop_operation_xyz
x,y,z
-x,-y,-z
loop_
_atom_site_type_symbol
_atom_site_label
_atom_site_fract_x
_atom_site_fract_y
_atom_site_fract_z
Si Si1 0.881060 0.142869 0.380991
Si Si2 0.946925 0.316034 0.093126
Si Si3 0.693234 0.099339 0.328082
Si Si4 0.468453 0.303527 0.007565
Si Si5 0.299249 0.532109 0.259432
Si Si6 0.274670 0.273806 0.972521
Si Si7 0.638481 0.935577 0.640995
O O1 0.998073 0.185119 0.193819
O O2 0.822376 0.128032 0.204231
O O3 0.658560 0.264463 0.660431
O O4 0.000000 0.000000 0.500000
O O5 0.799757 0.406167 0.415394
O O6 0.132707 0.301519 0.908818
O O7 0.840766 0.378623 0.895821
O O8 0.589465 0.162311 0.124680
O O9 0.781647 0.959013 0.403907
O O10 0.503988 0.177673 0.676550
O O11 0.378552 0.395577 0.256508
O O12 0.274273 0.367011 0.015848
O O13 0.500000 0.500000 0.000000
O O14 0.245387 0.209750 0.295309
O O15 0.500000 0.000000 0.500000
O O16 0.500000 0.000000 0.000000
#
# Coordination Sequence:
#
# PCOD9088902 Si02
#       7
#     2   2   2   2   2   2   2
#     4  11  25  46  70 107 142 185 243 296 359 429
#     4  12  28  48  75 107 143 192 239 303 351 429
#     4  10  22  42  69 100 144 188 232 291 359 429
#     4  11  24  44  74 101 140 192 236 298 358 426
#     4  12  27  49  76 100 146 192 247 290 359 427
#     4  10  24  42  67 107 142 181 241 293 364 420
#     4  10  19  37  63  95 138 185 219 274 346 422
#
# _framework density 27.039183999999999
#
# number of rings (size 3 to 8) (size 9 to 14) (size 15 to 20)
#    0.000    1.143    2.857    2.143    6.000    2.857 
#    2.571    0.000    0.000    0.000    0.000    0.000 
#    0.000    0.000    0.000    0.000    0.000    0.000 
#
# Total GULP energy -78282.846490 kJ/mol
# GULP energy per Si atom -5591.631892 kJ/mol
# Density = 2.697764 g / cm^3
# Si number density = 27.039184 Si / 1000 Ang^3
#
#
#
# Elastic Constant Matrix: (Units=GPa)
#
#
# Indices 1 2 3 4 5 6 
#
# 1 166.9249 32.9591 46.9362 3.1331 -4.2504 -3.0004
# 2 32.9591 88.5977 35.9712 -6.8389 5.0683 8.1179
# 3 46.9362 35.9712 117.0133 22.7024 25.7711 10.5708
# 4 3.1331 -6.8389 22.7024 53.2984 -0.2157 14.7128
# 5 -4.2504 5.0683 25.7711 -0.2157 42.3780 -12.8977
# 6 -3.0004 8.1179 10.5708 14.7128 -12.8977 47.1184
#
#
#
# Elastic Compliance Matrix: (Units=1/GPa)
#
#
# Indices 1 2 3 4 5 6 
#
# 1 0.007500 -0.001784 -0.003597 0.000154 0.003953 0.002626
# 2 -0.001784 0.014335 -0.004251 0.004620 -0.000240 -0.003138
# 3 -0.003597 -0.004251 0.014991 -0.005693 -0.010175 -0.003867
# 4 0.000154 0.004620 -0.005693 0.023595 0.001039 -0.006592
# 5 0.003953 -0.000240 -0.010175 0.001039 0.033708 0.011478
# 6 0.002626 -0.003138 -0.003867 -0.006592 0.011478 0.027999
#
#
# Mechanical properties :
#
#
# Convention : Reuss Voigt Hill
#
# Bulk Modulus (GPa) = 56.95023 67.14096 62.04560
# Shear Modulus (GPa) = 33.95690 45.67025 39.81358
#
# Velocity S-wave (km/s) = 3.54763 4.11425 3.84140
# Velocity P-wave (km/s) = 6.15538 6.88871 6.53234
#
# Compressibility (1/GPa) = 0.01755919
#
# Stress axis : x y z
#
# Youngs Moduli (GPa) = 133.34160 69.76163 66.70864
#
# Poissons Ratio (x) = 0.12447 0.23998
# Poissons Ratio (y) = 0.23791 0.28358
# Poissons Ratio (z) = 0.47969 0.29656
#
# Static dielectric constant tensor:
#      x y z
#    x 2.346210 0.167400 0.128680 
#    y 0.167400 2.396500 0.127430 
#    z 0.128680 0.127430 2.200990 
# 
# From -- ./inp_files/80294.got.cif
#   From: 2010.05.17/outbox.cif.g08.bks.cpg/sg2_41_cif.got.tgz:80294.got - 2010.06.03 11:33:40.
