data_PCOD9088608
_publ_section_title
;
Structure prediction by ZEFSAII (Michael W. Deem and Ramdas Pophale) SiO2 
 PCOD9088608
Probable space group: P -1
;
_chemical_formula_sum "Si O2"
_cell_formula_units_Z 16
_cell_length_a 7.315500
_cell_length_b 16.661092
_cell_length_c 11.286065
_cell_angle_alpha 53.407836
_cell_angle_beta 142.993821
_cell_angle_gamma 112.299491
_cell_volume 651.363136
_symmetry_space_group_name_H-M "P -1"
_symmetry_group_IT_number 2
_symmetry_cell_setting 'triclinic'
loop_
_space_group_symop_operation_xyz
x,y,z
-x,-y,-z
loop_
_atom_site_type_symbol
_atom_site_label
_atom_site_fract_x
_atom_site_fract_y
_atom_site_fract_z
Si Si1 0.817928 0.284348 0.989587
Si Si2 0.342136 0.523526 0.141293
Si Si3 0.301290 0.254999 0.590217
Si Si4 0.462800 0.168255 0.388757
Si Si5 0.189058 0.646182 0.580845
Si Si6 0.238218 0.627850 0.367223
Si Si7 0.445114 0.965316 0.650896
Si Si8 0.748576 0.971879 0.254443
O O1 0.709934 0.355557 0.982778
O O2 0.551340 0.231041 0.848487
O O3 0.889915 0.349986 0.850749
O O4 0.137749 0.211273 0.243567
O O5 0.540791 0.455597 0.201535
O O6 0.562353 0.484173 0.404048
O O7 0.000000 0.500000 0.000000
O O8 0.499133 0.301780 0.553971
O O9 0.205922 0.150813 0.595986
O O10 0.039082 0.343077 0.435265
O O11 0.667058 0.253006 0.421994
O O12 0.600534 0.061362 0.617733
O O13 0.399085 0.135163 0.250216
O O14 0.040724 0.649879 0.367063
O O15 0.397199 0.963092 0.765960
O O16 0.091767 0.990828 0.395816
O O17 0.500000 0.000000 0.000000
#
# Coordination Sequence:
#
# PCOD9088608 Si02
#       8
#     2   2   2   2   2   2   2   2
#     4  10  20  37  63  87 124 159 206 256 313 371
#     4  10  19  37  62  87 120 166 198 255 312 368
#     4  10  21  38  61  88 121 159 202 257 307 373
#     4  11  20  41  61  92 122 167 206 255 321 375
#     4  10  20  37  63  83 123 161 200 248 311 366
#     4   8  21  35  58  85 120 157 200 252 303 360
#     4  10  24  39  63  91 129 163 211 267 313 377
#     4  11  22  41  61  91 127 164 211 266 318 371
#
# _framework density 24.563870000000001
#
# number of rings (size 3 to 8) (size 9 to 14) (size 15 to 20)
#    1.500    0.500    2.500    1.875    0.000    1.500 
#    0.000    2.500    2.750    0.000    0.000    0.000 
#    0.000    0.000    0.000    0.000    0.000    0.000 
#
# Total GULP energy -89222.815521 kJ/mol
# GULP energy per Si atom -5576.425970 kJ/mol
# Density = 2.450796 g / cm^3
# Si number density = 24.563870 Si / 1000 Ang^3
#
#
#
# Elastic Constant Matrix: (Units=GPa)
#
#
# Indices 1 2 3 4 5 6 
#
# 1 73.4449 9.5911 14.8674 -2.3490 -3.1536 -26.5945
# 2 9.5911 86.1886 12.0595 -9.3699 1.1084 -11.2314
# 3 14.8674 12.0595 48.5795 7.7582 -3.5262 -21.1987
# 4 -2.3490 -9.3699 7.7582 29.0886 1.9794 3.9244
# 5 -3.1536 1.1084 -3.5262 1.9794 10.9366 3.6961
# 6 -26.5945 -11.2314 -21.1987 3.9244 3.6961 37.5060
#
#
#
# Elastic Compliance Matrix: (Units=1/GPa)
#
#
# Indices 1 2 3 4 5 6 
#
# 1 0.018351 -0.000477 0.000368 -0.000607 0.001166 0.013026
# 2 -0.000477 0.012950 -0.003592 0.005180 -0.004006 0.001362
# 3 0.000368 -0.003592 0.031535 -0.012387 0.006924 0.017623
# 4 -0.000607 0.005180 -0.012387 0.041168 -0.009001 -0.009301
# 5 0.001166 -0.004006 0.006924 -0.009001 0.097781 -0.005153
# 6 0.013026 0.001362 0.017623 -0.009301 -0.005153 0.047748
#
#
# Mechanical properties :
#
#
# Convention : Reuss Voigt Hill
#
# Bulk Modulus (GPa) = 18.03999 31.24989 24.64494
# Shear Modulus (GPa) = 18.15450 26.95260 22.55355
#
# Velocity S-wave (km/s) = 2.72154 3.31606 3.03340
# Velocity P-wave (km/s) = 4.15160 5.23557 4.72477
#
# Compressibility (1/GPa) = 0.05543239
#
# Stress axis : x y z
#
# Youngs Moduli (GPa) = 54.49372 77.21790 31.71106
#
# Poissons Ratio (x) = 0.03684 -0.01167
# Poissons Ratio (y) = 0.02600 0.11392
# Poissons Ratio (z) = -0.02005 0.27740
#
# Static dielectric constant tensor:
#      x y z
#    x 1.973850 -0.006570 -0.025250 
#    y -0.006570 1.984590 -0.014180 
#    z -0.025250 -0.014180 1.959420 
# 
# From -- ./inp_files/398840.got.cif
#   From: 2010.05.17/outbox.cif.g08.bks.cpg/sg2_200_cif.got.tgz:398840.got - 2010.06.03 11:33:40.
