data_PCOD9088218
_publ_section_title
;
Structure prediction by ZEFSAII (Michael W. Deem and Ramdas Pophale) SiO2 
 PCOD9088218
Probable space group: P -1
;
_chemical_formula_sum "Si O2"
_cell_formula_units_Z 16
_cell_length_a 9.217314
_cell_length_b 8.259298
_cell_length_c 18.136207
_cell_angle_alpha 129.734962
_cell_angle_beta 49.653939
_cell_angle_gamma 111.187465
_cell_volume 805.973785
_symmetry_space_group_name_H-M "P -1"
_symmetry_group_IT_number 2
_symmetry_cell_setting 'triclinic'
loop_
_space_group_symop_operation_xyz
x,y,z
-x,-y,-z
loop_
_atom_site_type_symbol
_atom_site_label
_atom_site_fract_x
_atom_site_fract_y
_atom_site_fract_z
Si Si1 0.772782 0.834985 0.571266
Si Si2 0.488276 0.756327 0.441663
Si Si3 0.206593 0.589921 0.783456
Si Si4 0.808330 0.733592 0.786341
Si Si5 0.787236 0.264056 0.605981
Si Si6 0.850315 0.834590 0.972258
Si Si7 0.498146 0.115353 0.185492
Si Si8 0.769637 0.368281 0.381754
O O1 0.633491 0.829539 0.684658
O O2 0.761084 0.621707 0.466191
O O3 0.996553 0.809256 0.511847
O O4 0.728362 0.057459 0.608609
O O5 0.696128 0.643482 0.323717
O O6 0.343454 0.683955 0.406617
O O7 0.398761 0.705017 0.534675
O O8 0.500000 0.000000 0.500000
O O9 0.344096 0.715271 0.826136
O O10 0.232623 0.684029 0.719429
O O11 0.983027 0.619748 0.884622
O O12 0.778427 0.481447 0.719450
O O13 0.815489 0.823281 0.892675
O O14 0.646707 0.863942 0.829382
O O15 0.025750 0.732330 0.684578
O O16 0.638211 0.901910 0.091062
O O17 0.000000 0.000000 0.000000
#
# Coordination Sequence:
#
# PCOD9088218 Si02
#       8
#     2   2   2   2   2   2   2   2
#     4  10  20  35  58  80 119 147 191 228 281 343
#     4  12  22  32  55  87 122 148 186 226 286 338
#     4  10  20  35  54  81 119 147 189 228 272 335
#     4  10  19  37  60  82 113 140 190 242 276 333
#     4  10  21  35  52  88 115 151 181 236 288 325
#     4   9  21  37  58  85 108 147 194 232 276 329
#     4  11  19  34  60  82 107 151 194 228 272 331
#     4  10  20  35  55  84 114 153 183 229 286 336
#
# _framework density 19.851763999999999
#
# number of rings (size 3 to 8) (size 9 to 14) (size 15 to 20)
#    0.000    1.750    2.500    2.250    1.750    3.000 
#    0.000    0.625    0.000    3.750    0.000    0.000 
#    0.000    0.000    0.000    0.000    0.000    0.000 
#
# Total GULP energy -89154.113397 kJ/mol
# GULP energy per Si atom -5572.132087 kJ/mol
# Density = 1.980658 g / cm^3
# Si number density = 19.851764 Si / 1000 Ang^3
#
#
#
# Elastic Constant Matrix: (Units=GPa)
#
#
# Indices 1 2 3 4 5 6 
#
# 1 130.0369 3.0917 41.5489 2.6117 -17.5611 -5.0581
# 2 3.0917 31.7918 1.6610 11.6261 -12.3755 4.5455
# 3 41.5489 1.6610 87.6362 12.4485 -17.3069 1.3490
# 4 2.6117 11.6261 12.4485 14.4211 -6.8557 -4.5240
# 5 -17.5611 -12.3755 -17.3069 -6.8557 44.6862 9.3990
# 6 -5.0581 4.5455 1.3490 -4.5240 9.3990 16.7566
#
#
#
# Elastic Compliance Matrix: (Units=1/GPa)
#
#
# Indices 1 2 3 4 5 6 
#
# 1 0.009904 -0.005782 -0.006270 0.010720 -0.000189 0.008063
# 2 -0.005782 0.088375 0.021983 -0.096780 0.030777 -0.070881
# 3 -0.006270 0.021983 0.022199 -0.038455 0.011943 -0.026724
# 4 0.010720 -0.096780 -0.038455 0.196929 -0.028693 0.101847
# 5 -0.000189 0.030777 0.011943 -0.028693 0.039286 -0.039150
# 6 0.008063 -0.070881 -0.026724 0.101847 -0.039150 0.132947
#
#
# Mechanical properties :
#
#
# Convention : Reuss Voigt Hill
#
# Bulk Modulus (GPa) = 7.12556 38.00756 22.56656
# Shear Modulus (GPa) = 9.67945 28.71700 19.19822
#
# Velocity S-wave (km/s) = 2.21053 3.80751 3.11316
# Velocity P-wave (km/s) = 3.18001 6.20619 4.93098
#
# Compressibility (1/GPa) = 0.14033986
#
# Stress axis : x y z
#
# Youngs Moduli (GPa) = 100.97158 11.31539 45.04662
#
# Poissons Ratio (x) = 0.06543 0.28244
# Poissons Ratio (y) = 0.58382 -0.99025
# Poissons Ratio (z) = 0.63309 -0.24874
#
# Static dielectric constant tensor:
#      x y z
#    x 1.765880 0.008290 -0.012500 
#    y 0.008290 1.689520 0.054180 
#    z -0.012500 0.054180 1.744840 
# 
# From -- ./inp_files/206282.got.cif
#   From: 2010.05.17/outbox.cif.g08.bks.cpg/sg2_104_cif.got.tgz:206282.got - 2010.06.03 11:33:40.
