data_PCOD9088736
_publ_section_title
;
Structure prediction by ZEFSAII (Michael W. Deem and Ramdas Pophale) SiO2 
 PCOD9088736
Probable space group: P -1
;
_chemical_formula_sum "Si O2"
_cell_formula_units_Z 16
_cell_length_a 9.568604
_cell_length_b 15.751122
_cell_length_c 8.965862
_cell_angle_alpha 49.013429
_cell_angle_beta 133.771316
_cell_angle_gamma 106.765191
_cell_volume 701.907676
_symmetry_space_group_name_H-M "P -1"
_symmetry_group_IT_number 2
_symmetry_cell_setting 'triclinic'
loop_
_space_group_symop_operation_xyz
x,y,z
-x,-y,-z
loop_
_atom_site_type_symbol
_atom_site_label
_atom_site_fract_x
_atom_site_fract_y
_atom_site_fract_z
Si Si1 0.440486 0.167966 0.497870
Si Si2 0.315087 0.740740 0.642268
Si Si3 0.123393 0.205419 0.693465
Si Si4 0.691048 0.123161 0.013458
Si Si5 0.339744 0.369586 0.533808
Si Si6 0.557782 0.068135 0.287611
Si Si7 0.976776 0.794968 0.704058
Si Si8 0.664438 0.428620 0.892105
O O1 0.529090 0.259588 0.372809
O O2 0.617231 0.099499 0.824018
O O3 0.223134 0.222071 0.351144
O O4 0.414764 0.065171 0.487802
O O5 0.344965 0.842565 0.659104
O O6 0.079064 0.778828 0.380499
O O7 0.345935 0.619912 0.894234
O O8 0.162684 0.327325 0.526476
O O9 0.092208 0.148334 0.576118
O O10 0.322564 0.137310 0.007136
O O11 0.519684 0.250132 0.769188
O O12 0.655872 0.049129 0.214112
O O13 0.912632 0.136567 0.184089
O O14 0.444651 0.435488 0.652657
O O15 0.290618 0.451895 0.257855
O O16 0.155683 0.675172 0.934332
#
# Coordination Sequence:
#
# PCOD9088736 Si02
#       8
#     2   2   2   2   2   2   2   2
#     4  12  25  36  57  85 123 154 184 240 296 324
#     4  11  23  39  55  89 119 148 194 235 283 349
#     4  10  19  37  63  83 112 146 199 234 275 342
#     4  10  20  39  57  89 112 145 201 241 271 342
#     4   9  16  35  69  85 107 147 198 235 276 332
#     4  11  21  40  60  81 115 157 197 234 277 339
#     4  10  20  36  58  85 115 147 193 237 276 341
#     4   9  18  37  64  88 110 148 193 236 278 343
#
# _framework density 22.795020999999998
#
# number of rings (size 3 to 8) (size 9 to 14) (size 15 to 20)
#    0.000    1.750    7.500    0.750    0.000    5.000 
#    0.000    0.625    0.000    2.250    0.000    0.000 
#    0.000    0.000    0.000    0.000    0.000    0.000 
#
# Total GULP energy -89290.824080 kJ/mol
# GULP energy per Si atom -5580.676505 kJ/mol
# Density = 2.274314 g / cm^3
# Si number density = 22.795021 Si / 1000 Ang^3
#
#
#
# Elastic Constant Matrix: (Units=GPa)
#
#
# Indices 1 2 3 4 5 6 
#
# 1 141.3313 12.3127 45.3003 5.5326 9.1195 43.7611
# 2 12.3127 59.7778 26.0834 10.0064 5.7351 25.6737
# 3 45.3003 26.0834 76.2703 3.5657 7.1411 29.8828
# 4 5.5326 10.0064 3.5657 41.1006 14.7948 0.0380
# 5 9.1195 5.7351 7.1411 14.7948 24.5751 7.6066
# 6 43.7611 25.6737 29.8828 0.0380 7.6066 38.2554
#
#
#
# Elastic Compliance Matrix: (Units=1/GPa)
#
#
# Indices 1 2 3 4 5 6 
#
# 1 0.012765 0.006425 -0.003210 -0.003773 0.002179 -0.016835
# 2 0.006425 0.028793 -0.004121 -0.009421 0.005351 -0.024508
# 3 -0.003210 -0.004121 0.020056 0.000023 -0.000887 -0.009052
# 4 -0.003773 -0.009421 0.000023 0.035101 -0.022181 0.014996
# 5 0.002179 0.005351 -0.000887 -0.022181 0.057442 -0.016791
# 6 -0.016835 -0.024508 -0.009052 0.014996 -0.016791 0.072241
#
#
# Mechanical properties :
#
#
# Convention : Reuss Voigt Hill
#
# Bulk Modulus (GPa) = 16.72228 49.41914 33.07071
# Shear Modulus (GPa) = 20.14959 33.69842 26.92400
#
# Velocity S-wave (km/s) = 2.97635 3.84907 3.44049
# Velocity P-wave (km/s) = 4.37760 6.44055 5.50654
#
# Compressibility (1/GPa) = 0.05980045
#
# Stress axis : x y z
#
# Youngs Moduli (GPa) = 78.34100 34.73074 49.86071
#
# Poissons Ratio (x) = -0.22313 0.16006
# Poissons Ratio (y) = -0.50330 0.20547
# Poissons Ratio (z) = 0.25149 0.14312
#
# Static dielectric constant tensor:
#      x y z
#    x 1.874060 -0.039300 -0.050100 
#    y -0.039300 1.946330 0.011550 
#    z -0.050100 0.011550 1.876380 
# 
# From -- ./inp_files/214598.got.cif
#   From: 2010.05.17/outbox.cif.g08.bks.cpg/sg2_108_cif.got.tgz:214598.got - 2010.06.03 11:33:40.
