data_PCOD9088403
_publ_section_title
;
Structure prediction by ZEFSAII (Michael W. Deem and Ramdas Pophale) SiO2 
 PCOD9088403
Probable space group: P -1
;
_chemical_formula_sum "Si O2"
_cell_formula_units_Z 16
_cell_length_a 8.361606
_cell_length_b 15.009848
_cell_length_c 14.830102
_cell_angle_alpha 36.566480
_cell_angle_beta 99.628948
_cell_angle_gamma 74.111327
_cell_volume 786.238556
_symmetry_space_group_name_H-M "P -1"
_symmetry_group_IT_number 2
_symmetry_cell_setting 'triclinic'
loop_
_space_group_symop_operation_xyz
x,y,z
-x,-y,-z
loop_
_atom_site_type_symbol
_atom_site_label
_atom_site_fract_x
_atom_site_fract_y
_atom_site_fract_z
Si Si1 0.992584 0.441408 0.646903
Si Si2 0.276731 0.591160 0.155095
Si Si3 0.759708 0.616998 0.930879
Si Si4 0.842135 0.242351 0.187983
Si Si5 0.039888 0.429618 0.270145
Si Si6 0.495089 0.386798 0.509421
Si Si7 0.099385 0.062055 0.025408
Si Si8 0.264398 0.007641 0.529654
O O1 0.024827 0.531221 0.662142
O O2 0.740661 0.544388 0.555572
O O3 0.000000 0.500000 0.500000
O O4 0.140479 0.195406 0.872575
O O5 0.210088 0.459348 0.243915
O O6 0.491931 0.458471 0.350038
O O7 0.083553 0.787818 0.037928
O O8 0.254662 0.682727 0.982652
O O9 0.537764 0.838062 0.690428
O O10 0.730988 0.456845 0.051416
O O11 0.000000 0.500000 0.000000
O O12 0.815392 0.614212 0.042206
O O13 0.784894 0.119695 0.323773
O O14 0.112602 0.096536 0.351214
O O15 0.155750 0.208211 0.418544
O O16 0.500000 0.500000 0.500000
O O17 0.686917 0.144367 0.739118
O O18 0.000000 0.000000 0.000000
#
# Coordination Sequence:
#
# PCOD9088403 Si02
#       8
#     2   2   2   2   2   2   2   2
#     4  10  23  40  61  90 130 157 206 259 305 372
#     4  10  21  37  61  90 122 150 218 251 298 381
#     4  11  21  40  65  87 125 163 207 250 304 374
#     4  10  22  42  58  98 118 160 206 251 319 365
#     4   9  21  40  56  92 121 157 210 249 304 372
#     4  10  19  39  61  86 117 161 209 255 302 356
#     4  10  19  37  61  84 119 159 202 257 301 356
#     4  10  23  40  65  84 134 159 198 264 310 370
#
# _framework density 20.350055999999999
#
# number of rings (size 3 to 8) (size 9 to 14) (size 15 to 20)
#    0.000    2.250    3.750    0.375    0.000    8.500 
#    2.250    0.000    0.000    0.000    0.000    0.000 
#    0.000    0.000    0.000    0.000    0.000    0.000 
#
# Total GULP energy -89143.664112 kJ/mol
# GULP energy per Si atom -5571.479007 kJ/mol
# Density = 2.030374 g / cm^3
# Si number density = 20.350056 Si / 1000 Ang^3
#
#
#
# Elastic Constant Matrix: (Units=GPa)
#
#
# Indices 1 2 3 4 5 6 
#
# 1 41.4907 19.5050 28.4051 0.6428 -0.5934 9.0145
# 2 19.5050 104.3068 51.2038 25.8807 -6.2728 12.4468
# 3 28.4051 51.2038 188.0899 14.8244 6.6054 1.9493
# 4 0.6428 25.8807 14.8244 50.4819 2.8885 -7.7565
# 5 -0.5934 -6.2728 6.6054 2.8885 40.0333 0.3731
# 6 9.0145 12.4468 1.9493 -7.7565 0.3731 25.2920
#
#
#
# Elastic Compliance Matrix: (Units=1/GPa)
#
#
# Indices 1 2 3 4 5 6 
#
# 1 0.029898 -0.002890 -0.003725 0.000821 0.000627 -0.008704
# 2 -0.002890 0.014882 -0.002998 -0.008238 0.003459 -0.008640
# 3 -0.003725 -0.002998 0.006724 0.000062 -0.001661 0.002328
# 4 0.000821 -0.008238 0.000062 0.026001 -0.003275 0.011779
# 5 0.000627 0.003459 -0.001661 -0.003275 0.026070 -0.003186
# 6 -0.008704 -0.008640 0.002328 0.011779 -0.003186 0.050373
#
#
# Mechanical properties :
#
#
# Convention : Reuss Voigt Hill
#
# Bulk Modulus (GPa) = 30.97914 59.12392 45.05153
# Shear Modulus (GPa) = 27.18390 38.81299 32.99845
#
# Velocity S-wave (km/s) = 3.65884 4.37196 4.03120
# Velocity P-wave (km/s) = 5.75376 7.38931 6.62222
#
# Compressibility (1/GPa) = 0.03227979
#
# Stress axis : x y z
#
# Youngs Moduli (GPa) = 33.44734 67.19536 148.71062
#
# Poissons Ratio (x) = 0.19417 0.55395
# Poissons Ratio (y) = 0.09665 0.44577
# Poissons Ratio (z) = 0.12459 0.20142
#
# Static dielectric constant tensor:
#      x y z
#    x 1.786480 0.033970 0.012910 
#    y 0.033970 1.818250 0.065680 
#    z 0.012910 0.065680 1.793200 
# 
# From -- ./inp_files/503873.got.cif
#   From: 2010.05.17/outbox.cif.g08.bks.cpg/sg2_252_cif.got.tgz:503873.got - 2010.06.03 11:33:40.
