data_PCOD9088766
_publ_section_title
;
Structure prediction by ZEFSAII (Michael W. Deem and Ramdas Pophale) SiO2 
 PCOD9088766
Probable space group: P -1
;
_chemical_formula_sum "Si O2"
_cell_formula_units_Z 14
_cell_length_a 11.081516
_cell_length_b 7.743578
_cell_length_c 10.799549
_cell_angle_alpha 100.216815
_cell_angle_beta 58.518289
_cell_angle_gamma 131.770867
_cell_volume 567.849407
_symmetry_space_group_name_H-M "P -1"
_symmetry_group_IT_number 2
_symmetry_cell_setting 'triclinic'
loop_
_space_group_symop_operation_xyz
x,y,z
-x,-y,-z
loop_
_atom_site_type_symbol
_atom_site_label
_atom_site_fract_x
_atom_site_fract_y
_atom_site_fract_z
Si Si1 0.784110 0.238078 0.592254
Si Si2 0.267117 0.456591 0.657711
Si Si3 0.713416 0.409933 0.079723
Si Si4 0.668130 0.421963 0.836117
Si Si5 0.041424 0.954629 0.607216
Si Si6 0.840268 0.257220 0.172851
Si Si7 0.484981 0.248879 0.663166
O O1 0.720849 0.259956 0.762223
O O2 0.626433 0.198016 0.586481
O O3 0.000000 0.500000 0.500000
O O4 0.798524 0.053188 0.518559
O O5 0.345510 0.519701 0.763933
O O6 0.162635 0.561160 0.727578
O O7 0.424582 0.579259 0.480495
O O8 0.115048 0.175273 0.679304
O O9 0.715513 0.214014 0.112541
O O10 0.611060 0.374941 0.003453
O O11 0.944902 0.621661 0.958342
O O12 0.859181 0.699374 0.734847
O O13 0.520740 0.349824 0.796276
O O14 0.000000 0.000000 0.500000
O O15 0.728946 0.006419 0.266449
#
# Coordination Sequence:
#
# PCOD9088766 Si02
#       7
#     2   2   2   2   2   2   2
#     4   8  18  31  56  85 108 140 197 229 276 321
#     4  10  20  35  56  90 114 152 187 232 292 339
#     4   9  21  36  59  85 117 153 189 232 289 351
#     4   9  20  35  60  85 111 148 198 233 281 333
#     4  11  19  32  58  84 119 146 195 236 281 340
#     4   9  21  36  60  85 118 152 191 229 295 340
#     4  10  19  37  63  86 112 148 200 242 267 343
#
# _framework density 24.654422
#
# number of rings (size 3 to 8) (size 9 to 14) (size 15 to 20)
#    1.714    0.857    1.429    0.429    6.000    1.143 
#    0.000    0.714    0.000    0.857    0.000    0.000 
#    0.000    0.000    0.000    0.000    0.000    0.000 
#
# Total GULP energy -78066.097436 kJ/mol
# GULP energy per Si atom -5576.149817 kJ/mol
# Density = 2.459831 g / cm^3
# Si number density = 24.654422 Si / 1000 Ang^3
#
#
#
# Elastic Constant Matrix: (Units=GPa)
#
#
# Indices 1 2 3 4 5 6 
#
# 1 77.8081 10.7146 31.0131 6.0133 20.8129 -2.6756
# 2 10.7146 102.7563 43.2083 0.1596 1.6787 9.7311
# 3 31.0131 43.2083 113.3238 22.9123 25.1592 4.4936
# 4 6.0133 0.1596 22.9123 44.0295 11.7287 -1.4977
# 5 20.8129 1.6787 25.1592 11.7287 46.6541 0.6508
# 6 -2.6756 9.7311 4.4936 -1.4977 0.6508 11.8634
#
#
#
# Elastic Compliance Matrix: (Units=1/GPa)
#
#
# Indices 1 2 3 4 5 6 
#
# 1 0.015894 -0.000741 -0.003294 0.001262 -0.005687 0.005912
# 2 -0.000741 0.012775 -0.005224 0.001859 0.002340 -0.008561
# 3 -0.003294 -0.005224 0.013930 -0.005685 -0.004395 -0.002211
# 4 0.001262 0.001859 -0.005685 0.026809 -0.004367 0.004537
# 5 -0.005687 0.002340 -0.004395 -0.004367 0.027405 -0.003592
# 6 0.005912 -0.008561 -0.002211 0.004537 -0.003592 0.094256
#
#
# Mechanical properties :
#
#
# Convention : Reuss Voigt Hill
#
# Bulk Modulus (GPa) = 41.52605 51.52891 46.52748
# Shear Modulus (GPa) = 22.97625 34.43954 28.70790
#
# Velocity S-wave (km/s) = 3.05607 3.74156 3.41605
# Velocity P-wave (km/s) = 5.41595 6.29377 5.87129
#
# Compressibility (1/GPa) = 0.02408127
#
# Stress axis : x y z
#
# Youngs Moduli (GPa) = 62.91597 78.27558 71.78548
#
# Poissons Ratio (x) = 0.05800 0.23648
# Poissons Ratio (y) = 0.04662 0.37502
# Poissons Ratio (z) = 0.20726 0.40892
#
# Static dielectric constant tensor:
#      x y z
#    x 1.817390 0.311720 -0.075900 
#    y 0.311720 1.412640 0.260810 
#    z -0.075900 0.260810 1.855210 
# 
# From -- ./inp_files/446061.got.cif
#   From: 2010.05.17/outbox.cif.g08.bks.cpg/sg2_224_cif.got.tgz:446061.got - 2010.06.03 11:33:40.
