data_PCOD9088439
_publ_section_title
;
Structure prediction by ZEFSAII (Michael W. Deem and Ramdas Pophale) SiO2 
 PCOD9088439
Probable space group: P -1
;
_chemical_formula_sum "Si O2"
_cell_formula_units_Z 14
_cell_length_a 11.686940
_cell_length_b 12.737331
_cell_length_c 9.181015
_cell_angle_alpha 100.504933
_cell_angle_beta 102.491776
_cell_angle_gamma 30.633046
_cell_volume 679.874930
_symmetry_space_group_name_H-M "P -1"
_symmetry_group_IT_number 2
_symmetry_cell_setting 'triclinic'
loop_
_space_group_symop_operation_xyz
x,y,z
-x,-y,-z
loop_
_atom_site_type_symbol
_atom_site_label
_atom_site_fract_x
_atom_site_fract_y
_atom_site_fract_z
Si Si1 0.240096 0.052909 0.692613
Si Si2 0.488451 0.680095 0.527796
Si Si3 0.134921 0.785693 0.953286
Si Si4 0.946759 0.455611 0.593605
Si Si5 0.271970 0.300760 0.118026
Si Si6 0.986562 0.702102 0.028415
Si Si7 0.515438 0.496206 0.753746
O O1 0.058771 0.196362 0.809687
O O2 0.156633 0.212823 0.607996
O O3 0.278038 0.919124 0.572246
O O4 0.480271 0.883651 0.794442
O O5 0.715011 0.571451 0.531630
O O6 0.531637 0.577854 0.660517
O O7 0.446845 0.637893 0.367668
O O8 0.272519 0.685858 0.815405
O O9 0.310155 0.634721 0.097947
O O10 0.993971 0.784930 0.925680
O O11 0.000000 0.000000 0.000000
O O12 0.902237 0.548136 0.758175
O O13 0.000000 0.500000 0.500000
O O14 0.208060 0.452762 0.038101
O O15 0.212035 0.231723 0.021194
#
# Coordination Sequence:
#
# PCOD9088439 Si02
#       7
#     2   2   2   2   2   2   2
#     4  10  19  37  61  87 114 158 195 235 297 361
#     4  10  22  41  64  84 119 161 202 244 294 358
#     4  11  23  39  60  91 121 155 199 251 300 349
#     4  10  22  37  57  87 123 151 191 249 296 347
#     4   9  20  36  58  88 116 158 193 239 298 356
#     4  10  20  37  60  86 120 151 197 246 293 351
#     4  10  23  42  60  88 119 160 201 245 297 346
#
# _framework density 20.592020999999999
#
# number of rings (size 3 to 8) (size 9 to 14) (size 15 to 20)
#    0.000    2.000    0.000    3.857    2.000    4.571 
#    2.571    3.571    0.000    0.000    0.000    0.000 
#    0.000    0.000    0.000    0.000    0.000    0.000 
#
# Total GULP energy -78119.521806 kJ/mol
# GULP energy per Si atom -5579.965843 kJ/mol
# Density = 2.054515 g / cm^3
# Si number density = 20.592021 Si / 1000 Ang^3
#
#
#
# Elastic Constant Matrix: (Units=GPa)
#
#
# Indices 1 2 3 4 5 6 
#
# 1 98.8437 24.6927 17.4426 13.3040 -22.6156 17.7478
# 2 24.6927 91.1420 4.0347 26.0938 -4.7062 17.6508
# 3 17.4426 4.0347 55.0881 25.7685 -3.2881 7.3808
# 4 13.3040 26.0938 25.7685 34.3708 7.8874 6.2424
# 5 -22.6156 -4.7062 -3.2881 7.8874 29.3703 -1.9952
# 6 17.7478 17.6508 7.3808 6.2424 -1.9952 23.0378
#
#
#
# Elastic Compliance Matrix: (Units=1/GPa)
#
#
# Indices 1 2 3 4 5 6 
#
# 1 0.015973 0.001024 0.001598 -0.009748 0.014602 -0.009696
# 2 0.001024 0.020584 0.012657 -0.025888 0.011601 -0.012596
# 3 0.001598 0.012657 0.038532 -0.041326 0.017956 -0.010521
# 4 -0.009748 -0.025888 -0.041326 0.090305 -0.039671 0.012679
# 5 0.014602 0.011601 0.017956 -0.039671 0.059134 -0.010019
# 6 -0.009696 -0.012596 -0.010521 0.012679 -0.010019 0.059594
#
#
# Mechanical properties :
#
#
# Convention : Reuss Voigt Hill
#
# Bulk Modulus (GPa) = 9.46532 37.49045 23.47788
# Shear Modulus (GPa) = 17.31429 30.61603 23.96516
#
# Velocity S-wave (km/s) = 2.90284 3.86008 3.41516
# Velocity P-wave (km/s) = 3.98019 6.17355 5.19397
#
# Compressibility (1/GPa) = 0.10564886
#
# Stress axis : x y z
#
# Youngs Moduli (GPa) = 62.60545 48.58155 25.95248
#
# Poissons Ratio (x) = -0.04977 -0.04147
# Poissons Ratio (y) = -0.06414 -0.32849
# Poissons Ratio (z) = -0.10005 -0.61492
#
# Static dielectric constant tensor:
#      x y z
#    x 1.790060 0.006860 0.037330 
#    y 0.006860 1.756040 -0.008090 
#    z 0.037330 -0.008090 1.749730 
# 
# From -- ./inp_files/55048.got.cif
#   From: 2010.05.17/outbox.cif.g08.bks.cpg/sg2_28_cif.got.tgz:55048.got - 2010.06.03 11:33:40.
