data_PCOD9088774
_publ_section_title
;
Structure prediction by ZEFSAII (Michael W. Deem and Ramdas Pophale) SiO2 
 PCOD9088774
Probable space group: P -1
;
_chemical_formula_sum "Si O2"
_cell_formula_units_Z 16
_cell_length_a 8.891957
_cell_length_b 12.704352
_cell_length_c 18.872881
_cell_angle_alpha 155.007240
_cell_angle_beta 46.783995
_cell_angle_gamma 134.730938
_cell_volume 632.080379
_symmetry_space_group_name_H-M "P -1"
_symmetry_group_IT_number 2
_symmetry_cell_setting 'triclinic'
loop_
_space_group_symop_operation_xyz
x,y,z
-x,-y,-z
loop_
_atom_site_type_symbol
_atom_site_label
_atom_site_fract_x
_atom_site_fract_y
_atom_site_fract_z
Si Si1 0.710274 0.696334 0.270650
Si Si2 0.724301 0.391404 0.583832
Si Si3 0.190446 0.773502 0.969961
Si Si4 0.173616 0.265766 0.367448
Si Si5 0.510021 0.514585 0.920665
Si Si6 0.229130 0.099857 0.025197
Si Si7 0.153701 0.096844 0.418002
Si Si8 0.140331 0.665289 0.253269
O O1 0.505798 0.773828 0.415540
O O2 0.700183 0.424011 0.147291
O O3 0.679441 0.636499 0.160918
O O4 0.935145 0.893721 0.335675
O O5 0.711760 0.484915 0.564100
O O6 0.778314 0.656072 0.774093
O O7 0.924297 0.272218 0.453864
O O8 0.953041 0.594966 0.919685
O O9 0.189628 0.009712 0.165256
O O10 0.278233 0.893770 0.938718
O O11 0.258378 0.253313 0.411718
O O12 0.596550 0.795642 0.028428
O O13 0.706221 0.384669 0.766515
O O14 0.500000 0.500000 0.000000
O O15 0.000000 0.000000 0.000000
O O16 0.255525 0.906117 0.313540
O O17 0.067513 0.272901 0.607975
#
# Coordination Sequence:
#
# PCOD9088774 Si02
#       8
#     2   2   2   2   2   2   2   2
#     4  10  23  41  63  90 126 162 204 257 310 365
#     4   9  21  39  58  93 122 154 205 258 303 369
#     4  10  22  39  68  92 118 164 214 249 304 365
#     4  10  21  36  63  94 117 158 208 254 298 365
#     4  11  24  36  58  92 129 151 200 259 305 356
#     4  10  19  37  63  86 119 166 200 246 306 369
#     4  10  22  39  66  84 120 169 203 248 307 371
#     4  10  22  41  58  89 125 162 206 242 309 378
#
# _framework density 25.313237000000001
#
# number of rings (size 3 to 8) (size 9 to 14) (size 15 to 20)
#    0.000    2.000    1.250    1.500    3.500    7.500 
#    0.000    0.000    0.000    2.250    0.000    0.000 
#    0.000    0.000    0.000    0.000    0.000    0.000 
#
# Total GULP energy -89534.171980 kJ/mol
# GULP energy per Si atom -5595.885749 kJ/mol
# Density = 2.525562 g / cm^3
# Si number density = 25.313237 Si / 1000 Ang^3
#
#
#
# Elastic Constant Matrix: (Units=GPa)
#
#
# Indices 1 2 3 4 5 6 
#
# 1 86.2553 25.2541 14.5823 -1.6587 7.2560 -22.4419
# 2 25.2541 135.8043 37.4434 -12.5673 -3.2682 -56.0994
# 3 14.5823 37.4434 50.8964 -0.9696 -1.7196 -5.5130
# 4 -1.6587 -12.5673 -0.9696 30.4296 -7.6752 2.7664
# 5 7.2560 -3.2682 -1.7196 -7.6752 34.3594 2.5183
# 6 -22.4419 -56.0994 -5.5130 2.7664 2.5183 58.3558
#
#
#
# Elastic Compliance Matrix: (Units=1/GPa)
#
#
# Indices 1 2 3 4 5 6 
#
# 1 0.013878 0.000902 -0.004121 -0.000453 -0.003592 0.005992
# 2 0.000902 0.017229 -0.011107 0.005653 0.001016 0.015548
# 3 -0.004121 -0.011107 0.027958 -0.002724 0.001304 -0.009548
# 4 -0.000453 0.005653 -0.002724 0.036980 0.008546 0.002881
# 5 -0.003592 0.001016 0.001304 0.008546 0.032085 -0.002071
# 6 0.005992 0.015548 -0.009548 0.002881 -0.002071 0.033438
#
#
# Mechanical properties :
#
#
# Convention : Reuss Voigt Hill
#
# Bulk Modulus (GPa) = 32.88080 47.50173 40.19126
# Shear Modulus (GPa) = 24.95549 37.67405 31.31477
#
# Velocity S-wave (km/s) = 3.14326 3.86205 3.52105
# Velocity P-wave (km/s) = 5.11773 6.22042 5.69582
#
# Compressibility (1/GPa) = 0.03041289
#
# Stress axis : x y z
#
# Youngs Moduli (GPa) = 72.05467 58.04335 35.76853
#
# Poissons Ratio (x) = -0.05236 0.14740
# Poissons Ratio (y) = -0.06500 0.39728
# Poissons Ratio (z) = 0.29693 0.64468
#
# Static dielectric constant tensor:
#      x y z
#    x 1.978950 0.036790 -0.041330 
#    y 0.036790 2.095000 -0.044090 
#    z -0.041330 -0.044090 2.015830 
# 
# From -- ./inp_files/559372.got.cif
#   From: 2010.05.17/outbox.cif.g08.bks.cpg/sg2_280_cif.got.tgz:559372.got - 2010.06.03 11:33:40.
