data_PCOD9088912
_publ_section_title
;
Structure prediction by ZEFSAII (Michael W. Deem and Ramdas Pophale) SiO2 
 PCOD9088912
Probable space group: P -1
;
_chemical_formula_sum "Si O2"
_cell_formula_units_Z 13
_cell_length_a 11.790528
_cell_length_b 10.928161
_cell_length_c 9.530126
_cell_angle_alpha 93.181523
_cell_angle_beta 69.920099
_cell_angle_gamma 34.566818
_cell_volume 505.650611
_symmetry_space_group_name_H-M "P -1"
_symmetry_group_IT_number 2
_symmetry_cell_setting 'triclinic'
loop_
_space_group_symop_operation_xyz
x,y,z
-x,-y,-z
loop_
_atom_site_type_symbol
_atom_site_label
_atom_site_fract_x
_atom_site_fract_y
_atom_site_fract_z
Si Si1 0.500000 0.000000 0.000000
Si Si2 0.815569 0.932483 0.727915
Si Si3 0.597215 0.474110 0.102267
Si Si4 0.544565 0.867195 0.727685
Si Si5 0.936347 0.668261 0.382141
Si Si6 0.802475 0.003552 0.248585
Si Si7 0.775041 0.242966 0.492434
O O1 0.290149 0.067517 0.116079
O O2 0.624519 0.872533 0.110006
O O3 0.921380 0.765816 0.533551
O O4 0.072537 0.785156 0.652521
O O5 0.564242 0.250212 0.812690
O O6 0.490522 0.494556 0.281553
O O7 0.500000 0.500000 0.000000
O O8 0.919987 0.199975 0.950010
O O9 0.720267 0.758245 0.515887
O O10 0.753783 0.669543 0.765952
O O11 0.423422 0.846747 0.748086
O O12 0.878833 0.807221 0.286878
O O13 0.719814 0.179122 0.410640
O O14 0.000000 0.000000 0.500000
#
# Coordination Sequence:
#
# PCOD9088912 Si02
#       7
#     1   2   2   2   2   2   2
#     4  10  22  42  62  88 142 160 220 276 328 396
#     4  10  19  39  66  93 127 186 210 263 349 385
#     4  11  19  35  67  99 130 173 217 276 334 387
#     4  10  24  41  64  99 128 182 219 274 338 393
#     4  10  20  43  66  88 142 173 215 283 332 390
#     4  12  21  40  70  97 128 174 232 268 328 409
#     4  10  19  37  63  97 128 169 221 266 333 389
#
# _framework density 25.709453
#
# number of rings (size 3 to 8) (size 9 to 14) (size 15 to 20)
#    0.000    1.538    6.154    1.385    0.000    0.000 
#    8.308    5.385    0.000    0.000    0.000    0.000 
#    0.000    0.000    0.000    0.000    0.000    0.000 
#
# Total GULP energy -72585.078751 kJ/mol
# GULP energy per Si atom -5583.467596 kJ/mol
# Density = 2.565094 g / cm^3
# Si number density = 25.709453 Si / 1000 Ang^3
#
#
#
# Elastic Constant Matrix: (Units=GPa)
#
#
# Indices 1 2 3 4 5 6 
#
# 1 220.9495 23.9874 85.9971 0.8587 -22.3485 1.0392
# 2 23.9874 65.6486 20.0296 -9.3544 -3.1051 11.1722
# 3 85.9971 20.0296 181.9794 -8.5665 -30.9312 3.3111
# 4 0.8587 -9.3544 -8.5665 27.4335 10.5080 -5.5286
# 5 -22.3485 -3.1051 -30.9312 10.5080 60.0133 -1.5815
# 6 1.0392 11.1722 3.3111 -5.5286 -1.5815 38.9993
#
#
#
# Elastic Compliance Matrix: (Units=1/GPa)
#
#
# Indices 1 2 3 4 5 6 
#
# 1 0.005778 -0.001628 -0.002451 -0.001878 0.001141 0.000301
# 2 -0.001628 0.017565 -0.001055 0.005361 -0.001290 -0.004191
# 3 -0.002451 -0.001055 0.007258 0.000987 0.002601 -0.000003
# 4 -0.001878 0.005361 0.000987 0.042236 -0.007200 0.004126
# 5 0.001141 -0.001290 0.002601 -0.007200 0.019619 -0.000107
# 6 0.000301 -0.004191 -0.000003 0.004126 -0.000107 0.027415
#
#
# Mechanical properties :
#
#
# Convention : Reuss Voigt Hill
#
# Bulk Modulus (GPa) = 49.17977 80.95619 65.06798
# Shear Modulus (GPa) = 36.51829 47.86011 42.18920
#
# Velocity S-wave (km/s) = 3.77294 4.31928 4.05532
# Velocity P-wave (km/s) = 6.17662 7.51213 6.87687
#
# Compressibility (1/GPa) = 0.02033356
#
# Stress axis : x y z
#
# Youngs Moduli (GPa) = 173.06969 56.93001 137.77661
#
# Poissons Ratio (x) = 0.09269 0.33773
# Poissons Ratio (y) = 0.28178 0.14530
# Poissons Ratio (z) = 0.42424 0.06004
#
# Static dielectric constant tensor:
#      x y z
#    x 2.030520 0.003960 0.045900 
#    y 0.003960 2.131560 0.106270 
#    z 0.045900 0.106270 2.227590 
# 
# From -- ./inp_files/259312.got.cif
#   From: 2010.05.17/outbox.cif.g08.bks.cpg/sg2_130_cif.got.tgz:259312.got - 2010.06.03 11:33:40.
