data_PCOD9088093
_publ_section_title
;
Structure prediction by ZEFSAII (Michael W. Deem and Ramdas Pophale) SiO2 
 PCOD9088093
Probable space group: P -1
;
_chemical_formula_sum "Si O2"
_cell_formula_units_Z 16
_cell_length_a 10.208620
_cell_length_b 8.659858
_cell_length_c 18.387167
_cell_angle_alpha 123.810565
_cell_angle_beta 141.710595
_cell_angle_gamma 43.476796
_cell_volume 692.706363
_symmetry_space_group_name_H-M "P -1"
_symmetry_group_IT_number 2
_symmetry_cell_setting 'triclinic'
loop_
_space_group_symop_operation_xyz
x,y,z
-x,-y,-z
loop_
_atom_site_type_symbol
_atom_site_label
_atom_site_fract_x
_atom_site_fract_y
_atom_site_fract_z
Si Si1 0.578972 0.250697 0.544328
Si Si2 0.994358 0.597525 0.630421
Si Si3 0.189400 0.580794 0.106785
Si Si4 0.878150 0.999685 0.756125
Si Si5 0.708541 0.951128 0.812477
Si Si6 0.080839 0.182059 0.503132
Si Si7 0.518985 0.330626 0.325983
Si Si8 0.314087 0.650427 0.022990
O O1 0.291094 0.322477 0.449008
O O2 0.732784 0.113351 0.647823
O O3 0.587873 0.469355 0.609068
O O4 0.715776 0.077878 0.493256
O O5 0.140284 0.328629 0.619843
O O6 0.981257 0.689528 0.567991
O O7 0.065487 0.735580 0.749454
O O8 0.035425 0.846325 0.131565
O O9 0.396503 0.449787 0.226111
O O10 0.324760 0.544450 0.078634
O O11 0.000000 0.500000 0.000000
O O12 0.676963 0.028043 0.735450
O O13 0.569620 0.832934 0.741994
O O14 0.016019 0.770772 0.903810
O O15 0.645590 0.152300 0.890365
O O16 0.820208 0.213284 0.422465
O O17 0.500000 0.500000 0.000000
#
# Coordination Sequence:
#
# PCOD9088093 Si02
#       8
#     2   2   2   2   2   2   2   2
#     4   9  18  34  57  81 108 142 180 227 276 317
#     4   9  17  33  55  81 108 141 182 226 271 325
#     4  10  19  37  59  81 110 146 188 229 277 327
#     4   9  18  32  57  78 104 147 180 218 277 329
#     4  10  21  38  54  75 115 143 180 232 283 322
#     4   9  17  30  54  83 109 134 181 229 266 320
#     4  10  20  34  56  82 109 145 180 228 273 325
#     4  10  22  39  58  77 107 151 188 226 281 330
#
# _framework density 23.097811
#
# number of rings (size 3 to 8) (size 9 to 14) (size 15 to 20)
#    0.000    2.500    1.250    1.500    0.000    4.000 
#    2.250    5.625    0.000    3.750    0.000    0.000 
#    0.000    0.000    0.000    0.000    0.000    0.000 
#
# Total GULP energy -89454.612594 kJ/mol
# GULP energy per Si atom -5590.913287 kJ/mol
# Density = 2.304524 g / cm^3
# Si number density = 23.097811 Si / 1000 Ang^3
#
#
#
# Elastic Constant Matrix: (Units=GPa)
#
#
# Indices 1 2 3 4 5 6 
#
# 1 120.5053 93.3762 61.0795 38.1601 7.0327 -8.5768
# 2 93.3762 153.6098 71.5806 54.9227 10.1462 -14.9561
# 3 61.0795 71.5806 106.5701 28.3925 1.2402 -8.8762
# 4 38.1601 54.9227 28.3925 47.5372 6.5947 -2.3551
# 5 7.0327 10.1462 1.2402 6.5947 45.3139 8.3379
# 6 -8.5768 -14.9561 -8.8762 -2.3551 8.3379 42.3230
#
#
#
# Elastic Compliance Matrix: (Units=1/GPa)
#
#
# Indices 1 2 3 4 5 6 
#
# 1 0.016982 -0.007564 -0.004006 -0.002443 -0.000455 -0.000118
# 2 -0.007564 0.017512 -0.004104 -0.011310 -0.001630 0.003486
# 3 -0.004006 -0.004104 0.014727 -0.000976 0.001180 0.000540
# 4 -0.002443 -0.011310 -0.000976 0.036813 -0.002005 -0.002253
# 5 -0.000455 -0.001630 0.001180 -0.002005 0.023721 -0.005206
# 6 -0.000118 0.003486 0.000540 -0.002253 -0.005206 0.025849
#
#
# Mechanical properties :
#
#
# Convention : Reuss Voigt Hill
#
# Bulk Modulus (GPa) = 55.95385 92.52865 74.24125
# Shear Modulus (GPa) = 28.91663 37.34475 33.13069
#
# Velocity S-wave (km/s) = 3.54209 4.02532 3.79141
# Velocity P-wave (km/s) = 6.40358 7.85816 7.16786
#
# Compressibility (1/GPa) = 0.01787187
#
# Stress axis : x y z
#
# Youngs Moduli (GPa) = 58.88632 57.10486 67.90096
#
# Poissons Ratio (x) = 0.43195 0.27201
# Poissons Ratio (y) = 0.44543 0.27868
# Poissons Ratio (z) = 0.23590 0.23437
#
# Static dielectric constant tensor:
#      x y z
#    x 1.813650 0.021990 -0.032330 
#    y 0.021990 1.939330 -0.019110 
#    z -0.032330 -0.019110 1.893600 
# 
# From -- ./inp_files/557502.got.cif
#   From: 2010.05.17/outbox.cif.g08.bks.cpg/sg2_279_cif.got.tgz:557502.got - 2010.06.03 11:33:40.
