data_PCOD9088394
_publ_section_title
;
Structure prediction by ZEFSAII (Michael W. Deem and Ramdas Pophale) SiO2 
 PCOD9088394
Probable space group: P -1
;
_chemical_formula_sum "Si O2"
_cell_formula_units_Z 14
_cell_length_a 19.500233
_cell_length_b 7.773520
_cell_length_c 12.494617
_cell_angle_alpha 59.455708
_cell_angle_beta 21.983792
_cell_angle_gamma 61.097281
_cell_volume 610.196212
_symmetry_space_group_name_H-M "P -1"
_symmetry_group_IT_number 2
_symmetry_cell_setting 'triclinic'
loop_
_space_group_symop_operation_xyz
x,y,z
-x,-y,-z
loop_
_atom_site_type_symbol
_atom_site_label
_atom_site_fract_x
_atom_site_fract_y
_atom_site_fract_z
Si Si1 0.973928 0.225309 0.660913
Si Si2 0.685672 0.493608 0.413333
Si Si3 0.690494 0.514701 0.922902
Si Si4 0.457277 0.205339 0.129948
Si Si5 0.872167 0.278497 0.028508
Si Si6 0.217815 0.871224 0.463245
Si Si7 0.756607 0.838951 0.343154
O O1 0.795158 0.300054 0.832519
O O2 0.152777 0.329297 0.323572
O O3 0.936916 0.319819 0.802451
O O4 0.030964 0.994160 0.668805
O O5 0.747967 0.438113 0.222037
O O6 0.789283 0.331548 0.394427
O O7 0.736971 0.712776 0.305080
O O8 0.472662 0.474777 0.758431
O O9 0.614531 0.600440 0.893409
O O10 0.406802 0.215349 0.323217
O O11 0.336843 0.021964 0.316335
O O12 0.663052 0.165905 0.804024
O O13 0.763327 0.074292 0.243931
O O14 0.055641 0.230502 0.846877
#
# Coordination Sequence:
#
# PCOD9088394 Si02
#       7
#     2   2   2   2   2   2   2
#     4  10  19  37  61  83 122 156 191 236 293 343
#     4  11  22  36  62  91 117 146 201 241 286 342
#     4   9  20  36  59  88 115 156 196 237 284 349
#     4   9  16  33  58  87 113 145 194 235 287 337
#     4  11  21  37  58  89 117 155 189 237 296 348
#     4   9  16  31  58  86 109 147 188 241 277 338
#     4  11  21  36  60  90 120 150 188 248 293 337
#
# _framework density 22.943439999999999
#
# number of rings (size 3 to 8) (size 9 to 14) (size 15 to 20)
#    0.000    2.000    4.286    2.143    0.000    2.857 
#    0.000    0.714    0.000    5.143    0.000    0.000 
#    0.000    0.000    0.000    0.000    0.000    0.000 
#
# Total GULP energy -78279.403372 kJ/mol
# GULP energy per Si atom -5591.385955 kJ/mol
# Density = 2.289122 g / cm^3
# Si number density = 22.943440 Si / 1000 Ang^3
#
#
#
# Elastic Constant Matrix: (Units=GPa)
#
#
# Indices 1 2 3 4 5 6 
#
# 1 36.3766 35.0852 34.2328 14.4074 5.4064 16.9761
# 2 35.0852 84.1476 37.1387 24.5971 0.9095 14.4244
# 3 34.2328 37.1387 118.3307 21.1147 16.3063 11.2327
# 4 14.4074 24.5971 21.1147 36.1633 -0.9245 -8.9449
# 5 5.4064 0.9095 16.3063 -0.9245 22.6525 8.2895
# 6 16.9761 14.4244 11.2327 -8.9449 8.2895 28.1097
#
#
#
# Elastic Compliance Matrix: (Units=1/GPa)
#
#
# Indices 1 2 3 4 5 6 
#
# 1 0.087991 -0.012791 -0.011211 -0.033121 0.006157 -0.054452
# 2 -0.012791 0.022594 -0.001308 -0.011518 0.005810 -0.008725
# 3 -0.011211 -0.001308 0.013117 -0.001481 -0.008303 0.004177
# 4 -0.033121 -0.011518 -0.001481 0.061177 -0.005485 0.047589
# 5 0.006157 0.005810 -0.008303 -0.005485 0.056129 -0.021680
# 6 -0.054452 -0.008725 0.004177 0.047589 -0.021680 0.092804
#
#
# Mechanical properties :
#
#
# Convention : Reuss Voigt Hill
#
# Bulk Modulus (GPa) = 13.68322 50.19649 31.93986
# Shear Modulus (GPa) = 12.23115 26.21165 19.22140
#
# Velocity S-wave (km/s) = 2.31140 3.38368 2.89757
# Velocity P-wave (km/s) = 3.61943 6.09849 5.01457
#
# Compressibility (1/GPa) = 0.07308220
#
# Stress axis : x y z
#
# Youngs Moduli (GPa) = 11.36478 44.25983 76.23907
#
# Poissons Ratio (x) = 0.56612 0.85470
# Poissons Ratio (y) = 0.14537 0.09972
# Poissons Ratio (z) = 0.12741 0.05789
#
# Static dielectric constant tensor:
#      x y z
#    x 1.858270 -0.002860 -0.026330 
#    y -0.002860 1.891590 -0.004260 
#    z -0.026330 -0.004260 1.873530 
# 
# From -- ./inp_files/542387.got.cif
#   From: 2010.05.17/outbox.cif.g08.bks.cpg/sg2_272_cif.got.tgz:542387.got - 2010.06.03 11:33:40.
