data_PCOD9088534
_publ_section_title
;
Structure prediction by ZEFSAII (Michael W. Deem and Ramdas Pophale) SiO2 
 PCOD9088534
Probable space group: P -1
;
_chemical_formula_sum "Si O2"
_cell_formula_units_Z 16
_cell_length_a 12.486104
_cell_length_b 7.919332
_cell_length_c 8.373500
_cell_angle_alpha 91.457720
_cell_angle_beta 94.666780
_cell_angle_gamma 123.773890
_cell_volume 683.470731
_symmetry_space_group_name_H-M "P -1"
_symmetry_group_IT_number 2
_symmetry_cell_setting 'triclinic'
loop_
_space_group_symop_operation_xyz
x,y,z
-x,-y,-z
loop_
_atom_site_type_symbol
_atom_site_label
_atom_site_fract_x
_atom_site_fract_y
_atom_site_fract_z
Si Si1 0.011249 0.462255 0.688000
Si Si2 0.609853 0.337606 0.480294
Si Si3 0.856812 0.833258 0.915654
Si Si4 0.245857 0.631690 0.178770
Si Si5 0.655918 0.775376 0.450064
Si Si6 0.636112 0.644550 0.105675
Si Si7 0.288624 0.679017 0.835238
Si Si8 0.916536 0.043282 0.601415
O O1 0.881199 0.385261 0.768964
O O2 0.017075 0.266589 0.681379
O O3 0.000000 0.500000 0.500000
O O4 0.145487 0.631340 0.788060
O O5 0.661320 0.310401 0.654820
O O6 0.667331 0.582480 0.484966
O O7 0.456405 0.239095 0.461034
O O8 0.644182 0.247507 0.331276
O O9 0.818497 0.603963 0.886685
O O10 0.852639 0.900362 0.740352
O O11 0.746692 0.818637 0.011347
O O12 0.000000 0.000000 0.000000
O O13 0.315614 0.757546 0.026457
O O14 0.613913 0.735929 0.260538
O O15 0.791518 0.991350 0.486906
O O16 0.689991 0.506330 0.154663
O O17 0.500000 0.500000 0.000000
O O18 0.000000 0.000000 0.500000
#
# Coordination Sequence:
#
# PCOD9088534 Si02
#       8
#     2   2   2   2   2   2   2   2
#     4  12  24  41  63  91 127 177 217 261 334 395
#     4  10  19  37  61  94 122 168 212 258 321 388
#     4  11  22  38  62  97 129 163 213 283 329 377
#     4  11  21  40  64  91 129 171 214 264 328 394
#     4  10  20  35  61  92 127 163 208 262 324 379
#     4  10  21  37  62  96 130 165 212 263 332 397
#     4  10  21  36  61  91 122 163 217 262 306 390
#     4  12  23  39  62  95 129 162 214 276 329 383
#
# _framework density 23.409925999999999
#
# number of rings (size 3 to 8) (size 9 to 14) (size 15 to 20)
#    0.000    1.250    2.500    6.375    3.500    0.000 
#    0.000    0.625    0.000    0.750    0.000    0.000 
#    0.000    0.000    0.000    0.000    0.000    0.000 
#
# Total GULP energy -89230.742746 kJ/mol
# GULP energy per Si atom -5576.921422 kJ/mol
# Density = 2.335664 g / cm^3
# Si number density = 23.409926 Si / 1000 Ang^3
#
#
#
# Elastic Constant Matrix: (Units=GPa)
#
#
# Indices 1 2 3 4 5 6 
#
# 1 90.4129 -10.1730 37.4764 -5.9254 -4.8322 16.4190
# 2 -10.1730 21.3541 0.8924 1.3431 5.5690 14.5395
# 3 37.4764 0.8924 159.8968 0.0255 -8.4287 14.7307
# 4 -5.9254 1.3431 0.0255 15.9381 8.3999 -2.0018
# 5 -4.8322 5.5690 -8.4287 8.3999 42.3830 7.6731
# 6 16.4190 14.5395 14.7307 -2.0018 7.6731 30.5529
#
#
#
# Elastic Compliance Matrix: (Units=1/GPa)
#
#
# Indices 1 2 3 4 5 6 
#
# 1 0.018098 0.020976 -0.002520 0.001590 0.001907 -0.018867
# 2 0.020976 0.096543 0.000022 -0.008708 0.001990 -0.058296
# 3 -0.002520 0.000022 0.007219 -0.002435 0.002141 -0.002834
# 4 0.001590 -0.008708 -0.002435 0.074366 -0.016330 0.013437
# 5 0.001907 0.001990 0.002141 -0.016330 0.029281 -0.011428
# 6 -0.018867 -0.058296 -0.002834 0.013437 -0.011428 0.075728
#
#
# Mechanical properties :
#
#
# Convention : Reuss Voigt Hill
#
# Bulk Modulus (GPa) = 6.29669 36.45059 21.37364
# Shear Modulus (GPa) = 15.76208 34.00600 24.88404
#
# Velocity S-wave (km/s) = 2.59763 3.81548 3.26386
# Velocity P-wave (km/s) = 3.41943 5.91733 4.83256
#
# Compressibility (1/GPa) = 0.15881371
#
# Stress axis : x y z
#
# Youngs Moduli (GPa) = 55.25605 10.35813 138.52468
#
# Poissons Ratio (x) = -0.21727 0.34913
# Poissons Ratio (y) = -1.15904 -0.00302
# Poissons Ratio (z) = 0.13926 -0.00023
#
# Static dielectric constant tensor:
#      x y z
#    x 1.911350 0.064160 -0.046990 
#    y 0.064160 2.028740 -0.091620 
#    z -0.046990 -0.091620 2.002290 
# 
# From -- ./inp_files/244053.got.cif
#   From: 2010.05.17/outbox.cif.g08.bks.cpg/sg2_123_cif.got.tgz:244053.got - 2010.06.03 11:33:40.
