data_PCOD9088957
_publ_section_title
;
Structure prediction by ZEFSAII (Michael W. Deem and Ramdas Pophale) SiO2 
 PCOD9088957
Probable space group: P -1
;
_chemical_formula_sum "Si O2"
_cell_formula_units_Z 12
_cell_length_a 11.629465
_cell_length_b 9.787549
_cell_length_c 7.304738
_cell_angle_alpha 110.925582
_cell_angle_beta 132.079133
_cell_angle_gamma 85.287146
_cell_volume 561.407738
_symmetry_space_group_name_H-M "P -1"
_symmetry_group_IT_number 2
_symmetry_cell_setting 'triclinic'
loop_
_space_group_symop_operation_xyz
x,y,z
-x,-y,-z
loop_
_atom_site_type_symbol
_atom_site_label
_atom_site_fract_x
_atom_site_fract_y
_atom_site_fract_z
Si Si1 0.763666 0.882012 0.705443
Si Si2 0.927807 0.761945 0.130036
Si Si3 0.969712 0.758459 0.588846
Si Si4 0.214692 0.788316 0.160630
Si Si5 0.663362 0.560624 0.306043
Si Si6 0.330430 0.540349 0.355444
O O1 0.652043 0.720728 0.461752
O O2 0.709716 0.034629 0.689530
O O3 0.824954 0.865438 0.968439
O O4 0.926452 0.237495 0.850514
O O5 0.982751 0.803796 0.414054
O O6 0.812039 0.595997 0.926520
O O7 0.905284 0.877086 0.706980
O O8 0.824082 0.611602 0.383665
O O9 0.127496 0.738910 0.850638
O O10 0.326177 0.686064 0.304612
O O11 0.692653 0.450753 0.445986
O O12 0.500000 0.500000 0.000000
O O13 0.500000 0.500000 0.500000
#
# Coordination Sequence:
#
# PCOD9088957 Si02
#       6
#     2   2   2   2   2   2
#     4   8  20  35  61  90 122 152 188 249 290 350
#     4  10  19  37  64  87 119 157 193 235 301 350
#     4   9  19  34  66  88 117 154 195 236 294 354
#     4  11  21  39  57  95 121 146 204 247 289 346
#     4   9  19  39  59  82 121 157 192 235 295 354
#     4  11  23  39  60  82 121 165 196 247 294 343
#
# _framework density 21.374841
#
# number of rings (size 3 to 8) (size 9 to 14) (size 15 to 20)
#    1.000    1.333    1.667    3.500    0.000    3.333 
#    3.000    4.167    0.000    0.000    0.000    0.000 
#    0.000    0.000    0.000    0.000    0.000    0.000 
#
# Total GULP energy -66924.355169 kJ/mol
# GULP energy per Si atom -5577.029597 kJ/mol
# Density = 2.132619 g / cm^3
# Si number density = 21.374841 Si / 1000 Ang^3
#
#
#
# Elastic Constant Matrix: (Units=GPa)
#
#
# Indices 1 2 3 4 5 6 
#
# 1 46.4417 22.6426 26.3405 -15.2685 -12.0971 10.4814
# 2 22.6426 143.4387 63.8109 -35.3170 -5.4140 -18.6464
# 3 26.3405 63.8109 144.7966 -25.7026 -26.6985 1.1001
# 4 -15.2685 -35.3170 -25.7026 34.3744 11.9751 1.8659
# 5 -12.0971 -5.4140 -26.6985 11.9751 35.3129 -15.3140
# 6 10.4814 -18.6464 1.1001 1.8659 -15.3140 26.5360
#
#
#
# Elastic Compliance Matrix: (Units=1/GPa)
#
#
# Indices 1 2 3 4 5 6 
#
# 1 0.031238 -0.003569 -0.002685 0.010040 -0.002637 -0.016963
# 2 -0.003569 0.012275 -0.003529 0.008178 -0.000822 0.009132
# 3 -0.002685 -0.003529 0.010314 0.000235 0.007269 0.002331
# 4 0.010040 0.008178 0.000235 0.048426 -0.016353 -0.011071
# 5 -0.002637 -0.000822 0.007269 -0.016353 0.051884 0.031255
# 6 -0.016963 0.009132 0.002331 -0.011071 0.031255 0.069521
#
#
# Mechanical properties :
#
#
# Convention : Reuss Voigt Hill
#
# Bulk Modulus (GPa) = 29.18904 62.25167 45.72035
# Shear Modulus (GPa) = 19.63524 34.03686 26.83605
#
# Velocity S-wave (km/s) = 3.03415 3.99479 3.54714
# Velocity P-wave (km/s) = 5.09512 7.10386 6.18163
#
# Compressibility (1/GPa) = 0.03425943
#
# Stress axis : x y z
#
# Youngs Moduli (GPa) = 32.01262 81.46815 96.95342
#
# Poissons Ratio (x) = 0.29079 0.26029
# Poissons Ratio (y) = 0.11427 0.34220
# Poissons Ratio (z) = 0.08595 0.28754
#
# Static dielectric constant tensor:
#      x y z
#    x 1.832610 0.003060 -0.003120 
#    y 0.003060 1.810760 0.014990 
#    z -0.003120 0.014990 1.775120 
# 
# From -- ./inp_files/326119.got.cif
#   From: 2010.05.17/outbox.cif.g08.bks.cpg/sg2_164_cif.got.tgz:326119.got - 2010.06.03 11:33:40.
