data_PCOD9088032
_publ_section_title
;
Structure prediction by ZEFSAII (Michael W. Deem and Ramdas Pophale) SiO2 
 PCOD9088032
Probable space group: P -1
;
_chemical_formula_sum "Si O2"
_cell_formula_units_Z 16
_cell_length_a 8.859230
_cell_length_b 12.349042
_cell_length_c 12.085201
_cell_angle_alpha 76.506592
_cell_angle_beta 50.499455
_cell_angle_gamma 62.116209
_cell_volume 897.755889
_symmetry_space_group_name_H-M "P -1"
_symmetry_group_IT_number 2
_symmetry_cell_setting 'triclinic'
loop_
_space_group_symop_operation_xyz
x,y,z
-x,-y,-z
loop_
_atom_site_type_symbol
_atom_site_label
_atom_site_fract_x
_atom_site_fract_y
_atom_site_fract_z
Si Si1 0.141450 0.858822 0.491947
Si Si2 0.113754 0.295321 0.306431
Si Si3 0.713549 0.870704 0.947400
Si Si4 0.303846 0.460495 0.590414
Si Si5 0.287621 0.104874 0.628855
Si Si6 0.386842 0.231036 0.761341
Si Si7 0.630935 0.713484 0.602013
Si Si8 0.845125 0.101747 0.268057
O O1 0.357521 0.813396 0.332525
O O2 0.208615 0.853190 0.590494
O O3 0.006229 0.779986 0.561312
O O4 0.000000 0.000000 0.500000
O O5 0.245190 0.208638 0.165149
O O6 0.262340 0.320684 0.320170
O O7 0.922498 0.421014 0.324569
O O8 0.929072 0.892725 0.862519
O O9 0.698325 0.789870 0.076708
O O10 0.500000 0.000000 0.000000
O O11 0.500000 0.500000 0.500000
O O12 0.311033 0.362399 0.704096
O O13 0.335913 0.397444 0.469545
O O14 0.339347 0.144552 0.714667
O O15 0.246596 0.216767 0.538655
O O16 0.500000 0.000000 0.500000
O O17 0.129684 0.037600 0.723368
O O18 0.375439 0.805565 0.711678
#
# Coordination Sequence:
#
# PCOD9088032 Si02
#       8
#     2   2   2   2   2   2   2   2
#     4  11  19  33  61  89 115 155 205 252 296 350
#     4  11  23  38  61  89 123 162 196 256 300 354
#     4  11  26  40  57  90 129 163 200 239 309 374
#     4  11  20  41  67  91 115 154 214 254 300 355
#     4   9  17  31  60  88 115 150 202 250 298 348
#     4  11  21  38  59  90 119 161 203 249 299 367
#     4  10  20  36  63  94 117 152 208 257 301 347
#     4  10  19  37  58  86 121 161 194 243 311 361
#
# _framework density 17.822215
#
# number of rings (size 3 to 8) (size 9 to 14) (size 15 to 20)
#    0.000    1.500    5.000    3.375    5.250    1.000 
#    0.000    0.000    0.000    1.500    0.000    0.000 
#    0.000    0.000    0.000    0.000    0.000    0.000 
#
# Total GULP energy -89214.278008 kJ/mol
# GULP energy per Si atom -5575.892376 kJ/mol
# Density = 1.778165 g / cm^3
# Si number density = 17.822215 Si / 1000 Ang^3
#
#
#
# Elastic Constant Matrix: (Units=GPa)
#
#
# Indices 1 2 3 4 5 6 
#
# 1 110.9655 48.8900 52.6339 1.6365 2.8268 2.6632
# 2 48.8900 103.9211 39.8206 11.0186 -6.8105 2.7755
# 3 52.6339 39.8206 105.4866 -6.3978 -8.8686 6.4658
# 4 1.6365 11.0186 -6.3978 28.7465 2.1950 -6.1365
# 5 2.8268 -6.8105 -8.8686 2.1950 24.1412 6.4383
# 6 2.6632 2.7755 6.4658 -6.1365 6.4383 34.8596
#
#
#
# Elastic Compliance Matrix: (Units=1/GPa)
#
#
# Indices 1 2 3 4 5 6 
#
# 1 0.013917 -0.004847 -0.005635 0.000549 -0.005513 0.001483
# 2 -0.004847 0.014014 -0.002734 -0.006547 0.004715 -0.002262
# 3 -0.005635 -0.002734 0.014137 0.003607 0.005376 -0.002332
# 4 0.000549 -0.006547 0.003607 0.040283 -0.006405 0.008084
# 5 -0.005513 0.004715 0.005376 -0.006405 0.048920 -0.011114
# 6 0.001483 -0.002262 -0.002332 0.008084 -0.011114 0.032662
#
#
# Mechanical properties :
#
#
# Convention : Reuss Voigt Hill
#
# Bulk Modulus (GPa) = 63.95433 67.00691 65.48062
# Shear Modulus (GPa) = 25.56527 29.48470 27.52499
#
# Velocity S-wave (km/s) = 3.79154 4.07182 3.93417
# Velocity P-wave (km/s) = 7.42497 7.73210 7.58009
#
# Compressibility (1/GPa) = 0.01563616
#
# Stress axis : x y z
#
# Youngs Moduli (GPa) = 71.85380 71.35673 70.73404
#
# Poissons Ratio (x) = 0.34587 0.39862
# Poissons Ratio (y) = 0.34828 0.19337
# Poissons Ratio (z) = 0.40493 0.19507
#
# Static dielectric constant tensor:
#      x y z
#    x 1.656860 0.007640 -0.004410 
#    y 0.007640 1.638470 -0.012750 
#    z -0.004410 -0.012750 1.583400 
# 
# From -- ./inp_files/189370.got.cif
#   From: 2010.05.17/outbox.cif.g08.bks.cpg/sg2_95_cif.got.tgz:189370.got - 2010.06.03 11:33:40.
