data_PCOD9088449
_publ_section_title
;
Structure prediction by ZEFSAII (Michael W. Deem and Ramdas Pophale) SiO2 
 PCOD9088449
Probable space group: P -1
;
_chemical_formula_sum "Si O2"
_cell_formula_units_Z 16
_cell_length_a 7.240365
_cell_length_b 17.497388
_cell_length_c 10.723522
_cell_angle_alpha 126.493098
_cell_angle_beta 141.462623
_cell_angle_gamma 67.544770
_cell_volume 670.985266
_symmetry_space_group_name_H-M "P -1"
_symmetry_group_IT_number 2
_symmetry_cell_setting 'triclinic'
loop_
_space_group_symop_operation_xyz
x,y,z
-x,-y,-z
loop_
_atom_site_type_symbol
_atom_site_label
_atom_site_fract_x
_atom_site_fract_y
_atom_site_fract_z
Si Si1 0.714518 0.347119 0.402542
Si Si2 0.852895 0.164286 0.168227
Si Si3 0.829631 0.918180 0.240202
Si Si4 0.607506 0.424154 0.150089
Si Si5 0.958893 0.719240 0.054026
Si Si6 0.800944 0.955418 0.624044
Si Si7 0.916348 0.477406 0.108013
Si Si8 0.550287 0.226661 0.837114
O O1 0.880204 0.257342 0.364872
O O2 0.712692 0.406863 0.328232
O O3 0.369485 0.301004 0.206494
O O4 0.856586 0.422956 0.654908
O O5 0.807666 0.204294 0.046444
O O6 0.101586 0.097081 0.253097
O O7 0.528505 0.099622 0.959809
O O8 0.930768 0.814123 0.210271
O O9 0.000000 0.000000 0.500000
O O10 0.939155 0.961863 0.205824
O O11 0.848769 0.442170 0.182192
O O12 0.431155 0.319287 0.916150
O O13 0.395366 0.502774 0.095322
O O14 0.977084 0.609134 0.995858
O O15 0.268905 0.750794 0.173221
O O16 0.500000 0.000000 0.500000
O O17 0.711749 0.863358 0.397675
#
# Coordination Sequence:
#
# PCOD9088449 Si02
#       8
#     2   2   2   2   2   2   2   2
#     4  10  20  38  60  87 122 159 201 242 307 360
#     4  10  23  40  65  92 120 163 207 249 306 372
#     4  11  22  43  65  90 122 165 206 257 306 362
#     4   9  20  35  62  88 119 158 200 245 297 372
#     4  10  22  38  59  90 125 156 204 259 292 365
#     4  12  23  40  65  90 124 158 207 259 310 362
#     4  10  19  37  61  87 121 158 197 247 308 352
#     4  10  20  41  60  89 126 158 205 251 304 358
#
# _framework density 23.84553
#
# number of rings (size 3 to 8) (size 9 to 14) (size 15 to 20)
#    0.000    1.750    2.500    1.875    0.000    1.000 
#    0.000    1.250    5.500    0.000    0.000    0.000 
#    0.000    0.000    0.000    0.000    0.000    0.000 
#
# Total GULP energy -89247.750271 kJ/mol
# GULP energy per Si atom -5577.984392 kJ/mol
# Density = 2.379126 g / cm^3
# Si number density = 23.845530 Si / 1000 Ang^3
#
#
#
# Elastic Constant Matrix: (Units=GPa)
#
#
# Indices 1 2 3 4 5 6 
#
# 1 43.2363 11.9565 4.4913 2.8255 3.5083 8.0934
# 2 11.9565 120.9187 41.8031 6.2292 -5.9850 -25.4669
# 3 4.4913 41.8031 85.2186 30.5365 -11.0389 -7.4249
# 4 2.8255 6.2292 30.5365 50.3937 1.0466 1.9902
# 5 3.5083 -5.9850 -11.0389 1.0466 17.8234 8.1309
# 6 8.0934 -25.4669 -7.4249 1.9902 8.1309 36.9558
#
#
#
# Elastic Compliance Matrix: (Units=1/GPa)
#
#
# Indices 1 2 3 4 5 6 
#
# 1 0.026133 -0.004348 -0.000181 -0.000437 -0.003009 -0.008070
# 2 -0.004348 0.012478 -0.006319 0.002245 -0.003026 0.008826
# 3 -0.000181 -0.006319 0.020459 -0.011772 0.012316 -0.002281
# 4 -0.000437 0.002245 -0.011772 0.026904 -0.007826 -0.000450
# 5 -0.003009 -0.003026 0.012316 -0.007826 0.070139 -0.013962
# 6 -0.008070 0.008826 -0.002281 -0.000450 -0.013962 0.037547
#
#
# Mechanical properties :
#
#
# Convention : Reuss Voigt Hill
#
# Bulk Modulus (GPa) = 26.75621 40.65283 33.70452
# Shear Modulus (GPa) = 21.94774 33.77609 27.86192
#
# Velocity S-wave (km/s) = 3.03712 3.76766 3.42194
# Velocity P-wave (km/s) = 4.85220 6.00104 5.45694
#
# Compressibility (1/GPa) = 0.03737451
#
# Stress axis : x y z
#
# Youngs Moduli (GPa) = 38.26565 80.14082 48.87879
#
# Poissons Ratio (x) = 0.34842 0.00884
# Poissons Ratio (y) = 0.16636 0.30888
# Poissons Ratio (z) = 0.00692 0.50643
#
# Static dielectric constant tensor:
#      x y z
#    x 1.998190 0.050230 -0.050230 
#    y 0.050230 1.953420 -0.007310 
#    z -0.050230 -0.007310 1.927090 
# 
# From -- ./inp_files/38639.got.cif
#   From: 2010.05.17/outbox.cif.g08.bks.cpg/sg2_20_cif.got.tgz:38639.got - 2010.06.03 11:33:40.
