data_PCOD9088385
_publ_section_title
;
Structure prediction by ZEFSAII (Michael W. Deem and Ramdas Pophale) SiO2 
 PCOD9088385
Probable space group: P -1
;
_chemical_formula_sum "Si O2"
_cell_formula_units_Z 14
_cell_length_a 9.878826
_cell_length_b 14.697093
_cell_length_c 5.792341
_cell_angle_alpha 100.202960
_cell_angle_beta 129.793971
_cell_angle_gamma 63.084618
_cell_volume 568.345857
_symmetry_space_group_name_H-M "P -1"
_symmetry_group_IT_number 2
_symmetry_cell_setting 'triclinic'
loop_
_space_group_symop_operation_xyz
x,y,z
-x,-y,-z
loop_
_atom_site_type_symbol
_atom_site_label
_atom_site_fract_x
_atom_site_fract_y
_atom_site_fract_z
Si Si1 0.167253 0.242684 0.195170
Si Si2 0.571368 0.608120 0.062281
Si Si3 0.154991 0.697707 0.809238
Si Si4 0.100806 0.917260 0.876510
Si Si5 0.838549 0.865791 0.248210
Si Si6 0.513031 0.841810 0.106073
Si Si7 0.231510 0.425165 0.223970
O O1 0.124169 0.155712 0.987775
O O2 0.336794 0.178924 0.530400
O O3 0.246910 0.310147 0.170420
O O4 0.966445 0.323906 0.134771
O O5 0.524151 0.729097 0.024973
O O6 0.688104 0.573504 0.423037
O O7 0.357343 0.614302 0.889110
O O8 0.664076 0.559423 0.890107
O O9 0.989191 0.749396 0.455089
O O10 0.186645 0.795113 0.983112
O O11 0.292493 0.918724 0.972245
O O12 0.929585 0.928625 0.514790
O O13 0.000000 0.000000 0.000000
O O14 0.615864 0.883854 0.050384
O O15 0.000000 0.500000 0.000000
#
# Coordination Sequence:
#
# PCOD9088385 Si02
#       7
#     2   2   2   2   2   2   2
#     4  10  19  37  61  82 117 153 210 248 295 386
#     4  10  20  38  60  88 117 164 207 245 298 384
#     4   8  20  35  59  83 110 159 201 242 298 361
#     4   9  19  36  56  82 121 153 201 259 308 355
#     4   9  18  34  58  81 111 154 203 239 300 356
#     4   9  18  36  56  84 109 165 200 243 300 367
#     4  11  23  38  62  90 123 158 202 258 317 358
#
# _framework density 24.632888999999999
#
# number of rings (size 3 to 8) (size 9 to 14) (size 15 to 20)
#    0.857    1.714    1.429    0.429    2.000    0.571 
#    2.571    2.857    0.000    0.000    0.000    0.000 
#    0.000    0.000    0.000    0.000    0.000    0.000 
#
# Total GULP energy -77949.463782 kJ/mol
# GULP energy per Si atom -5567.818842 kJ/mol
# Density = 2.457682 g / cm^3
# Si number density = 24.632889 Si / 1000 Ang^3
#
#
#
# Elastic Constant Matrix: (Units=GPa)
#
#
# Indices 1 2 3 4 5 6 
#
# 1 194.7144 23.7367 52.0815 -6.3374 3.0126 -32.6117
# 2 23.7367 82.3052 40.2485 -0.1445 -7.4962 -19.1869
# 3 52.0815 40.2485 49.4322 8.3268 1.2497 -15.6818
# 4 -6.3374 -0.1445 8.3268 32.7941 -1.6070 6.8183
# 5 3.0126 -7.4962 1.2497 -1.6070 32.6833 -1.9382
# 6 -32.6117 -19.1869 -15.6818 6.8183 -1.9382 37.1476
#
#
#
# Elastic Compliance Matrix: (Units=1/GPa)
#
#
# Indices 1 2 3 4 5 6 
#
# 1 0.008649 0.004549 -0.012214 0.003994 0.001154 0.004114
# 2 0.004549 0.024694 -0.024338 0.006323 0.006822 0.005669
# 3 -0.012214 -0.024338 0.057405 -0.018213 -0.007315 0.003902
# 4 0.003994 0.006323 -0.018213 0.037667 0.003176 -0.007664
# 5 0.001154 0.006822 -0.007315 0.003176 0.032643 0.002568
# 6 0.004114 0.005669 0.003902 -0.007664 0.002568 0.036647
#
#
# Mechanical properties :
#
#
# Convention : Reuss Voigt Hill
#
# Bulk Modulus (GPa) = 37.39315 62.06501 49.72908
# Shear Modulus (GPa) = 18.47573 34.55068 26.51320
#
# Velocity S-wave (km/s) = 2.74166 3.74922 3.28431
# Velocity P-wave (km/s) = 5.02349 6.63272 5.88338
#
# Compressibility (1/GPa) = 0.02674287
#
# Stress axis : x y z
#
# Youngs Moduli (GPa) = 115.61781 40.49602 17.41994
#
# Poissons Ratio (x) = -0.18423 0.21276
# Poissons Ratio (y) = -0.52599 0.42397
# Poissons Ratio (z) = 1.41213 0.98561
#
# Static dielectric constant tensor:
#      x y z
#    x 2.116000 0.065030 -0.080430 
#    y 0.065030 2.045370 -0.000730 
#    z -0.080430 -0.000730 1.922310 
# 
# From -- ./inp_files/48406.got.cif
#   From: 2010.05.17/outbox.cif.g08.bks.cpg/sg2_25_cif.got.tgz:48406.got - 2010.06.03 11:33:40.
