data_PCOD9088342
_publ_section_title
;
Structure prediction by ZEFSAII (Michael W. Deem and Ramdas Pophale) SiO2 
 PCOD9088342
Probable space group: P -1
;
_chemical_formula_sum "Si O2"
_cell_formula_units_Z 16
_cell_length_a 24.261110
_cell_length_b 15.102231
_cell_length_c 17.792394
_cell_angle_alpha 25.529001
_cell_angle_beta 162.403435
_cell_angle_gamma 160.694743
_cell_volume 651.300615
_symmetry_space_group_name_H-M "P -1"
_symmetry_group_IT_number 2
_symmetry_cell_setting 'triclinic'
loop_
_space_group_symop_operation_xyz
x,y,z
-x,-y,-z
loop_
_atom_site_type_symbol
_atom_site_label
_atom_site_fract_x
_atom_site_fract_y
_atom_site_fract_z
Si Si1 0.154357 0.826530 0.491410
Si Si2 0.317115 0.039675 0.764177
Si Si3 0.668634 0.903878 0.849067
Si Si4 0.217319 0.744914 0.142278
Si Si5 0.427029 0.346242 0.381855
Si Si6 0.763654 0.759825 0.941053
Si Si7 0.576137 0.825875 0.029334
Si Si8 0.850282 0.624073 0.386493
O O1 0.345261 0.799073 0.736982
O O2 0.019465 0.644898 0.527375
O O3 0.307503 0.150601 0.448535
O O4 0.964465 0.755239 0.237749
O O5 0.425436 0.341123 0.651569
O O6 0.321468 0.037787 0.861693
O O7 0.046356 0.814661 0.558424
O O8 0.500000 0.000000 0.000000
O O9 0.751572 0.947467 0.836631
O O10 0.383560 0.672611 0.667532
O O11 0.775130 0.178677 0.820117
O O12 0.768866 0.769482 0.123038
O O13 0.413576 0.713458 0.405235
O O14 0.264331 0.994436 0.969632
O O15 0.000000 0.500000 0.000000
O O16 0.234365 0.245901 0.142046
O O17 0.510072 0.467724 0.855219
#
# Coordination Sequence:
#
# PCOD9088342 Si02
#       8
#     2   2   2   2   2   2   2   2
#     4  10  19  37  60  92 125 163 200 263 311 358
#     4  11  22  42  61  92 127 163 206 255 309 371
#     4  10  22  40  63  94 120 168 212 246 310 364
#     4  11  23  43  63  90 126 163 203 257 310 372
#     4  10  24  39  60  92 126 161 209 254 315 364
#     4  10  21  39  63  89 127 163 209 256 297 373
#     4  10  21  38  62  91 122 165 214 244 311 369
#     4  10  20  38  65  94 123 164 211 258 295 372
#
# _framework density 24.566229
#
# number of rings (size 3 to 8) (size 9 to 14) (size 15 to 20)
#    0.000    1.750    1.250    3.750    0.000    3.000 
#    6.750    3.125    0.000    0.000    0.000    0.000 
#    0.000    0.000    0.000    0.000    0.000    0.000 
#
# Total GULP energy -89344.494815 kJ/mol
# GULP energy per Si atom -5584.030926 kJ/mol
# Density = 2.451032 g / cm^3
# Si number density = 24.566229 Si / 1000 Ang^3
#
#
#
# Elastic Constant Matrix: (Units=GPa)
#
#
# Indices 1 2 3 4 5 6 
#
# 1 109.1427 31.8778 16.3618 7.2780 1.2687 -20.1095
# 2 31.8778 86.2322 16.9193 4.9046 -2.3146 -19.3988
# 3 16.3618 16.9193 80.3560 19.0691 -10.2573 -17.0746
# 4 7.2780 4.9046 19.0691 38.1181 -7.7289 -6.0521
# 5 1.2687 -2.3146 -10.2573 -7.7289 28.5292 0.5631
# 6 -20.1095 -19.3988 -17.0746 -6.0521 0.5631 37.8679
#
#
#
# Elastic Compliance Matrix: (Units=1/GPa)
#
#
# Indices 1 2 3 4 5 6 
#
# 1 0.010935 -0.003028 -0.000714 -0.001010 -0.001337 0.003793
# 2 -0.003028 0.014111 -0.001252 0.000367 0.000828 0.005103
# 3 -0.000714 -0.001252 0.015871 -0.006040 0.003899 0.005112
# 4 -0.001010 0.000367 -0.006040 0.030952 0.006253 0.001782
# 5 -0.001337 0.000828 0.003899 0.006253 0.038237 0.001903
# 6 0.003793 0.005103 0.005112 0.001782 0.001903 0.033597
#
#
# Mechanical properties :
#
#
# Convention : Reuss Voigt Hill
#
# Bulk Modulus (GPa) = 32.33120 45.11652 38.72386
# Shear Modulus (GPa) = 30.48768 34.94116 32.71442
#
# Velocity S-wave (km/s) = 3.52666 3.77546 3.65318
# Velocity P-wave (km/s) = 5.45642 6.11642 5.79582
#
# Compressibility (1/GPa) = 0.03092988
#
# Stress axis : x y z
#
# Youngs Moduli (GPa) = 91.44638 70.86819 63.00811
#
# Poissons Ratio (x) = 0.21456 0.04501
# Poissons Ratio (y) = 0.27687 0.07886
# Poissons Ratio (z) = 0.06532 0.08870
#
# Static dielectric constant tensor:
#      x y z
#    x 2.221120 -0.027550 -0.080950 
#    y -0.027550 2.076040 0.046730 
#    z -0.080950 0.046730 2.107130 
# 
# From -- ./inp_files/579314.got.cif
#   From: 2010.05.17/outbox.cif.g08.bks.cpg/sg2_290_cif.got.tgz:579314.got - 2010.06.03 11:33:40.
