data_PCOD9088663
_publ_section_title
;
Structure prediction by ZEFSAII (Michael W. Deem and Ramdas Pophale) SiO2 
 PCOD9088663
Probable space group: P -1
;
_chemical_formula_sum "Si O2"
_cell_formula_units_Z 14
_cell_length_a 12.737052
_cell_length_b 10.704706
_cell_length_c 10.346282
_cell_angle_alpha 58.501761
_cell_angle_beta 98.742117
_cell_angle_gamma 49.533528
_cell_volume 597.907925
_symmetry_space_group_name_H-M "P -1"
_symmetry_group_IT_number 2
_symmetry_cell_setting 'triclinic'
loop_
_space_group_symop_operation_xyz
x,y,z
-x,-y,-z
loop_
_atom_site_type_symbol
_atom_site_label
_atom_site_fract_x
_atom_site_fract_y
_atom_site_fract_z
Si Si1 0.596397 0.886915 0.892784
Si Si2 0.204625 0.204331 0.782660
Si Si3 0.616160 0.733307 0.586736
Si Si4 0.829152 0.031657 0.234678
Si Si5 0.867299 0.123335 0.539009
Si Si6 0.454649 0.661736 0.754805
Si Si7 0.936350 0.402269 0.023357
O O1 0.425196 0.992180 0.874746
O O2 0.451902 0.166582 0.627512
O O3 0.761997 0.768307 0.083980
O O4 0.736660 0.626446 0.961323
O O5 0.000000 0.500000 0.500000
O O6 0.191466 0.046713 0.849106
O O7 0.513109 0.710597 0.634783
O O8 0.500000 0.000000 0.500000
O O9 0.854841 0.466878 0.827520
O O10 0.730184 0.069779 0.323685
O O11 0.063787 0.817282 0.400079
O O12 0.673141 0.356706 0.026685
O O13 0.919122 0.905181 0.735035
O O14 0.631973 0.380835 0.307592
O O15 0.000000 0.000000 0.500000
O O16 0.000000 0.500000 0.000000
#
# Coordination Sequence:
#
# PCOD9088663 Si02
#       7
#     2   2   2   2   2   2   2
#     4  10  25  42  63  94 127 172 222 258 327 384
#     4  11  26  43  66  89 132 179 218 260 310 402
#     4  10  19  37  62  90 126 159 205 270 326 374
#     4  10  21  38  61  93 127 163 212 260 329 375
#     4  10  21  32  59  98 127 162 204 268 329 382
#     4  10  20  36  63  94 127 156 204 277 327 373
#     4  11  22  38  69 100 132 165 215 279 333 384
#
# _framework density 23.414975999999999
#
# number of rings (size 3 to 8) (size 9 to 14) (size 15 to 20)
#    0.000    1.714    1.429    3.429   10.000    1.143 
#    0.000    0.714    0.000    4.286    0.000    0.000 
#    0.000    0.000    0.000    0.000    0.000    0.000 
#
# Total GULP energy -78047.631456 kJ/mol
# GULP energy per Si atom -5574.830818 kJ/mol
# Density = 2.336168 g / cm^3
# Si number density = 23.414976 Si / 1000 Ang^3
#
#
#
# Elastic Constant Matrix: (Units=GPa)
#
#
# Indices 1 2 3 4 5 6 
#
# 1 117.3523 8.1360 15.5212 16.4751 19.4093 20.3393
# 2 8.1360 44.7477 18.0877 9.9122 12.5935 14.0892
# 3 15.5212 18.0877 108.7698 26.5678 14.9867 19.2837
# 4 16.4751 9.9122 26.5678 31.4493 6.1975 12.8429
# 5 19.4093 12.5935 14.9867 6.1975 44.3644 10.1335
# 6 20.3393 14.0892 19.2837 12.8429 10.1335 27.7178
#
#
#
# Elastic Compliance Matrix: (Units=1/GPa)
#
#
# Indices 1 2 3 4 5 6 
#
# 1 0.010401 0.001429 0.000612 -0.003293 -0.003322 -0.006044
# 2 0.001429 0.028308 -0.001532 -0.002786 -0.005200 -0.011180
# 3 0.000612 -0.001532 0.012326 -0.008372 -0.001996 -0.003636
# 4 -0.003293 -0.002786 -0.008372 0.046204 0.001407 -0.012266
# 5 -0.003322 -0.005200 -0.001996 0.001407 0.026862 -0.004002
# 6 -0.006044 -0.011180 -0.003636 -0.012266 -0.004002 0.055872
#
#
# Mechanical properties :
#
#
# Convention : Reuss Voigt Hill
#
# Bulk Modulus (GPa) = 19.21189 39.37328 29.29258
# Shear Modulus (GPa) = 25.47037 35.98129 30.72583
#
# Velocity S-wave (km/s) = 3.30173 3.92430 3.62640
# Velocity P-wave (km/s) = 4.77053 6.11437 5.48377
#
# Compressibility (1/GPa) = 0.05205111
#
# Stress axis : x y z
#
# Youngs Moduli (GPa) = 96.14840 35.32601 81.13022
#
# Poissons Ratio (x) = -0.05048 -0.04963
# Poissons Ratio (y) = -0.13739 0.12431
# Poissons Ratio (z) = -0.05882 0.05413
#
# Static dielectric constant tensor:
#      x y z
#    x 1.955800 0.009620 0.024970 
#    y 0.009620 1.942180 0.064820 
#    z 0.024970 0.064820 2.028080 
# 
# From -- ./inp_files/427584.got.cif
#   From: 2010.05.17/outbox.cif.g08.bks.cpg/sg2_214_cif.got.tgz:427584.got - 2010.06.03 11:33:40.
