data_PCOD9088861
_publ_section_title
;
Structure prediction by ZEFSAII (Michael W. Deem and Ramdas Pophale) SiO2 
 PCOD9088861
Probable space group: P -1
;
_chemical_formula_sum "Si O2"
_cell_formula_units_Z 16
_cell_length_a 8.392298
_cell_length_b 17.970051
_cell_length_c 10.929527
_cell_angle_alpha 144.801778
_cell_angle_beta 88.198418
_cell_angle_gamma 67.378430
_cell_volume 666.573440
_symmetry_space_group_name_H-M "P -1"
_symmetry_group_IT_number 2
_symmetry_cell_setting 'triclinic'
loop_
_space_group_symop_operation_xyz
x,y,z
-x,-y,-z
loop_
_atom_site_type_symbol
_atom_site_label
_atom_site_fract_x
_atom_site_fract_y
_atom_site_fract_z
Si Si1 0.420602 0.672464 0.164997
Si Si2 0.531303 0.469376 0.296552
Si Si3 0.991593 0.333175 0.052023
Si Si4 0.956583 0.913033 0.480754
Si Si5 0.873293 0.517019 0.910608
Si Si6 0.175695 0.278358 0.216737
Si Si7 0.020356 0.788775 0.656870
Si Si8 0.358109 0.845801 0.979282
O O1 0.175996 0.827339 0.440265
O O2 0.500000 0.500000 0.000000
O O3 0.416951 0.639471 0.976902
O O4 0.609211 0.672559 0.164271
O O5 0.732697 0.459039 0.272110
O O6 0.274243 0.666128 0.541207
O O7 0.571319 0.342295 0.235478
O O8 0.059173 0.435437 0.142274
O O9 0.150788 0.213154 0.002644
O O10 0.026948 0.224904 0.785525
O O11 0.734836 0.045102 0.743174
O O12 0.000000 0.000000 0.500000
O O13 0.940114 0.333488 0.622763
O O14 0.000000 0.500000 0.000000
O O15 0.104980 0.224196 0.254008
O O16 0.000000 0.500000 0.500000
O O17 0.421230 0.200109 0.123897
O O18 0.850303 0.000499 0.901450
#
# Coordination Sequence:
#
# PCOD9088861 Si02
#       8
#     2   2   2   2   2   2   2   2
#     4  10  19  37  63  91 137 178 215 267 341 410
#     4  10  21  42  67  95 135 183 220 279 345 407
#     4  11  23  41  71 102 134 184 234 276 354 414
#     4  11  22  41  66 101 137 175 222 285 348 409
#     4  11  21  38  65 105 137 173 230 283 345 413
#     4  12  24  47  70  96 139 187 230 287 345 408
#     4  11  24  45  70  98 136 187 229 286 346 406
#     4  12  23  44  72  98 139 179 231 283 350 414
#
# _framework density 24.003354999999999
#
# number of rings (size 3 to 8) (size 9 to 14) (size 15 to 20)
#    0.000    1.000    5.000    4.875    0.000    1.000 
#    2.250    1.875    0.000    0.000    0.000    0.000 
#    0.000    0.000    0.000    0.000    0.000    0.000 
#
# Total GULP energy -89296.338749 kJ/mol
# GULP energy per Si atom -5581.021172 kJ/mol
# Density = 2.394872 g / cm^3
# Si number density = 24.003355 Si / 1000 Ang^3
#
#
#
# Elastic Constant Matrix: (Units=GPa)
#
#
# Indices 1 2 3 4 5 6 
#
# 1 119.9582 35.2751 47.6917 3.0067 -18.3047 8.6869
# 2 35.2751 135.2210 33.8687 12.4244 -7.5920 12.0407
# 3 47.6917 33.8687 111.1199 12.7351 -13.9563 5.5722
# 4 3.0067 12.4244 12.7351 43.2166 -0.0199 -0.5509
# 5 -18.3047 -7.5920 -13.9563 -0.0199 34.6642 -7.5444
# 6 8.6869 12.0407 5.5722 -0.5509 -7.5444 54.5749
#
#
#
# Elastic Compliance Matrix: (Units=1/GPa)
#
#
# Indices 1 2 3 4 5 6 
#
# 1 0.010930 -0.001735 -0.003762 0.000843 0.003781 -0.000442
# 2 -0.001735 0.008546 -0.001569 -0.001892 0.000003 -0.001468
# 3 -0.003762 -0.001569 0.011703 -0.002734 0.002392 0.000053
# 4 0.000843 -0.001892 -0.002734 0.024439 -0.000907 0.000684
# 5 0.003781 0.000003 0.002392 -0.000907 0.032603 0.003651
# 6 -0.000442 -0.001468 0.000053 0.000684 0.003651 0.019224
#
#
# Mechanical properties :
#
#
# Convention : Reuss Voigt Hill
#
# Bulk Modulus (GPa) = 58.66121 66.66334 62.66227
# Shear Modulus (GPa) = 39.29033 43.12204 41.20618
#
# Velocity S-wave (km/s) = 4.05021 4.24311 4.14778
# Velocity P-wave (km/s) = 6.80912 7.19987 7.00722
#
# Compressibility (1/GPa) = 0.01704704
#
# Stress axis : x y z
#
# Youngs Moduli (GPa) = 91.49281 117.01842 85.44717
#
# Poissons Ratio (x) = 0.20301 0.32143
# Poissons Ratio (y) = 0.15873 0.13408
# Poissons Ratio (z) = 0.34417 0.18362
#
# Static dielectric constant tensor:
#      x y z
#    x 1.877720 -0.063900 -0.015090 
#    y -0.063900 1.891690 -0.028460 
#    z -0.015090 -0.028460 2.000960 
# 
# From -- ./inp_files/402308.got.cif
#   From: 2010.05.17/outbox.cif.g08.bks.cpg/sg2_202_cif.got.tgz:402308.got - 2010.06.03 11:33:40.
