data_PCOD9088149
_publ_section_title
;
Structure prediction by ZEFSAII (Michael W. Deem and Ramdas Pophale) SiO2 
 PCOD9088149
Probable space group: P -1
;
_chemical_formula_sum "Si O2"
_cell_formula_units_Z 16
_cell_length_a 19.946645
_cell_length_b 9.191796
_cell_length_c 11.829779
_cell_angle_alpha 119.859143
_cell_angle_beta 24.119528
_cell_angle_gamma 132.317672
_cell_volume 604.608465
_symmetry_space_group_name_H-M "P -1"
_symmetry_group_IT_number 2
_symmetry_cell_setting 'triclinic'
loop_
_space_group_symop_operation_xyz
x,y,z
-x,-y,-z
loop_
_atom_site_type_symbol
_atom_site_label
_atom_site_fract_x
_atom_site_fract_y
_atom_site_fract_z
Si Si1 0.612147 0.427199 0.080207
Si Si2 0.481804 0.123783 0.791702
Si Si3 0.031954 0.241167 0.792253
Si Si4 0.183919 0.203392 0.932501
Si Si5 0.289582 0.650602 0.695225
Si Si6 0.253297 0.000911 0.544566
Si Si7 0.165830 0.656784 0.125150
Si Si8 0.260789 0.459977 0.313169
O O1 0.632910 0.586477 0.203300
O O2 0.676627 0.552438 0.912580
O O3 0.408107 0.181884 0.284846
O O4 0.775351 0.395495 0.869294
O O5 0.530887 0.184590 0.606821
O O6 0.546150 0.328357 0.840509
O O7 0.639240 0.081410 0.584029
O O8 0.257673 0.904547 0.076702
O O9 0.193175 0.417427 0.704962
O O10 0.153981 0.281926 0.504923
O O11 0.906126 0.002527 0.932116
O O12 0.876902 0.301685 0.041831
O O13 0.238325 0.144607 0.711264
O O14 0.977042 0.183619 0.217487
O O15 0.301774 0.654762 0.813805
O O16 0.923527 0.519840 0.418933
#
# Coordination Sequence:
#
# PCOD9088149 Si02
#       8
#     2   2   2   2   2   2   2   2
#     4  11  24  39  55  87 119 151 192 228 273 350
#     4  10  19  37  59  87 116 146 187 239 282 333
#     4   9  19  35  61  83 110 154 185 233 284 335
#     4  11  22  39  60  81 116 153 189 234 285 327
#     4   9  17  34  57  88 116 137 189 239 288 327
#     4  10  23  37  60  86 112 151 191 235 285 330
#     4  10  21  33  60  89 111 150 187 233 290 332
#     4  10  22  39  58  83 120 151 186 232 282 337
#
# _framework density 26.463405999999999
#
# number of rings (size 3 to 8) (size 9 to 14) (size 15 to 20)
#    0.000    2.000    1.250    2.625    3.500    3.500 
#    0.000    3.125    0.000    0.000    0.000    0.000 
#    0.000    0.000    0.000    0.000    0.000    0.000 
#
# Total GULP energy -89555.970072 kJ/mol
# GULP energy per Si atom -5597.248129 kJ/mol
# Density = 2.640317 g / cm^3
# Si number density = 26.463406 Si / 1000 Ang^3
#
#
#
# Elastic Constant Matrix: (Units=GPa)
#
#
# Indices 1 2 3 4 5 6 
#
# 1 111.6867 15.7927 37.9728 -5.1676 10.2363 -1.3216
# 2 15.7927 55.3021 11.0682 -20.7015 2.3453 4.5020
# 3 37.9728 11.0682 64.6702 -6.0393 14.5889 0.8597
# 4 -5.1676 -20.7015 -6.0393 31.5960 2.1381 -1.1252
# 5 10.2363 2.3453 14.5889 2.1381 50.6093 -4.7685
# 6 -1.3216 4.5020 0.8597 -1.1252 -4.7685 45.4915
#
#
#
# Elastic Compliance Matrix: (Units=1/GPa)
#
#
# Indices 1 2 3 4 5 6 
#
# 1 0.011434 -0.002351 -0.006335 -0.000840 -0.000282 0.000634
# 2 -0.002351 0.025168 -0.001130 0.015893 -0.001251 -0.002276
# 3 -0.006335 -0.001130 0.020708 0.002476 -0.004826 -0.000908
# 4 -0.000840 0.015893 0.002476 0.042580 -0.003166 -0.000923
# 5 -0.000282 -0.001251 -0.004826 -0.003166 0.021625 0.002395
# 6 0.000634 -0.002276 -0.000908 -0.000923 0.002395 0.022471
#
#
# Mechanical properties :
#
#
# Convention : Reuss Voigt Hill
#
# Bulk Modulus (GPa) = 26.54098 40.14739 33.34418
# Shear Modulus (GPa) = 28.38046 36.66107 32.52076
#
# Velocity S-wave (km/s) = 3.27837 3.72607 3.50936
# Velocity P-wave (km/s) = 4.93775 5.80648 5.38965
#
# Compressibility (1/GPa) = 0.03767758
#
# Stress axis : x y z
#
# Youngs Moduli (GPa) = 87.45531 39.73347 48.29046
#
# Poissons Ratio (x) = 0.09343 0.30590
# Poissons Ratio (y) = 0.20565 0.05457
# Poissons Ratio (z) = 0.55400 0.04490
#
# Static dielectric constant tensor:
#      x y z
#    x 2.072870 -0.036190 -0.039890 
#    y -0.036190 2.051780 0.041190 
#    z -0.039890 0.041190 2.063480 
# 
# From -- ./inp_files/474692.got.cif
#   From: 2010.05.17/outbox.cif.g08.bks.cpg/sg2_238_cif.got.tgz:474692.got - 2010.06.03 11:33:40.
