data_PCOD9088424
_publ_section_title
;
Structure prediction by ZEFSAII (Michael W. Deem and Ramdas Pophale) SiO2 
 PCOD9088424
Probable space group: P -1
;
_chemical_formula_sum "Si O2"
_cell_formula_units_Z 16
_cell_length_a 9.804687
_cell_length_b 10.327426
_cell_length_c 10.785665
_cell_angle_alpha 129.513976
_cell_angle_beta 124.912968
_cell_angle_gamma 56.781038
_cell_volume 661.138387
_symmetry_space_group_name_H-M "P -1"
_symmetry_group_IT_number 2
_symmetry_cell_setting 'triclinic'
loop_
_space_group_symop_operation_xyz
x,y,z
-x,-y,-z
loop_
_atom_site_type_symbol
_atom_site_label
_atom_site_fract_x
_atom_site_fract_y
_atom_site_fract_z
Si Si1 0.733168 0.624124 0.177609
Si Si2 0.543982 0.667678 0.682048
Si Si3 0.887772 0.370558 0.896060
Si Si4 0.741169 0.149971 0.517056
Si Si5 0.096372 0.623801 0.695340
Si Si6 0.542550 0.135850 0.002445
Si Si7 0.148299 0.177874 0.089226
Si Si8 0.011372 0.173043 0.472489
O O1 0.905720 0.689754 0.328867
O O2 0.733386 0.514490 0.238953
O O3 0.767118 0.468685 0.002431
O O4 0.588272 0.779857 0.127965
O O5 0.500000 0.500000 0.500000
O O6 0.443496 0.816870 0.621040
O O7 0.473787 0.708218 0.810545
O O8 0.736844 0.686381 0.787960
O O9 0.771965 0.318246 0.701258
O O10 0.000000 0.500000 0.000000
O O11 0.026766 0.198511 0.917847
O O12 0.871982 0.118715 0.450370
O O13 0.813500 0.988216 0.548272
O O14 0.975941 0.744715 0.812309
O O15 0.092602 0.754116 0.660361
O O16 0.000000 0.500000 0.500000
O O17 0.500000 0.000000 0.000000
O O18 0.720951 0.017769 0.961272
#
# Coordination Sequence:
#
# PCOD9088424 Si02
#       8
#     2   2   2   2   2   2   2   2
#     4  10  19  37  61  86 117 164 207 245 296 370
#     4  11  23  35  58  94 131 155 193 257 325 361
#     4  11  19  34  61  91 119 157 209 246 300 369
#     4  11  23  35  62  95 123 152 197 266 317 353
#     4   9  21  40  64  88 119 168 218 251 288 375
#     4  10  20  35  59  90 129 155 199 254 313 362
#     4  10  22  38  61  91 120 165 204 251 305 365
#     4  10  21  37  62  89 119 154 210 258 303 350
#
# _framework density 24.200680999999999
#
# number of rings (size 3 to 8) (size 9 to 14) (size 15 to 20)
#    0.000    1.750    1.250    4.500    7.000    0.000 
#    0.000    8.125    0.000    0.750    0.000    0.000 
#    0.000    0.000    0.000    0.000    0.000    0.000 
#
# Total GULP energy -89187.750078 kJ/mol
# GULP energy per Si atom -5574.234380 kJ/mol
# Density = 2.414560 g / cm^3
# Si number density = 24.200681 Si / 1000 Ang^3
#
#
#
# Elastic Constant Matrix: (Units=GPa)
#
#
# Indices 1 2 3 4 5 6 
#
# 1 30.5762 18.0094 16.1238 -10.2921 -2.1769 -1.9678
# 2 18.0094 170.8755 47.7741 -46.2356 -8.2466 -4.2613
# 3 16.1238 47.7741 128.7534 -21.8434 -3.2413 -4.9491
# 4 -10.2921 -46.2356 -21.8434 56.4977 -3.8212 -1.0577
# 5 -2.1769 -8.2466 -3.2413 -3.8212 24.9849 -4.6059
# 6 -1.9678 -4.2613 -4.9491 -1.0577 -4.6059 25.2515
#
#
#
# Elastic Compliance Matrix: (Units=1/GPa)
#
#
# Indices 1 2 3 4 5 6 
#
# 1 0.037252 -0.001573 -0.003102 0.004594 0.003556 0.002871
# 2 -0.001573 0.008403 -0.001699 0.006220 0.003718 0.001901
# 3 -0.003102 -0.001699 0.009149 0.001670 0.000887 0.001496
# 4 0.004594 0.006220 0.001670 0.024838 0.007223 0.004093
# 5 0.003556 0.003718 0.000887 0.007223 0.044533 0.009504
# 6 0.002871 0.001901 0.001496 0.004093 0.009504 0.042344
#
#
# Mechanical properties :
#
#
# Convention : Reuss Voigt Hill
#
# Bulk Modulus (GPa) = 23.77802 54.89108 39.33455
# Shear Modulus (GPa) = 25.86858 37.90000 31.88429
#
# Velocity S-wave (km/s) = 3.27298 3.96166 3.63367
# Velocity P-wave (km/s) = 4.91222 6.60736 5.82181
#
# Compressibility (1/GPa) = 0.04205565
#
# Stress axis : x y z
#
# Youngs Moduli (GPa) = 26.84449 119.00640 109.30393
#
# Poissons Ratio (x) = 0.18714 0.33909
# Poissons Ratio (y) = 0.04221 0.18571
# Poissons Ratio (z) = 0.08328 0.20219
#
# Static dielectric constant tensor:
#      x y z
#    x 1.969290 0.024560 0.017680 
#    y 0.024560 2.143810 0.023090 
#    z 0.017680 0.023090 1.943740 
# 
# From -- ./inp_files/424323.got.cif
#   From: 2010.05.17/outbox.cif.g08.bks.cpg/sg2_213_cif.got.tgz:424323.got - 2010.06.03 11:33:40.
