data_PCOD9088007
_publ_section_title
;
Structure prediction by ZEFSAII (Michael W. Deem and Ramdas Pophale) SiO2 
 PCOD9088007
Probable space group: P -1
;
_chemical_formula_sum "Si O2"
_cell_formula_units_Z 16
_cell_length_a 14.538197
_cell_length_b 15.474008
_cell_length_c 9.100153
_cell_angle_alpha 77.515898
_cell_angle_beta 67.409056
_cell_angle_gamma 25.706749
_cell_volume 775.502790
_symmetry_space_group_name_H-M "P -1"
_symmetry_group_IT_number 2
_symmetry_cell_setting 'triclinic'
loop_
_space_group_symop_operation_xyz
x,y,z
-x,-y,-z
loop_
_atom_site_type_symbol
_atom_site_label
_atom_site_fract_x
_atom_site_fract_y
_atom_site_fract_z
Si Si1 0.669348 0.305069 0.066229
Si Si2 0.233222 0.721269 0.530332
Si Si3 0.928607 0.239293 0.121833
Si Si4 0.479647 0.959975 0.674336
Si Si5 0.666503 0.113799 0.222063
Si Si6 0.740867 0.761343 0.877936
Si Si7 0.034738 0.596430 0.013194
Si Si8 0.001617 0.924725 0.306731
O O1 0.880403 0.118764 0.886303
O O2 0.500000 0.500000 0.000000
O O3 0.763478 0.297492 0.131588
O O4 0.576010 0.287239 0.191789
O O5 0.500000 0.500000 0.500000
O O6 0.076974 0.776573 0.696869
O O7 0.193378 0.738979 0.375837
O O8 0.153484 0.883008 0.572739
O O9 0.845049 0.404558 0.068548
O O10 0.182657 0.026241 0.966865
O O11 0.491727 0.844809 0.676974
O O12 0.688737 0.810683 0.718557
O O13 0.500000 0.000000 0.500000
O O14 0.216529 0.193335 0.820290
O O15 0.845905 0.976715 0.301149
O O16 0.794737 0.615863 0.944790
O O17 0.954366 0.636883 0.880779
O O18 0.500000 0.000000 0.000000
#
# Coordination Sequence:
#
# PCOD9088007 Si02
#       8
#     2   2   2   2   2   2   2   2
#     4  11  20  34  61  85 115 157 195 232 280 344
#     4  11  21  36  53  81 118 156 187 230 283 333
#     4  10  19  37  58  83 115 148 195 234 281 343
#     4  10  22  38  61  90 119 147 192 246 297 342
#     4  10  20  39  58  84 116 156 193 236 284 341
#     4   9  19  40  62  83 115 147 197 243 285 342
#     4   9  20  38  64  88 110 150 198 239 290 346
#     4  10  21  37  54  80 121 149 189 239 277 340
#
# _framework density 20.631775000000001
#
# number of rings (size 3 to 8) (size 9 to 14) (size 15 to 20)
#    0.000    2.000    2.500    1.500    1.750    1.500 
#    0.000    3.750    0.000    0.000    0.000    0.000 
#    0.000    0.000    0.000    0.000    0.000    0.000 
#
# Total GULP energy -89139.224292 kJ/mol
# GULP energy per Si atom -5571.201518 kJ/mol
# Density = 2.058482 g / cm^3
# Si number density = 20.631775 Si / 1000 Ang^3
#
#
#
# Elastic Constant Matrix: (Units=GPa)
#
#
# Indices 1 2 3 4 5 6 
#
# 1 83.8709 42.4964 59.1200 -25.5551 2.3867 17.4724
# 2 42.4964 109.7853 22.3821 -28.0467 4.0908 7.5042
# 3 59.1200 22.3821 110.7106 -35.5991 14.1941 -5.0907
# 4 -25.5551 -28.0467 -35.5991 34.8855 -3.4006 3.5914
# 5 2.3867 4.0908 14.1941 -3.4006 26.2933 -15.3718
# 6 17.4724 7.5042 -5.0907 3.5914 -15.3718 35.4560
#
#
#
# Elastic Compliance Matrix: (Units=1/GPa)
#
#
# Indices 1 2 3 4 5 6 
#
# 1 0.029656 -0.006285 -0.013447 0.004346 -0.004079 -0.017423
# 2 -0.006285 0.013631 0.004420 0.010700 -0.003605 -0.001800
# 3 -0.013447 0.004420 0.020772 0.013823 -0.006216 0.004578
# 4 0.004346 0.010700 0.013823 0.054876 -0.009496 -0.012097
# 5 -0.004079 -0.003605 -0.006216 -0.009496 0.057269 0.027671
# 6 -0.017423 -0.001800 0.004578 -0.012097 0.027671 0.051050
#
#
# Mechanical properties :
#
#
# Convention : Reuss Voigt Hill
#
# Bulk Modulus (GPa) = 29.90749 61.37376 45.64063
# Shear Modulus (GPa) = 18.58586 31.35150 24.96868
#
# Velocity S-wave (km/s) = 3.00465 3.90240 3.48257
# Velocity P-wave (km/s) = 5.15408 7.07932 6.19198
#
# Compressibility (1/GPa) = 0.03343644
#
# Stress axis : x y z
#
# Youngs Moduli (GPa) = 33.72014 73.36186 48.14230
#
# Poissons Ratio (x) = 0.46107 0.64735
# Poissons Ratio (y) = 0.21193 -0.21280
# Poissons Ratio (z) = 0.45342 -0.32428
#
# Static dielectric constant tensor:
#      x y z
#    x 1.754170 -0.005070 0.024310 
#    y -0.005070 1.879710 0.014700 
#    z 0.024310 0.014700 1.772430 
# 
# From -- ./inp_files/314871.got.cif
#   From: 2010.05.17/outbox.cif.g08.bks.cpg/sg2_158_cif.got.tgz:314871.got - 2010.06.03 11:33:40.
