data_PCOD9088369
_publ_section_title
;
Structure prediction by ZEFSAII (Michael W. Deem and Ramdas Pophale) SiO2 
 PCOD9088369
Probable space group: P -1
;
_chemical_formula_sum "Si O2"
_cell_formula_units_Z 16
_cell_length_a 8.954750
_cell_length_b 12.185726
_cell_length_c 14.373669
_cell_angle_alpha 108.454019
_cell_angle_beta 89.560088
_cell_angle_gamma 144.061812
_cell_volume 781.309635
_symmetry_space_group_name_H-M "P -1"
_symmetry_group_IT_number 2
_symmetry_cell_setting 'triclinic'
loop_
_space_group_symop_operation_xyz
x,y,z
-x,-y,-z
loop_
_atom_site_type_symbol
_atom_site_label
_atom_site_fract_x
_atom_site_fract_y
_atom_site_fract_z
Si Si1 0.352410 0.524768 0.529988
Si Si2 0.841755 0.214227 0.552958
Si Si3 0.802969 0.854696 0.755237
Si Si4 0.978907 0.478118 0.219328
Si Si5 0.298822 0.016336 0.070632
Si Si6 0.088089 0.816981 0.814387
Si Si7 0.327385 0.869545 0.190740
Si Si8 0.764278 0.978587 0.628724
O O1 0.500000 0.500000 0.500000
O O2 0.477729 0.634491 0.662383
O O3 0.503155 0.727445 0.527092
O O4 0.015239 0.315422 0.483255
O O5 0.953388 0.397521 0.658995
O O6 0.500000 0.000000 0.500000
O O7 0.912650 0.142145 0.588628
O O8 0.825596 0.953016 0.869506
O O9 0.937822 0.007046 0.704250
O O10 0.909049 0.798065 0.761133
O O11 0.641660 0.249631 0.138325
O O12 0.069092 0.406821 0.222817
O O13 0.138475 0.646106 0.178532
O O14 0.212335 0.848838 0.089449
O O15 0.199522 0.936937 0.945215
O O16 0.360608 0.969183 0.790793
O O17 0.338502 0.985592 0.293056
#
# Coordination Sequence:
#
# PCOD9088369 Si02
#       8
#     2   2   2   2   2   2   2   2
#     4  10  21  39  62  87 116 156 191 245 305 345
#     4  11  22  39  65  88 113 158 207 240 295 359
#     4   9  20  41  54  81 125 152 185 239 294 354
#     4  10  20  38  58  84 119 151 190 251 290 332
#     4  10  19  37  61  78 119 160 191 235 294 342
#     4  11  21  33  59  92 112 153 198 239 281 352
#     4   9  18  35  58  81 116 150 194 238 289 334
#     4   8  20  40  58  80 118 161 178 246 301 344
#
# _framework density 20.478438000000001
#
# number of rings (size 3 to 8) (size 9 to 14) (size 15 to 20)
#    0.750    1.500    1.250    2.625    0.000    6.000 
#    2.250    0.000    0.000    4.500    0.000    0.000 
#    0.000    0.000    0.000    0.000    0.000    0.000 
#
# Total GULP energy -89157.645697 kJ/mol
# GULP energy per Si atom -5572.352856 kJ/mol
# Density = 2.043183 g / cm^3
# Si number density = 20.478438 Si / 1000 Ang^3
#
#
#
# Elastic Constant Matrix: (Units=GPa)
#
#
# Indices 1 2 3 4 5 6 
#
# 1 71.7662 36.4015 0.2164 9.4816 8.2048 -32.3250
# 2 36.4015 98.1345 6.1826 3.3462 -9.7150 -30.1825
# 3 0.2164 6.1826 53.0433 6.7341 -1.0466 -6.8918
# 4 9.4816 3.3462 6.7341 17.4937 -4.9222 -1.6247
# 5 8.2048 -9.7150 -1.0466 -4.9222 20.6264 -0.0709
# 6 -32.3250 -30.1825 -6.8918 -1.6247 -0.0709 34.1393
#
#
#
# Elastic Compliance Matrix: (Units=1/GPa)
#
#
# Indices 1 2 3 4 5 6 
#
# 1 0.035805 -0.006373 0.006971 -0.024605 -0.022665 0.028457
# 2 -0.006373 0.016104 -0.001164 0.004742 0.011221 0.008217
# 3 0.006971 -0.001164 0.021655 -0.012478 -0.005168 0.009338
# 4 -0.024605 0.004742 -0.012478 0.081407 0.030754 -0.017686
# 5 -0.022665 0.011221 -0.005168 0.030754 0.069821 -0.010975
# 6 0.028457 0.008217 0.009338 -0.017686 -0.010975 0.064522
#
#
# Mechanical properties :
#
#
# Convention : Reuss Voigt Hill
#
# Bulk Modulus (GPa) = 13.80609 34.28278 24.04443
# Shear Modulus (GPa) = 15.89366 26.46145 21.17755
#
# Velocity S-wave (km/s) = 2.78891 3.59856 3.21929
# Velocity P-wave (km/s) = 4.13849 5.83468 5.05819
#
# Compressibility (1/GPa) = 0.07243182
#
# Stress axis : x y z
#
# Youngs Moduli (GPa) = 27.92877 62.09732 46.17814
#
# Poissons Ratio (x) = 0.39574 -0.32189
# Poissons Ratio (y) = 0.17799 0.05375
# Poissons Ratio (z) = -0.19468 0.07228
#
# Static dielectric constant tensor:
#      x y z
#    x 1.734930 -0.009950 0.005630 
#    y -0.009950 1.759790 -0.001530 
#    z 0.005630 -0.001530 1.761340 
# 
# From -- ./inp_files/500573.got.cif
#   From: 2010.05.17/outbox.cif.g08.bks.cpg/sg2_251_cif.got.tgz:500573.got - 2010.06.03 11:33:40.
