data_PCOD9088981
_publ_section_title
;
Structure prediction by ZEFSAII (Michael W. Deem and Ramdas Pophale) SiO2 
 PCOD9088981
Probable space group: P -1
;
_chemical_formula_sum "Si O2"
_cell_formula_units_Z 16
_cell_length_a 9.439760
_cell_length_b 10.998045
_cell_length_c 16.015557
_cell_angle_alpha 36.057941
_cell_angle_beta 123.148401
_cell_angle_gamma 136.671984
_cell_volume 668.030775
_symmetry_space_group_name_H-M "P -1"
_symmetry_group_IT_number 2
_symmetry_cell_setting 'triclinic'
loop_
_space_group_symop_operation_xyz
x,y,z
-x,-y,-z
loop_
_atom_site_type_symbol
_atom_site_label
_atom_site_fract_x
_atom_site_fract_y
_atom_site_fract_z
Si Si1 0.333535 0.871013 0.663707
Si Si2 0.182962 0.901437 0.168517
Si Si3 0.954169 0.710653 0.867697
Si Si4 0.036533 0.345690 0.467316
Si Si5 0.306462 0.163029 0.633446
Si Si6 0.018947 0.348561 0.912983
Si Si7 0.414354 0.848628 0.142009
Si Si8 0.734288 0.911947 0.732895
O O1 0.150346 0.794879 0.582290
O O2 0.232697 0.621842 0.828733
O O3 0.386515 0.105801 0.607966
O O4 0.528677 0.905090 0.661757
O O5 0.382298 0.002784 0.117032
O O6 0.238745 0.087468 0.158704
O O7 0.117323 0.636516 0.337473
O O8 0.003456 0.795269 0.099783
O O9 0.740634 0.690894 0.812971
O O10 0.031833 0.812352 0.930854
O O11 0.090430 0.897025 0.734580
O O12 0.000000 0.500000 0.000000
O O13 0.930133 0.172293 0.611263
O O14 0.232957 0.345843 0.503236
O O15 0.444750 0.217143 0.729939
O O16 0.826411 0.376233 0.827670
O O17 0.500000 0.000000 0.000000
#
# Coordination Sequence:
#
# PCOD9088981 Si02
#       8
#     2   2   2   2   2   2   2   2
#     4  11  20  40  59  91 126 165 208 254 305 376
#     4   9  20  40  60  90 123 163 207 252 306 364
#     4  11  22  39  63  92 125 159 208 263 309 373
#     4  10  23  38  62  90 129 163 209 258 304 360
#     4  11  20  37  64  91 122 169 206 255 312 361
#     4   9  20  36  61  86 125 155 202 254 309 358
#     4  10  19  37  64  90 124 161 207 258 307 368
#     4  11  23  39  65  87 123 173 206 249 319 363
#
# _framework density 23.950991999999999
#
# number of rings (size 3 to 8) (size 9 to 14) (size 15 to 20)
#    0.750    1.000    3.750    1.125    0.000    1.500 
#    0.000    0.000   16.500    0.000    0.000    0.000 
#    0.000    0.000    0.000    0.000    0.000    0.000 
#
# Total GULP energy -89145.246440 kJ/mol
# GULP energy per Si atom -5571.577903 kJ/mol
# Density = 2.389648 g / cm^3
# Si number density = 23.950992 Si / 1000 Ang^3
#
#
#
# Elastic Constant Matrix: (Units=GPa)
#
#
# Indices 1 2 3 4 5 6 
#
# 1 157.6973 28.0722 47.5752 -4.1261 10.8732 1.9171
# 2 28.0722 57.7576 11.9783 10.9040 10.8661 2.2593
# 3 47.5752 11.9783 56.6457 4.6933 -2.2277 -10.5723
# 4 -4.1261 10.9040 4.6933 39.2818 1.9949 3.8328
# 5 10.8732 10.8661 -2.2277 1.9949 44.7073 3.3412
# 6 1.9171 2.2593 -10.5723 3.8328 3.3412 28.4818
#
#
#
# Elastic Compliance Matrix: (Units=1/GPa)
#
#
# Indices 1 2 3 4 5 6 
#
# 1 0.009756 -0.003083 -0.008614 0.003382 -0.001917 -0.003840
# 2 -0.003083 0.021049 -0.001713 -0.005669 -0.004135 -0.000850
# 3 -0.008614 -0.001713 0.027920 -0.005041 0.003278 0.011373
# 4 0.003382 -0.005669 -0.005041 0.028546 -0.000564 -0.005425
# 5 -0.001917 -0.004135 0.003278 -0.000564 0.024108 -0.001079
# 6 -0.003840 -0.000850 0.011373 -0.005425 -0.001079 0.040514
#
#
# Mechanical properties :
#
#
# Convention : Reuss Voigt Hill
#
# Bulk Modulus (GPa) = 31.34394 49.70580 40.52487
# Shear Modulus (GPa) = 26.40616 34.79250 30.59933
#
# Velocity S-wave (km/s) = 3.32401 3.81550 3.57820
# Velocity P-wave (km/s) = 5.27704 6.34105 5.83336
#
# Compressibility (1/GPa) = 0.03190410
#
# Stress axis : x y z
#
# Youngs Moduli (GPa) = 102.49867 47.50835 35.81642
#
# Poissons Ratio (x) = 0.14647 0.30853
# Poissons Ratio (y) = 0.31600 0.06136
# Poissons Ratio (z) = 0.88296 0.08140
#
# Static dielectric constant tensor:
#      x y z
#    x 2.011850 0.010420 0.060160 
#    y 0.010420 1.948850 0.013490 
#    z 0.060160 0.013490 1.986330 
# 
# From -- ./inp_files/558385.got.cif
#   From: 2010.05.17/outbox.cif.g08.bks.cpg/sg2_280_cif.got.tgz:558385.got - 2010.06.03 11:33:40.
