data_PCOD9088083
_publ_section_title
;
Structure prediction by ZEFSAII (Michael W. Deem and Ramdas Pophale) SiO2 
 PCOD9088083
Probable space group: P -1
;
_chemical_formula_sum "Si O2"
_cell_formula_units_Z 16
_cell_length_a 6.070224
_cell_length_b 21.453880
_cell_length_c 7.403935
_cell_angle_alpha 90.570530
_cell_angle_beta 81.355655
_cell_angle_gamma 140.016298
_cell_volume 604.077865
_symmetry_space_group_name_H-M "P -1"
_symmetry_group_IT_number 2
_symmetry_cell_setting 'triclinic'
loop_
_space_group_symop_operation_xyz
x,y,z
-x,-y,-z
loop_
_atom_site_type_symbol
_atom_site_label
_atom_site_fract_x
_atom_site_fract_y
_atom_site_fract_z
Si Si1 0.760566 0.375157 0.533980
Si Si2 0.263944 0.099936 0.129929
Si Si3 0.695412 0.385640 0.979107
Si Si4 0.517654 0.569559 0.402460
Si Si5 0.539421 0.063942 0.640758
Si Si6 0.574625 0.196718 0.457469
Si Si7 0.177245 0.381415 0.002866
Si Si8 0.014825 0.916728 0.192421
O O1 0.713870 0.373339 0.759187
O O2 0.469234 0.361417 0.496891
O O3 0.748080 0.299479 0.490429
O O4 0.107010 0.476109 0.393005
O O5 0.525259 0.180410 0.250376
O O6 0.296358 0.032142 0.125802
O O7 0.859146 0.016329 0.242937
O O8 0.256488 0.134094 0.941213
O O9 0.332850 0.347948 0.060934
O O10 0.828016 0.350258 0.060120
O O11 0.000000 0.500000 0.000000
O O12 0.500000 0.500000 0.500000
O O13 0.796828 0.628185 0.213208
O O14 0.695445 0.157650 0.523977
O O15 0.783049 0.101807 0.783899
O O16 0.500000 0.000000 0.500000
O O17 0.193009 0.117724 0.597249
O O18 0.500000 0.500000 0.000000
#
# Coordination Sequence:
#
# PCOD9088083 Si02
#       8
#     2   2   2   2   2   2   2   2
#     4  10  22  36  57  85 113 158 196 261 317 370
#     4  10  20  36  61  87 121 160 199 248 301 369
#     4   9  17  33  55  81 108 145 199 247 301 365
#     4  10  19  37  59  78 107 149 207 242 309 374
#     4  11  18  36  63  90 119 165 207 243 299 370
#     4  11  22  38  58  89 129 157 201 255 312 365
#     4   9  17  31  56  82 105 139 192 252 295 363
#     4  10  20  37  60  88 118 161 205 243 299 370
#
# _framework density 26.486651999999999
#
# number of rings (size 3 to 8) (size 9 to 14) (size 15 to 20)
#    0.000    2.000    3.750    1.125    0.000    1.000 
#    0.000    5.000    0.000    1.500    0.000    0.000 
#    0.000    0.000    0.000    0.000    0.000    0.000 
#
# Total GULP energy -89106.141549 kJ/mol
# GULP energy per Si atom -5569.133847 kJ/mol
# Density = 2.642637 g / cm^3
# Si number density = 26.486652 Si / 1000 Ang^3
#
#
#
# Elastic Constant Matrix: (Units=GPa)
#
#
# Indices 1 2 3 4 5 6 
#
# 1 166.8229 46.6958 24.5749 -12.4270 26.2405 -45.0874
# 2 46.6958 109.5135 33.2459 7.3359 15.0564 -34.1287
# 3 24.5749 33.2459 95.4419 10.0895 30.2594 -18.9363
# 4 -12.4270 7.3359 10.0895 33.2516 -7.5748 3.4566
# 5 26.2405 15.0564 30.2594 -7.5748 41.7873 -6.5739
# 6 -45.0874 -34.1287 -18.9363 3.4566 -6.5739 37.2575
#
#
#
# Elastic Compliance Matrix: (Units=1/GPa)
#
#
# Indices 1 2 3 4 5 6 
#
# 1 0.009805 -0.000515 0.001319 0.001090 -0.004986 0.011084
# 2 -0.000515 0.014025 -0.000932 -0.004925 -0.003114 0.011658
# 3 0.001319 -0.000932 0.017053 -0.008279 -0.013104 0.007866
# 4 0.001090 -0.004925 -0.008279 0.037849 0.012578 -0.008692
# 5 -0.004986 -0.003114 -0.013104 0.012578 0.038389 -0.009940
# 6 0.011084 0.011658 0.007866 -0.008692 -0.009940 0.053983
#
#
# Mechanical properties :
#
#
# Convention : Reuss Voigt Hill
#
# Bulk Modulus (GPa) = 24.61321 64.53463 44.57392
# Shear Modulus (GPa) = 27.04140 40.27672 33.65906
#
# Velocity S-wave (km/s) = 3.19869 3.90377 3.56869
# Velocity P-wave (km/s) = 4.79114 6.68858 5.81774
#
# Compressibility (1/GPa) = 0.04062859
#
# Stress axis : x y z
#
# Youngs Moduli (GPa) = 101.98606 71.30256 58.64048
#
# Poissons Ratio (x) = 0.03670 -0.07736
# Poissons Ratio (y) = 0.05249 0.05465
# Poissons Ratio (z) = -0.13455 0.06645
#
# Static dielectric constant tensor:
#      x y z
#    x 2.344070 -0.051770 0.010930 
#    y -0.051770 2.168870 0.129830 
#    z 0.010930 0.129830 2.213290 
# 
# From -- ./inp_files/140701.got.cif
#   From: 2010.05.17/outbox.cif.g08.bks.cpg/sg2_71_cif.got.tgz:140701.got - 2010.06.03 11:33:40.
