data_PCOD9088146
_publ_section_title
;
Structure prediction by ZEFSAII (Michael W. Deem and Ramdas Pophale) SiO2 
 PCOD9088146
Probable space group: P -1
;
_chemical_formula_sum "Si O2"
_cell_formula_units_Z 16
_cell_length_a 9.263990
_cell_length_b 8.013201
_cell_length_c 15.403373
_cell_angle_alpha 83.521467
_cell_angle_beta 106.278210
_cell_angle_gamma 47.277616
_cell_volume 728.137333
_symmetry_space_group_name_H-M "P -1"
_symmetry_group_IT_number 2
_symmetry_cell_setting 'triclinic'
loop_
_space_group_symop_operation_xyz
x,y,z
-x,-y,-z
loop_
_atom_site_type_symbol
_atom_site_label
_atom_site_fract_x
_atom_site_fract_y
_atom_site_fract_z
Si Si1 0.497617 0.519034 0.782958
Si Si2 0.917513 0.421608 0.426013
Si Si3 0.535290 0.957262 0.275296
Si Si4 0.415198 0.231816 0.882610
Si Si5 0.922167 0.704196 0.735824
Si Si6 0.420238 0.739127 0.927607
Si Si7 0.082426 0.898746 0.241197
Si Si8 0.895375 0.947604 0.377759
O O1 0.454150 0.382634 0.835118
O O2 0.530878 0.631566 0.857301
O O3 0.709805 0.327929 0.768496
O O4 0.272413 0.754931 0.678615
O O5 0.656696 0.684676 0.347253
O O6 0.000000 0.500000 0.500000
O O7 0.044145 0.326215 0.360549
O O8 0.988633 0.197540 0.504377
O O9 0.491355 0.967242 0.165009
O O10 0.726099 0.936772 0.324580
O O11 0.310380 0.180809 0.277474
O O12 0.145656 0.432199 0.828329
O O13 0.517885 0.167189 0.999355
O O14 0.917686 0.900437 0.756655
O O15 0.153669 0.953707 0.852423
O O16 0.500000 0.500000 0.000000
O O17 0.077447 0.818072 0.339800
#
# Coordination Sequence:
#
# PCOD9088146 Si02
#       8
#     2   2   2   2   2   2   2   2
#     4  10  20  35  57  84 117 149 186 232 283 333
#     4   9  22  40  59  81 115 150 191 234 285 338
#     4  10  22  38  62  85 111 151 195 234 281 339
#     4  10  19  37  59  87 115 147 192 238 278 332
#     4  11  20  36  61  86 112 144 195 237 274 337
#     4   9  18  34  57  87 117 147 190 236 276 334
#     4  11  21  36  59  87 117 151 186 235 288 332
#     4  10  22  41  56  81 119 150 185 238 289 338
#
# _framework density 21.973877000000002
#
# number of rings (size 3 to 8) (size 9 to 14) (size 15 to 20)
#    0.000    2.000    5.000    0.000    0.000    9.500 
#    0.000    3.750    0.000    4.500    0.000    0.000 
#    0.000    0.000    0.000    0.000    0.000    0.000 
#
# Total GULP energy -89368.039768 kJ/mol
# GULP energy per Si atom -5585.502485 kJ/mol
# Density = 2.192386 g / cm^3
# Si number density = 21.973877 Si / 1000 Ang^3
#
#
#
# Elastic Constant Matrix: (Units=GPa)
#
#
# Indices 1 2 3 4 5 6 
#
# 1 37.0032 28.0870 -4.0278 6.8979 -0.0683 -5.4557
# 2 28.0870 113.4998 36.7153 23.5442 -4.5645 -34.5603
# 3 -4.0278 36.7153 133.5804 20.5273 5.5128 -7.8997
# 4 6.8979 23.5442 20.5273 26.7036 14.1965 -3.4579
# 5 -0.0683 -4.5645 5.5128 14.1965 25.7756 9.5260
# 6 -5.4557 -34.5603 -7.8997 -3.4579 9.5260 48.7109
#
#
#
# Elastic Compliance Matrix: (Units=1/GPa)
#
#
# Indices 1 2 3 4 5 6 
#
# 1 0.035604 -0.010175 0.004336 -0.004447 0.000933 -0.003026
# 2 -0.010175 0.018341 -0.002915 -0.014904 0.008872 0.008607
# 3 0.004336 -0.002915 0.009322 -0.006581 0.001428 -0.000817
# 4 -0.004447 -0.014904 -0.006581 0.082677 -0.047926 0.003102
# 5 0.000933 0.008872 0.001428 -0.047926 0.070352 -0.010530
# 6 -0.003026 0.008607 -0.000817 0.003102 -0.010530 0.028444
#
#
# Mechanical properties :
#
#
# Convention : Reuss Voigt Hill
#
# Bulk Modulus (GPa) = 21.85303 45.07026 33.46164
# Shear Modulus (GPa) = 18.01797 35.12529 26.57163
#
# Velocity S-wave (km/s) = 2.86662 4.00246 3.48118
# Velocity P-wave (km/s) = 4.57420 6.47418 5.60528
#
# Compressibility (1/GPa) = 0.04576025
#
# Stress axis : x y z
#
# Youngs Moduli (GPa) = 28.08645 54.52377 107.27214
#
# Poissons Ratio (x) = 0.55477 -0.46514
# Poissons Ratio (y) = 0.28578 0.31266
# Poissons Ratio (z) = -0.12179 0.15892
#
# Static dielectric constant tensor:
#      x y z
#    x 1.770220 0.026950 -0.005450 
#    y 0.026950 1.752580 -0.000500 
#    z -0.005450 -0.000500 1.819100 
# 
# From -- ./inp_files/494896.got.cif
#   From: 2010.05.17/outbox.cif.g08.bks.cpg/sg2_248_cif.got.tgz:494896.got - 2010.06.03 11:33:40.
