data_PCOD9088748
_publ_section_title
;
Structure prediction by ZEFSAII (Michael W. Deem and Ramdas Pophale) SiO2 
 PCOD9088748
Probable space group: P -1
;
_chemical_formula_sum "Si O2"
_cell_formula_units_Z 16
_cell_length_a 13.754849
_cell_length_b 18.247158
_cell_length_c 9.044530
_cell_angle_alpha 131.700852
_cell_angle_beta 24.277414
_cell_angle_gamma 135.404465
_cell_volume 654.275781
_symmetry_space_group_name_H-M "P -1"
_symmetry_group_IT_number 2
_symmetry_cell_setting 'triclinic'
loop_
_space_group_symop_operation_xyz
x,y,z
-x,-y,-z
loop_
_atom_site_type_symbol
_atom_site_label
_atom_site_fract_x
_atom_site_fract_y
_atom_site_fract_z
Si Si1 0.574910 0.939111 0.449640
Si Si2 0.037086 0.609567 0.768802
Si Si3 0.462989 0.238412 0.195728
Si Si4 0.486857 0.562166 0.454040
Si Si5 0.929240 0.188350 0.846292
Si Si6 0.280646 0.921611 0.300937
Si Si7 0.589789 0.729387 0.027116
Si Si8 0.232788 0.443418 0.374063
O O1 0.660125 0.847531 0.142660
O O2 0.500000 0.000000 0.500000
O O3 0.757300 0.010779 0.418275
O O4 0.316693 0.879637 0.816325
O O5 0.302116 0.666730 0.396770
O O6 0.035459 0.492953 0.649372
O O7 0.044000 0.690009 0.002314
O O8 0.772995 0.597420 0.039447
O O9 0.571944 0.334784 0.283976
O O10 0.177257 0.177217 0.560561
O O11 0.615005 0.161502 0.879109
O O12 0.432309 0.279047 0.130162
O O13 0.500000 0.500000 0.500000
O O14 0.285261 0.489108 0.527175
O O15 0.912207 0.144697 0.645008
O O16 0.500000 0.000000 0.000000
O O17 0.780301 0.675530 0.757608
O O18 0.500000 0.500000 0.000000
#
# Coordination Sequence:
#
# PCOD9088748 Si02
#       8
#     2   2   2   2   2   2   2   2
#     4  10  19  37  63  84 119 158 198 250 297 351
#     4   9  21  40  64  86 128 158 196 243 302 355
#     4  11  21  40  62  88 126 149 202 252 289 363
#     4  11  22  39  63  95 119 160 202 241 299 359
#     4   9  21  39  63  90 116 159 198 241 308 350
#     4  10  21  38  64  87 114 157 203 247 300 349
#     4  10  20  38  59  89 120 163 196 246 299 348
#     4  10  21  39  61  88 125 156 202 244 292 353
#
# _framework density 24.454522000000001
#
# number of rings (size 3 to 8) (size 9 to 14) (size 15 to 20)
#    0.000    2.000    2.500    0.750    0.000    5.500 
#    2.250    1.875    5.500    0.000    0.000    0.000 
#    0.000    0.000    0.000    0.000    0.000    0.000 
#
# Total GULP energy -89451.998678 kJ/mol
# GULP energy per Si atom -5590.749917 kJ/mol
# Density = 2.439886 g / cm^3
# Si number density = 24.454522 Si / 1000 Ang^3
#
#
#
# Elastic Constant Matrix: (Units=GPa)
#
#
# Indices 1 2 3 4 5 6 
#
# 1 70.8488 32.6315 14.0147 18.1916 16.8710 9.6504
# 2 32.6315 112.3856 50.7813 37.6368 -1.6196 7.2919
# 3 14.0147 50.7813 93.1108 16.1674 15.8132 8.9406
# 4 18.1916 37.6368 16.1674 51.3352 4.3780 4.1251
# 5 16.8710 -1.6196 15.8132 4.3780 23.1458 6.2417
# 6 9.6504 7.2919 8.9406 4.1251 6.2417 35.9500
#
#
#
# Elastic Compliance Matrix: (Units=1/GPa)
#
#
# Indices 1 2 3 4 5 6 
#
# 1 0.022240 -0.008328 0.004933 -0.001521 -0.019344 -0.001975
# 2 -0.008328 0.019494 -0.010483 -0.009383 0.016620 -0.000920
# 3 0.004933 -0.010483 0.018400 0.001670 -0.016940 -0.001024
# 4 -0.001521 -0.009383 0.001670 0.026876 -0.005720 -0.000195
# 5 -0.019344 0.016620 -0.016940 -0.005720 0.072724 -0.005935
# 6 -0.001975 -0.000920 -0.001024 -0.000195 -0.005935 0.029841
#
#
# Mechanical properties :
#
#
# Convention : Reuss Voigt Hill
#
# Bulk Modulus (GPa) = 30.88441 52.35560 41.62001
# Shear Modulus (GPa) = 21.91790 34.01405 27.96597
#
# Velocity S-wave (km/s) = 2.99703 3.73354 3.38537
# Velocity P-wave (km/s) = 4.96316 6.32784 5.68659
#
# Compressibility (1/GPa) = 0.03237880
#
# Stress axis : x y z
#
# Youngs Moduli (GPa) = 44.96356 51.29653 54.34700
#
# Poissons Ratio (x) = 0.42720 -0.26811
# Poissons Ratio (y) = 0.37446 0.56975
# Poissons Ratio (z) = -0.22182 0.53777
#
# Static dielectric constant tensor:
#      x y z
#    x 1.934920 0.009880 0.025080 
#    y 0.009880 1.972210 -0.046170 
#    z 0.025080 -0.046170 1.968700 
# 
# From -- ./inp_files/217424.got.cif
#   From: 2010.05.17/outbox.cif.g08.bks.cpg/sg2_109_cif.got.tgz:217424.got - 2010.06.03 11:33:40.
