data_PCOD9088175
_publ_section_title
;
Structure prediction by ZEFSAII (Michael W. Deem and Ramdas Pophale) SiO2 
 PCOD9088175
Probable space group: P -1
;
_chemical_formula_sum "Si O2"
_cell_formula_units_Z 15
_cell_length_a 13.871375
_cell_length_b 8.934276
_cell_length_c 7.613122
_cell_angle_alpha 130.282489
_cell_angle_beta 52.633413
_cell_angle_gamma 109.093815
_cell_volume 568.719428
_symmetry_space_group_name_H-M "P -1"
_symmetry_group_IT_number 2
_symmetry_cell_setting 'triclinic'
loop_
_space_group_symop_operation_xyz
x,y,z
-x,-y,-z
loop_
_atom_site_type_symbol
_atom_site_label
_atom_site_fract_x
_atom_site_fract_y
_atom_site_fract_z
Si Si1 0.671903 0.451826 0.343291
Si Si2 0.892363 0.241982 0.128415
Si Si3 0.500000 0.000000 0.500000
Si Si4 0.757467 0.895453 0.976679
Si Si5 0.236580 0.758104 0.355789
Si Si6 0.642477 0.021728 0.875527
Si Si7 0.099559 0.427773 0.189038
Si Si8 0.563773 0.562129 0.200513
O O1 0.801814 0.409876 0.260348
O O2 0.641140 0.595370 0.320151
O O3 0.562895 0.502607 0.639207
O O4 0.649694 0.236873 0.120580
O O5 0.840481 0.216290 0.363756
O O6 0.027366 0.306465 0.038515
O O7 0.869081 0.028473 0.917949
O O8 0.462032 0.234134 0.712992
O O9 0.358640 0.975747 0.709130
O O10 0.804299 0.717116 0.916036
O O11 0.707061 0.857780 0.809251
O O12 0.283836 0.950893 0.364183
O O13 0.154643 0.628193 0.223415
O O14 0.359327 0.607567 0.122832
O O15 0.500000 0.000000 0.000000
O O16 0.000000 0.500000 0.500000
#
# Coordination Sequence:
#
# PCOD9088175 Si02
#       8
#     2   2   1   2   2   2   2   2
#     4   9  20  39  58  90 129 167 209 259 319 390
#     4  10  21  40  69  89 125 174 221 260 316 376
#     4  12  20  36  66  92 128 166 202 260 330 370
#     4  11  23  42  64  96 131 166 216 268 320 392
#     4  10  22  40  64  94 130 165 217 262 320 383
#     4  10  22  40  61  95 135 164 205 267 335 380
#     4  10  22  44  64  91 126 174 223 267 307 373
#     4  10  19  37  59  89 132 161 203 265 320 381
#
# _framework density 26.375046000000001
#
# number of rings (size 3 to 8) (size 9 to 14) (size 15 to 20)
#    0.000    1.867    4.000    0.400    1.867    0.533 
#   14.400    8.667    0.000    0.000    0.000    0.000 
#    0.000    0.000    0.000    0.000    0.000    0.000 
#
# Total GULP energy -83669.561671 kJ/mol
# GULP energy per Si atom -5577.970778 kJ/mol
# Density = 2.631501 g / cm^3
# Si number density = 26.375046 Si / 1000 Ang^3
#
#
#
# Elastic Constant Matrix: (Units=GPa)
#
#
# Indices 1 2 3 4 5 6 
#
# 1 156.4703 73.2618 -0.4092 -11.3673 -8.4518 -1.8056
# 2 73.2618 117.4645 -7.9044 -7.6136 -2.3100 26.1748
# 3 -0.4092 -7.9044 45.0110 -7.7382 -18.4784 -4.3272
# 4 -11.3673 -7.6136 -7.7382 29.2540 -8.2349 -8.3893
# 5 -8.4518 -2.3100 -18.4784 -8.2349 28.1823 3.9031
# 6 -1.8056 26.1748 -4.3272 -8.3893 3.9031 32.4031
#
#
#
# Elastic Compliance Matrix: (Units=1/GPa)
#
#
# Indices 1 2 3 4 5 6 
#
# 1 0.011098 -0.008104 0.002960 0.007021 0.005449 0.008721
# 2 -0.008104 0.016816 0.001752 -0.002046 0.001509 -0.014513
# 3 0.002960 0.001752 0.041377 0.024033 0.034302 0.006366
# 4 0.007021 -0.002046 0.024033 0.056310 0.031936 0.015986
# 5 0.005449 0.001509 0.034302 0.031936 0.068554 0.003676
# 6 0.008721 -0.014513 0.006366 0.015986 0.003676 0.047617
#
#
# Mechanical properties :
#
#
# Convention : Reuss Voigt Hill
#
# Bulk Modulus (GPa) = 15.99793 49.87134 32.93463
# Shear Modulus (GPa) = 18.56030 34.90105 26.73068
#
# Velocity S-wave (km/s) = 2.65563 3.64161 3.18698
# Velocity P-wave (km/s) = 3.93470 6.05238 5.10457
#
# Compressibility (1/GPa) = 0.06250809
#
# Stress axis : x y z
#
# Youngs Moduli (GPa) = 90.10589 59.46574 24.16803
#
# Poissons Ratio (x) = 0.48189 -0.07154
# Poissons Ratio (y) = 0.73019 -0.04234
# Poissons Ratio (z) = -0.26673 -0.10418
#
# Static dielectric constant tensor:
#      x y z
#    x 2.144730 0.089980 0.036420 
#    y 0.089980 2.149000 -0.018000 
#    z 0.036420 -0.018000 2.066740 
# 
# From -- ./inp_files/293173.got.cif
#   From: 2010.05.17/outbox.cif.g08.bks.cpg/sg2_147_cif.got.tgz:293173.got - 2010.06.03 11:33:40.
