data_PCOD9088832
_publ_section_title
;
Structure prediction by ZEFSAII (Michael W. Deem and Ramdas Pophale) SiO2 
 PCOD9088832
Probable space group: P -1
;
_chemical_formula_sum "Si O2"
_cell_formula_units_Z 12
_cell_length_a 9.378175
_cell_length_b 16.911450
_cell_length_c 16.082184
_cell_angle_alpha 154.830781
_cell_angle_beta 39.118419
_cell_angle_gamma 150.713809
_cell_volume 529.509084
_symmetry_space_group_name_H-M "P -1"
_symmetry_group_IT_number 2
_symmetry_cell_setting 'triclinic'
loop_
_space_group_symop_operation_xyz
x,y,z
-x,-y,-z
loop_
_atom_site_type_symbol
_atom_site_label
_atom_site_fract_x
_atom_site_fract_y
_atom_site_fract_z
Si Si1 0.340091 0.174497 0.526981
Si Si2 0.181759 0.518360 0.513563
Si Si3 0.387829 0.306282 0.033183
Si Si4 0.283195 0.551952 0.679091
Si Si5 0.666672 0.151372 0.650929
Si Si6 0.740276 0.883000 0.912579
O O1 0.495182 0.252536 0.441828
O O2 0.408836 0.037336 0.423812
O O3 0.457470 0.421381 0.753855
O O4 0.000000 0.000000 0.500000
O O5 0.139591 0.555233 0.662700
O O6 0.161982 0.283924 0.298377
O O7 0.000000 0.500000 0.500000
O O8 0.547282 0.284785 0.865908
O O9 0.393142 0.181851 0.996247
O O10 0.042489 0.150086 0.023482
O O11 0.500000 0.500000 0.500000
O O12 0.494184 0.788760 0.865339
O O13 0.012817 0.340814 0.656120
O O14 0.500000 0.000000 0.500000
#
# Coordination Sequence:
#
# PCOD9088832 Si02
#       6
#     2   2   2   2   2   2
#     4  11  24  41  65  94 125 164 211 264 319 378
#     4  10  19  37  63  90 123 166 210 254 314 379
#     4  10  22  40  65  93 128 170 212 261 322 380
#     4  10  20  37  63  91 123 167 212 257 313 376
#     4  12  24  41  66  95 128 166 212 265 319 378
#     4   9  19  38  62  88 125 168 209 258 315 376
#
# _framework density 22.662502
#
# number of rings (size 3 to 8) (size 9 to 14) (size 15 to 20)
#    0.000    1.667    0.000    7.000    0.000    3.333 
#    0.000    0.000    0.000   23.000    0.000    0.000 
#    0.000    0.000    0.000    0.000    0.000    0.000 
#
# Total GULP energy -67090.063307 kJ/mol
# GULP energy per Si atom -5590.838609 kJ/mol
# Density = 2.261092 g / cm^3
# Si number density = 22.662502 Si / 1000 Ang^3
#
#
#
# Elastic Constant Matrix: (Units=GPa)
#
#
# Indices 1 2 3 4 5 6 
#
# 1 108.6554 11.3925 36.2548 14.7911 21.7931 -0.8526
# 2 11.3925 126.4269 44.1519 15.8903 13.2338 11.4103
# 3 36.2548 44.1519 85.2216 6.6675 17.1707 -7.3809
# 4 14.7911 15.8903 6.6675 38.4780 -1.0721 11.3435
# 5 21.7931 13.2338 17.1707 -1.0721 40.8235 7.8703
# 6 -0.8526 11.4103 -7.3809 11.3435 7.8703 36.4181
#
#
#
# Elastic Compliance Matrix: (Units=1/GPa)
#
#
# Indices 1 2 3 4 5 6 
#
# 1 0.012383 0.001493 -0.004296 -0.005344 -0.005788 0.001867
# 2 0.001493 0.010662 -0.005977 -0.002993 -0.001176 -0.003331
# 3 -0.004296 -0.005977 0.018330 -0.001231 -0.004845 0.006917
# 4 -0.005344 -0.002993 -0.001231 0.033037 0.007392 -0.011325
# 5 -0.005788 -0.001176 -0.004845 0.007392 0.032126 -0.009994
# 6 0.001867 -0.003331 0.006917 -0.011325 -0.009994 0.035635
#
#
# Mechanical properties :
#
#
# Convention : Reuss Voigt Hill
#
# Bulk Modulus (GPa) = 41.98652 55.98915 48.98784
# Shear Modulus (GPa) = 29.82056 38.37756 34.09906
#
# Velocity S-wave (km/s) = 3.63141 4.11961 3.88319
# Velocity P-wave (km/s) = 6.01248 6.88386 6.46287
#
# Compressibility (1/GPa) = 0.02381717
#
# Stress axis : x y z
#
# Youngs Moduli (GPa) = 80.75412 93.78955 54.55681
#
# Poissons Ratio (x) = -0.14007 0.23436
# Poissons Ratio (y) = -0.12060 0.32606
# Poissons Ratio (z) = 0.34690 0.56054
#
# Static dielectric constant tensor:
#      x y z
#    x 1.918950 -0.002920 -0.036330 
#    y -0.002920 1.854470 -0.009460 
#    z -0.036330 -0.009460 1.883770 
# 
# From -- ./inp_files/375506.got.cif
#   From: 2010.05.17/outbox.cif.g08.bks.cpg/sg2_188_cif.got.tgz:375506.got - 2010.06.03 11:33:40.
