data_PCOD9088184
_publ_section_title
;
Structure prediction by ZEFSAII (Michael W. Deem and Ramdas Pophale) SiO2 
 PCOD9088184
Probable space group: P -1
;
_chemical_formula_sum "Si O2"
_cell_formula_units_Z 16
_cell_length_a 14.605640
_cell_length_b 9.171422
_cell_length_c 12.251378
_cell_angle_alpha 123.619100
_cell_angle_beta 151.615620
_cell_angle_gamma 53.541963
_cell_volume 625.432453
_symmetry_space_group_name_H-M "P -1"
_symmetry_group_IT_number 2
_symmetry_cell_setting 'triclinic'
loop_
_space_group_symop_operation_xyz
x,y,z
-x,-y,-z
loop_
_atom_site_type_symbol
_atom_site_label
_atom_site_fract_x
_atom_site_fract_y
_atom_site_fract_z
Si Si1 0.795138 0.755830 0.306988
Si Si2 0.456940 0.174412 0.324476
Si Si3 0.606001 0.144478 0.028024
Si Si4 0.236208 0.523291 0.650714
Si Si5 0.758462 0.714966 0.623142
Si Si6 0.122844 0.973056 0.229794
Si Si7 0.987064 0.063804 0.673209
Si Si8 0.918707 0.572166 0.061659
O O1 0.772614 0.632588 0.336867
O O2 0.825365 0.953527 0.442737
O O3 0.005096 0.636917 0.431875
O O4 0.570055 0.800068 0.044248
O O5 0.351442 0.208844 0.348192
O O6 0.683291 0.185264 0.590945
O O7 0.314955 0.327487 0.159367
O O8 0.448385 0.986880 0.176014
O O9 0.657739 0.332061 0.128276
O O10 0.824418 0.025743 0.242576
O O11 0.329937 0.425886 0.596896
O O12 0.765084 0.872327 0.611720
O O13 0.990913 0.604832 0.844305
O O14 0.967197 0.985984 0.170493
O O15 0.000000 0.000000 0.000000
O O16 0.965536 0.274729 0.727349
O O17 0.000000 0.500000 0.000000
#
# Coordination Sequence:
#
# PCOD9088184 Si02
#       8
#     2   2   2   2   2   2   2   2
#     4  10  19  37  59  91 125 168 214 252 322 392
#     4  10  21  40  65  90 128 176 210 251 328 401
#     4  10  19  37  64  88 122 172 212 252 320 393
#     4  10  21  35  62  93 129 162 209 274 317 372
#     4  11  22  42  62  99 134 158 211 283 318 368
#     4  12  22  36  62  97 127 161 220 272 309 372
#     4  10  20  37  62  88 118 172 212 251 315 387
#     4   9  20  40  64  88 131 176 208 253 334 391
#
# _framework density 25.5823
#
# number of rings (size 3 to 8) (size 9 to 14) (size 15 to 20)
#    0.000    1.750    2.500    3.000    0.000    1.000 
#    2.250   11.250    0.000    3.750    0.000    0.000 
#    0.000    0.000    0.000    0.000    0.000    0.000 
#
# Total GULP energy -89110.091348 kJ/mol
# GULP energy per Si atom -5569.380709 kJ/mol
# Density = 2.552407 g / cm^3
# Si number density = 25.582300 Si / 1000 Ang^3
#
#
#
# Elastic Constant Matrix: (Units=GPa)
#
#
# Indices 1 2 3 4 5 6 
#
# 1 99.3114 21.7386 33.0379 -0.6980 -8.4190 -5.0635
# 2 21.7386 99.7040 32.4092 -2.0425 -0.5627 -9.4537
# 3 33.0379 32.4092 116.2895 -12.0881 14.8612 -16.4942
# 4 -0.6980 -2.0425 -12.0881 42.5770 -7.5192 -8.2203
# 5 -8.4190 -0.5627 14.8612 -7.5192 36.8870 -6.3977
# 6 -5.0635 -9.4537 -16.4942 -8.2203 -6.3977 34.6050
#
#
#
# Elastic Compliance Matrix: (Units=1/GPa)
#
#
# Indices 1 2 3 4 5 6 
#
# 1 0.011904 -0.001403 -0.003459 -0.000027 0.004166 0.000474
# 2 -0.001403 0.011393 -0.002622 0.000402 0.001339 0.002000
# 3 -0.003459 -0.002622 0.011813 0.003292 -0.004150 0.004423
# 4 -0.000027 0.000402 0.003292 0.027251 0.005829 0.009226
# 5 0.004166 0.001339 -0.004150 0.005829 0.032035 0.006304
# 6 0.000474 0.002000 0.004423 0.009226 0.006304 0.034978
#
#
# Mechanical properties :
#
#
# Convention : Reuss Voigt Hill
#
# Bulk Modulus (GPa) = 49.64885 54.40847 52.02866
# Shear Modulus (GPa) = 33.10006 38.02176 35.56091
#
# Velocity S-wave (km/s) = 3.60094 3.85938 3.73239
# Velocity P-wave (km/s) = 6.06124 6.41669 6.24150
#
# Compressibility (1/GPa) = 0.02014146
#
# Stress axis : x y z
#
# Youngs Moduli (GPa) = 84.00335 87.76954 84.65526
#
# Poissons Ratio (x) = 0.12317 0.29282
# Poissons Ratio (y) = 0.11788 0.22198
# Poissons Ratio (z) = 0.29056 0.23015
#
# Static dielectric constant tensor:
#      x y z
#    x 2.007350 -0.024550 -0.052550 
#    y -0.024550 2.049020 -0.038000 
#    z -0.052550 -0.038000 2.144040 
# 
# From -- ./inp_files/577871.got.cif
#   From: 2010.05.17/outbox.cif.g08.bks.cpg/sg2_289_cif.got.tgz:577871.got - 2010.06.03 11:33:40.
