data_PCOD9088143
_publ_section_title
;
Structure prediction by ZEFSAII (Michael W. Deem and Ramdas Pophale) SiO2 
 PCOD9088143
Probable space group: P -1
;
_chemical_formula_sum "Si O2"
_cell_formula_units_Z 16
_cell_length_a 5.357533
_cell_length_b 9.168121
_cell_length_c 16.548880
_cell_angle_alpha 75.928512
_cell_angle_beta 73.179247
_cell_angle_gamma 76.305529
_cell_volume 742.513104
_symmetry_space_group_name_H-M "P -1"
_symmetry_group_IT_number 2
_symmetry_cell_setting 'triclinic'
loop_
_space_group_symop_operation_xyz
x,y,z
-x,-y,-z
loop_
_atom_site_type_symbol
_atom_site_label
_atom_site_fract_x
_atom_site_fract_y
_atom_site_fract_z
Si Si1 0.571502 0.471606 0.164324
Si Si2 0.269554 0.248708 0.301617
Si Si3 0.269392 0.061559 0.950745
Si Si4 0.643805 0.622486 0.304997
Si Si5 0.969696 0.802790 0.823663
Si Si6 0.312613 0.029400 0.767678
Si Si7 0.756642 0.640041 0.000109
Si Si8 0.114372 0.484936 0.401724
O O1 0.332637 0.403100 0.232863
O O2 0.677064 0.562555 0.216803
O O3 0.779693 0.315666 0.150591
O O4 0.519582 0.569599 0.074021
O O5 0.218274 0.307593 0.388982
O O6 0.038160 0.215861 0.269454
O O7 0.496267 0.100754 0.284047
O O8 0.383220 0.026626 0.855879
O O9 0.190479 0.239022 0.954357
O O10 0.500000 0.000000 0.000000
O O11 0.000000 0.000000 0.000000
O O12 0.664004 0.801352 0.284513
O O13 0.358035 0.579106 0.360782
O O14 0.873326 0.541261 0.354322
O O15 0.027003 0.973668 0.805676
O O16 0.744449 0.734771 0.904653
O O17 0.000000 0.500000 0.000000
O O18 0.000000 0.500000 0.500000
#
# Coordination Sequence:
#
# PCOD9088143 Si02
#       8
#     2   2   2   2   2   2   2   2
#     4   9  19  37  56  91 124 172 223 267 307 376
#     4  10  22  40  64  91 129 176 215 267 336 388
#     4  12  25  43  59  90 135 182 226 273 320 369
#     4  11  23  43  70 102 128 166 214 268 325 390
#     4  10  19  37  59  86 132 176 218 262 319 372
#     4  11  24  39  64  96 134 176 219 268 330 387
#     4  10  20  38  58  89 128 175 229 271 310 360
#     4  11  25  48  75  99 128 164 212 269 335 408
#
# _framework density 21.548442000000001
#
# number of rings (size 3 to 8) (size 9 to 14) (size 15 to 20)
#    0.000    1.500    3.750    1.125    1.750    0.500 
#    4.500    1.250    0.000    0.000    0.000    0.000 
#    0.000    0.000    0.000    0.000    0.000    0.000 
#
# Total GULP energy -89110.317517 kJ/mol
# GULP energy per Si atom -5569.394845 kJ/mol
# Density = 2.149940 g / cm^3
# Si number density = 21.548442 Si / 1000 Ang^3
#
#
#
# Elastic Constant Matrix: (Units=GPa)
#
#
# Indices 1 2 3 4 5 6 
#
# 1 92.2855 22.4374 23.3510 -7.8145 5.7072 7.1719
# 2 22.4374 136.4910 30.8958 7.8923 5.1138 6.8238
# 3 23.3510 30.8958 78.9832 19.0474 4.9721 -5.9234
# 4 -7.8145 7.8923 19.0474 33.3966 7.2668 -5.0872
# 5 5.7072 5.1138 4.9721 7.2668 20.3082 4.7040
# 6 7.1719 6.8238 -5.9234 -5.0872 4.7040 27.9201
#
#
#
# Elastic Compliance Matrix: (Units=1/GPa)
#
#
# Indices 1 2 3 4 5 6 
#
# 1 0.013424 -0.001186 -0.005071 0.006872 -0.004163 -0.002281
# 2 -0.001186 0.008356 -0.002862 -0.000968 -0.000145 -0.002497
# 3 -0.005071 -0.002862 0.018024 -0.010318 0.000532 0.003856
# 4 0.006872 -0.000968 -0.010318 0.042100 -0.015756 0.006608
# 5 -0.004163 -0.000145 0.000532 -0.015756 0.058626 -0.011531
# 6 -0.002281 -0.002497 0.003856 0.006608 -0.011531 0.040977
#
#
# Mechanical properties :
#
#
# Convention : Reuss Voigt Hill
#
# Bulk Modulus (GPa) = 46.37263 51.23645 48.80454
# Shear Modulus (GPa) = 24.16229 31.73001 27.94615
#
# Velocity S-wave (km/s) = 3.35222 3.84148 3.60516
# Velocity P-wave (km/s) = 6.04566 6.59582 6.32672
#
# Compressibility (1/GPa) = 0.02156444
#
# Stress axis : x y z
#
# Youngs Moduli (GPa) = 74.49316 119.67928 55.48226
#
# Poissons Ratio (x) = 0.14197 0.28135
# Poissons Ratio (y) = 0.08837 0.15881
# Poissons Ratio (z) = 0.37775 0.34256
#
# Static dielectric constant tensor:
#      x y z
#    x 1.726550 0.081340 0.110600 
#    y 0.081340 1.819490 -0.044180 
#    z 0.110600 -0.044180 1.614280 
# 
# From -- ./inp_files/117138.got.cif
#   From: 2010.05.17/outbox.cif.g08.bks.cpg/sg2_59_cif.got.tgz:117138.got - 2010.06.03 11:33:40.
