data_PCOD9088275
_publ_section_title
;
Structure prediction by ZEFSAII (Michael W. Deem and Ramdas Pophale) SiO2 
 PCOD9088275
Probable space group: P -1
;
_chemical_formula_sum "Si O2"
_cell_formula_units_Z 16
_cell_length_a 14.244098
_cell_length_b 8.419111
_cell_length_c 12.384804
_cell_angle_alpha 101.207937
_cell_angle_beta 47.120205
_cell_angle_gamma 125.345180
_cell_volume 836.950021
_symmetry_space_group_name_H-M "P -1"
_symmetry_group_IT_number 2
_symmetry_cell_setting 'triclinic'
loop_
_space_group_symop_operation_xyz
x,y,z
-x,-y,-z
loop_
_atom_site_type_symbol
_atom_site_label
_atom_site_fract_x
_atom_site_fract_y
_atom_site_fract_z
Si Si1 0.797514 0.201111 0.566485
Si Si2 0.412461 0.757115 0.532634
Si Si3 0.565084 0.443617 0.721107
Si Si4 0.469319 0.791035 0.094927
Si Si5 0.306797 0.734769 0.004521
Si Si6 0.063596 0.489548 0.703905
Si Si7 0.943379 0.775358 0.488672
Si Si8 0.518596 0.735863 0.669260
O O1 0.673030 0.217566 0.733075
O O2 0.869397 0.352447 0.428520
O O3 0.946530 0.256404 0.529317
O O4 0.690379 0.962162 0.583432
O O5 0.440007 0.698983 0.386022
O O6 0.216305 0.616218 0.681998
O O7 0.484205 0.703875 0.565109
O O8 0.500000 0.000000 0.500000
O O9 0.478838 0.312122 0.879441
O O10 0.513640 0.564310 0.714716
O O11 0.750838 0.615133 0.638011
O O12 0.622220 0.031384 0.991657
O O13 0.389361 0.689770 0.028386
O O14 0.112361 0.582182 0.135253
O O15 0.382982 0.742587 0.832644
O O16 0.039787 0.286604 0.652806
O O17 0.000000 0.000000 0.500000
#
# Coordination Sequence:
#
# PCOD9088275 Si02
#       8
#     2   2   2   2   2   2   2   2
#     4  11  18  36  61  86 116 152 200 247 287 355
#     4  11  21  40  65  88 109 158 215 246 283 345
#     4  11  22  38  62  88 120 157 194 255 300 343
#     4  10  19  37  60  86 119 159 196 237 296 366
#     4  10  22  36  59  89 120 158 195 239 299 368
#     4  11  21  37  63  88 116 157 201 250 288 343
#     4  11  20  31  57  93 120 141 189 255 305 337
#     4  11  23  38  57  88 123 159 194 241 301 352
#
# _framework density 19.117031999999998
#
# number of rings (size 3 to 8) (size 9 to 14) (size 15 to 20)
#    0.000    1.250    6.250    2.250    0.000    1.000 
#    0.000    1.250    0.000    1.500    0.000    0.000 
#    0.000    0.000    0.000    0.000    0.000    0.000 
#
# Total GULP energy -89281.003419 kJ/mol
# GULP energy per Si atom -5580.062714 kJ/mol
# Density = 1.907352 g / cm^3
# Si number density = 19.117032 Si / 1000 Ang^3
#
#
#
# Elastic Constant Matrix: (Units=GPa)
#
#
# Indices 1 2 3 4 5 6 
#
# 1 92.8175 31.1454 7.8759 -13.0866 17.2611 10.7105
# 2 31.1454 107.7842 13.5980 -7.0092 5.2881 4.7770
# 3 7.8759 13.5980 48.1739 -12.4044 4.8637 8.3479
# 4 -13.0866 -7.0092 -12.4044 19.2031 1.6583 3.6826
# 5 17.2611 5.2881 4.8637 1.6583 35.2576 -5.8321
# 6 10.7105 4.7770 8.3479 3.6826 -5.8321 33.8116
#
#
#
# Elastic Compliance Matrix: (Units=1/GPa)
#
#
# Indices 1 2 3 4 5 6 
#
# 1 0.017029 -0.003535 0.005307 0.016587 -0.010957 -0.009901
# 2 -0.003535 0.010558 -0.002638 -0.000393 0.000600 0.000426
# 3 0.005307 -0.002638 0.030600 0.025836 -0.009852 -0.013377
# 4 0.016587 -0.000393 0.025836 0.086302 -0.019718 -0.024378
# 5 -0.010957 0.000600 -0.009852 -0.019718 0.038335 0.014578
# 6 -0.009901 0.000426 -0.013377 -0.024378 0.014578 0.041124
#
#
# Mechanical properties :
#
#
# Convention : Reuss Voigt Hill
#
# Bulk Modulus (GPa) = 17.71308 39.33492 28.52400
# Shear Modulus (GPa) = 20.45002 30.73154 25.59078
#
# Velocity S-wave (km/s) = 3.27422 4.01377 3.66271
# Velocity P-wave (km/s) = 4.85590 6.48853 5.73065
#
# Compressibility (1/GPa) = 0.05645544
#
# Stress axis : x y z
#
# Youngs Moduli (GPa) = 58.72498 94.71265 32.67942
#
# Poissons Ratio (x) = 0.33481 -0.17343
# Poissons Ratio (y) = 0.20760 0.08620
# Poissons Ratio (z) = -0.31165 0.24982
#
# Static dielectric constant tensor:
#      x y z
#    x 1.694770 -0.021950 0.011760 
#    y -0.021950 1.699510 -0.003340 
#    z 0.011760 -0.003340 1.664650 
# 
# From -- ./inp_files/443057.got.cif
#   From: 2010.05.17/outbox.cif.g08.bks.cpg/sg2_222_cif.got.tgz:443057.got - 2010.06.03 11:33:40.
