data_PCOD9088212
_publ_section_title
;
Structure prediction by ZEFSAII (Michael W. Deem and Ramdas Pophale) SiO2 
 PCOD9088212
Probable space group: P -1
;
_chemical_formula_sum "Si O2"
_cell_formula_units_Z 16
_cell_length_a 21.306018
_cell_length_b 11.565087
_cell_length_c 8.916359
_cell_angle_alpha 40.165476
_cell_angle_beta 108.947325
_cell_angle_gamma 139.322759
_cell_volume 734.588229
_symmetry_space_group_name_H-M "P -1"
_symmetry_group_IT_number 2
_symmetry_cell_setting 'triclinic'
loop_
_space_group_symop_operation_xyz
x,y,z
-x,-y,-z
loop_
_atom_site_type_symbol
_atom_site_label
_atom_site_fract_x
_atom_site_fract_y
_atom_site_fract_z
Si Si1 0.515039 0.275575 0.596243
Si Si2 0.218612 0.120401 0.896201
Si Si3 0.998615 0.102623 0.053225
Si Si4 0.859599 0.864665 0.716266
Si Si5 0.140705 0.863915 0.776929
Si Si6 0.592351 0.243268 0.192143
Si Si7 0.113624 0.726104 0.473595
Si Si8 0.595586 0.597607 0.660919
O O1 0.647803 0.527913 0.392388
O O2 0.532091 0.358852 0.703355
O O3 0.467073 0.353924 0.413126
O O4 0.436719 0.940262 0.797097
O O5 0.164055 0.884185 0.950334
O O6 0.220955 0.014219 0.157081
O O7 0.131023 0.093940 0.854925
O O8 0.095594 0.485257 0.756165
O O9 0.037191 0.047118 0.263275
O O10 0.000000 0.000000 0.000000
O O11 0.842562 0.889260 0.506877
O O12 0.891210 0.128138 0.553869
O O13 0.736252 0.529712 0.038589
O O14 0.260586 0.046640 0.613273
O O15 0.000000 0.500000 0.000000
O O16 0.500000 0.000000 0.500000
O O17 0.584599 0.433706 0.949994
O O18 0.000000 0.500000 0.500000
#
# Coordination Sequence:
#
# PCOD9088212 Si02
#       8
#     2   2   2   2   2   2   2   2
#     4  10  21  43  65  86 124 164 216 252 301 369
#     4  10  21  38  60  91 117 161 209 252 294 369
#     4  11  22  37  63  88 121 161 202 250 311 362
#     4  11  23  40  59  93 125 160 200 252 317 361
#     4  10  21  38  63  90 126 152 200 257 311 362
#     4  11  24  38  63  93 129 161 205 262 306 367
#     4  10  19  37  60  81 121 157 201 253 295 361
#     4   9  22  43  65  89 119 171 208 252 313 366
#
# _framework density 21.780909000000001
#
# number of rings (size 3 to 8) (size 9 to 14) (size 15 to 20)
#    0.000    1.750    2.500    2.625    0.000    5.000 
#    0.000    3.750    0.000    0.000    0.000    0.000 
#    0.000    0.000    0.000    0.000    0.000    0.000 
#
# Total GULP energy -89186.506272 kJ/mol
# GULP energy per Si atom -5574.156642 kJ/mol
# Density = 2.173133 g / cm^3
# Si number density = 21.780909 Si / 1000 Ang^3
#
#
#
# Elastic Constant Matrix: (Units=GPa)
#
#
# Indices 1 2 3 4 5 6 
#
# 1 109.8573 22.2933 45.8093 -0.0339 6.9669 24.0143
# 2 22.2933 67.3754 19.5772 -15.2795 5.4240 5.5314
# 3 45.8093 19.5772 85.1355 4.0345 -5.7712 2.1554
# 4 -0.0339 -15.2795 4.0345 37.7080 5.6854 7.9215
# 5 6.9669 5.4240 -5.7712 5.6854 31.8409 -1.6694
# 6 24.0143 5.5314 2.1554 7.9215 -1.6694 35.1375
#
#
#
# Elastic Compliance Matrix: (Units=1/GPa)
#
#
# Indices 1 2 3 4 5 6 
#
# 1 0.015679 -0.000266 -0.008713 0.004181 -0.006308 -0.011382
# 2 -0.000266 0.019830 -0.005226 0.010689 -0.006455 -0.005336
# 3 -0.008713 -0.005226 0.018292 -0.006837 0.007730 0.007564
# 4 0.004181 0.010689 -0.006837 0.035931 -0.011059 -0.012746
# 5 -0.006308 -0.006455 0.007730 -0.011059 0.037741 0.009139
# 6 -0.011382 -0.005336 0.007564 -0.012746 0.009139 0.039922
#
#
# Mechanical properties :
#
#
# Convention : Reuss Voigt Hill
#
# Bulk Modulus (GPa) = 39.38221 48.63642 44.00932
# Shear Modulus (GPa) = 24.47746 32.58318 28.53032
#
# Velocity S-wave (km/s) = 3.35595 3.87195 3.62315
# Velocity P-wave (km/s) = 5.75647 6.50904 6.14429
#
# Compressibility (1/GPa) = 0.02539217
#
# Stress axis : x y z
#
# Youngs Moduli (GPa) = 63.77888 50.42757 54.66741
#
# Poissons Ratio (x) = 0.01341 0.47632
# Poissons Ratio (y) = 0.01696 0.28569
# Poissons Ratio (z) = 0.55570 0.26354
#
# Static dielectric constant tensor:
#      x y z
#    x 1.780990 -0.029140 -0.038100 
#    y -0.029140 1.898760 0.020340 
#    z -0.038100 0.020340 1.906010 
# 
# From -- ./inp_files/345873.got.cif
#   From: 2010.05.17/outbox.cif.g08.bks.cpg/sg2_173_cif.got.tgz:345873.got - 2010.06.03 11:33:40.
