data_PCOD9088511
_publ_section_title
;
Structure prediction by ZEFSAII (Michael W. Deem and Ramdas Pophale) SiO2 
 PCOD9088511
Probable space group: P -1
;
_chemical_formula_sum "Si O2"
_cell_formula_units_Z 14
_cell_length_a 19.919512
_cell_length_b 8.685867
_cell_length_c 8.955076
_cell_angle_alpha 33.650818
_cell_angle_beta 44.305980
_cell_angle_gamma 44.261940
_cell_volume 569.919379
_symmetry_space_group_name_H-M "P -1"
_symmetry_group_IT_number 2
_symmetry_cell_setting 'triclinic'
loop_
_space_group_symop_operation_xyz
x,y,z
-x,-y,-z
loop_
_atom_site_type_symbol
_atom_site_label
_atom_site_fract_x
_atom_site_fract_y
_atom_site_fract_z
Si Si1 0.704192 0.647805 0.876260
Si Si2 0.629540 0.791302 0.320255
Si Si3 0.553175 0.716990 0.810349
Si Si4 0.997221 0.886801 0.838901
Si Si5 0.848785 0.630981 0.129498
Si Si6 0.614776 0.336714 0.506771
Si Si7 0.897230 0.540109 0.459370
O O1 0.636906 0.571394 0.914126
O O2 0.815635 0.598165 0.673204
O O3 0.650014 0.988995 0.722286
O O4 0.691282 0.448801 0.192560
O O5 0.604790 0.842156 0.493225
O O6 0.739520 0.813817 0.099028
O O7 0.626812 0.471000 0.539443
O O8 0.537612 0.014474 0.198994
O O9 0.500000 0.500000 0.000000
O O10 0.103489 0.652309 0.819569
O O11 0.981496 0.226558 0.594752
O O12 0.926177 0.818810 0.873440
O O13 0.950301 0.785893 0.142993
O O14 0.842039 0.535066 0.390490
O O15 0.500000 0.500000 0.500000
#
# Coordination Sequence:
#
# PCOD9088511 Si02
#       7
#     2   2   2   2   2   2   2
#     4  12  25  43  67  88 129 176 208 249 314 382
#     4  11  24  41  61  94 128 161 212 263 307 370
#     4  11  24  38  64  94 124 165 208 269 308 358
#     4   9  19  35  60  95 123 150 201 266 318 359
#     4   9  20  34  61  93 121 158 198 269 313 358
#     4  12  26  45  61  89 132 177 209 246 313 377
#     4  10  19  37  61  91 116 160 204 253 302 375
#
# _framework density 24.564879999999999
#
# number of rings (size 3 to 8) (size 9 to 14) (size 15 to 20)
#    0.857    0.571    2.857    2.571    6.000    0.000 
#    0.000    0.000    0.000    5.143    0.000    0.000 
#    0.000    0.000    0.000    0.000    0.000    0.000 
#
# Total GULP energy -78299.416594 kJ/mol
# GULP energy per Si atom -5592.815471 kJ/mol
# Density = 2.450897 g / cm^3
# Si number density = 24.564880 Si / 1000 Ang^3
#
#
#
# Elastic Constant Matrix: (Units=GPa)
#
#
# Indices 1 2 3 4 5 6 
#
# 1 56.2766 10.4500 -5.2853 2.8042 -3.0635 -4.6930
# 2 10.4500 86.5306 11.9433 16.3448 -7.8406 -7.2757
# 3 -5.2853 11.9433 83.2566 7.2348 -1.0732 7.4367
# 4 2.8042 16.3448 7.2348 47.1935 8.4964 -10.7554
# 5 -3.0635 -7.8406 -1.0732 8.4964 21.4977 0.7960
# 6 -4.6930 -7.2757 7.4367 -10.7554 0.7960 31.4190
#
#
#
# Elastic Compliance Matrix: (Units=1/GPa)
#
#
# Indices 1 2 3 4 5 6 
#
# 1 0.018560 -0.001971 0.001391 -0.000636 0.002183 0.001713
# 2 -0.001971 0.013740 -0.001666 -0.005295 0.006692 0.001300
# 3 0.001391 -0.001666 0.012970 -0.002719 0.001469 -0.004216
# 4 -0.000636 -0.005295 -0.002719 0.028034 -0.013580 0.009263
# 5 0.002183 0.006692 0.001469 -0.013580 0.054876 -0.004511
# 6 0.001713 0.001300 -0.004216 0.009263 -0.004511 0.036668
#
#
# Mechanical properties :
#
#
# Convention : Reuss Voigt Hill
#
# Bulk Modulus (GPa) = 24.52302 28.91999 26.72150
# Shear Modulus (GPa) = 27.33254 33.95243 30.64249
#
# Velocity S-wave (km/s) = 3.33929 3.72177 3.53570
# Velocity P-wave (km/s) = 4.98722 5.50156 5.25069
#
# Compressibility (1/GPa) = 0.04077802
#
# Stress axis : x y z
#
# Youngs Moduli (GPa) = 53.88071 72.77824 77.09988
#
# Poissons Ratio (x) = 0.14348 -0.10727
# Poissons Ratio (y) = 0.10622 0.12844
# Poissons Ratio (z) = -0.07497 0.12125
#
# Static dielectric constant tensor:
#      x y z
#    x 1.982290 0.023760 0.032370 
#    y 0.023760 1.940090 0.050900 
#    z 0.032370 0.050900 2.004130 
# 
# From -- ./inp_files/342367.got.cif
#   From: 2010.05.17/outbox.cif.g08.bks.cpg/sg2_172_cif.got.tgz:342367.got - 2010.06.03 11:33:40.
