data_PCOD9088899
_publ_section_title
;
Structure prediction by ZEFSAII (Michael W. Deem and Ramdas Pophale) SiO2 
 PCOD9088899
Probable space group: P -1
;
_chemical_formula_sum "Si O2"
_cell_formula_units_Z 16
_cell_length_a 9.292224
_cell_length_b 16.027299
_cell_length_c 11.529911
_cell_angle_alpha 144.148813
_cell_angle_beta 130.430875
_cell_angle_gamma 65.101007
_cell_volume 744.140709
_symmetry_space_group_name_H-M "P -1"
_symmetry_group_IT_number 2
_symmetry_cell_setting 'triclinic'
loop_
_space_group_symop_operation_xyz
x,y,z
-x,-y,-z
loop_
_atom_site_type_symbol
_atom_site_label
_atom_site_fract_x
_atom_site_fract_y
_atom_site_fract_z
Si Si1 0.702881 0.950232 0.043530
Si Si2 0.074693 0.210374 0.583658
Si Si3 0.211462 0.286711 0.000610
Si Si4 0.960821 0.366798 0.507207
Si Si5 0.123407 0.693034 0.984204
Si Si6 0.488701 0.340946 0.873885
Si Si7 0.599318 0.450179 0.313104
Si Si8 0.863400 0.771616 0.759189
O O1 0.707885 0.824950 0.000742
O O2 0.746852 0.890832 0.871821
O O3 0.895078 0.074975 0.315057
O O4 0.500000 0.000000 0.000000
O O5 0.136614 0.224386 0.765512
O O6 0.278644 0.231016 0.644449
O O7 0.995401 0.342074 0.632378
O O8 0.390656 0.427380 0.239474
O O9 0.024826 0.318009 0.001054
O O10 0.741277 0.365578 0.357859
O O11 0.079922 0.530239 0.722792
O O12 0.049711 0.254883 0.349877
O O13 0.051313 0.794477 0.967633
O O14 0.347272 0.729994 0.175748
O O15 0.500000 0.500000 0.000000
O O16 0.546070 0.375876 0.076857
O O17 0.717253 0.616908 0.544865
#
# Coordination Sequence:
#
# PCOD9088899 Si02
#       8
#     2   2   2   2   2   2   2   2
#     4  11  25  46  63  86 125 169 213 257 298 364
#     4  11  24  40  63  87 127 171 207 245 303 370
#     4  10  24  41  64  92 125 162 208 254 316 367
#     4  11  19  37  65  95 126 154 202 261 310 368
#     4  10  19  37  63  95 128 155 196 260 315 360
#     4  11  19  38  61  95 127 159 197 257 313 362
#     4  10  19  37  67  95 122 158 199 259 320 365
#     4  10  20  38  66  93 123 159 212 255 309 360
#
# _framework density 21.501311000000001
#
# number of rings (size 3 to 8) (size 9 to 14) (size 15 to 20)
#    0.000    1.500    3.750    1.875    0.000    6.500 
#    4.500    2.500    0.000    0.000    0.000    0.000 
#    0.000    0.000    0.000    0.000    0.000    0.000 
#
# Total GULP energy -89229.558051 kJ/mol
# GULP energy per Si atom -5576.847378 kJ/mol
# Density = 2.145237 g / cm^3
# Si number density = 21.501311 Si / 1000 Ang^3
#
#
#
# Elastic Constant Matrix: (Units=GPa)
#
#
# Indices 1 2 3 4 5 6 
#
# 1 135.8294 34.9646 43.9032 -14.6953 11.1822 -28.9914
# 2 34.9646 72.5266 13.8143 -18.2701 -2.8392 -16.7184
# 3 43.9032 13.8143 70.8470 -10.1912 15.0866 -18.3271
# 4 -14.6953 -18.2701 -10.1912 24.1368 -4.9653 1.8462
# 5 11.1822 -2.8392 15.0866 -4.9653 42.2579 -0.6771
# 6 -28.9914 -16.7184 -18.3271 1.8462 -0.6771 32.2851
#
#
#
# Elastic Compliance Matrix: (Units=1/GPa)
#
#
# Indices 1 2 3 4 5 6 
#
# 1 0.011011 -0.002608 -0.004171 0.002254 -0.001239 0.006015
# 2 -0.002608 0.020501 0.001051 0.014478 0.003524 0.008117
# 3 -0.004171 0.001051 0.020458 0.005172 -0.005393 0.008003
# 4 0.002254 0.014478 0.005172 0.056320 0.005297 0.009347
# 5 -0.001239 0.003524 -0.005393 0.005297 0.026743 -0.002091
# 6 0.006015 0.008117 0.008003 0.009347 -0.002091 0.044543
#
#
# Mechanical properties :
#
#
# Convention : Reuss Voigt Hill
#
# Bulk Modulus (GPa) = 24.68355 51.61856 38.15105
# Shear Modulus (GPa) = 24.44533 32.17067 28.30800
#
# Velocity S-wave (km/s) = 3.37549 3.87230 3.63239
# Velocity P-wave (km/s) = 5.16690 6.63718 5.94765
#
# Compressibility (1/GPa) = 0.04051282
#
# Stress axis : x y z
#
# Youngs Moduli (GPa) = 90.81509 48.77702 48.88180
#
# Poissons Ratio (x) = 0.12723 0.20390
# Poissons Ratio (y) = 0.23687 -0.05136
# Poissons Ratio (z) = 0.37881 -0.05125
#
# Static dielectric constant tensor:
#      x y z
#    x 1.866000 0.004190 0.002280 
#    y 0.004190 1.825720 -0.007340 
#    z 0.002280 -0.007340 1.814700 
# 
# From -- ./inp_files/216340.got.cif
#   From: 2010.05.17/outbox.cif.g08.bks.cpg/sg2_109_cif.got.tgz:216340.got - 2010.06.03 11:33:40.
