data_PCOD9088228
_publ_section_title
;
Structure prediction by ZEFSAII (Michael W. Deem and Ramdas Pophale) SiO2 
 PCOD9088228
Probable space group: P -1
;
_chemical_formula_sum "Si O2"
_cell_formula_units_Z 16
_cell_length_a 19.663737
_cell_length_b 9.008165
_cell_length_c 11.055477
_cell_angle_alpha 83.899502
_cell_angle_beta 126.622759
_cell_angle_gamma 138.574226
_cell_volume 797.133300
_symmetry_space_group_name_H-M "P -1"
_symmetry_group_IT_number 2
_symmetry_cell_setting 'triclinic'
loop_
_space_group_symop_operation_xyz
x,y,z
-x,-y,-z
loop_
_atom_site_type_symbol
_atom_site_label
_atom_site_fract_x
_atom_site_fract_y
_atom_site_fract_z
Si Si1 0.623765 0.794496 0.852758
Si Si2 0.304481 0.300332 0.404124
Si Si3 0.291370 0.707456 0.435281
Si Si4 0.430941 0.559592 0.888741
Si Si5 0.867264 0.800645 0.558185
Si Si6 0.246382 0.334299 0.936484
Si Si7 0.655816 0.359456 0.743282
Si Si8 0.815035 0.176236 0.801069
O O1 0.455412 0.480565 0.635771
O O2 0.562963 0.799042 0.903237
O O3 0.714540 0.035564 0.831761
O O4 0.730362 0.807886 0.996158
O O5 0.165698 0.162212 0.354559
O O6 0.381615 0.543053 0.377278
O O7 0.222722 0.047767 0.261952
O O8 0.209666 0.479241 0.468365
O O9 0.244064 0.576482 0.260899
O O10 0.238764 0.798540 0.367779
O O11 0.490656 0.014158 0.625061
O O12 0.251203 0.297031 0.655449
O O13 0.391923 0.584640 0.970452
O O14 0.500000 0.500000 0.000000
O O15 0.061030 0.081753 0.712237
O O16 0.265493 0.465097 0.064183
O O17 0.000000 0.500000 0.000000
#
# Coordination Sequence:
#
# PCOD9088228 Si02
#       8
#     2   2   2   2   2   2   2   2
#     4  10  19  37  60  83 117 157 200 233 277 355
#     4  10  20  37  58  84 118 163 196 225 287 366
#     4  10  22  35  54  89 125 153 183 239 303 347
#     4   9  21  39  62  86 108 156 210 241 281 347
#     4  10  22  38  60  88 123 146 193 254 297 342
#     4  11  20  35  62  86 114 154 204 244 285 335
#     4  10  20  35  58  83 118 159 196 234 286 356
#     4  12  22  32  56  91 124 150 185 237 298 345
#
# _framework density 20.071925
#
# number of rings (size 3 to 8) (size 9 to 14) (size 15 to 20)
#    0.000    1.750    2.500    2.250    3.500    1.000 
#    0.000    0.625    0.000    0.000    0.000   16.625 
#    0.000    0.000    0.000    0.000    0.000    0.000 
#
# Total GULP energy -89147.968102 kJ/mol
# GULP energy per Si atom -5571.748006 kJ/mol
# Density = 2.002624 g / cm^3
# Si number density = 20.071925 Si / 1000 Ang^3
#
#
#
# Elastic Constant Matrix: (Units=GPa)
#
#
# Indices 1 2 3 4 5 6 
#
# 1 61.7497 28.8779 24.3551 2.3436 5.5665 10.1898
# 2 28.8779 65.6042 23.5504 0.5023 2.3798 4.1103
# 3 24.3551 23.5504 68.9313 -4.7604 12.5126 5.6850
# 4 2.3436 0.5023 -4.7604 20.5438 5.0876 1.4003
# 5 5.5665 2.3798 12.5126 5.0876 28.1148 -0.7012
# 6 10.1898 4.1103 5.6850 1.4003 -0.7012 25.3900
#
#
#
# Elastic Compliance Matrix: (Units=1/GPa)
#
#
# Indices 1 2 3 4 5 6 
#
# 1 0.023189 -0.007971 -0.004837 -0.002751 -0.001436 -0.006821
# 2 -0.007971 0.020300 -0.004702 -0.001300 0.002215 0.001098
# 3 -0.004837 -0.004702 0.020221 0.007780 -0.009114 -0.002506
# 4 -0.002751 -0.001300 0.007780 0.054231 -0.012716 -0.003770
# 5 -0.001436 0.002215 -0.009114 -0.012716 0.042126 0.004123
# 6 -0.006821 0.001098 -0.002506 -0.003770 0.004123 0.042828
#
#
# Mechanical properties :
#
#
# Convention : Reuss Voigt Hill
#
# Bulk Modulus (GPa) = 34.85308 38.87245 36.86277
# Shear Modulus (GPa) = 20.20387 22.77649 21.49018
#
# Velocity S-wave (km/s) = 3.17610 3.37225 3.27564
# Velocity P-wave (km/s) = 5.55445 5.87974 5.71941
#
# Compressibility (1/GPa) = 0.02869187
#
# Stress axis : x y z
#
# Youngs Moduli (GPa) = 43.12362 49.26091 49.45368
#
# Poissons Ratio (x) = 0.39264 0.23920
# Poissons Ratio (y) = 0.34372 0.23252
# Poissons Ratio (z) = 0.20858 0.23161
#
# Static dielectric constant tensor:
#      x y z
#    x 1.778300 0.017300 0.012450 
#    y 0.017300 1.715920 -0.044350 
#    z 0.012450 -0.044350 1.741880 
# 
# From -- ./inp_files/206826.got.cif
#   From: 2010.05.17/outbox.cif.g08.bks.cpg/sg2_104_cif.got.tgz:206826.got - 2010.06.03 11:33:40.
