data_PCOD9088692
_publ_section_title
;
Structure prediction by ZEFSAII (Michael W. Deem and Ramdas Pophale) SiO2 
 PCOD9088692
Probable space group: P -1
;
_chemical_formula_sum "Si O2"
_cell_formula_units_Z 16
_cell_length_a 5.371324
_cell_length_b 18.767190
_cell_length_c 16.108273
_cell_angle_alpha 26.431000
_cell_angle_beta 94.114350
_cell_angle_gamma 105.682470
_cell_volume 638.567562
_symmetry_space_group_name_H-M "P -1"
_symmetry_group_IT_number 2
_symmetry_cell_setting 'triclinic'
loop_
_space_group_symop_operation_xyz
x,y,z
-x,-y,-z
loop_
_atom_site_type_symbol
_atom_site_label
_atom_site_fract_x
_atom_site_fract_y
_atom_site_fract_z
Si Si1 0.909716 0.992830 0.602710
Si Si2 0.960272 0.654335 0.005208
Si Si3 0.354773 0.703906 0.834854
Si Si4 0.201372 0.264277 0.695738
Si Si5 0.425240 0.359145 0.258405
Si Si6 0.681541 0.320234 0.866275
Si Si7 0.653736 0.988705 0.932274
Si Si8 0.719681 0.514503 0.378655
O O1 0.942220 0.840200 0.817269
O O2 0.571091 0.893667 0.685459
O O3 0.115949 0.189522 0.441097
O O4 0.000000 0.000000 0.500000
O O5 0.044790 0.656600 0.907822
O O6 0.222619 0.667588 0.049933
O O7 0.681253 0.469489 0.213687
O O8 0.432213 0.716317 0.727453
O O9 0.397287 0.533136 0.043615
O O10 0.469942 0.312229 0.594416
O O11 0.218984 0.426294 0.584280
O O12 0.205076 0.135505 0.903682
O O13 0.921546 0.178088 0.725159
O O14 0.459521 0.394779 0.764154
O O15 0.983829 0.428606 0.715288
O O16 0.547161 0.118396 0.035553
O O17 0.500000 0.000000 0.000000
#
# Coordination Sequence:
#
# PCOD9088692 Si02
#       8
#     2   2   2   2   2   2   2   2
#     4   9  20  38  61  90 117 156 211 264 310 381
#     4  11  23  38  60  87 128 167 200 266 329 379
#     4   9  19  36  62  87 115 157 203 263 310 375
#     4   9  20  36  64  91 117 157 215 262 299 364
#     4   9  19  37  59  88 117 152 211 256 311 376
#     4  11  25  40  61  88 133 164 206 258 325 381
#     4  10  19  37  62  93 123 162 208 260 311 371
#     4  10  22  40  62  90 118 164 209 257 308 372
#
# _framework density 25.056080000000001
#
# number of rings (size 3 to 8) (size 9 to 14) (size 15 to 20)
#    0.000    2.250    1.250    1.125    5.250    4.500 
#    2.250    1.250    0.000    0.000    0.000    0.000 
#    0.000    0.000    0.000    0.000    0.000    0.000 
#
# Total GULP energy -89186.174068 kJ/mol
# GULP energy per Si atom -5574.135879 kJ/mol
# Density = 2.499905 g / cm^3
# Si number density = 25.056080 Si / 1000 Ang^3
#
#
#
# Elastic Constant Matrix: (Units=GPa)
#
#
# Indices 1 2 3 4 5 6 
#
# 1 88.5005 29.1555 37.3424 -10.3227 -8.4539 11.5743
# 2 29.1555 98.7389 38.7370 -25.5606 -9.9711 24.0203
# 3 37.3424 38.7370 121.1092 -40.2402 -31.0869 15.9899
# 4 -10.3227 -25.5606 -40.2402 39.5461 9.6366 -13.0192
# 5 -8.4539 -9.9711 -31.0869 9.6366 49.3206 7.0247
# 6 11.5743 24.0203 15.9899 -13.0192 7.0247 40.2291
#
#
#
# Elastic Compliance Matrix: (Units=1/GPa)
#
#
# Indices 1 2 3 4 5 6 
#
# 1 0.013843 -0.002843 -0.004128 -0.002952 0.000000 -0.001600
# 2 -0.002843 0.014259 -0.000630 0.005419 0.001795 -0.006005
# 3 -0.004128 -0.000630 0.015902 0.012313 0.007068 -0.002006
# 4 -0.002952 0.005419 0.012313 0.043049 -0.001034 0.006832
# 5 0.000000 0.001795 0.007068 -0.001034 0.026556 -0.008853
# 6 -0.001600 -0.006005 -0.002006 0.006832 -0.008853 0.033458
#
#
# Mechanical properties :
#
#
# Convention : Reuss Voigt Hill
#
# Bulk Modulus (GPa) = 34.72096 57.64648 46.18372
# Shear Modulus (GPa) = 29.09171 39.36007 34.22589
#
# Velocity S-wave (km/s) = 3.41114 3.96773 3.69991
# Velocity P-wave (km/s) = 5.42235 6.63683 6.06009
#
# Compressibility (1/GPa) = 0.02880105
#
# Stress axis : x y z
#
# Youngs Moduli (GPa) = 72.23964 70.12953 62.88606
#
# Poissons Ratio (x) = 0.19936 0.25962
# Poissons Ratio (y) = 0.20536 0.03964
# Poissons Ratio (z) = 0.29823 0.04421
#
# Static dielectric constant tensor:
#      x y z
#    x 2.046220 -0.000810 0.030370 
#    y -0.000810 2.034910 -0.059170 
#    z 0.030370 -0.059170 2.138350 
# 
# From -- ./inp_files/550875.got.cif
#   From: 2010.05.17/outbox.cif.g08.bks.cpg/sg2_276_cif.got.tgz:550875.got - 2010.06.03 11:33:40.
