data_PCOD9088176
_publ_section_title
;
Structure prediction by ZEFSAII (Michael W. Deem and Ramdas Pophale) SiO2 
 PCOD9088176
Probable space group: P -1
;
_chemical_formula_sum "Si O2"
_cell_formula_units_Z 16
_cell_length_a 13.528997
_cell_length_b 9.336209
_cell_length_c 8.325641
_cell_angle_alpha 108.566928
_cell_angle_beta 62.209736
_cell_angle_gamma 75.111066
_cell_volume 772.001981
_symmetry_space_group_name_H-M "P -1"
_symmetry_group_IT_number 2
_symmetry_cell_setting 'triclinic'
loop_
_space_group_symop_operation_xyz
x,y,z
-x,-y,-z
loop_
_atom_site_type_symbol
_atom_site_label
_atom_site_fract_x
_atom_site_fract_y
_atom_site_fract_z
Si Si1 0.542235 0.108059 0.394477
Si Si2 0.618402 0.544513 0.458583
Si Si3 0.677367 0.322670 0.925923
Si Si4 0.403618 0.640885 0.336385
Si Si5 0.816432 0.840288 0.065349
Si Si6 0.821055 0.482352 0.001006
Si Si7 0.114609 0.035132 0.250333
Si Si8 0.929617 0.874334 0.320321
O O1 0.443361 0.250084 0.397710
O O2 0.563337 0.232379 0.545023
O O3 0.500000 0.000000 0.500000
O O4 0.672267 0.971662 0.169708
O O5 0.500000 0.500000 0.500000
O O6 0.679556 0.422201 0.520509
O O7 0.723830 0.501380 0.226323
O O8 0.663980 0.263675 0.739436
O O9 0.757385 0.425359 0.887455
O O10 0.758509 0.156392 0.915844
O O11 0.534723 0.463378 0.134886
O O12 0.841897 0.908372 0.241153
O O13 0.826581 0.655570 0.025577
O O14 0.893961 0.851504 0.857629
O O15 0.959851 0.322384 0.864111
O O16 0.997245 0.994087 0.312520
O O17 0.116157 0.111759 0.453832
#
# Coordination Sequence:
#
# PCOD9088176 Si02
#       8
#     2   2   2   2   2   2   2   2
#     4  11  20  35  60  93 127 154 194 252 305 362
#     4  10  19  37  59  90 115 163 203 234 300 365
#     4  10  19  39  58  87 123 153 205 251 287 367
#     4  10  20  33  61  88 117 166 197 238 305 361
#     4  12  23  40  66  91 123 164 198 250 315 359
#     4  11  22  41  61  88 125 156 203 253 299 361
#     4  10  23  43  64  90 120 160 205 256 305 348
#     4  10  24  44  62  88 122 159 211 253 291 371
#
# _framework density 20.725337
#
# number of rings (size 3 to 8) (size 9 to 14) (size 15 to 20)
#    0.000    1.500    3.750    2.250    5.250    0.500 
#    9.000    0.000    0.000    5.250    0.000    0.000 
#    0.000    0.000    0.000    0.000    0.000    0.000 
#
# Total GULP energy -89112.537162 kJ/mol
# GULP energy per Si atom -5569.533573 kJ/mol
# Density = 2.067817 g / cm^3
# Si number density = 20.725337 Si / 1000 Ang^3
#
#
#
# Elastic Constant Matrix: (Units=GPa)
#
#
# Indices 1 2 3 4 5 6 
#
# 1 31.9440 22.7963 6.9228 -9.8801 10.7270 1.9849
# 2 22.7963 129.9597 43.2531 -18.6907 3.8887 17.6949
# 3 6.9228 43.2531 66.5366 -9.0184 -1.8426 4.6046
# 4 -9.8801 -18.6907 -9.0184 36.6426 -9.8283 -6.8020
# 5 10.7270 3.8887 -1.8426 -9.8283 22.7367 0.5869
# 6 1.9849 17.6949 4.6046 -6.8020 0.5869 19.0444
#
#
#
# Elastic Compliance Matrix: (Units=1/GPa)
#
#
# Indices 1 2 3 4 5 6 
#
# 1 0.043216 -0.006949 -0.000187 0.004098 -0.017547 0.004002
# 2 -0.006949 0.012461 -0.006502 0.001684 0.001573 -0.008729
# 3 -0.000187 -0.006502 0.019632 0.002958 0.004012 0.002247
# 4 0.004098 0.001684 0.002958 0.035229 0.013002 0.009475
# 5 -0.017547 0.001573 0.004012 0.013002 0.057879 0.002257
# 6 0.004002 -0.008729 0.002247 0.009475 0.002257 0.062973
#
#
# Mechanical properties :
#
#
# Convention : Reuss Voigt Hill
#
# Bulk Modulus (GPa) = 20.81838 41.59829 31.20833
# Shear Modulus (GPa) = 18.20335 26.04926 22.12630
#
# Velocity S-wave (km/s) = 2.96685 3.54910 3.27095
# Velocity P-wave (km/s) = 4.66937 6.07533 5.41814
#
# Compressibility (1/GPa) = 0.04803447
#
# Stress axis : x y z
#
# Youngs Moduli (GPa) = 23.13982 80.25016 50.93788
#
# Poissons Ratio (x) = 0.55764 0.00951
# Poissons Ratio (y) = 0.16079 0.33118
# Poissons Ratio (z) = 0.00432 0.52175
#
# Static dielectric constant tensor:
#      x y z
#    x 1.828940 -0.066730 0.024840 
#    y -0.066730 1.761040 -0.020480 
#    z 0.024840 -0.020480 1.822690 
# 
# From -- ./inp_files/298704.got.cif
#   From: 2010.05.17/outbox.cif.g08.bks.cpg/sg2_150_cif.got.tgz:298704.got - 2010.06.03 11:33:40.
