data_PCOD9088058
_publ_section_title
;
Structure prediction by ZEFSAII (Michael W. Deem and Ramdas Pophale) SiO2 
 PCOD9088058
Probable space group: P -1
;
_chemical_formula_sum "Si O2"
_cell_formula_units_Z 12
_cell_length_a 10.314210
_cell_length_b 16.625137
_cell_length_c 10.376293
_cell_angle_alpha 145.779267
_cell_angle_beta 137.272753
_cell_angle_gamma 59.524963
_cell_volume 655.087111
_symmetry_space_group_name_H-M "P -1"
_symmetry_group_IT_number 2
_symmetry_cell_setting 'triclinic'
loop_
_space_group_symop_operation_xyz
x,y,z
-x,-y,-z
loop_
_atom_site_type_symbol
_atom_site_label
_atom_site_fract_x
_atom_site_fract_y
_atom_site_fract_z
Si Si1 0.697304 0.371413 0.373737
Si Si2 0.070821 0.382189 0.808885
Si Si3 0.461746 0.057113 0.686789
Si Si4 0.402808 0.082367 0.149030
Si Si5 0.480808 0.589340 0.422425
Si Si6 0.025850 0.056339 0.446099
O O1 0.667879 0.521071 0.486605
O O2 0.589961 0.371048 0.434524
O O3 0.919701 0.360959 0.550414
O O4 0.576545 0.228977 0.019289
O O5 0.040825 0.230321 0.665219
O O6 0.301884 0.460839 0.061197
O O7 0.000000 0.500000 0.000000
O O8 0.229387 0.034746 0.511575
O O9 0.500000 0.000000 0.500000
O O10 0.540578 0.970741 0.743147
O O11 0.477725 0.258318 0.421496
O O12 0.500000 0.000000 0.000000
O O13 0.168621 0.031882 0.887796
O O14 0.000000 0.000000 0.500000
#
# Coordination Sequence:
#
# PCOD9088058 Si02
#       6
#     2   2   2   2   2   2
#     4  10  19  37  58  89 125 165 207 259 315 373
#     4  10  20  33  60  96 124 157 203 270 327 360
#     4  12  26  43  63  94 137 175 209 261 327 387
#     4  12  22  40  65  99 128 160 221 272 307 375
#     4  10  20  34  63  94 123 159 209 272 315 364
#     4  12  23  38  67  97 126 163 223 265 310 375
#
# _framework density 18.318175
#
# number of rings (size 3 to 8) (size 9 to 14) (size 15 to 20)
#    0.000    1.000    6.667    1.000    4.667    0.667 
#    0.000    0.833    0.000    2.000    0.000    0.000 
#    0.000    0.000    0.000    0.000    0.000    0.000 
#
# Total GULP energy -66989.247137 kJ/mol
# GULP energy per Si atom -5582.437261 kJ/mol
# Density = 1.827648 g / cm^3
# Si number density = 18.318175 Si / 1000 Ang^3
#
#
#
# Elastic Constant Matrix: (Units=GPa)
#
#
# Indices 1 2 3 4 5 6 
#
# 1 78.2285 45.1347 47.5312 -17.0515 -5.0128 -3.4962
# 2 45.1347 163.8109 55.0253 6.7328 -1.0909 -4.2024
# 3 47.5312 55.0253 116.6611 -4.3829 9.3125 -3.5423
# 4 -17.0515 6.7328 -4.3829 43.7681 0.4329 7.9281
# 5 -5.0128 -1.0909 9.3125 0.4329 23.0278 -7.5276
# 6 -3.4962 -4.2024 -3.5423 7.9281 -7.5276 19.5673
#
#
#
# Elastic Compliance Matrix: (Units=1/GPa)
#
#
# Indices 1 2 3 4 5 6 
#
# 1 0.021729 -0.003745 -0.007371 0.007942 0.007895 0.001563
# 2 -0.003745 0.008200 -0.002513 -0.003462 0.001512 0.002621
# 3 -0.007371 -0.002513 0.013291 -0.000684 -0.007796 -0.002173
# 4 0.007942 -0.003462 -0.000684 0.028616 -0.002638 -0.012057
# 5 0.007895 0.001512 -0.007796 -0.002638 0.055904 0.022899
# 6 0.001563 0.002621 -0.002173 -0.012057 0.022899 0.065249
#
#
# Mechanical properties :
#
#
# Convention : Reuss Voigt Hill
#
# Bulk Modulus (GPa) = 62.64778 72.67587 67.66182
# Shear Modulus (GPa) = 22.16614 31.33993 26.75304
#
# Velocity S-wave (km/s) = 3.48237 4.14075 3.82575
# Velocity P-wave (km/s) = 7.10234 7.91337 7.51880
#
# Compressibility (1/GPa) = 0.01596226
#
# Stress axis : x y z
#
# Youngs Moduli (GPa) = 46.02072 121.94893 75.23792
#
# Poissons Ratio (x) = 0.45667 0.55460
# Poissons Ratio (y) = 0.17234 0.18908
# Poissons Ratio (z) = 0.33923 0.30648
#
# Static dielectric constant tensor:
#      x y z
#    x 1.606520 -0.021220 0.028620 
#    y -0.021220 1.641600 -0.021920 
#    z 0.028620 -0.021920 1.648530 
# 
# From -- ./inp_files/160313.got.cif
#   From: 2010.05.17/outbox.cif.g08.bks.cpg/sg2_81_cif.got.tgz:160313.got - 2010.06.03 11:33:40.
