data_PCOD9088850
_publ_section_title
;
Structure prediction by ZEFSAII (Michael W. Deem and Ramdas Pophale) SiO2 
 PCOD9088850
Probable space group: P -1
;
_chemical_formula_sum "Si O2"
_cell_formula_units_Z 14
_cell_length_a 8.137884
_cell_length_b 9.150794
_cell_length_c 11.223806
_cell_angle_alpha 115.390079
_cell_angle_beta 66.349071
_cell_angle_gamma 117.363801
_cell_volume 648.537990
_symmetry_space_group_name_H-M "P -1"
_symmetry_group_IT_number 2
_symmetry_cell_setting 'triclinic'
loop_
_space_group_symop_operation_xyz
x,y,z
-x,-y,-z
loop_
_atom_site_type_symbol
_atom_site_label
_atom_site_fract_x
_atom_site_fract_y
_atom_site_fract_z
Si Si1 0.013587 0.529907 0.648771
Si Si2 0.410697 0.713019 0.664350
Si Si3 0.331177 0.753794 0.216771
Si Si4 0.315474 0.026946 0.673116
Si Si5 0.052997 0.115176 0.144335
Si Si6 0.773221 0.949843 0.561552
Si Si7 0.499452 0.193351 0.064410
O O1 0.231363 0.548918 0.622184
O O2 0.000000 0.500000 0.500000
O O3 0.846705 0.382223 0.712933
O O4 0.984517 0.704473 0.766369
O O5 0.358671 0.870752 0.672977
O O6 0.630509 0.759809 0.574267
O O7 0.409725 0.719444 0.808963
O O8 0.521559 0.805379 0.262379
O O9 0.269441 0.922821 0.286320
O O10 0.390752 0.715200 0.054641
O O11 0.307091 0.012177 0.528848
O O12 0.099448 0.008945 0.763090
O O13 0.277390 0.169491 0.117047
O O14 0.000000 0.000000 0.000000
O O15 0.000000 0.000000 0.500000
O O16 0.500000 0.000000 0.000000
#
# Coordination Sequence:
#
# PCOD9088850 Si02
#       7
#     2   2   2   2   2   2   2
#     4  11  24  45  67  94 135 175 222 279 335 386
#     4  10  21  39  62  87 130 173 210 271 325 389
#     4  11  22  39  64  93 132 175 219 274 334 384
#     4  10  19  37  63  91 122 170 221 263 322 392
#     4  11  22  42  68  97 128 178 222 262 331 400
#     4  11  21  37  62  97 125 170 231 270 320 400
#     4  12  21  40  65  97 134 172 223 273 325 398
#
# _framework density 21.587014
#
# number of rings (size 3 to 8) (size 9 to 14) (size 15 to 20)
#    0.000    1.143    4.286    6.000    0.000    1.143 
#    0.000    4.286    0.000    0.000    0.000    0.000 
#    0.000    0.000    0.000    0.000    0.000    0.000 
#
# Total GULP energy -78062.879450 kJ/mol
# GULP energy per Si atom -5575.919961 kJ/mol
# Density = 2.153788 g / cm^3
# Si number density = 21.587014 Si / 1000 Ang^3
#
#
#
# Elastic Constant Matrix: (Units=GPa)
#
#
# Indices 1 2 3 4 5 6 
#
# 1 100.3092 44.7118 57.1129 -11.1054 2.0279 29.3793
# 2 44.7118 119.3588 46.6200 -31.7731 -4.7254 36.5373
# 3 57.1129 46.6200 152.6910 -27.1914 17.8704 11.1451
# 4 -11.1054 -31.7731 -27.1914 45.9410 4.2267 -20.1288
# 5 2.0279 -4.7254 17.8704 4.2267 50.6289 -1.4904
# 6 29.3793 36.5373 11.1451 -20.1288 -1.4904 34.4263
#
#
#
# Elastic Compliance Matrix: (Units=1/GPa)
#
#
# Indices 1 2 3 4 5 6 
#
# 1 0.018464 -0.001050 -0.006981 -0.008001 0.001794 -0.016983
# 2 -0.001050 0.014223 -0.002843 0.002621 0.001811 -0.011668
# 3 -0.006981 -0.002843 0.011175 0.007555 -0.004279 0.009590
# 4 -0.008001 0.002621 0.007555 0.036495 -0.004479 0.022745
# 5 0.001794 0.001811 -0.004279 -0.004479 0.021622 -0.003751
# 6 -0.016983 -0.011668 0.009590 0.022745 -0.003751 0.065956
#
#
# Mechanical properties :
#
#
# Convention : Reuss Voigt Hill
#
# Bulk Modulus (GPa) = 45.22176 74.36094 59.79135
# Shear Modulus (GPa) = 25.37365 41.12685 33.25025
#
# Velocity S-wave (km/s) = 3.43215 4.36956 3.92891
# Velocity P-wave (km/s) = 6.05807 7.74462 6.95268
#
# Compressibility (1/GPa) = 0.02211325
#
# Stress axis : x y z
#
# Youngs Moduli (GPa) = 54.15941 70.30811 89.48743
#
# Poissons Ratio (x) = 0.07382 0.62471
# Poissons Ratio (y) = 0.05687 0.25445
# Poissons Ratio (z) = 0.37808 0.19991
#
# Static dielectric constant tensor:
#      x y z
#    x 1.934280 -0.022000 -0.019150 
#    y -0.022000 1.857650 -0.044560 
#    z -0.019150 -0.044560 1.782900 
# 
# From -- ./inp_files/176616.got.cif
#   From: 2010.05.17/outbox.cif.g08.bks.cpg/sg2_89_cif.got.tgz:176616.got - 2010.06.03 11:33:40.
