data_PCOD9088563
_publ_section_title
;
Structure prediction by ZEFSAII (Michael W. Deem and Ramdas Pophale) SiO2 
 PCOD9088563
Probable space group: P -1
;
_chemical_formula_sum "Si O2"
_cell_formula_units_Z 16
_cell_length_a 6.816521
_cell_length_b 11.179457
_cell_length_c 12.041437
_cell_angle_alpha 86.756362
_cell_angle_beta 89.066515
_cell_angle_gamma 60.890055
_cell_volume 800.360661
_symmetry_space_group_name_H-M "P -1"
_symmetry_group_IT_number 2
_symmetry_cell_setting 'triclinic'
loop_
_space_group_symop_operation_xyz
x,y,z
-x,-y,-z
loop_
_atom_site_type_symbol
_atom_site_label
_atom_site_fract_x
_atom_site_fract_y
_atom_site_fract_z
Si Si1 0.825419 0.563148 0.657563
Si Si2 0.827373 0.594546 0.904875
Si Si3 0.325833 0.784114 0.642289
Si Si4 0.426809 0.039796 0.843823
Si Si5 0.138812 0.153687 0.041733
Si Si6 0.324998 0.787271 0.891608
Si Si7 0.901068 0.342202 0.498778
Si Si8 0.309914 0.059313 0.592727
O O1 0.870620 0.525498 0.787876
O O2 0.596257 0.707967 0.646428
O O3 0.795808 0.450779 0.593461
O O4 0.016953 0.585172 0.596653
O O5 0.868188 0.724794 0.891023
O O6 0.561828 0.658476 0.931410
O O7 0.000000 0.500000 0.000000
O O8 0.262120 0.763839 0.768630
O O9 0.252003 0.710342 0.556355
O O10 0.230934 0.944581 0.611977
O O11 0.677462 0.985163 0.891601
O O12 0.372788 0.914577 0.870560
O O13 0.401921 0.070719 0.712501
O O14 0.249102 0.154555 0.921908
O O15 0.891312 0.173665 0.034003
O O16 0.114896 0.206761 0.550695
O O17 0.500000 0.000000 0.500000
#
# Coordination Sequence:
#
# PCOD9088563 Si02
#       8
#     2   2   2   2   2   2   2   2
#     4  10  22  40  59  86 116 158 198 239 290 354
#     4  10  22  37  58  83 117 151 192 240 288 341
#     4  10  20  38  60  88 116 155 197 239 294 351
#     4   9  21  36  57  88 115 150 186 242 289 344
#     4  10  19  37  62  80 115 154 191 234 291 345
#     4   9  19  35  61  85 111 149 195 234 288 354
#     4  11  22  37  63  83 119 158 195 242 291 347
#     4  11  22  37  60  88 125 150 194 244 294 346
#
# _framework density 19.990988000000002
#
# number of rings (size 3 to 8) (size 9 to 14) (size 15 to 20)
#    0.000    2.000    1.250    2.625    3.500    0.500 
#    0.000    0.000    5.500    0.000    0.000    0.000 
#    0.000    0.000    0.000    0.000    0.000    0.000 
#
# Total GULP energy -89282.670193 kJ/mol
# GULP energy per Si atom -5580.166887 kJ/mol
# Density = 1.994549 g / cm^3
# Si number density = 19.990988 Si / 1000 Ang^3
#
#
#
# Elastic Constant Matrix: (Units=GPa)
#
#
# Indices 1 2 3 4 5 6 
#
# 1 68.0134 10.6080 33.5153 -8.0852 2.6596 -15.9981
# 2 10.6080 57.7402 21.7037 1.4871 2.7209 -10.3314
# 3 33.5153 21.7037 123.0904 6.7319 16.7542 -15.1477
# 4 -8.0852 1.4871 6.7319 30.1464 -2.2425 8.5990
# 5 2.6596 2.7209 16.7542 -2.2425 25.4481 8.9476
# 6 -15.9981 -10.3314 -15.1477 8.5990 8.9476 27.8688
#
#
#
# Elastic Compliance Matrix: (Units=1/GPa)
#
#
# Indices 1 2 3 4 5 6 
#
# 1 0.019204 -0.000566 -0.004112 0.003688 -0.001726 0.007996
# 2 -0.000566 0.019856 -0.001437 -0.003673 -0.004553 0.008850
# 3 -0.004112 -0.001437 0.012877 -0.007799 -0.012255 0.010447
# 4 0.003688 -0.003673 -0.007799 0.043725 0.016868 -0.022391
# 5 -0.001726 -0.004553 -0.012255 0.016868 0.061583 -0.034316
# 6 0.007996 0.008850 0.010447 -0.022391 -0.034316 0.067358
#
#
# Mechanical properties :
#
#
# Convention : Reuss Voigt Hill
#
# Bulk Modulus (GPa) = 25.18417 42.27756 33.73087
# Shear Modulus (GPa) = 19.99455 28.89382 24.44418
#
# Velocity S-wave (km/s) = 3.16599 3.80589 3.50059
# Velocity P-wave (km/s) = 5.09802 6.36453 5.76615
#
# Compressibility (1/GPa) = 0.03970748
#
# Stress axis : x y z
#
# Youngs Moduli (GPa) = 52.07223 50.36311 77.65541
#
# Poissons Ratio (x) = 0.02848 0.31932
# Poissons Ratio (y) = 0.02945 0.11162
# Poissons Ratio (z) = 0.21412 0.07239
#
# Static dielectric constant tensor:
#      x y z
#    x 1.713560 0.002940 -0.007640 
#    y 0.002940 1.731260 0.017770 
#    z -0.007640 0.017770 1.731030 
# 
# From -- ./inp_files/95030.got.cif
#   From: 2010.05.17/outbox.cif.g08.bks.cpg/sg2_48_cif.got.tgz:95030.got - 2010.06.03 11:33:40.
