data_PCOD9088190
_publ_section_title
;
Structure prediction by ZEFSAII (Michael W. Deem and Ramdas Pophale) SiO2 
 PCOD9088190
Probable space group: P -1
;
_chemical_formula_sum "Si O2"
_cell_formula_units_Z 16
_cell_length_a 9.996094
_cell_length_b 8.898219
_cell_length_c 20.356904
_cell_angle_alpha 40.337105
_cell_angle_beta 41.818176
_cell_angle_gamma 44.909353
_cell_volume 739.125871
_symmetry_space_group_name_H-M "P -1"
_symmetry_group_IT_number 2
_symmetry_cell_setting 'triclinic'
loop_
_space_group_symop_operation_xyz
x,y,z
-x,-y,-z
loop_
_atom_site_type_symbol
_atom_site_label
_atom_site_fract_x
_atom_site_fract_y
_atom_site_fract_z
Si Si1 0.678086 0.769130 0.648569
Si Si2 0.975377 0.741384 0.888099
Si Si3 0.990022 0.240388 0.562283
Si Si4 0.677339 0.167401 0.338333
Si Si5 0.293280 0.438161 0.039701
Si Si6 0.443650 0.862009 0.838724
Si Si7 0.377764 0.748068 0.138301
Si Si8 0.494058 0.709200 0.255542
O O1 0.900762 0.796733 0.537117
O O2 0.525625 0.877272 0.605259
O O3 0.554955 0.877774 0.723662
O O4 0.708699 0.478862 0.740906
O O5 0.898452 0.661901 0.873320
O O6 0.201623 0.774193 0.788651
O O7 0.806682 0.994642 0.888798
O O8 0.000000 0.500000 0.000000
O O9 0.000000 0.500000 0.500000
O O10 0.753454 0.227222 0.655297
O O11 0.142372 0.040289 0.621616
O O12 0.597057 0.418889 0.324553
O O13 0.384705 0.328830 0.112805
O O14 0.264127 0.727714 0.947272
O O15 0.466743 0.319973 0.958087
O O16 0.392117 0.124378 0.804403
O O17 0.493876 0.762655 0.159685
#
# Coordination Sequence:
#
# PCOD9088190 Si02
#       8
#     2   2   2   2   2   2   2   2
#     4  10  22  39  65  90 122 160 198 261 306 364
#     4  12  21  33  60  93 124 157 211 258 298 352
#     4  12  21  41  71  95 116 156 211 256 308 354
#     4  11  23  39  64  96 122 150 214 257 298 361
#     4  10  21  37  63  82 122 171 204 250 302 365
#     4  10  21  39  59  87 127 163 201 245 314 368
#     4  10  19  37  59  93 115 156 212 249 300 343
#     4  11  22  39  65  90 124 162 198 261 303 360
#
# _framework density 21.647193000000001
#
# number of rings (size 3 to 8) (size 9 to 14) (size 15 to 20)
#    0.000    1.250    5.000    3.000    1.750    0.500 
#    0.000    1.250   24.750    0.000    0.000    0.000 
#    0.000    0.000    0.000    0.000    0.000    0.000 
#
# Total GULP energy -89343.904724 kJ/mol
# GULP energy per Si atom -5583.994045 kJ/mol
# Density = 2.159792 g / cm^3
# Si number density = 21.647193 Si / 1000 Ang^3
#
#
#
# Elastic Constant Matrix: (Units=GPa)
#
#
# Indices 1 2 3 4 5 6 
#
# 1 39.1872 29.4781 6.9430 -1.4912 -3.5886 3.1531
# 2 29.4781 110.1516 14.7717 -19.0516 4.1820 -2.6916
# 3 6.9430 14.7717 66.9415 7.7082 0.1013 -5.8487
# 4 -1.4912 -19.0516 7.7082 34.1030 -4.3918 6.6025
# 5 -3.5886 4.1820 0.1013 -4.3918 32.7861 -0.4446
# 6 3.1531 -2.6916 -5.8487 6.6025 -0.4446 38.8573
#
#
#
# Elastic Compliance Matrix: (Units=1/GPa)
#
#
# Indices 1 2 3 4 5 6 
#
# 1 0.033415 -0.009396 -0.001411 -0.002281 0.004512 -0.003135
# 2 -0.009396 0.013326 -0.002824 0.007455 -0.001721 -0.000026
# 3 -0.001411 -0.002824 0.016724 -0.006173 -0.000626 0.003478
# 4 -0.002281 0.007455 -0.006173 0.036486 0.003619 -0.006386
# 5 0.004512 -0.001721 -0.000626 0.003619 0.031690 -0.000832
# 6 -0.003135 -0.000026 0.003478 -0.006386 -0.000832 0.027587
#
#
# Mechanical properties :
#
#
# Convention : Reuss Voigt Hill
#
# Bulk Modulus (GPa) = 27.62161 35.40731 31.51446
# Shear Modulus (GPa) = 25.18195 32.15509 28.66852
#
# Velocity S-wave (km/s) = 3.41440 3.85829 3.64311
# Velocity P-wave (km/s) = 5.32276 6.02002 5.68209
#
# Compressibility (1/GPa) = 0.03620354
#
# Stress axis : x y z
#
# Youngs Moduli (GPa) = 29.92681 75.04316 59.79585
#
# Poissons Ratio (x) = 0.70507 0.08435
# Poissons Ratio (y) = 0.28118 0.16887
# Poissons Ratio (z) = 0.04221 0.21194
#
# Static dielectric constant tensor:
#      x y z
#    x 1.856160 0.011490 -0.011370 
#    y 0.011490 1.803460 -0.005860 
#    z -0.011370 -0.005860 1.836620 
# 
# From -- ./inp_files/465094.got.cif
#   From: 2010.05.17/outbox.cif.g08.bks.cpg/sg2_233_cif.got.tgz:465094.got - 2010.06.03 11:33:40.
