data_PCOD9088773
_publ_section_title
;
Structure prediction by ZEFSAII (Michael W. Deem and Ramdas Pophale) SiO2 
 PCOD9088773
Probable space group: P -1
;
_chemical_formula_sum "Si O2"
_cell_formula_units_Z 16
_cell_length_a 11.730599
_cell_length_b 13.569116
_cell_length_c 7.428497
_cell_angle_alpha 38.274717
_cell_angle_beta 62.996969
_cell_angle_gamma 54.664842
_cell_volume 597.504769
_symmetry_space_group_name_H-M "P -1"
_symmetry_group_IT_number 2
_symmetry_cell_setting 'triclinic'
loop_
_space_group_symop_operation_xyz
x,y,z
-x,-y,-z
loop_
_atom_site_type_symbol
_atom_site_label
_atom_site_fract_x
_atom_site_fract_y
_atom_site_fract_z
Si Si1 0.999999 0.813510 0.310133
Si Si2 1.000000 0.194979 0.248699
Si Si3 0.301182 0.079443 0.590492
Si Si4 0.301181 0.619373 0.409508
Si Si5 0.701993 0.829307 0.936511
Si Si6 0.701993 0.468703 0.063488
Si Si7 0.576222 0.294974 0.131577
Si Si8 0.576218 0.128808 0.868422
O O1 1.000000 0.793564 0.552668
O O2 0.150291 0.673260 0.346651
O O3 0.849706 0.823553 0.346652
O O4 0.000000 0.000000 0.000000
O O5 0.862518 0.360037 0.048595
O O6 0.000000 0.000000 0.500000
O O7 0.137481 0.222551 0.048599
O O8 0.300683 0.180836 0.263120
O O9 0.326871 0.895675 0.733444
O O10 0.408938 0.004904 0.783583
O O11 0.300682 0.518479 0.736881
O O12 0.326876 0.777449 0.266556
O O13 0.408934 0.586156 0.216417
O O14 0.633101 0.019803 0.805518
O O15 0.589803 0.754904 0.194408
O O16 0.633103 0.347095 0.194486
O O17 0.589799 0.655294 0.805597
#
# Coordination Sequence:
#
# PCOD9088773 Si02
#       8
#     2   2   2   2   2   2   2   2
#     4  10  16  28  46  72  94 120 158 188 238 289
#     4  10  20  30  50  69  97 124 150 203 245 282
#     4  10  19  31  49  70  99 129 158 199 241 285
#     4  10  19  31  49  70  99 129 158 199 241 285
#     4  10  20  32  46  75  97 121 162 196 240 287
#     4  10  20  32  46  75  97 121 162 196 240 287
#     4  10  19  30  49  69  97 129 155 195 242 289
#     4  10  19  30  49  69  97 129 155 195 242 289
#
# _framework density 26.778027000000002
#
# number of rings (size 3 to 8) (size 9 to 14) (size 15 to 20)
#    0.000    2.000    2.500    4.500    0.000    0.000 
#    0.000    0.000    0.000    3.000    0.000   17.500 
#    0.000    0.000    0.000    0.000    0.000    0.000 
#
# Total GULP energy -89203.056507 kJ/mol
# GULP energy per Si atom -5575.191032 kJ/mol
# Density = 2.671708 g / cm^3
# Si number density = 26.778027 Si / 1000 Ang^3
#
#
#
# Elastic Constant Matrix: (Units=GPa)
#
#
# Indices 1 2 3 4 5 6 
#
# 1 106.0742 67.3234 13.7942 6.3066 15.1764 -27.0619
# 2 67.3234 128.0770 12.4400 13.5267 5.3671 -45.7885
# 3 13.7942 12.4400 92.4047 -1.2190 -0.8538 5.1153
# 4 6.3066 13.5267 -1.2190 31.4942 11.2912 4.9184
# 5 15.1764 5.3671 -0.8538 11.2912 34.7638 5.7995
# 6 -27.0619 -45.7885 5.1153 4.9184 5.7995 83.3191
#
#
#
# Elastic Compliance Matrix: (Units=1/GPa)
#
#
# Indices 1 2 3 4 5 6 
#
# 1 0.015527 -0.007505 -0.001413 0.002216 -0.006597 0.001334
# 2 -0.007505 0.014571 -0.001233 -0.006482 0.002121 0.005880
# 3 -0.001413 -0.001233 0.011333 0.001191 0.001028 -0.001974
# 4 0.002216 -0.006482 0.001191 0.039091 -0.011901 -0.004394
# 5 -0.006597 0.002121 0.001028 -0.011901 0.035679 -0.002821
# 6 0.001334 0.005880 -0.001974 -0.004394 -0.002821 0.016244
#
#
# Mechanical properties :
#
#
# Convention : Reuss Voigt Hill
#
# Bulk Modulus (GPa) = 47.32834 57.07455 52.20144
# Shear Modulus (GPa) = 31.29116 45.44864 38.36990
#
# Velocity S-wave (km/s) = 3.42210 4.12422 3.78946
# Velocity P-wave (km/s) = 5.77296 6.63620 6.21957
#
# Compressibility (1/GPa) = 0.02112899
#
# Stress axis : x y z
#
# Youngs Moduli (GPa) = 64.40457 68.63148 88.23544
#
# Poissons Ratio (x) = 0.51510 0.12468
# Poissons Ratio (y) = 0.48337 0.10876
# Poissons Ratio (z) = 0.09100 0.08460
#
# Static dielectric constant tensor:
#      x y z
#    x 2.118450 -0.020100 -0.111120 
#    y -0.020100 2.127420 -0.097570 
#    z -0.111120 -0.097570 2.347820 
# 
# From -- ./inp_files/258937.got.cif
#   From: 2010.05.17/outbox.cif.g08.bks.cpg/sg2_130_cif.got.tgz:258937.got - 2010.06.03 11:33:40.
