data_PCOD9088472
_publ_section_title
;
Structure prediction by ZEFSAII (Michael W. Deem and Ramdas Pophale) SiO2 
 PCOD9088472
Probable space group: P -1
;
_chemical_formula_sum "Si O2"
_cell_formula_units_Z 14
_cell_length_a 6.994313
_cell_length_b 13.204845
_cell_length_c 7.491138
_cell_angle_alpha 114.682052
_cell_angle_beta 88.477796
_cell_angle_gamma 63.828382
_cell_volume 545.044137
_symmetry_space_group_name_H-M "P -1"
_symmetry_group_IT_number 2
_symmetry_cell_setting 'triclinic'
loop_
_space_group_symop_operation_xyz
x,y,z
-x,-y,-z
loop_
_atom_site_type_symbol
_atom_site_label
_atom_site_fract_x
_atom_site_fract_y
_atom_site_fract_z
Si Si1 0.275798 0.576713 0.275086
Si Si2 0.797900 0.641740 0.271302
Si Si3 0.804436 0.851473 0.034622
Si Si4 0.720852 0.052232 0.905127
Si Si5 0.254022 0.104531 0.529405
Si Si6 0.115160 0.573475 0.649203
Si Si7 0.578606 0.303871 0.927729
O O1 0.236435 0.599907 0.503287
O O2 0.303145 0.680768 0.238343
O O3 0.060899 0.576357 0.194283
O O4 0.478844 0.435468 0.134729
O O5 0.747498 0.772548 0.471282
O O6 0.750236 0.539255 0.294244
O O7 0.636411 0.695812 0.147205
O O8 0.952057 0.708295 0.845745
O O9 0.823083 0.962315 0.007182
O O10 0.543698 0.898007 0.050322
O O11 0.856625 0.853628 0.243769
O O12 0.717878 0.184087 0.962695
O O13 0.823510 0.961833 0.661654
O O14 0.500000 0.000000 0.500000
O O15 0.000000 0.500000 0.500000
#
# Coordination Sequence:
#
# PCOD9088472 Si02
#       7
#     2   2   2   2   2   2   2
#     4  10  24  39  60  97 122 159 211 252 311 380
#     4  11  21  38  67  87 123 162 200 259 309 364
#     4  10  20  34  58  93 122 159 216 253 301 380
#     4  10  19  37  61  88 126 166 201 261 309 364
#     4  10  20  34  59  98 118 157 219 245 304 385
#     4  10  21  36  58  91 121 161 206 255 312 366
#     4  11  22  40  63  92 124 162 205 255 317 365
#
# _framework density 25.685993
#
# number of rings (size 3 to 8) (size 9 to 14) (size 15 to 20)
#    0.000    1.714    2.857    3.857    2.000    2.857 
#    0.000    2.857    0.000    1.714    0.000    0.000 
#    0.000    0.000    0.000    0.000    0.000    0.000 
#
# Total GULP energy -78323.076153 kJ/mol
# GULP energy per Si atom -5594.505439 kJ/mol
# Density = 2.562753 g / cm^3
# Si number density = 25.685993 Si / 1000 Ang^3
#
#
#
# Elastic Constant Matrix: (Units=GPa)
#
#
# Indices 1 2 3 4 5 6 
#
# 1 74.2448 44.0142 8.4285 -2.7621 0.5079 -0.5772
# 2 44.0142 248.4651 76.4735 5.0019 -20.2158 -5.7348
# 3 8.4285 76.4735 145.3423 -1.7978 -11.9789 0.7458
# 4 -2.7621 5.0019 -1.7978 49.3762 7.7213 -0.1952
# 5 0.5079 -20.2158 -11.9789 7.7213 26.9457 -6.1389
# 6 -0.5772 -5.7348 0.7458 -0.1952 -6.1389 42.7705
#
#
#
# Elastic Compliance Matrix: (Units=1/GPa)
#
#
# Indices 1 2 3 4 5 6 
#
# 1 0.015378 -0.003196 0.000561 0.001682 -0.003071 -0.000664
# 2 -0.003196 0.005757 -0.002541 -0.001471 0.003976 0.001337
# 3 0.000561 -0.002541 0.008325 0.000336 0.001632 -0.000242
# 4 0.001682 -0.001471 0.000336 0.021670 -0.007458 -0.001152
# 5 -0.003071 0.003976 0.001632 -0.007458 0.044570 0.006826
# 6 -0.000664 0.001337 -0.000242 -0.001152 0.006826 0.024530
#
#
# Mechanical properties :
#
#
# Convention : Reuss Voigt Hill
#
# Bulk Modulus (GPa) = 52.33514 80.65385 66.49449
# Shear Modulus (GPa) = 36.50934 46.42754 41.46844
#
# Velocity S-wave (km/s) = 3.77420 4.25609 4.02237
# Velocity P-wave (km/s) = 6.27790 7.45791 6.89320
#
# Compressibility (1/GPa) = 0.01910762
#
# Stress axis : x y z
#
# Youngs Moduli (GPa) = 65.02663 173.70450 120.12365
#
# Poissons Ratio (x) = 0.55514 -0.06737
# Poissons Ratio (y) = 0.20782 0.30525
# Poissons Ratio (z) = -0.03647 0.44140
#
# Static dielectric constant tensor:
#      x y z
#    x 2.130520 0.026090 -0.000860 
#    y 0.026090 2.026320 -0.037580 
#    z -0.000860 -0.037580 2.025550 
# 
# From -- ./inp_files/181203.got.cif
#   From: 2010.05.17/outbox.cif.g08.bks.cpg/sg2_91_cif.got.tgz:181203.got - 2010.06.03 11:33:40.
