data_PCOD9088188
_publ_section_title
;
Structure prediction by ZEFSAII (Michael W. Deem and Ramdas Pophale) SiO2 
 PCOD9088188
Probable space group: P -1
;
_chemical_formula_sum "Si O2"
_cell_formula_units_Z 14
_cell_length_a 10.342329
_cell_length_b 11.163270
_cell_length_c 13.379593
_cell_angle_alpha 30.811227
_cell_angle_beta 118.689121
_cell_angle_gamma 125.349762
_cell_volume 644.828557
_symmetry_space_group_name_H-M "P -1"
_symmetry_group_IT_number 2
_symmetry_cell_setting 'triclinic'
loop_
_space_group_symop_operation_xyz
x,y,z
-x,-y,-z
loop_
_atom_site_type_symbol
_atom_site_label
_atom_site_fract_x
_atom_site_fract_y
_atom_site_fract_z
Si Si1 0.375162 0.576374 0.779414
Si Si2 0.744328 0.251202 0.571262
Si Si3 0.473492 0.802979 0.873438
Si Si4 0.080620 0.265850 0.394474
Si Si5 0.181440 0.514033 0.061290
Si Si6 0.922076 0.796364 0.329524
Si Si7 0.075948 0.320361 0.959828
O O1 0.355489 0.756800 0.559315
O O2 0.429697 0.718873 0.802377
O O3 0.202179 0.359993 0.891264
O O4 0.485257 0.424740 0.900702
O O5 0.802963 0.536395 0.427619
O O6 0.901318 0.198496 0.636642
O O7 0.626633 0.056177 0.744834
O O8 0.313228 0.780853 0.887236
O O9 0.208646 0.422849 0.245932
O O10 0.111703 0.212955 0.557832
O O11 0.973700 0.438070 0.241169
O O12 0.000000 0.000000 0.500000
O O13 0.169455 0.334606 0.089570
O O14 0.000000 0.500000 0.000000
O O15 0.928487 0.058696 0.096191
#
# Coordination Sequence:
#
# PCOD9088188 Si02
#       7
#     2   2   2   2   2   2   2
#     4  10  20  36  62  92 124 162 198 268 315 363
#     4  11  23  39  59  94 131 167 205 250 314 381
#     4  10  21  39  61  90 128 156 208 259 318 363
#     4  11  21  37  64  91 120 161 214 257 304 365
#     4   9  20  38  61  90 117 155 205 265 301 358
#     4  11  23  37  62  92 130 168 207 251 309 377
#     4  10  19  37  59  92 125 154 207 260 309 356
#
# _framework density 21.711195
#
# number of rings (size 3 to 8) (size 9 to 14) (size 15 to 20)
#    0.000    1.714    4.286    0.429    0.000    1.714 
#    7.714    0.714    0.000    4.286    0.000    0.000 
#    0.000    0.000    0.000    0.000    0.000    0.000 
#
# Total GULP energy -78031.185584 kJ/mol
# GULP energy per Si atom -5573.656113 kJ/mol
# Density = 2.166178 g / cm^3
# Si number density = 21.711195 Si / 1000 Ang^3
#
#
#
# Elastic Constant Matrix: (Units=GPa)
#
#
# Indices 1 2 3 4 5 6 
#
# 1 81.0442 18.2974 36.7094 -10.3740 -24.9220 5.7379
# 2 18.2974 39.7318 15.4134 -21.9296 -5.0768 -3.1988
# 3 36.7094 15.4134 87.0443 -21.6779 -15.2928 8.8522
# 4 -10.3740 -21.9296 -21.6779 31.1474 2.3481 -5.7341
# 5 -24.9220 -5.0768 -15.2928 2.3481 41.5201 -2.7358
# 6 5.7379 -3.1988 8.8522 -5.7341 -2.7358 26.4707
#
#
#
# Elastic Compliance Matrix: (Units=1/GPa)
#
#
# Indices 1 2 3 4 5 6 
#
# 1 0.019118 -0.008455 -0.006016 -0.005020 0.008287 -0.003385
# 2 -0.008455 0.049555 0.002507 0.036513 0.000829 0.014978
# 3 -0.006016 0.002507 0.016868 0.011077 0.002189 -0.001408
# 4 -0.005020 0.036513 0.011077 0.066679 0.002850 0.016535
# 5 0.008287 0.000829 0.002189 0.002850 0.029890 0.001278
# 6 -0.003385 0.014978 -0.001408 0.016535 0.001278 0.044506
#
#
# Mechanical properties :
#
#
# Convention : Reuss Voigt Hill
#
# Bulk Modulus (GPa) = 16.23032 38.74008 27.48520
# Shear Modulus (GPa) = 18.44467 28.98766 23.71616
#
# Velocity S-wave (km/s) = 2.91786 3.65793 3.30865
# Velocity P-wave (km/s) = 4.34093 5.97685 5.22333
#
# Compressibility (1/GPa) = 0.06161306
#
# Stress axis : x y z
#
# Youngs Moduli (GPa) = 52.30692 20.17967 59.28405
#
# Poissons Ratio (x) = 0.17062 0.35663
# Poissons Ratio (y) = 0.44225 -0.14861
# Poissons Ratio (z) = 0.31465 -0.05058
#
# Static dielectric constant tensor:
#      x y z
#    x 1.882050 -0.004960 -0.005320 
#    y -0.004960 1.826250 0.003760 
#    z -0.005320 0.003760 1.850540 
# 
# From -- ./inp_files/424827.got.cif
#   From: 2010.05.17/outbox.cif.g08.bks.cpg/sg2_213_cif.got.tgz:424827.got - 2010.06.03 11:33:40.
