data_PCOD9088183
_publ_section_title
;
Structure prediction by ZEFSAII (Michael W. Deem and Ramdas Pophale) SiO2 
 PCOD9088183
Probable space group: P -1
;
_chemical_formula_sum "Si O2"
_cell_formula_units_Z 16
_cell_length_a 14.571199
_cell_length_b 11.135172
_cell_length_c 7.728447
_cell_angle_alpha 47.926502
_cell_angle_beta 100.790828
_cell_angle_gamma 129.728104
_cell_volume 648.915196
_symmetry_space_group_name_H-M "P -1"
_symmetry_group_IT_number 2
_symmetry_cell_setting 'triclinic'
loop_
_space_group_symop_operation_xyz
x,y,z
-x,-y,-z
loop_
_atom_site_type_symbol
_atom_site_label
_atom_site_fract_x
_atom_site_fract_y
_atom_site_fract_z
Si Si1 0.549086 0.682602 0.981668
Si Si2 0.431032 0.199508 0.769441
Si Si3 0.659096 0.242436 0.827864
Si Si4 0.092905 0.265568 0.623297
Si Si5 0.101707 0.434084 0.830718
Si Si6 0.840765 0.131836 0.669244
Si Si7 0.833340 0.004750 0.185522
Si Si8 0.381171 0.780718 0.780051
O O1 0.432538 0.668074 0.953740
O O2 0.694092 0.923821 0.747950
O O3 0.500000 0.500000 0.000000
O O4 0.557466 0.650327 0.220291
O O5 0.312179 0.118772 0.684020
O O6 0.376556 0.968030 0.075494
O O7 0.572105 0.289756 0.684467
O O8 0.632737 0.155921 0.099242
O O9 0.808147 0.474297 0.650899
O O10 0.098171 0.297444 0.804049
O O11 0.147550 0.163333 0.671045
O O12 0.947097 0.131823 0.638235
O O13 0.105114 0.622234 0.579981
O O14 0.241395 0.594747 0.819133
O O15 0.969935 0.240696 0.083667
O O16 0.837230 0.087779 0.914470
O O17 0.500000 0.000000 0.500000
#
# Coordination Sequence:
#
# PCOD9088183 Si02
#       8
#     2   2   2   2   2   2   2   2
#     4  10  21  36  63  92 127 160 196 253 309 361
#     4   9  20  40  64  85 123 160 205 246 299 359
#     4  10  22  42  64  88 125 161 203 255 305 367
#     4  11  22  36  64  91 123 163 201 254 311 360
#     4  11  21  37  66  90 122 159 213 252 296 361
#     4  10  19  37  59  91 122 164 206 252 297 357
#     4  10  21  36  60  96 121 158 205 252 302 370
#     4  11  24  41  63  95 118 161 210 255 306 362
#
# _framework density 24.656537
#
# number of rings (size 3 to 8) (size 9 to 14) (size 15 to 20)
#    0.000    1.750    1.250    5.250    8.750    0.500 
#    0.000    5.625    0.000    0.000    0.000    0.000 
#    0.000    0.000    0.000    0.000    0.000    0.000 
#
# Total GULP energy -89264.479585 kJ/mol
# GULP energy per Si atom -5579.029974 kJ/mol
# Density = 2.460042 g / cm^3
# Si number density = 24.656537 Si / 1000 Ang^3
#
#
#
# Elastic Constant Matrix: (Units=GPa)
#
#
# Indices 1 2 3 4 5 6 
#
# 1 144.0323 47.4547 -3.6638 -2.5111 13.9954 28.0043
# 2 47.4547 114.4184 10.3830 -18.6631 -3.9906 25.0705
# 3 -3.6638 10.3830 27.5681 -3.5838 -9.5389 4.0288
# 4 -2.5111 -18.6631 -3.5838 30.9781 3.4575 -2.2652
# 5 13.9954 -3.9906 -9.5389 3.4575 39.7872 -10.5953
# 6 28.0043 25.0705 4.0288 -2.2652 -10.5953 50.3106
#
#
#
# Elastic Compliance Matrix: (Units=1/GPa)
#
#
# Indices 1 2 3 4 5 6 
#
# 1 0.009399 -0.003314 0.001527 -0.000905 -0.004440 -0.004678
# 2 -0.003314 0.012316 -0.003711 0.006455 -0.000038 -0.003713
# 3 0.001527 -0.003711 0.041160 0.001649 0.008712 -0.000388
# 4 -0.000905 0.006455 0.001649 0.036416 -0.002251 -0.001679
# 5 -0.004440 -0.000038 0.008712 -0.002251 0.031174 0.008257
# 6 -0.004678 -0.003713 -0.000388 -0.001679 0.008257 0.026025
#
#
# Mechanical properties :
#
#
# Convention : Reuss Voigt Hill
#
# Bulk Modulus (GPa) = 19.27527 43.81852 31.54690
# Shear Modulus (GPa) = 27.05948 39.67151 33.36550
#
# Velocity S-wave (km/s) = 3.31638 4.01554 3.68259
# Velocity P-wave (km/s) = 4.74331 6.26974 5.55916
#
# Compressibility (1/GPa) = 0.05187994
#
# Stress axis : x y z
#
# Youngs Moduli (GPa) = 106.39625 81.19407 24.29551
#
# Poissons Ratio (x) = 0.26908 -0.03710
# Poissons Ratio (y) = 0.35261 0.09015
# Poissons Ratio (z) = -0.16249 0.30128
#
# Static dielectric constant tensor:
#      x y z
#    x 2.187710 -0.407940 -0.026060 
#    y -0.407940 3.201820 -0.014290 
#    z -0.026060 -0.014290 2.080970 
# 
# From -- ./inp_files/272955.got.cif
#   From: 2010.05.17/outbox.cif.g08.bks.cpg/sg2_137_cif.got.tgz:272955.got - 2010.06.03 11:33:40.
