data_PCOD9088283
_publ_section_title
;
Structure prediction by ZEFSAII (Michael W. Deem and Ramdas Pophale) SiO2 
 PCOD9088283
Probable space group: P -1
;
_chemical_formula_sum "Si O2"
_cell_formula_units_Z 14
_cell_length_a 12.505995
_cell_length_b 8.760918
_cell_length_c 10.071668
_cell_angle_alpha 73.195189
_cell_angle_beta 43.881630
_cell_angle_gamma 52.480936
_cell_volume 583.715768
_symmetry_space_group_name_H-M "P -1"
_symmetry_group_IT_number 2
_symmetry_cell_setting 'triclinic'
loop_
_space_group_symop_operation_xyz
x,y,z
-x,-y,-z
loop_
_atom_site_type_symbol
_atom_site_label
_atom_site_fract_x
_atom_site_fract_y
_atom_site_fract_z
Si Si1 0.600978 0.952183 0.064219
Si Si2 0.862169 0.056473 0.918902
Si Si3 0.283680 0.321336 0.410125
Si Si4 0.440995 0.338608 0.731374
Si Si5 0.934866 0.358147 0.699660
Si Si6 0.599419 0.271133 0.322341
Si Si7 0.147369 0.954758 0.492969
O O1 0.687797 0.725465 0.082895
O O2 0.744361 0.011189 0.939677
O O3 0.439162 0.092594 0.284413
O O4 0.500000 0.000000 0.000000
O O5 0.782212 0.075037 0.133425
O O6 0.829062 0.268837 0.876488
O O7 0.078751 0.911620 0.703215
O O8 0.210909 0.452334 0.307606
O O9 0.411480 0.361603 0.373287
O O10 0.086768 0.374386 0.638956
O O11 0.528412 0.246839 0.531327
O O12 0.360319 0.566000 0.739386
O O13 0.631241 0.219407 0.685063
O O14 0.090955 0.173730 0.509565
O O15 0.000000 0.000000 0.500000
#
# Coordination Sequence:
#
# PCOD9088283 Si02
#       7
#     2   2   2   2   2   2   2
#     4  11  22  34  59  93 116 152 194 253 292 348
#     4   9  22  37  59  89 115 158 195 246 298 336
#     4  10  20  37  60  86 117 159 192 238 301 353
#     4  11  23  42  60  84 123 158 201 238 302 353
#     4   9  20  36  57  90 115 154 193 242 299 345
#     4  10  24  41  60  84 118 168 195 241 291 364
#     4  10  19  37  60  87 117 153 191 251 288 346
#
# _framework density 23.984273999999999
#
# number of rings (size 3 to 8) (size 9 to 14) (size 15 to 20)
#    0.857    1.143    1.429    1.714    4.000    4.000 
#    0.000    0.000    0.000    3.429    0.000    0.000 
#    0.000    0.000    0.000    0.000    0.000    0.000 
#
# Total GULP energy -77989.811366 kJ/mol
# GULP energy per Si atom -5570.700812 kJ/mol
# Density = 2.392968 g / cm^3
# Si number density = 23.984274 Si / 1000 Ang^3
#
#
#
# Elastic Constant Matrix: (Units=GPa)
#
#
# Indices 1 2 3 4 5 6 
#
# 1 71.1671 4.5735 34.8177 -4.0817 -16.2265 11.8469
# 2 4.5735 64.4413 19.0078 -20.0004 -7.5676 5.0142
# 3 34.8177 19.0078 89.7668 -13.4769 -9.4026 21.5460
# 4 -4.0817 -20.0004 -13.4769 32.1659 3.6723 -9.2765
# 5 -16.2265 -7.5676 -9.4026 3.6723 30.1884 -2.1594
# 6 11.8469 5.0142 21.5460 -9.2765 -2.1594 29.4259
#
#
#
# Elastic Compliance Matrix: (Units=1/GPa)
#
#
# Indices 1 2 3 4 5 6 
#
# 1 0.019545 0.001385 -0.006377 -0.001253 0.008791 -0.003185
# 2 0.001385 0.020234 -0.003255 0.011655 0.003551 0.002313
# 3 -0.006377 -0.003255 0.016605 0.001658 0.000118 -0.008505
# 4 -0.001253 0.011655 0.001658 0.042068 -0.001605 0.010449
# 5 0.008791 0.003551 0.000118 -0.001605 0.038838 -0.001887
# 6 -0.003185 0.002313 -0.008505 0.010449 -0.001887 0.044255
#
#
# Mechanical properties :
#
#
# Convention : Reuss Voigt Hill
#
# Bulk Modulus (GPa) = 25.06831 38.01923 31.54377
# Shear Modulus (GPa) = 23.65899 29.48781 26.57340
#
# Velocity S-wave (km/s) = 3.14417 3.51018 3.33220
# Velocity P-wave (km/s) = 4.86372 5.68459 5.29010
#
# Compressibility (1/GPa) = 0.03989100
#
# Stress axis : x y z
#
# Youngs Moduli (GPa) = 51.16366 49.42145 60.22140
#
# Poissons Ratio (x) = -0.06846 0.38403
# Poissons Ratio (y) = -0.07088 0.19603
# Poissons Ratio (z) = 0.32627 0.16088
#
# Static dielectric constant tensor:
#      x y z
#    x 2.054890 0.060060 -0.063840 
#    y 0.060060 1.908960 -0.015030 
#    z -0.063840 -0.015030 2.023730 
# 
# From -- ./inp_files/242858.got.cif
#   From: 2010.05.17/outbox.cif.g08.bks.cpg/sg2_122_cif.got.tgz:242858.got - 2010.06.03 11:33:40.
