data_PCOD9088926
_publ_section_title
;
Structure prediction by ZEFSAII (Michael W. Deem and Ramdas Pophale) SiO2 
 PCOD9088926
Probable space group: P -1
;
_chemical_formula_sum "Si O2"
_cell_formula_units_Z 12
_cell_length_a 16.120299
_cell_length_b 9.417793
_cell_length_c 12.568134
_cell_angle_alpha 114.181073
_cell_angle_beta 153.243572
_cell_angle_gamma 47.250677
_cell_volume 507.287037
_symmetry_space_group_name_H-M "P -1"
_symmetry_group_IT_number 2
_symmetry_cell_setting 'triclinic'
loop_
_space_group_symop_operation_xyz
x,y,z
-x,-y,-z
loop_
_atom_site_type_symbol
_atom_site_label
_atom_site_fract_x
_atom_site_fract_y
_atom_site_fract_z
Si Si1 0.712683 0.660057 0.609837
Si Si2 0.154788 0.624943 0.136858
Si Si3 0.134966 0.948596 0.918004
Si Si4 0.314872 0.524199 0.054731
Si Si5 0.084305 0.741524 0.416103
Si Si6 0.186619 0.285670 0.737942
O O1 0.690386 0.607758 0.687557
O O2 0.430633 0.813971 0.266860
O O3 0.927483 0.401119 0.719159
O O4 0.851802 0.739498 0.794293
O O5 0.309106 0.564701 0.185905
O O6 0.091858 0.813257 0.196632
O O7 0.096183 0.789698 0.836611
O O8 0.130814 0.000572 0.806326
O O9 0.610139 0.376234 0.289023
O O10 0.243959 0.391805 0.916279
O O11 0.010460 0.722188 0.439619
O O12 0.000000 0.500000 0.500000
O O13 0.500000 0.000000 0.000000
#
# Coordination Sequence:
#
# PCOD9088926 Si02
#       6
#     2   2   2   2   2   2
#     4   9  19  37  64 101 149 186 237 278 348 439
#     4  10  19  37  64 106 146 192 230 280 355 435
#     4  10  22  38  68 107 145 189 229 290 353 442
#     4  11  25  44  72 103 146 185 242 297 364 429
#     4  10  24  46  69 104 143 184 237 301 363 431
#     4  12  31  54  80 105 138 190 251 311 373 427
#
# _framework density 23.655246000000002
#
# number of rings (size 3 to 8) (size 9 to 14) (size 15 to 20)
#    0.000    1.667    1.667    1.000    7.000    8.667 
#    0.000    0.000    0.000    0.000    0.000    0.000 
#    0.000    0.000    0.000    0.000    0.000    0.000 
#
# Total GULP energy -66968.465917 kJ/mol
# GULP energy per Si atom -5580.705493 kJ/mol
# Density = 2.360141 g / cm^3
# Si number density = 23.655246 Si / 1000 Ang^3
#
#
#
# Elastic Constant Matrix: (Units=GPa)
#
#
# Indices 1 2 3 4 5 6 
#
# 1 163.2876 15.3878 45.7680 -24.7953 3.6458 30.4451
# 2 15.3878 100.9628 12.2833 -6.4270 3.1326 16.8436
# 3 45.7680 12.2833 68.3756 -17.1161 2.4430 15.4378
# 4 -24.7953 -6.4270 -17.1161 31.1982 15.1494 -5.4107
# 5 3.6458 3.1326 2.4430 15.1494 33.3437 1.8246
# 6 30.4451 16.8436 15.4378 -5.4107 1.8246 22.6830
#
#
#
# Elastic Compliance Matrix: (Units=1/GPa)
#
#
# Indices 1 2 3 4 5 6 
#
# 1 0.009710 0.001053 -0.002698 0.006257 -0.003246 -0.010225
# 2 0.001053 0.011496 -0.000002 0.002493 -0.001824 -0.009207
# 3 -0.002698 -0.000002 0.021102 0.010914 -0.005790 -0.007670
# 4 0.006257 0.002493 0.010914 0.056397 -0.027230 -0.002034
# 5 -0.003246 -0.001824 -0.005790 -0.027230 0.043331 -0.000329
# 6 -0.010225 -0.009207 -0.007670 -0.002034 -0.000329 0.069408
#
#
# Mechanical properties :
#
#
# Convention : Reuss Voigt Hill
#
# Bulk Modulus (GPa) = 25.63167 53.27823 39.45495
# Shear Modulus (GPa) = 21.95461 34.72411 28.33936
#
# Velocity S-wave (km/s) = 3.04979 3.83551 3.46499
# Velocity P-wave (km/s) = 4.82293 6.49511 5.72045
#
# Compressibility (1/GPa) = 0.03901423
#
# Stress axis : x y z
#
# Youngs Moduli (GPa) = 102.98373 86.98926 47.38917
#
# Poissons Ratio (x) = -0.09162 0.12785
# Poissons Ratio (y) = -0.10846 0.00010
# Poissons Ratio (z) = 0.27784 0.00019
#
# Static dielectric constant tensor:
#      x y z
#    x 1.922290 0.001470 -0.020590 
#    y 0.001470 1.943490 -0.072780 
#    z -0.020590 -0.072780 1.962960 
# 
# From -- ./inp_files/31467.got.cif
#   From: 2010.05.17/outbox.cif.g08.bks.cpg/sg2_16_cif.got.tgz:31467.got - 2010.06.03 11:33:40.
