data_PCOD9088294
_publ_section_title
;
Structure prediction by ZEFSAII (Michael W. Deem and Ramdas Pophale) SiO2 
 PCOD9088294
Probable space group: P -1
;
_chemical_formula_sum "Si O2"
_cell_formula_units_Z 13
_cell_length_a 12.257292
_cell_length_b 8.750912
_cell_length_c 13.371593
_cell_angle_alpha 149.960543
_cell_angle_beta 122.192365
_cell_angle_gamma 76.027341
_cell_volume 519.476130
_symmetry_space_group_name_H-M "P -1"
_symmetry_group_IT_number 2
_symmetry_cell_setting 'triclinic'
loop_
_space_group_symop_operation_xyz
x,y,z
-x,-y,-z
loop_
_atom_site_type_symbol
_atom_site_label
_atom_site_fract_x
_atom_site_fract_y
_atom_site_fract_z
Si Si1 0.048853 0.912975 0.743295
Si Si2 0.329095 0.033075 0.629969
Si Si3 0.777646 0.954581 0.906049
Si Si4 0.953063 0.245964 0.561920
Si Si5 0.500000 0.000000 0.500000
Si Si6 0.727798 0.765555 0.556766
Si Si7 0.419123 0.744842 0.972989
O O1 0.165603 0.121857 0.006741
O O2 0.115060 0.972536 0.698641
O O3 0.000000 0.500000 0.500000
O O4 0.896722 0.928151 0.686215
O O5 0.421685 0.968863 0.554175
O O6 0.324472 0.376718 0.782485
O O7 0.163053 0.737224 0.411145
O O8 0.418318 0.125384 0.830504
O O9 0.633119 0.981377 0.874831
O O10 0.911467 0.355793 0.168574
O O11 0.746332 0.728625 0.662688
O O12 0.000000 0.000000 0.500000
O O13 0.356979 0.020891 0.388049
O O14 0.620800 0.390658 0.236299
#
# Coordination Sequence:
#
# PCOD9088294 Si02
#       7
#     2   2   2   2   1   2   2
#     4  10  21  39  64  89 126 169 204 253 316 373
#     4  10  20  36  60  91 126 161 204 258 309 364
#     4  11  21  39  65  92 125 164 208 253 314 374
#     4  11  20  38  64  94 126 159 211 264 308 358
#     4  10  20  34  60  92 122 156 206 252 306 362
#     4  11  20  37  64  93 117 166 215 248 301 379
#     4  10  19  37  60  87 122 166 202 248 308 376
#
# _framework density 25.025210000000001
#
# number of rings (size 3 to 8) (size 9 to 14) (size 15 to 20)
#    0.000    1.538    6.154    1.385    0.000    0.000 
#    0.000   12.308    0.000    4.615    0.000    0.000 
#    0.000    0.000    0.000    0.000    0.000    0.000 
#
# Total GULP energy -72416.998608 kJ/mol
# GULP energy per Si atom -5570.538354 kJ/mol
# Density = 2.496825 g / cm^3
# Si number density = 25.025210 Si / 1000 Ang^3
#
#
#
# Elastic Constant Matrix: (Units=GPa)
#
#
# Indices 1 2 3 4 5 6 
#
# 1 164.4933 38.9597 21.4271 -18.5031 -17.3857 -7.3395
# 2 38.9597 89.3641 46.8942 -29.3880 -3.4260 -6.0465
# 3 21.4271 46.8942 83.1753 -39.4260 -29.2704 12.8685
# 4 -18.5031 -29.3880 -39.4260 45.9071 6.4267 -1.5824
# 5 -17.3857 -3.4260 -29.2704 6.4267 32.1336 -11.7367
# 6 -7.3395 -6.0465 12.8685 -1.5824 -11.7367 28.4949
#
#
#
# Elastic Compliance Matrix: (Units=1/GPa)
#
#
# Indices 1 2 3 4 5 6 
#
# 1 0.007805 -0.004049 0.004060 0.003031 0.007881 0.002732
# 2 -0.004049 0.021483 -0.016484 -0.000044 -0.012836 0.005670
# 3 0.004060 -0.016484 0.045097 0.024822 0.033809 -0.007514
# 4 0.003031 -0.000044 0.024822 0.042110 0.015143 -0.001862
# 5 0.007881 -0.012836 0.033809 0.015143 0.066223 0.012155
# 6 0.002732 0.005670 -0.007514 -0.001862 0.012155 0.045298
#
#
# Mechanical properties :
#
#
# Convention : Reuss Voigt Hill
#
# Bulk Modulus (GPa) = 24.13270 61.28831 42.71051
# Shear Modulus (GPa) = 18.19670 36.62389 27.41029
#
# Velocity S-wave (km/s) = 2.69947 3.82970 3.31313
# Velocity P-wave (km/s) = 4.40233 6.64072 5.63381
#
# Compressibility (1/GPa) = 0.04143755
#
# Stress axis : x y z
#
# Youngs Moduli (GPa) = 128.11659 46.54898 22.17461
#
# Poissons Ratio (x) = 0.18850 -0.09003
# Poissons Ratio (y) = 0.51881 0.36553
# Poissons Ratio (z) = -0.52015 0.76732
#
# Static dielectric constant tensor:
#      x y z
#    x 3.381690 -0.667150 -0.982390 
#    y -0.667150 2.311490 0.474600 
#    z -0.982390 0.474600 2.698810 
# 
# From -- ./inp_files/327473.got.cif
#   From: 2010.05.17/outbox.cif.g08.bks.cpg/sg2_164_cif.got.tgz:327473.got - 2010.06.03 11:33:40.
