data_PCOD9088718
_publ_section_title
;
Structure prediction by ZEFSAII (Michael W. Deem and Ramdas Pophale) SiO2 
 PCOD9088718
Probable space group: P -1
;
_chemical_formula_sum "Si O2"
_cell_formula_units_Z 15
_cell_length_a 5.354000
_cell_length_b 14.675633
_cell_length_c 13.835789
_cell_angle_alpha 140.815718
_cell_angle_beta 81.774974
_cell_angle_gamma 106.900611
_cell_volume 651.082914
_symmetry_space_group_name_H-M "P -1"
_symmetry_group_IT_number 2
_symmetry_cell_setting 'triclinic'
loop_
_space_group_symop_operation_xyz
x,y,z
-x,-y,-z
loop_
_atom_site_type_symbol
_atom_site_label
_atom_site_fract_x
_atom_site_fract_y
_atom_site_fract_z
Si Si1 0.750602 0.235349 0.144301
Si Si2 0.495401 0.655489 0.227086
Si Si3 0.853683 0.842506 0.049327
Si Si4 0.945713 0.876037 0.279492
Si Si5 0.000000 0.500000 0.000000
Si Si6 0.651983 0.405965 0.119775
Si Si7 0.522474 0.061552 0.420429
Si Si8 0.404940 0.933424 0.803193
O O1 0.704733 0.374149 0.202118
O O2 0.659357 0.205645 0.234370
O O3 0.052163 0.241549 0.111998
O O4 0.603067 0.076370 0.965762
O O5 0.793099 0.723949 0.219970
O O6 0.516737 0.534237 0.205287
O O7 0.422906 0.789437 0.396422
O O8 0.299089 0.594118 0.099811
O O9 0.011790 0.844435 0.140127
O O10 0.850614 0.005923 0.148610
O O11 0.561239 0.751237 0.024241
O O12 0.739581 0.974363 0.358785
O O13 0.223967 0.963441 0.381214
O O14 0.089074 0.549953 0.923480
O O15 0.520481 0.096068 0.334203
#
# Coordination Sequence:
#
# PCOD9088718 Si02
#       8
#     2   2   2   2   1   2   2   2
#     4  10  19  38  63  95 132 166 220 276 332 388
#     4  12  27  41  66  93 135 181 221 273 332 403
#     4  10  19  37  62  96 131 169 219 276 328 392
#     4  11  24  42  68  98 137 177 220 274 339 398
#     4  12  26  42  64  90 132 178 224 268 332 388
#     4  11  25  38  61  94 129 173 222 271 329 399
#     4  11  25  45  66 102 135 177 224 276 334 404
#     4   9  20  36  65  96 128 171 216 278 333 385
#
# _framework density 23.038540999999999
#
# number of rings (size 3 to 8) (size 9 to 14) (size 15 to 20)
#    0.000    1.333    2.667    2.400    5.600    0.000 
#    0.000    0.667    0.000    3.200    0.000    0.000 
#    0.000    0.000    0.000    0.000    0.000    0.000 
#
# Total GULP energy -83608.310713 kJ/mol
# GULP energy per Si atom -5573.887381 kJ/mol
# Density = 2.298610 g / cm^3
# Si number density = 23.038541 Si / 1000 Ang^3
#
#
#
# Elastic Constant Matrix: (Units=GPa)
#
#
# Indices 1 2 3 4 5 6 
#
# 1 89.0634 44.5778 17.5857 6.6017 -2.2153 1.3982
# 2 44.5778 200.9744 31.7803 -12.5242 0.0302 -25.3326
# 3 17.5857 31.7803 57.7364 -4.3876 2.6890 -3.9987
# 4 6.6017 -12.5242 -4.3876 32.8147 -6.1126 -4.9026
# 5 -2.2153 0.0302 2.6890 -6.1126 13.1960 1.5981
# 6 1.3982 -25.3326 -3.9987 -4.9026 1.5981 33.3593
#
#
#
# Elastic Compliance Matrix: (Units=1/GPa)
#
#
# Indices 1 2 3 4 5 6 
#
# 1 0.014061 -0.003497 -0.003101 -0.005011 0.001213 -0.004411
# 2 -0.003497 0.007091 -0.002165 0.004192 0.001073 0.005836
# 3 -0.003101 -0.002165 0.019875 0.001942 -0.003828 0.001337
# 4 -0.005011 0.004192 0.001942 0.037403 0.015062 0.008402
# 5 0.001213 0.001073 -0.003828 0.015062 0.083921 -0.001502
# 6 -0.004411 0.005836 0.001337 0.008402 -0.001502 0.036060
#
#
# Mechanical properties :
#
#
# Convention : Reuss Voigt Hill
#
# Bulk Modulus (GPa) = 42.55154 59.51797 51.03475
# Shear Modulus (GPa) = 22.34436 32.79601 27.57019
#
# Velocity S-wave (km/s) = 3.11765 3.77706 3.46309
# Velocity P-wave (km/s) = 5.60977 6.70162 6.17986
#
# Compressibility (1/GPa) = 0.02350091
#
# Stress axis : x y z
#
# Youngs Moduli (GPa) = 71.11630 141.03342 50.31537
#
# Poissons Ratio (x) = 0.49321 0.15602
# Poissons Ratio (y) = 0.24870 0.10893
# Poissons Ratio (z) = 0.22052 0.30532
#
# Static dielectric constant tensor:
#      x y z
#    x 1.640660 0.135810 0.435550 
#    y 0.135810 1.829840 -0.138200 
#    z 0.435550 -0.138200 1.255770 
# 
# From -- ./inp_files/484462.got.cif
#   From: 2010.05.17/outbox.cif.g08.bks.cpg/sg2_243_cif.got.tgz:484462.got - 2010.06.03 11:33:40.
