data_PCOD9088386
_publ_section_title
;
Structure prediction by ZEFSAII (Michael W. Deem and Ramdas Pophale) SiO2 
 PCOD9088386
Probable space group: P -1
;
_chemical_formula_sum "Si O2"
_cell_formula_units_Z 12
_cell_length_a 9.684909
_cell_length_b 9.177305
_cell_length_c 10.705551
_cell_angle_alpha 95.687673
_cell_angle_beta 123.676113
_cell_angle_gamma 48.416817
_cell_volume 534.169022
_symmetry_space_group_name_H-M "P -1"
_symmetry_group_IT_number 2
_symmetry_cell_setting 'triclinic'
loop_
_space_group_symop_operation_xyz
x,y,z
-x,-y,-z
loop_
_atom_site_type_symbol
_atom_site_label
_atom_site_fract_x
_atom_site_fract_y
_atom_site_fract_z
Si Si1 0.649946 0.497680 0.175290
Si Si2 0.733375 0.862869 0.362999
Si Si3 0.865269 0.451045 0.865705
Si Si4 0.320127 0.954801 0.032335
Si Si5 0.906204 0.573385 0.637974
Si Si6 0.650060 0.207294 0.242806
O O1 0.766885 0.292043 0.297162
O O2 0.862671 0.465696 0.226114
O O3 0.500000 0.500000 0.000000
O O4 0.442449 0.738689 0.149525
O O5 0.717493 0.794267 0.483405
O O6 0.973263 0.631462 0.404377
O O7 0.741704 0.031031 0.374281
O O8 0.505125 0.963027 0.168746
O O9 0.811431 0.550378 0.709230
O O10 0.624483 0.577975 0.833835
O O11 0.050467 0.193492 0.936071
O O12 0.000000 0.500000 0.000000
O O13 0.336014 0.888330 0.891222
#
# Coordination Sequence:
#
# PCOD9088386 Si02
#       6
#     2   2   2   2   2   2
#     4   9  20  36  59  85 117 151 190 235 290 341
#     4  10  19  37  61  82 117 156 188 239 286 336
#     4  12  21  34  64  91 108 149 205 234 282 342
#     4  10  20  39  60  86 119 149 193 243 279 338
#     4  10  22  37  60  87 114 155 192 234 294 338
#     4  11  21  36  62  89 115 153 193 238 286 341
#
# _framework density 22.464797999999998
#
# number of rings (size 3 to 8) (size 9 to 14) (size 15 to 20)
#    0.000    1.667    3.333    3.500    0.000    2.000 
#    0.000    0.000    0.000    9.000    0.000    0.000 
#    0.000    0.000    0.000    0.000    0.000    0.000 
#
# Total GULP energy -66890.091997 kJ/mol
# GULP energy per Si atom -5574.174333 kJ/mol
# Density = 2.241367 g / cm^3
# Si number density = 22.464798 Si / 1000 Ang^3
#
#
#
# Elastic Constant Matrix: (Units=GPa)
#
#
# Indices 1 2 3 4 5 6 
#
# 1 51.1669 41.4066 17.1451 -10.5641 -0.6758 8.5494
# 2 41.4066 135.6633 37.7549 -31.1058 -2.2030 10.2415
# 3 17.1451 37.7549 76.5974 -17.0900 -3.6255 -3.5020
# 4 -10.5641 -31.1058 -17.0900 33.4700 8.0796 -7.7946
# 5 -0.6758 -2.2030 -3.6255 8.0796 26.7854 -1.7310
# 6 8.5494 10.2415 -3.5020 -7.7946 -1.7310 48.7382
#
#
#
# Elastic Compliance Matrix: (Units=1/GPa)
#
#
# Indices 1 2 3 4 5 6 
#
# 1 0.026819 -0.007271 -0.002677 -0.000365 -0.000396 -0.003441
# 2 -0.007271 0.012174 -0.002678 0.008074 -0.001997 -0.000255
# 3 -0.002677 -0.002678 0.016402 0.005669 0.000425 0.003132
# 4 -0.000365 0.008074 0.005669 0.044218 -0.011565 0.005436
# 5 -0.000396 -0.001997 0.000425 -0.011565 0.040713 0.000116
# 6 -0.003441 -0.000255 0.003132 0.005436 0.000116 0.022273
#
#
# Mechanical properties :
#
#
# Convention : Reuss Voigt Hill
#
# Bulk Modulus (GPa) = 33.17338 50.67118 41.92228
# Shear Modulus (GPa) = 25.26539 32.94012 29.10275
#
# Velocity S-wave (km/s) = 3.35724 3.83338 3.60319
# Velocity P-wave (km/s) = 5.46141 6.49599 6.00104
#
# Compressibility (1/GPa) = 0.03014465
#
# Stress axis : x y z
#
# Youngs Moduli (GPa) = 37.28656 82.14376 60.96709
#
# Poissons Ratio (x) = 0.59728 0.16319
# Poissons Ratio (y) = 0.27112 0.16324
# Poissons Ratio (z) = 0.09980 0.21995
#
# Static dielectric constant tensor:
#      x y z
#    x 1.925490 0.037830 -0.099130 
#    y 0.037830 1.831390 -0.026330 
#    z -0.099130 -0.026330 1.958260 
# 
# From -- ./inp_files/173780.got.cif
#   From: 2010.05.17/outbox.cif.g08.bks.cpg/sg2_87_cif.got.tgz:173780.got - 2010.06.03 11:33:40.
