data_PCOD9088319
_publ_section_title
;
Structure prediction by ZEFSAII (Michael W. Deem and Ramdas Pophale) SiO2 
 PCOD9088319
Probable space group: P -1
;
_chemical_formula_sum "Si O2"
_cell_formula_units_Z 16
_cell_length_a 15.525870
_cell_length_b 9.655565
_cell_length_c 9.554754
_cell_angle_alpha 111.497949
_cell_angle_beta 83.866934
_cell_angle_gamma 141.157646
_cell_volume 795.743657
_symmetry_space_group_name_H-M "P -1"
_symmetry_group_IT_number 2
_symmetry_cell_setting 'triclinic'
loop_
_space_group_symop_operation_xyz
x,y,z
-x,-y,-z
loop_
_atom_site_type_symbol
_atom_site_label
_atom_site_fract_x
_atom_site_fract_y
_atom_site_fract_z
Si Si1 0.035717 0.558609 0.811181
Si Si2 0.633050 0.621786 0.824881
Si Si3 0.581805 0.215068 0.678358
Si Si4 0.692040 0.098308 0.254033
Si Si5 0.325487 0.278470 0.823840
Si Si6 0.080193 0.852747 0.152941
Si Si7 0.958750 0.979092 0.339362
Si Si8 0.139767 0.501319 0.382696
O O1 0.937847 0.283698 0.764410
O O2 0.980088 0.553460 0.676380
O O3 0.203718 0.743482 0.838539
O O4 0.026342 0.677130 0.969545
O O5 0.597571 0.407983 0.696477
O O6 0.486693 0.516801 0.823197
O O7 0.759091 0.871859 0.808293
O O8 0.683136 0.672414 0.997324
O O9 0.743722 0.375461 0.713790
O O10 0.500000 0.000000 0.500000
O O11 0.474313 0.077357 0.779122
O O12 0.772679 0.302353 0.435095
O O13 0.692413 0.924319 0.229747
O O14 0.202368 0.180916 0.714519
O O15 0.984628 0.865574 0.203781
O O16 0.000000 0.000000 0.500000
O O17 0.064482 0.250003 0.359413
#
# Coordination Sequence:
#
# PCOD9088319 Si02
#       8
#     2   2   2   2   2   2   2   2
#     4  11  23  39  61  90 122 167 205 250 312 371
#     4  10  19  41  65  92 126 158 211 256 307 373
#     4   9  20  35  60  95 119 153 204 257 305 365
#     4  10  19  37  60  89 119 158 209 246 302 373
#     4  10  22  37  66  94 120 166 206 254 312 368
#     4  11  24  40  59  91 130 159 203 262 310 366
#     4  12  25  40  60  94 128 161 209 261 312 361
#     4  11  21  37  64  88 120 165 209 251 308 369
#
# _framework density 20.106978000000002
#
# number of rings (size 3 to 8) (size 9 to 14) (size 15 to 20)
#    0.000    1.500    3.750    1.125    3.500    1.000 
#    0.000    5.625    0.000    3.000    0.000    0.000 
#    0.000    0.000    0.000    0.000    0.000    0.000 
#
# Total GULP energy -89265.152145 kJ/mol
# GULP energy per Si atom -5579.072009 kJ/mol
# Density = 2.006121 g / cm^3
# Si number density = 20.106978 Si / 1000 Ang^3
#
#
#
# Elastic Constant Matrix: (Units=GPa)
#
#
# Indices 1 2 3 4 5 6 
#
# 1 79.2928 49.3745 34.6795 -1.2355 -7.3418 18.3005
# 2 49.3745 116.4907 8.7076 4.6314 -3.5575 1.0008
# 3 34.6795 8.7076 43.0579 7.5123 -7.9413 -8.3185
# 4 -1.2355 4.6314 7.5123 25.8531 -0.9685 -13.0470
# 5 -7.3418 -3.5575 -7.9413 -0.9685 30.5926 7.0008
# 6 18.3005 1.0008 -8.3185 -13.0470 7.0008 40.9008
#
#
#
# Elastic Compliance Matrix: (Units=1/GPa)
#
#
# Indices 1 2 3 4 5 6 
#
# 1 0.048736 -0.017257 -0.040860 0.002400 0.006014 -0.029958
# 2 -0.017257 0.014916 0.012905 -0.002559 -0.001286 0.009385
# 3 -0.040860 0.012905 0.060374 -0.007846 0.000801 0.027606
# 4 0.002400 -0.002559 -0.007846 0.048125 -0.003280 0.013306
# 5 0.006014 -0.001286 0.000801 -0.003280 0.036319 -0.009759
# 6 -0.029958 0.009385 0.027606 0.013306 -0.009759 0.049154
#
#
# Mechanical properties :
#
#
# Convention : Reuss Voigt Hill
#
# Bulk Modulus (GPa) = 29.76030 47.15160 38.45595
# Shear Modulus (GPa) = 13.91791 29.20795 21.56293
#
# Velocity S-wave (km/s) = 2.63381 3.81547 3.27832
# Velocity P-wave (km/s) = 4.90738 6.55070 5.78766
#
# Compressibility (1/GPa) = 0.03360181
#
# Stress axis : x y z
#
# Youngs Moduli (GPa) = 20.51859 67.04251 16.56334
#
# Poissons Ratio (x) = 1.15695 0.67678
# Poissons Ratio (y) = 0.35409 -0.21375
# Poissons Ratio (z) = 0.83840 -0.86518
#
# Static dielectric constant tensor:
#      x y z
#    x 1.706380 0.038520 -0.039630 
#    y 0.038520 1.746080 -0.023210 
#    z -0.039630 -0.023210 1.728180 
# 
# From -- ./inp_files/205196.got.cif
#   From: 2010.05.17/outbox.cif.g08.bks.cpg/sg2_103_cif.got.tgz:205196.got - 2010.06.03 11:33:40.
