data_PCOD9088120
_publ_section_title
;
Structure prediction by ZEFSAII (Michael W. Deem and Ramdas Pophale) SiO2 
 PCOD9088120
Probable space group: P -1
;
_chemical_formula_sum "Si O2"
_cell_formula_units_Z 15
_cell_length_a 6.979346
_cell_length_b 20.598840
_cell_length_c 19.255197
_cell_angle_alpha 22.863076
_cell_angle_beta 133.416573
_cell_angle_gamma 142.467104
_cell_volume 644.131821
_symmetry_space_group_name_H-M "P -1"
_symmetry_group_IT_number 2
_symmetry_cell_setting 'triclinic'
loop_
_space_group_symop_operation_xyz
x,y,z
-x,-y,-z
loop_
_atom_site_type_symbol
_atom_site_label
_atom_site_fract_x
_atom_site_fract_y
_atom_site_fract_z
Si Si1 0.440719 0.613181 0.978107
Si Si2 0.028475 0.678926 0.963149
Si Si3 0.290333 0.450645 0.762739
Si Si4 0.317489 0.813962 0.191420
Si Si5 0.628756 0.880774 0.351250
Si Si6 0.681456 0.041112 0.577420
Si Si7 0.068595 0.470777 0.299882
Si Si8 0.500000 0.500000 0.500000
O O1 0.131427 0.442628 0.027154
O O2 0.489775 0.829352 0.778030
O O3 0.732741 0.648167 0.966862
O O4 0.465734 0.554132 0.120635
O O5 0.168149 0.579096 0.143646
O O6 0.277710 0.918823 0.781378
O O7 0.420385 0.668708 0.548063
O O8 0.029818 0.407689 0.798394
O O9 0.063444 0.283360 0.813754
O O10 0.453242 0.877230 0.240805
O O11 0.385248 0.646499 0.352099
O O12 0.500000 0.000000 0.000000
O O13 0.962468 0.905664 0.395795
O O14 0.500000 0.000000 0.500000
O O15 0.754292 0.243475 0.432388
O O16 0.326763 0.466019 0.413671
#
# Coordination Sequence:
#
# PCOD9088120 Si02
#       8
#     2   2   2   2   2   2   2   1
#     4   9  18  35  55  82 111 153 201 238 281 360
#     4   9  18  34  58  80 110 154 203 236 280 357
#     4  10  23  37  58  88 120 151 193 247 305 350
#     4  11  21  40  67  89 116 161 207 243 293 369
#     4  11  22  38  59  87 119 154 190 249 305 348
#     4  11  20  36  62  83 113 158 205 241 289 353
#     4  10  19  37  59  85 113 152 202 247 290 357
#     4  10  20  34  62  90 112 142 206 252 284 346
#
# _framework density 23.287158000000002
#
# number of rings (size 3 to 8) (size 9 to 14) (size 15 to 20)
#    0.000    1.867    2.667    3.600    1.867    0.533 
#    0.000    2.000    0.000    4.000    0.000    0.000 
#    0.000    0.000    0.000    0.000    0.000    0.000 
#
# Total GULP energy -83516.527495 kJ/mol
# GULP energy per Si atom -5567.768500 kJ/mol
# Density = 2.323416 g / cm^3
# Si number density = 23.287158 Si / 1000 Ang^3
#
#
#
# Elastic Constant Matrix: (Units=GPa)
#
#
# Indices 1 2 3 4 5 6 
#
# 1 48.7403 20.7594 -8.0354 3.3168 -9.3101 -10.3729
# 2 20.7594 202.3535 75.8324 21.6996 -12.0773 -7.4563
# 3 -8.0354 75.8324 127.6674 7.2553 -24.5643 -3.6357
# 4 3.3168 21.6996 7.2553 51.8659 -3.3948 4.5785
# 5 -9.3101 -12.0773 -24.5643 -3.3948 30.8683 -3.1165
# 6 -10.3729 -7.4563 -3.6357 4.5785 -3.1165 23.9052
#
#
#
# Elastic Compliance Matrix: (Units=1/GPa)
#
#
# Indices 1 2 3 4 5 6 
#
# 1 0.029830 -0.004407 0.007872 -0.001515 0.014885 0.014997
# 2 -0.004407 0.007353 -0.005057 -0.002239 -0.002755 -0.000318
# 3 0.007872 -0.005057 0.013782 -0.000021 0.011916 0.005492
# 4 -0.001515 -0.002239 -0.000021 0.020811 0.000405 -0.005292
# 5 0.014885 -0.002755 0.011916 0.000405 0.046689 0.013421
# 6 0.014997 -0.000318 0.005492 -0.005292 0.013421 0.051839
#
#
# Mechanical properties :
#
#
# Convention : Reuss Voigt Hill
#
# Bulk Modulus (GPa) = 20.92841 61.76377 41.34609
# Shear Modulus (GPa) = 26.39723 40.67485 33.53604
#
# Velocity S-wave (km/s) = 3.37048 4.18385 3.79899
# Velocity P-wave (km/s) = 4.91462 7.06539 6.08577
#
# Compressibility (1/GPa) = 0.04778194
#
# Stress axis : x y z
#
# Youngs Moduli (GPa) = 33.52370 135.99901 72.55721
#
# Poissons Ratio (x) = 0.59934 -0.57119
# Poissons Ratio (y) = 0.14774 0.36690
# Poissons Ratio (z) = -0.26391 0.68772
#
# Static dielectric constant tensor:
#      x y z
#    x 1.943390 0.014100 0.012990 
#    y 0.014100 1.906170 0.001280 
#    z 0.012990 0.001280 1.868480 
# 
# From -- ./inp_files/168911.got.cif
#   From: 2010.05.17/outbox.cif.g08.bks.cpg/sg2_85_cif.got.tgz:168911.got - 2010.06.03 11:33:40.
