data_PCOD9088756
_publ_section_title
;
Structure prediction by ZEFSAII (Michael W. Deem and Ramdas Pophale) SiO2 
 PCOD9088756
Probable space group: P -1
;
_chemical_formula_sum "Si O2"
_cell_formula_units_Z 14
_cell_length_a 8.823238
_cell_length_b 15.586831
_cell_length_c 9.258940
_cell_angle_alpha 65.210772
_cell_angle_beta 106.842323
_cell_angle_gamma 141.614783
_cell_volume 716.111108
_symmetry_space_group_name_H-M "P -1"
_symmetry_group_IT_number 2
_symmetry_cell_setting 'triclinic'
loop_
_space_group_symop_operation_xyz
x,y,z
-x,-y,-z
loop_
_atom_site_type_symbol
_atom_site_label
_atom_site_fract_x
_atom_site_fract_y
_atom_site_fract_z
Si Si1 0.941467 0.335153 0.996131
Si Si2 0.609412 0.350581 0.987986
Si Si3 0.101135 0.241224 0.314536
Si Si4 0.249716 0.899075 0.089064
Si Si5 0.537369 0.548260 0.312724
Si Si6 0.035884 0.850349 0.328807
Si Si7 0.927454 0.910672 0.837453
O O1 0.717712 0.300806 0.001058
O O2 0.973380 0.266043 0.170430
O O3 0.897097 0.261718 0.886162
O O4 0.187487 0.509598 0.950236
O O5 0.345576 0.224025 0.078205
O O6 0.587646 0.411453 0.802584
O O7 0.389856 0.401817 0.286322
O O8 0.994488 0.189168 0.483729
O O9 0.070060 0.131655 0.292925
O O10 0.270981 0.924392 0.249175
O O11 0.110959 0.928695 0.967733
O O12 0.500000 0.000000 0.000000
O O13 0.500000 0.500000 0.500000
O O14 0.822328 0.701876 0.282508
O O15 0.004093 0.948577 0.241081
#
# Coordination Sequence:
#
# PCOD9088756 Si02
#       7
#     2   2   2   2   2   2   2
#     4   9  21  37  60  85 118 154 197 234 287 345
#     4  10  19  37  63  85 115 155 197 239 280 349
#     4   9  21  39  57  85 119 154 195 233 290 348
#     4  11  23  36  56  88 119 151 197 238 293 341
#     4   9  19  34  60  86 114 146 189 240 290 334
#     4  11  21  37  59  86 121 151 190 246 291 334
#     4  11  22  36  61  87 114 155 202 231 288 347
#
# _framework density 19.550038000000001
#
# number of rings (size 3 to 8) (size 9 to 14) (size 15 to 20)
#    0.000    2.000    1.429    1.714    4.000    1.714 
#    0.000    7.857    0.000    3.429    0.000    0.000 
#    0.000    0.000    0.000    0.000    0.000    0.000 
#
# Total GULP energy -78040.392937 kJ/mol
# GULP energy per Si atom -5574.313781 kJ/mol
# Density = 1.950554 g / cm^3
# Si number density = 19.550038 Si / 1000 Ang^3
#
#
#
# Elastic Constant Matrix: (Units=GPa)
#
#
# Indices 1 2 3 4 5 6 
#
# 1 102.6138 34.8859 42.1382 -0.5954 -27.0854 -6.5607
# 2 34.8859 69.7795 33.7539 0.5059 -18.6279 -13.9844
# 3 42.1382 33.7539 73.3411 3.0856 -24.8055 -11.6075
# 4 -0.5954 0.5059 3.0856 26.7958 -4.1174 -4.2527
# 5 -27.0854 -18.6279 -24.8055 -4.1174 21.5370 4.1481
# 6 -6.5607 -13.9844 -11.6075 -4.2527 4.1481 35.9782
#
#
#
# Elastic Compliance Matrix: (Units=1/GPa)
#
#
# Indices 1 2 3 4 5 6 
#
# 1 0.015752 -0.002576 -0.003106 0.002933 0.014656 -0.000474
# 2 -0.002576 0.021397 -0.004300 0.002416 0.009691 0.005628
# 3 -0.003106 -0.004300 0.024845 0.000856 0.020476 0.003518
# 4 0.002933 0.002416 0.000856 0.040095 0.013479 0.004935
# 5 0.014656 0.009691 0.020476 0.013479 0.098780 0.003250
# 6 -0.000474 0.005628 0.003518 0.004935 0.003250 0.031239
#
#
# Mechanical properties :
#
#
# Convention : Reuss Voigt Hill
#
# Bulk Modulus (GPa) = 23.79366 51.92116 37.85741
# Shear Modulus (GPa) = 18.79122 25.85930 22.32526
#
# Velocity S-wave (km/s) = 3.10366 3.64087 3.38295
# Velocity P-wave (km/s) = 5.00407 6.65510 5.88774
#
# Compressibility (1/GPa) = 0.04202800
#
# Stress axis : x y z
#
# Youngs Moduli (GPa) = 63.48422 46.73653 40.25024
#
# Poissons Ratio (x) = 0.12041 0.12501
# Poissons Ratio (y) = 0.16356 0.17308
# Poissons Ratio (z) = 0.19718 0.20098
#
# Static dielectric constant tensor:
#      x y z
#    x 1.662920 0.039660 -0.025350 
#    y 0.039660 1.787880 -0.011660 
#    z -0.025350 -0.011660 1.681070 
# 
# From -- ./inp_files/169486.got.cif
#   From: 2010.05.17/outbox.cif.g08.bks.cpg/sg2_85_cif.got.tgz:169486.got - 2010.06.03 11:33:40.
