data_PCOD9088893
_publ_section_title
;
Structure prediction by ZEFSAII (Michael W. Deem and Ramdas Pophale) SiO2 
 PCOD9088893
Probable space group: P -1
;
_chemical_formula_sum "Si O2"
_cell_formula_units_Z 16
_cell_length_a 11.658574
_cell_length_b 11.767164
_cell_length_c 9.605278
_cell_angle_alpha 125.976413
_cell_angle_beta 84.144387
_cell_angle_gamma 125.258519
_cell_volume 812.784898
_symmetry_space_group_name_H-M "P -1"
_symmetry_group_IT_number 2
_symmetry_cell_setting 'triclinic'
loop_
_space_group_symop_operation_xyz
x,y,z
-x,-y,-z
loop_
_atom_site_type_symbol
_atom_site_label
_atom_site_fract_x
_atom_site_fract_y
_atom_site_fract_z
Si Si1 0.034014 0.614787 0.862232
Si Si2 0.660366 0.480860 0.168720
Si Si3 0.653918 0.201604 0.156440
Si Si4 0.754189 0.402541 0.576784
Si Si5 0.418785 0.790758 0.258332
Si Si6 0.511220 0.425102 0.587357
Si Si7 0.670588 0.974567 0.571752
Si Si8 0.986852 0.709635 0.227209
O O1 0.206781 0.769313 0.911457
O O2 0.930116 0.546266 0.690023
O O3 0.018672 0.445857 0.806211
O O4 0.982734 0.675606 0.037649
O O5 0.647609 0.352287 0.197738
O O6 0.548027 0.518213 0.244391
O O7 0.834312 0.665253 0.264333
O O8 0.619173 0.364043 0.950850
O O9 0.700702 0.264705 0.356465
O O10 0.500000 0.000000 0.000000
O O11 0.684388 0.295028 0.653286
O O12 0.678403 0.495271 0.632951
O O13 0.585592 0.906185 0.383460
O O14 0.376138 0.907237 0.280976
O O15 0.500000 0.500000 0.500000
O O16 0.404388 0.204325 0.453644
O O17 0.848996 0.098948 0.626495
#
# Coordination Sequence:
#
# PCOD9088893 Si02
#       8
#     2   2   2   2   2   2   2   2
#     4  10  20  37  62  95 127 156 211 264 322 355
#     4  11  23  41  63  90 129 167 213 246 317 385
#     4  11  25  36  65  96 126 169 210 259 313 376
#     4  11  21  41  63  92 131 163 210 261 314 370
#     4  10  21  37  65  99 117 157 214 271 305 352
#     4  11  25  42  62  90 132 177 203 246 318 391
#     4  10  21  36  67  90 128 155 209 265 312 354
#     4  10  19  37  63  95 122 159 205 271 308 365
#
# _framework density 19.685404999999999
#
# number of rings (size 3 to 8) (size 9 to 14) (size 15 to 20)
#    0.000    1.500    3.750    1.875    8.750    2.500 
#    0.000    0.000    0.000    1.500    0.000    0.000 
#    0.000    0.000    0.000    0.000    0.000    0.000 
#
# Total GULP energy -89326.873705 kJ/mol
# GULP energy per Si atom -5582.929607 kJ/mol
# Density = 1.964060 g / cm^3
# Si number density = 19.685405 Si / 1000 Ang^3
#
#
#
# Elastic Constant Matrix: (Units=GPa)
#
#
# Indices 1 2 3 4 5 6 
#
# 1 87.1090 36.9484 47.9569 5.3947 11.4860 11.8511
# 2 36.9484 91.9094 41.0731 2.3994 9.2129 5.0806
# 3 47.9569 41.0731 99.0006 -5.1406 19.9812 15.5367
# 4 5.3947 2.3994 -5.1406 26.3698 9.1193 6.8270
# 5 11.4860 9.2129 19.9812 9.1193 34.4727 8.7612
# 6 11.8511 5.0806 15.5367 6.8270 8.7612 33.5371
#
#
#
# Elastic Compliance Matrix: (Units=1/GPa)
#
#
# Indices 1 2 3 4 5 6 
#
# 1 0.017278 -0.003707 -0.006981 -0.004436 0.000869 -0.001634
# 2 -0.003707 0.014342 -0.004525 -0.001880 0.000120 0.001585
# 3 -0.006981 -0.004525 0.018349 0.009630 -0.008344 -0.005129
# 4 -0.004436 -0.001880 0.009630 0.048003 -0.014089 -0.008700
# 5 0.000869 0.000120 -0.008344 -0.014089 0.038155 -0.003559
# 6 -0.001634 0.001585 -0.005129 -0.008700 -0.003559 0.035232
#
#
# Mechanical properties :
#
#
# Convention : Reuss Voigt Hill
#
# Bulk Modulus (GPa) = 51.16914 58.88619 55.02766
# Shear Modulus (GPa) = 24.00390 29.01196 26.50793
#
# Velocity S-wave (km/s) = 3.49574 3.84315 3.67356
# Velocity P-wave (km/s) = 6.50719 7.04781 6.78289
#
# Compressibility (1/GPa) = 0.01954303
#
# Stress axis : x y z
#
# Youngs Moduli (GPa) = 57.87696 69.72408 54.49908
#
# Poissons Ratio (x) = 0.25848 0.38045
# Poissons Ratio (y) = 0.21456 0.24661
# Poissons Ratio (z) = 0.40403 0.31550
#
# Static dielectric constant tensor:
#      x y z
#    x 1.725690 0.021150 0.017600 
#    y 0.021150 1.715230 -0.007860 
#    z 0.017600 -0.007860 1.722940 
# 
# From -- ./inp_files/260082.got.cif
#   From: 2010.05.17/outbox.cif.g08.bks.cpg/sg2_131_cif.got.tgz:260082.got - 2010.06.03 11:33:40.
