data_PCOD9088597
_publ_section_title
;
Structure prediction by ZEFSAII (Michael W. Deem and Ramdas Pophale) SiO2 
 PCOD9088597
Probable space group: P -1
;
_chemical_formula_sum "Si O2"
_cell_formula_units_Z 16
_cell_length_a 8.053748
_cell_length_b 7.285850
_cell_length_c 11.456956
_cell_angle_alpha 71.059566
_cell_angle_beta 105.803500
_cell_angle_gamma 87.254058
_cell_volume 604.940375
_symmetry_space_group_name_H-M "P -1"
_symmetry_group_IT_number 2
_symmetry_cell_setting 'triclinic'
loop_
_space_group_symop_operation_xyz
x,y,z
-x,-y,-z
loop_
_atom_site_type_symbol
_atom_site_label
_atom_site_fract_x
_atom_site_fract_y
_atom_site_fract_z
Si Si1 0.234634 0.943050 0.581160
Si Si2 0.640541 0.964049 0.930651
Si Si3 0.488349 0.393685 0.731002
Si Si4 0.179143 0.576314 0.492592
Si Si5 0.573334 0.300795 0.151506
Si Si6 0.146751 0.560803 0.233881
Si Si7 0.925726 0.849526 0.687923
Si Si8 0.889505 0.176659 0.052301
O O1 0.215283 0.746718 0.548825
O O2 0.389097 0.879671 0.711851
O O3 0.068840 0.967983 0.632201
O O4 0.232121 0.096723 0.444886
O O5 0.582916 0.168973 0.806373
O O6 0.610007 0.752634 0.919980
O O7 0.823329 0.987494 0.020979
O O8 0.500000 0.000000 0.000000
O O9 0.344084 0.414661 0.596661
O O10 0.420161 0.496259 0.819981
O O11 0.645960 0.518831 0.715502
O O12 0.149757 0.662659 0.339146
O O13 0.000000 0.500000 0.500000
O O14 0.728654 0.265338 0.091613
O O15 0.035226 0.385515 0.264666
O O16 0.100294 0.671025 0.081436
O O17 0.940098 0.878823 0.822763
#
# Coordination Sequence:
#
# PCOD9088597 Si02
#       8
#     2   2   2   2   2   2   2   2
#     4   9  20  37  62  89 114 157 210 252 288 370
#     4   9  19  35  61  91 120 160 200 247 299 359
#     4  10  23  40  62  93 124 157 202 260 297 362
#     4  11  22  40  62  87 121 160 206 247 305 363
#     4   9  19  39  64  90 117 160 206 248 301 360
#     4  11  22  38  60  89 123 161 196 250 314 355
#     4  10  19  37  62  86 121 159 201 249 307 354
#     4   9  20  37  61  87 126 158 201 250 298 368
#
# _framework density 26.448889000000001
#
# number of rings (size 3 to 8) (size 9 to 14) (size 15 to 20)
#    0.000    2.250    1.250    0.750    1.750    6.500 
#    4.500    1.875    5.500    0.000    0.000    0.000 
#    0.000    0.000    0.000    0.000    0.000    0.000 
#
# Total GULP energy -89203.263516 kJ/mol
# GULP energy per Si atom -5575.203970 kJ/mol
# Density = 2.638869 g / cm^3
# Si number density = 26.448889 Si / 1000 Ang^3
#
#
#
# Elastic Constant Matrix: (Units=GPa)
#
#
# Indices 1 2 3 4 5 6 
#
# 1 57.7386 11.8827 31.2646 -7.9251 -1.1262 1.5087
# 2 11.8827 71.5233 46.1824 7.6973 2.8708 4.3268
# 3 31.2646 46.1824 211.9909 -9.4393 -5.3283 8.7866
# 4 -7.9251 7.6973 -9.4393 41.7536 -0.3944 -5.9006
# 5 -1.1262 2.8708 -5.3283 -0.3944 39.7416 2.9752
# 6 1.5087 4.3268 8.7866 -5.9006 2.9752 28.3118
#
#
#
# Elastic Compliance Matrix: (Units=1/GPa)
#
#
# Indices 1 2 3 4 5 6 
#
# 1 0.019494 -0.002253 -0.002239 0.003717 0.000397 0.000733
# 2 -0.002253 0.017415 -0.003624 -0.004790 -0.001688 -0.002237
# 3 -0.002239 -0.003624 0.005970 0.001463 0.001087 -0.000989
# 4 0.003717 -0.004790 0.001463 0.026663 0.000494 0.005585
# 5 0.000397 -0.001688 0.001087 0.000494 0.025648 -0.002693
# 6 0.000733 -0.002237 -0.000989 0.005585 -0.002693 0.037378
#
#
# Mechanical properties :
#
#
# Convention : Reuss Voigt Hill
#
# Bulk Modulus (GPa) = 37.52923 57.76803 47.64863
# Shear Modulus (GPa) = 31.70901 38.75628 35.23264
#
# Velocity S-wave (km/s) = 3.46624 3.83211 3.65376
# Velocity P-wave (km/s) = 5.49908 6.43964 5.98785
#
# Compressibility (1/GPa) = 0.02664590
#
# Stress axis : x y z
#
# Youngs Moduli (GPa) = 51.29694 57.42288 167.49066
#
# Poissons Ratio (x) = 0.12939 0.37503
# Poissons Ratio (y) = 0.11559 0.60706
# Poissons Ratio (z) = 0.11486 0.20813
#
# Static dielectric constant tensor:
#      x y z
#    x 2.329430 -0.154630 0.008460 
#    y -0.154630 2.200340 -0.010020 
#    z 0.008460 -0.010020 2.225260 
# 
# From -- ./inp_files/378396.got.cif
#   From: 2010.05.17/outbox.cif.g08.bks.cpg/sg2_190_cif.got.tgz:378396.got - 2010.06.03 11:33:40.
