data_PCOD9088038
_publ_section_title
;
Structure prediction by ZEFSAII (Michael W. Deem and Ramdas Pophale) SiO2 
 PCOD9088038
Probable space group: P -1
;
_chemical_formula_sum "Si O2"
_cell_formula_units_Z 16
_cell_length_a 13.009679
_cell_length_b 22.337359
_cell_length_c 9.273566
_cell_angle_alpha 52.510221
_cell_angle_beta 143.050546
_cell_angle_gamma 153.464126
_cell_volume 664.544275
_symmetry_space_group_name_H-M "P -1"
_symmetry_group_IT_number 2
_symmetry_cell_setting 'triclinic'
loop_
_space_group_symop_operation_xyz
x,y,z
-x,-y,-z
loop_
_atom_site_type_symbol
_atom_site_label
_atom_site_fract_x
_atom_site_fract_y
_atom_site_fract_z
Si Si1 0.342852 0.943587 0.624119
Si Si2 0.374359 0.165211 0.684758
Si Si3 0.958986 0.278420 0.176561
Si Si4 0.044953 0.289792 0.944832
Si Si5 0.619974 0.731026 0.726831
Si Si6 0.781132 0.331481 0.415020
Si Si7 0.091834 0.606917 0.853148
Si Si8 0.261930 0.022474 0.171124
O O1 0.125555 0.830796 0.676756
O O2 0.450168 0.912775 0.690470
O O3 0.689545 0.111975 0.813119
O O4 0.171306 0.936577 0.333746
O O5 0.610218 0.185156 0.872475
O O6 0.439541 0.259446 0.513593
O O7 0.516545 0.235065 0.900485
O O8 0.000000 0.000000 0.500000
O O9 0.283301 0.319957 0.090983
O O10 0.156553 0.345331 0.152748
O O11 0.076477 0.384162 0.271414
O O12 0.978516 0.341643 0.708988
O O13 0.335590 0.646253 0.643359
O O14 0.946778 0.901441 0.893209
O O15 0.437226 0.161532 0.227224
O O16 0.954003 0.416578 0.333228
O O17 0.000000 0.500000 0.000000
#
# Coordination Sequence:
#
# PCOD9088038 Si02
#       8
#     2   2   2   2   2   2   2   2
#     4   9  16  29  52  87 122 158 206 245 308 372
#     4  10  20  36  60  94 127 156 205 261 309 360
#     4  10  19  37  58  86 126 165 203 255 310 368
#     4  10  21  35  58  89 126 165 204 254 315 374
#     4  11  21  34  56  91 128 156 207 252 317 369
#     4  11  19  39  59  84 124 164 210 261 302 374
#     4  10  23  41  67  90 121 172 213 251 320 377
#     4   9  17  29  52  89 125 157 195 253 316 365
#
# _framework density 24.076649
#
# number of rings (size 3 to 8) (size 9 to 14) (size 15 to 20)
#    0.750    1.250    2.500    3.750    0.000    0.000 
#    2.250    2.500    0.000    4.500    0.000    0.000 
#    0.000    0.000    0.000    0.000    0.000    0.000 
#
# Total GULP energy -89448.702711 kJ/mol
# GULP energy per Si atom -5590.543919 kJ/mol
# Density = 2.402185 g / cm^3
# Si number density = 24.076649 Si / 1000 Ang^3
#
#
#
# Elastic Constant Matrix: (Units=GPa)
#
#
# Indices 1 2 3 4 5 6 
#
# 1 173.1720 39.3265 59.7472 -23.2306 -17.1227 -4.5012
# 2 39.3265 80.7644 35.8732 -17.6160 -2.8603 9.7730
# 3 59.7472 35.8732 116.2553 -20.9551 -22.6150 7.3629
# 4 -23.2306 -17.6160 -20.9551 46.3565 6.2336 -7.6417
# 5 -17.1227 -2.8603 -22.6150 6.2336 27.5211 -4.6791
# 6 -4.5012 9.7730 7.3629 -7.6417 -4.6791 17.2345
#
#
#
# Elastic Compliance Matrix: (Units=1/GPa)
#
#
# Indices 1 2 3 4 5 6 
#
# 1 0.008206 -0.003002 -0.002655 0.002484 0.003232 0.006959
# 2 -0.003002 0.016937 -0.003680 0.002466 -0.005245 -0.009147
# 3 -0.002655 -0.003680 0.013095 0.001911 0.008096 -0.001156
# 4 0.002484 0.002466 0.001911 0.026369 -0.000922 0.009876
# 5 0.003232 -0.005245 0.008096 -0.000922 0.046816 0.012661
# 6 0.006959 -0.009147 -0.001156 0.009876 0.012661 0.073338
#
#
# Mechanical properties :
#
#
# Convention : Reuss Voigt Hill
#
# Bulk Modulus (GPa) = 51.11749 71.12061 61.11905
# Shear Modulus (GPa) = 23.81443 33.90541 28.85992
#
# Velocity S-wave (km/s) = 3.14842 3.75671 3.46594
# Velocity P-wave (km/s) = 5.87316 6.95848 6.43873
#
# Compressibility (1/GPa) = 0.01956278
#
# Stress axis : x y z
#
# Youngs Moduli (GPa) = 121.85946 59.04225 76.36767
#
# Poissons Ratio (x) = 0.17726 0.20278
# Poissons Ratio (y) = 0.36586 0.28103
# Poissons Ratio (z) = 0.32357 0.21727
#
# Static dielectric constant tensor:
#      x y z
#    x 1.960980 -0.024430 -0.012400 
#    y -0.024430 1.952630 0.027190 
#    z -0.012400 0.027190 1.881250 
# 
# From -- ./inp_files/282994.got.cif
#   From: 2010.05.17/outbox.cif.g08.bks.cpg/sg2_142_cif.got.tgz:282994.got - 2010.06.03 11:33:40.
