data_PCOD9088413
_publ_section_title
;
Structure prediction by ZEFSAII (Michael W. Deem and Ramdas Pophale) SiO2 
 PCOD9088413
Probable space group: P -1
;
_chemical_formula_sum "Si O2"
_cell_formula_units_Z 16
_cell_length_a 14.675414
_cell_length_b 11.466557
_cell_length_c 9.001578
_cell_angle_alpha 40.642022
_cell_angle_beta 102.543131
_cell_angle_gamma 123.906854
_cell_volume 756.970697
_symmetry_space_group_name_H-M "P -1"
_symmetry_group_IT_number 2
_symmetry_cell_setting 'triclinic'
loop_
_space_group_symop_operation_xyz
x,y,z
-x,-y,-z
loop_
_atom_site_type_symbol
_atom_site_label
_atom_site_fract_x
_atom_site_fract_y
_atom_site_fract_z
Si Si1 0.147094 0.220741 0.252449
Si Si2 0.566294 0.747746 0.712631
Si Si3 0.130385 0.586431 0.001109
Si Si4 0.029654 0.868636 0.298215
Si Si5 0.248546 0.061581 0.662522
Si Si6 0.780449 0.187840 0.495391
Si Si7 0.322680 0.573547 0.727730
Si Si8 0.197599 0.234585 0.759190
O O1 0.165312 0.069665 0.507307
O O2 0.055331 0.052961 0.253457
O O3 0.124312 0.364248 0.211566
O O4 0.259911 0.408507 0.008947
O O5 0.630193 0.798312 0.526133
O O6 0.459995 0.761693 0.633082
O O7 0.668669 0.924040 0.695396
O O8 0.500000 0.500000 0.000000
O O9 0.208136 0.722207 0.752911
O O10 0.192400 0.798709 0.931318
O O11 0.000000 0.500000 0.000000
O O12 0.097136 0.767518 0.468101
O O13 0.889138 0.705372 0.380739
O O14 0.103128 0.007481 0.042049
O O15 0.248812 0.181977 0.692741
O O16 0.743840 0.321237 0.440526
O O17 0.299019 0.417223 0.731069
#
# Coordination Sequence:
#
# PCOD9088413 Si02
#       8
#     2   2   2   2   2   2   2   2
#     4  10  19  37  61  85 119 152 207 245 287 355
#     4  11  19  38  66  87 109 157 206 253 296 340
#     4  10  21  33  56  93 120 150 193 253 297 347
#     4  10  19  40  60  82 122 164 195 238 298 362
#     4  11  22  39  60  93 118 158 197 250 303 341
#     4  10  21  37  62  91 113 157 207 246 293 351
#     4  10  21  39  58  88 119 156 203 243 293 360
#     4  10  23  36  58  87 122 163 193 236 303 367
#
# _framework density 21.136882
#
# number of rings (size 3 to 8) (size 9 to 14) (size 15 to 20)
#    0.000    1.750    3.750    1.875    1.750    3.000 
#    2.250    0.000    0.000    1.500    0.000    0.000 
#    0.000    0.000    0.000    0.000    0.000    0.000 
#
# Total GULP energy -89155.672050 kJ/mol
# GULP energy per Si atom -5572.229503 kJ/mol
# Density = 2.108877 g / cm^3
# Si number density = 21.136882 Si / 1000 Ang^3
#
#
#
# Elastic Constant Matrix: (Units=GPa)
#
#
# Indices 1 2 3 4 5 6 
#
# 1 92.7504 34.7029 17.0807 -9.1793 6.3442 -11.5379
# 2 34.7029 73.2651 18.8833 4.9318 -7.8331 -22.4489
# 3 17.0807 18.8833 64.7457 -8.4890 -6.8139 -11.7201
# 4 -9.1793 4.9318 -8.4890 25.7832 2.3211 -2.7407
# 5 6.3442 -7.8331 -6.8139 2.3211 35.8505 1.7095
# 6 -11.5379 -22.4489 -11.7201 -2.7407 1.7095 32.6000
#
#
#
# Elastic Compliance Matrix: (Units=1/GPa)
#
#
# Indices 1 2 3 4 5 6 
#
# 1 0.014939 -0.007615 -0.001272 0.006853 -0.005013 0.000425
# 2 -0.007615 0.022411 -0.002946 -0.007332 0.005646 0.010766
# 3 -0.001272 -0.002946 0.018589 0.006499 0.002473 0.004621
# 4 0.006853 -0.007332 0.006499 0.045594 -0.004712 0.003794
# 5 -0.005013 0.005646 0.002473 -0.004712 0.030742 0.000994
# 6 0.000425 0.010766 0.004621 0.003794 0.000994 0.040167
#
#
# Mechanical properties :
#
#
# Convention : Reuss Voigt Hill
#
# Bulk Modulus (GPa) = 30.98579 41.34389 36.16484
# Shear Modulus (GPa) = 24.17015 29.51970 26.84492
#
# Velocity S-wave (km/s) = 3.38524 3.74116 3.56764
# Velocity P-wave (km/s) = 5.47460 6.18581 5.84104
#
# Compressibility (1/GPa) = 0.03227286
#
# Stress axis : x y z
#
# Youngs Moduli (GPa) = 66.93782 44.62036 53.79619
#
# Poissons Ratio (x) = 0.33980 0.06844
# Poissons Ratio (y) = 0.50975 0.15846
# Poissons Ratio (z) = 0.08516 0.13143
#
# Static dielectric constant tensor:
#      x y z
#    x 1.852840 -0.022880 0.049810 
#    y -0.022880 1.787170 -0.016910 
#    z 0.049810 -0.016910 1.829490 
# 
# From -- ./inp_files/304565.got.cif
#   From: 2010.05.17/outbox.cif.g08.bks.cpg/sg2_153_cif.got.tgz:304565.got - 2010.06.03 11:33:40.
