data_PCOD9088206
_publ_section_title
;
Structure prediction by ZEFSAII (Michael W. Deem and Ramdas Pophale) SiO2 
 PCOD9088206
Probable space group: P -1
;
_chemical_formula_sum "Si O2"
_cell_formula_units_Z 12
_cell_length_a 6.863258
_cell_length_b 15.054351
_cell_length_c 7.217922
_cell_angle_alpha 109.807922
_cell_angle_beta 81.958232
_cell_angle_gamma 50.064436
_cell_volume 467.322630
_symmetry_space_group_name_H-M "P -1"
_symmetry_group_IT_number 2
_symmetry_cell_setting 'triclinic'
loop_
_space_group_symop_operation_xyz
x,y,z
-x,-y,-z
loop_
_atom_site_type_symbol
_atom_site_label
_atom_site_fract_x
_atom_site_fract_y
_atom_site_fract_z
Si Si1 0.561702 0.029239 0.796335
Si Si2 0.904981 0.746402 0.743530
Si Si3 0.984593 0.588868 0.269282
Si Si4 0.868812 0.959260 0.319236
Si Si5 0.655584 0.223423 0.595157
Si Si6 0.747403 0.478316 0.189804
O O1 0.289648 0.054526 0.806927
O O2 0.814949 0.876023 0.746424
O O3 0.681695 0.017962 0.575914
O O4 0.404272 0.161250 0.040265
O O5 0.976116 0.647693 0.501464
O O6 0.164188 0.642251 0.785918
O O7 0.663476 0.711630 0.307222
O O8 0.986213 0.475166 0.214049
O O9 0.206880 0.546572 0.054666
O O10 0.186318 0.820859 0.259354
O O11 0.838835 0.079786 0.354837
O O12 0.560761 0.358916 0.621836
#
# Coordination Sequence:
#
# PCOD9088206 Si02
#       6
#     2   2   2   2   2   2
#     4  10  22  34  57  82 111 155 177 221 280 331
#     4  11  20  35  58  83 111 142 193 220 269 342
#     4   9  18  34  60  86 104 144 187 227 277 311
#     4  10  19  37  60  79 114 146 187 223 273 334
#     4   9  18  35  61  85 104 144 189 232 272 310
#     4   9  19  34  60  86 105 145 184 232 274 317
#
# _framework density 25.678191999999999
#
# number of rings (size 3 to 8) (size 9 to 14) (size 15 to 20)
#    1.000    1.333    1.667    1.500    2.333    0.000 
#    0.000    2.500   14.667    0.000    0.000    0.000 
#    0.000    0.000    0.000    0.000    0.000    0.000 
#
# Total GULP energy -66898.927569 kJ/mol
# GULP energy per Si atom -5574.910631 kJ/mol
# Density = 2.561975 g / cm^3
# Si number density = 25.678192 Si / 1000 Ang^3
#
#
#
# Elastic Constant Matrix: (Units=GPa)
#
#
# Indices 1 2 3 4 5 6 
#
# 1 67.9060 9.4765 -1.5047 -9.4630 3.5486 -9.4789
# 2 9.4765 186.9378 25.9047 25.0704 -5.8760 4.7173
# 3 -1.5047 25.9047 119.3740 -13.1954 18.5591 10.8327
# 4 -9.4630 25.0704 -13.1954 37.1514 -1.1411 -4.7696
# 5 3.5486 -5.8760 18.5591 -1.1411 16.8237 2.1619
# 6 -9.4789 4.7173 10.8327 -4.7696 2.1619 28.8564
#
#
#
# Elastic Compliance Matrix: (Units=1/GPa)
#
#
# Indices 1 2 3 4 5 6 
#
# 1 0.017621 -0.002644 0.002146 0.007738 -0.007415 0.007249
# 2 -0.002644 0.007054 -0.003047 -0.006638 0.006247 -0.002443
# 3 0.002146 -0.003047 0.012092 0.006302 -0.014271 -0.001225
# 4 0.007738 -0.006638 0.006302 0.036339 -0.009463 0.007976
# 5 -0.007415 0.006247 -0.014271 -0.009463 0.079005 -0.005582
# 6 0.007249 -0.002443 -0.001225 0.007976 -0.005582 0.039632
#
#
# Mechanical properties :
#
#
# Convention : Reuss Voigt Hill
#
# Bulk Modulus (GPa) = 33.69793 49.10786 41.40290
# Shear Modulus (GPa) = 23.95508 39.25573 31.60540
#
# Velocity S-wave (km/s) = 3.05765 3.91417 3.51212
# Velocity P-wave (km/s) = 5.06135 6.29234 5.71011
#
# Compressibility (1/GPa) = 0.02967541
#
# Stress axis : x y z
#
# Youngs Moduli (GPa) = 56.75205 141.76565 82.69959
#
# Poissons Ratio (x) = 0.37488 -0.17749
# Poissons Ratio (y) = 0.15007 0.25201
# Poissons Ratio (z) = -0.12180 0.43200
#
# Static dielectric constant tensor:
#      x y z
#    x 2.137910 0.049420 -0.032050 
#    y 0.049420 2.044070 0.019060 
#    z -0.032050 0.019060 2.038450 
# 
# From -- ./inp_files/213044.got.cif
#   From: 2010.05.17/outbox.cif.g08.bks.cpg/sg2_107_cif.got.tgz:213044.got - 2010.06.03 11:33:40.
