data_PCOD9088411
_publ_section_title
;
Structure prediction by ZEFSAII (Michael W. Deem and Ramdas Pophale) SiO2 
 PCOD9088411
Probable space group: P -1
;
_chemical_formula_sum "Si O2"
_cell_formula_units_Z 16
_cell_length_a 6.858929
_cell_length_b 16.659257
_cell_length_c 13.488892
_cell_angle_alpha 33.537165
_cell_angle_beta 74.927629
_cell_angle_gamma 97.467948
_cell_volume 624.896068
_symmetry_space_group_name_H-M "P -1"
_symmetry_group_IT_number 2
_symmetry_cell_setting 'triclinic'
loop_
_space_group_symop_operation_xyz
x,y,z
-x,-y,-z
loop_
_atom_site_type_symbol
_atom_site_label
_atom_site_fract_x
_atom_site_fract_y
_atom_site_fract_z
Si Si1 0.101883 0.744879 0.888868
Si Si2 0.290702 0.931103 0.314190
Si Si3 0.385624 0.140781 0.766366
Si Si4 0.461443 0.505826 0.382859
Si Si5 0.553236 0.509248 0.099869
Si Si6 0.440952 0.819845 0.583800
Si Si7 0.737250 0.382646 0.843172
Si Si8 0.108887 0.081357 0.066921
O O1 0.303440 0.756595 0.774109
O O2 0.278528 0.965517 0.670664
O O3 0.055959 0.611355 0.123751
O O4 0.852702 0.674682 0.928688
O O5 0.379852 0.856249 0.297093
O O6 0.254496 0.824107 0.529143
O O7 0.524551 0.157403 0.074177
O O8 0.061999 0.925255 0.306870
O O9 0.425695 0.326035 0.536972
O O10 0.302837 0.108346 0.925965
O O11 0.135260 0.971636 0.908117
O O12 0.500000 0.500000 0.500000
O O13 0.228498 0.505893 0.376857
O O14 0.732528 0.718411 0.103182
O O15 0.521784 0.323038 0.313357
O O16 0.378716 0.544123 0.146787
O O17 0.500000 0.500000 0.000000
#
# Coordination Sequence:
#
# PCOD9088411 Si02
#       8
#     2   2   2   2   2   2   2   2
#     4  10  23  44  61  86 126 154 203 259 297 366
#     4  10  21  38  59  88 120 154 201 246 295 357
#     4  10  19  37  61  85 117 160 195 243 300 352
#     4   9  19  37  61  89 122 152 195 249 291 356
#     4  12  24  41  65  89 118 165 206 252 310 356
#     4  10  22  41  60  90 119 157 201 248 308 360
#     4  10  22  40  60  91 120 159 208 243 307 361
#     4   9  20  37  59  87 119 155 199 241 299 354
#
# _framework density 25.604257
#
# number of rings (size 3 to 8) (size 9 to 14) (size 15 to 20)
#    0.000    2.000    1.250    1.500    0.000    5.500 
#    2.250    2.500    0.000   13.500    0.000    0.000 
#    0.000    0.000    0.000    0.000    0.000    0.000 
#
# Total GULP energy -89475.310039 kJ/mol
# GULP energy per Si atom -5592.206877 kJ/mol
# Density = 2.554598 g / cm^3
# Si number density = 25.604257 Si / 1000 Ang^3
#
#
#
# Elastic Constant Matrix: (Units=GPa)
#
#
# Indices 1 2 3 4 5 6 
#
# 1 70.5198 11.3560 22.8924 16.5398 27.2854 15.9498
# 2 11.3560 120.1347 24.3026 3.2385 13.2632 7.1553
# 3 22.8924 24.3026 79.7081 4.1982 37.6662 7.3632
# 4 16.5398 3.2385 4.1982 39.9492 11.2563 15.2852
# 5 27.2854 13.2632 37.6662 11.2563 49.9093 -0.5990
# 6 15.9498 7.1553 7.3632 15.2852 -0.5990 49.2381
#
#
#
# Elastic Compliance Matrix: (Units=1/GPa)
#
#
# Indices 1 2 3 4 5 6 
#
# 1 0.020276 -0.000327 -0.000253 -0.003363 -0.010115 -0.005562
# 2 -0.000327 0.008928 -0.002327 0.000131 -0.000478 -0.000890
# 3 -0.000253 -0.002327 0.021169 0.004277 -0.016236 -0.004271
# 4 -0.003363 0.000131 0.004277 0.032133 -0.008787 -0.009651
# 5 -0.010115 -0.000478 -0.016236 -0.008787 0.040036 0.008989
# 6 -0.005562 -0.000890 -0.004271 -0.009651 0.008989 0.025985
#
#
# Mechanical properties :
#
#
# Convention : Reuss Voigt Hill
#
# Bulk Modulus (GPa) = 22.44167 43.05161 32.74664
# Shear Modulus (GPa) = 29.55211 41.94010 35.74611
#
# Velocity S-wave (km/s) = 3.40102 4.05163 3.74050
# Velocity P-wave (km/s) = 4.92000 6.22401 5.61002
#
# Compressibility (1/GPa) = 0.04455996
#
# Stress axis : x y z
#
# Youngs Moduli (GPa) = 49.32033 112.00879 47.23812
#
# Poissons Ratio (x) = 0.03661 0.01193
# Poissons Ratio (y) = 0.01612 0.10992
# Poissons Ratio (z) = 0.01246 0.26064
#
# Static dielectric constant tensor:
#      x y z
#    x 2.034630 -0.003940 -0.061420 
#    y -0.003940 2.031080 0.059180 
#    z -0.061420 0.059180 2.062010 
# 
# From -- ./inp_files/140727.got.cif
#   From: 2010.05.17/outbox.cif.g08.bks.cpg/sg2_71_cif.got.tgz:140727.got - 2010.06.03 11:33:40.
