data_PCOD9088378
_publ_section_title
;
Structure prediction by ZEFSAII (Michael W. Deem and Ramdas Pophale) SiO2 
 PCOD9088378
Probable space group: P -1
;
_chemical_formula_sum "Si O2"
_cell_formula_units_Z 9
_cell_length_a 8.349474
_cell_length_b 9.679487
_cell_length_c 6.776273
_cell_angle_alpha 73.414172
_cell_angle_beta 122.248622
_cell_angle_gamma 67.485596
_cell_volume 333.357120
_symmetry_space_group_name_H-M "P -1"
_symmetry_group_IT_number 2
_symmetry_cell_setting 'triclinic'
loop_
_space_group_symop_operation_xyz
x,y,z
-x,-y,-z
loop_
_atom_site_type_symbol
_atom_site_label
_atom_site_fract_x
_atom_site_fract_y
_atom_site_fract_z
Si Si1 0.000000 0.500000 0.000000
Si Si2 0.520772 0.857345 0.782215
Si Si3 0.641345 0.083234 0.904946
Si Si4 0.808936 0.234794 0.468586
Si Si5 0.698952 0.366329 0.896524
O O1 0.767523 0.662058 0.932816
O O2 0.142069 0.582937 0.103453
O O3 0.284845 0.884134 0.536663
O O4 0.513370 0.834988 0.024661
O O5 0.504881 0.039856 0.687934
O O6 0.916968 0.882780 0.214169
O O7 0.685783 0.226001 0.820249
O O8 0.818299 0.268177 0.228390
O O9 0.587109 0.444074 0.322977
#
# Coordination Sequence:
#
# PCOD9088378 Si02
#       5
#     1   2   2   2   2
#     4  10  20  36  52  80 120 144 166 224 282 318
#     4   9  19  35  56  82 110 138 181 225 268 318
#     4  10  19  37  61  82 101 142 192 223 256 319
#     4   9  18  37  58  80 107 142 183 225 264 316
#     4   9  18  34  56  79 112 144 175 222 273 317
#
# _framework density 26.998073000000002
#
# number of rings (size 3 to 8) (size 9 to 14) (size 15 to 20)
#    0.000    2.667    0.000    4.000    0.000    0.889 
#    0.000   46.667    0.000    0.000    0.000    0.000 
#    0.000    0.000    0.000    0.000    0.000    0.000 
#
# Total GULP energy -50253.579669 kJ/mol
# GULP energy per Si atom -5583.731074 kJ/mol
# Density = 2.693662 g / cm^3
# Si number density = 26.998073 Si / 1000 Ang^3
#
#
#
# Elastic Constant Matrix: (Units=GPa)
#
#
# Indices 1 2 3 4 5 6 
#
# 1 123.3908 58.8654 43.1747 -0.8568 39.2510 -4.2890
# 2 58.8654 196.6596 56.3538 12.3604 17.5709 16.0288
# 3 43.1747 56.3538 86.5324 3.8061 18.2269 -12.8660
# 4 -0.8568 12.3604 3.8061 45.9695 -7.2184 22.0596
# 5 39.2510 17.5709 18.2269 -7.2184 42.5411 -4.4256
# 6 -4.2890 16.0288 -12.8660 22.0596 -4.4256 66.7468
#
#
#
# Elastic Compliance Matrix: (Units=1/GPa)
#
#
# Indices 1 2 3 4 5 6 
#
# 1 0.013532 -0.002246 -0.003025 -0.000695 -0.010341 0.000370
# 2 -0.002246 0.007060 -0.003936 -0.000358 0.000528 -0.002445
# 3 -0.003025 -0.003936 0.017128 -0.003246 -0.002960 0.004929
# 4 -0.000695 -0.000358 -0.003246 0.027480 0.005877 -0.009277
# 5 -0.010341 0.000528 -0.002960 0.005877 0.034993 -0.000984
# 6 0.000370 -0.002445 0.004929 -0.009277 -0.000984 0.019544
#
#
# Mechanical properties :
#
#
# Convention : Reuss Voigt Hill
#
# Bulk Modulus (GPa) = 51.79911 80.37451 66.08681
# Shear Modulus (GPa) = 34.58148 47.59740 41.08944
#
# Velocity S-wave (km/s) = 3.58283 4.20336 3.90544
# Velocity P-wave (km/s) = 6.02855 7.30703 6.69836
#
# Compressibility (1/GPa) = 0.01930535
#
# Stress axis : x y z
#
# Youngs Moduli (GPa) = 73.89953 141.64840 58.38371
#
# Poissons Ratio (x) = 0.31816 0.17662
# Poissons Ratio (y) = 0.16599 0.22979
# Poissons Ratio (z) = 0.22356 0.55751
#
# Static dielectric constant tensor:
#      x y z
#    x 2.104380 -0.005400 -0.144460 
#    y -0.005400 2.081110 -0.010330 
#    z -0.144460 -0.010330 2.046200 
# 
# From -- ./inp_files/145229.got.cif
#   From: 2010.05.17/outbox.cif.g08.bks.cpg/sg2_73_cif.got.tgz:145229.got - 2010.06.03 11:33:40.
