data_PCOD9088285
_publ_section_title
;
Structure prediction by ZEFSAII (Michael W. Deem and Ramdas Pophale) SiO2 
 PCOD9088285
Probable space group: P -1
;
_chemical_formula_sum "Si O2"
_cell_formula_units_Z 14
_cell_length_a 10.957051
_cell_length_b 14.804786
_cell_length_c 11.492516
_cell_angle_alpha 30.416067
_cell_angle_beta 52.894961
_cell_angle_gamma 41.690460
_cell_volume 623.151286
_symmetry_space_group_name_H-M "P -1"
_symmetry_group_IT_number 2
_symmetry_cell_setting 'triclinic'
loop_
_space_group_symop_operation_xyz
x,y,z
-x,-y,-z
loop_
_atom_site_type_symbol
_atom_site_label
_atom_site_fract_x
_atom_site_fract_y
_atom_site_fract_z
Si Si1 0.693219 0.251825 0.308855
Si Si2 0.919123 0.777188 0.716276
Si Si3 0.993769 0.461000 0.841973
Si Si4 0.655649 0.811184 0.206536
Si Si5 0.507572 0.864636 0.857818
Si Si6 0.499821 0.529511 0.604483
Si Si7 0.399814 0.309920 0.244113
O O1 0.671203 0.291783 0.415640
O O2 0.522161 0.248869 0.355266
O O3 0.867283 0.011805 0.455477
O O4 0.657021 0.456881 0.032075
O O5 0.720689 0.798590 0.821508
O O6 0.031724 0.611671 0.731233
O O7 0.018985 0.677144 0.892580
O O8 0.149350 0.293070 0.852617
O O9 0.805842 0.631942 0.693178
O O10 0.633265 0.612337 0.452939
O O11 0.623845 0.931199 0.212873
O O12 0.500000 0.000000 0.000000
O O13 0.486863 0.859407 0.736725
O O14 0.472613 0.685703 0.120884
O O15 0.500000 0.500000 0.500000
#
# Coordination Sequence:
#
# PCOD9088285 Si02
#       7
#     2   2   2   2   2   2   2
#     4  10  20  40  65  87 118 163 203 242 301 368
#     4  10  19  37  60  87 118 156 203 251 294 350
#     4  10  21  35  56  91 124 150 200 257 289 351
#     4  12  20  37  58  88 123 159 198 244 304 361
#     4  10  20  36  60  87 114 161 199 241 297 358
#     4  11  20  33  60  89 114 151 204 245 285 358
#     4   9  22  40  62  89 121 155 207 249 293 360
#
# _framework density 22.466456000000001
#
# number of rings (size 3 to 8) (size 9 to 14) (size 15 to 20)
#    0.000    1.714    4.286    0.000    0.000    2.857 
#    2.571    2.143    0.000    2.571    0.000    0.000 
#    0.000    0.000    0.000    0.000    0.000    0.000 
#
# Total GULP energy -78060.589612 kJ/mol
# GULP energy per Si atom -5575.756401 kJ/mol
# Density = 2.241532 g / cm^3
# Si number density = 22.466456 Si / 1000 Ang^3
#
#
#
# Elastic Constant Matrix: (Units=GPa)
#
#
# Indices 1 2 3 4 5 6 
#
# 1 75.9164 32.4244 26.2324 -17.0159 4.5007 11.8058
# 2 32.4244 160.8822 29.0090 -21.4891 7.7922 28.8997
# 3 26.2324 29.0090 106.2289 -5.1152 6.5282 19.2987
# 4 -17.0159 -21.4891 -5.1152 34.5133 -0.8896 -6.2793
# 5 4.5007 7.7922 6.5282 -0.8896 29.4526 -8.6534
# 6 11.8058 28.8997 19.2987 -6.2793 -8.6534 34.7681
#
#
#
# Elastic Compliance Matrix: (Units=1/GPa)
#
#
# Indices 1 2 3 4 5 6 
#
# 1 0.016706 -0.001508 -0.002897 0.006430 -0.001944 -0.002134
# 2 -0.001508 0.008370 -0.000325 0.003114 -0.003768 -0.006640
# 3 -0.002897 -0.000325 0.011557 -0.001175 -0.003935 -0.006353
# 4 0.006430 0.003114 -0.001175 0.034294 0.000107 0.002101
# 5 -0.001944 -0.003768 -0.003935 0.000107 0.040873 0.016169
# 6 -0.002134 -0.006640 -0.006353 0.002101 0.016169 0.042935
#
#
# Mechanical properties :
#
#
# Convention : Reuss Voigt Hill
#
# Bulk Modulus (GPa) = 36.80307 57.59545 47.19926
# Shear Modulus (GPa) = 28.85961 36.77092 32.81527
#
# Velocity S-wave (km/s) = 3.58797 4.05001 3.82597
# Velocity P-wave (km/s) = 5.79496 6.89652 6.36960
#
# Compressibility (1/GPa) = 0.02717165
#
# Stress axis : x y z
#
# Youngs Moduli (GPa) = 59.85957 119.48073 86.52699
#
# Poissons Ratio (x) = 0.18022 0.25065
# Poissons Ratio (y) = 0.09029 0.02815
# Poissons Ratio (z) = 0.17340 0.03887
#
# Static dielectric constant tensor:
#      x y z
#    x 1.913430 -0.008810 -0.089950 
#    y -0.008810 1.791580 0.013060 
#    z -0.089950 0.013060 1.940670 
# 
# From -- ./inp_files/396469.got.cif
#   From: 2010.05.17/outbox.cif.g08.bks.cpg/sg2_199_cif.got.tgz:396469.got - 2010.06.03 11:33:40.
