data_PCOD9088737
_publ_section_title
;
Structure prediction by ZEFSAII (Michael W. Deem and Ramdas Pophale) SiO2 
 PCOD9088737
Probable space group: P -1
;
_chemical_formula_sum "Si O2"
_cell_formula_units_Z 16
_cell_length_a 12.072198
_cell_length_b 12.940391
_cell_length_c 12.235219
_cell_angle_alpha 105.434637
_cell_angle_beta 41.376572
_cell_angle_gamma 71.258029
_cell_volume 701.049934
_symmetry_space_group_name_H-M "P -1"
_symmetry_group_IT_number 2
_symmetry_cell_setting 'triclinic'
loop_
_space_group_symop_operation_xyz
x,y,z
-x,-y,-z
loop_
_atom_site_type_symbol
_atom_site_label
_atom_site_fract_x
_atom_site_fract_y
_atom_site_fract_z
Si Si1 0.263982 0.254237 0.839682
Si Si2 0.968768 0.531143 0.713576
Si Si3 0.953096 0.315712 0.425060
Si Si4 0.876687 0.790890 0.505888
Si Si5 0.265324 0.058072 0.924101
Si Si6 0.301332 0.637519 0.967434
Si Si7 0.381791 0.753724 0.753776
Si Si8 0.382904 0.397556 0.683729
O O1 0.309269 0.106198 0.795595
O O2 0.449864 0.239743 0.625555
O O3 0.246649 0.320375 0.989293
O O4 0.945706 0.426609 0.070034
O O5 0.913253 0.636493 0.681470
O O6 0.964104 0.408134 0.663692
O O7 0.292590 0.391971 0.480323
O O8 0.610766 0.505311 0.753837
O O9 0.101140 0.178781 0.378462
O O10 0.005458 0.232571 0.245018
O O11 0.552614 0.936250 0.747744
O O12 0.047846 0.766554 0.280221
O O13 0.246572 0.941327 0.889759
O O14 0.234481 0.755036 0.952185
O O15 0.365185 0.489068 0.822197
O O16 0.418512 0.677690 0.588159
#
# Coordination Sequence:
#
# PCOD9088737 Si02
#       8
#     2   2   2   2   2   2   2   2
#     4   9  18  35  61  88 111 146 196 243 278 339
#     4   8  16  34  58  85 108 148 200 237 269 341
#     4  10  21  38  60  84 119 156 194 236 290 341
#     4  11  20  37  62  87 114 154 198 243 283 333
#     4  10  22  40  58  88 122 150 189 237 293 351
#     4  11  22  39  59  88 118 150 200 241 279 341
#     4   9  20  36  56  83 120 155 180 233 295 350
#     4  10  19  37  63  83 114 155 197 234 286 342
#
# _framework density 22.822911000000001
#
# number of rings (size 3 to 8) (size 9 to 14) (size 15 to 20)
#    0.000    2.250    1.250    2.250    1.750    0.500 
#    2.250    1.875    0.000    0.000    0.000    0.000 
#    0.000    0.000    0.000    0.000    0.000    0.000 
#
# Total GULP energy -89325.906778 kJ/mol
# GULP energy per Si atom -5582.869174 kJ/mol
# Density = 2.277096 g / cm^3
# Si number density = 22.822911 Si / 1000 Ang^3
#
#
#
# Elastic Constant Matrix: (Units=GPa)
#
#
# Indices 1 2 3 4 5 6 
#
# 1 48.0681 19.8749 1.9119 -9.5743 2.2832 -10.2444
# 2 19.8749 144.9180 15.7186 -19.5494 12.4874 2.0435
# 3 1.9119 15.7186 44.8841 -18.4868 0.0119 -8.3819
# 4 -9.5743 -19.5494 -18.4868 38.9428 -4.9176 10.1280
# 5 2.2832 12.4874 0.0119 -4.9176 17.5731 3.5805
# 6 -10.2444 2.0435 -8.3819 10.1280 3.5805 30.8513
#
#
#
# Elastic Compliance Matrix: (Units=1/GPa)
#
#
# Indices 1 2 3 4 5 6 
#
# 1 0.024537 -0.003198 0.003070 0.003546 -0.001599 0.008215
# 2 -0.003198 0.008317 -0.002242 0.002438 -0.004296 -0.002524
# 3 0.003070 -0.002242 0.029003 0.012731 0.003836 0.004423
# 4 0.003546 0.002438 0.012731 0.037431 0.010103 -0.008986
# 5 -0.001599 -0.004296 0.003836 0.010103 0.065042 -0.010069
# 6 0.008215 -0.002524 0.004423 -0.008986 -0.010069 0.040629
#
#
# Mechanical properties :
#
#
# Convention : Reuss Voigt Hill
#
# Bulk Modulus (GPa) = 17.50817 34.76458 26.13637
# Shear Modulus (GPa) = 21.85907 30.83110 26.34509
#
# Velocity S-wave (km/s) = 3.09814 3.67942 3.40122
# Velocity P-wave (km/s) = 4.52614 5.77202 5.18663
#
# Compressibility (1/GPa) = 0.05711621
#
# Stress axis : x y z
#
# Youngs Moduli (GPa) = 40.75478 120.23618 34.47941
#
# Poissons Ratio (x) = 0.38449 -0.10585
# Poissons Ratio (y) = 0.13033 0.07731
# Poissons Ratio (z) = -0.12511 0.26961
#
# Static dielectric constant tensor:
#      x y z
#    x 1.878170 -0.000270 0.000380 
#    y -0.000270 1.886800 0.001520 
#    z 0.000380 0.001520 1.836220 
# 
# From -- ./inp_files/189234.got.cif
#   From: 2010.05.17/outbox.cif.g08.bks.cpg/sg2_95_cif.got.tgz:189234.got - 2010.06.03 11:33:40.
