data_PCOD9088185
_publ_section_title
;
Structure prediction by ZEFSAII (Michael W. Deem and Ramdas Pophale) SiO2 
 PCOD9088185
Probable space group: P -1
;
_chemical_formula_sum "Si O2"
_cell_formula_units_Z 16
_cell_length_a 9.007204
_cell_length_b 19.614408
_cell_length_c 11.823570
_cell_angle_alpha 150.014069
_cell_angle_beta 97.754177
_cell_angle_gamma 101.550544
_cell_volume 794.572965
_symmetry_space_group_name_H-M "P -1"
_symmetry_group_IT_number 2
_symmetry_cell_setting 'triclinic'
loop_
_space_group_symop_operation_xyz
x,y,z
-x,-y,-z
loop_
_atom_site_type_symbol
_atom_site_label
_atom_site_fract_x
_atom_site_fract_y
_atom_site_fract_z
Si Si1 0.669801 0.962350 0.061307
Si Si2 0.203513 0.875907 0.086945
Si Si3 0.356796 0.938636 0.555202
Si Si4 0.229086 0.739882 0.671413
Si Si5 0.032701 0.438940 0.032557
Si Si6 0.034254 0.036544 0.187135
Si Si7 0.711904 0.649075 0.180002
Si Si8 0.182113 0.035674 0.509978
O O1 0.682750 0.059217 0.314115
O O2 0.739561 0.098301 0.160018
O O3 0.812026 0.919062 0.037938
O O4 0.444162 0.798631 0.784992
O O5 0.423660 0.986826 0.314649
O O6 0.164677 0.987870 0.170286
O O7 0.099482 0.864339 0.175164
O O8 0.162635 0.733837 0.785556
O O9 0.327462 0.056787 0.647443
O O10 0.180848 0.740670 0.214513
O O11 0.103977 0.573057 0.336393
O O12 0.189981 0.413193 0.975473
O O13 0.000000 0.500000 0.000000
O O14 0.141366 0.231778 0.529147
O O15 0.000000 0.000000 0.000000
O O16 0.716779 0.788501 0.303380
O O17 0.500000 0.500000 0.000000
O O18 0.000000 0.000000 0.500000
#
# Coordination Sequence:
#
# PCOD9088185 Si02
#       8
#     2   2   2   2   2   2   2   2
#     4  10  19  37  59  91 128 174 215 259 323 385
#     4  10  23  38  62  95 124 171 225 262 314 390
#     4  11  21  41  66  94 127 176 219 261 323 393
#     4  10  21  35  59  93 134 166 211 271 325 379
#     4  12  23  37  63  97 139 166 205 274 335 378
#     4  11  20  35  59  89 129 167 212 266 318 376
#     4  11  26  41  64 101 130 164 221 276 323 373
#     4  11  22  45  70  92 128 177 221 263 320 402
#
# _framework density 20.136603000000001
#
# number of rings (size 3 to 8) (size 9 to 14) (size 15 to 20)
#    0.000    1.250    5.000    1.125    5.250    0.000 
#    0.000    0.625    0.000    9.000    0.000    0.000 
#    0.000    0.000    0.000    0.000    0.000    0.000 
#
# Total GULP energy -89082.509444 kJ/mol
# GULP energy per Si atom -5567.656840 kJ/mol
# Density = 2.009077 g / cm^3
# Si number density = 20.136603 Si / 1000 Ang^3
#
#
#
# Elastic Constant Matrix: (Units=GPa)
#
#
# Indices 1 2 3 4 5 6 
#
# 1 131.4130 29.8077 54.0535 -17.7930 2.4543 -6.1924
# 2 29.8077 75.7504 29.5912 -12.2549 11.1866 -8.9169
# 3 54.0535 29.5912 120.1929 -28.1123 7.8655 8.8625
# 4 -17.7930 -12.2549 -28.1123 32.4450 2.5645 -8.8724
# 5 2.4543 11.1866 7.8655 2.5645 23.1485 -12.8835
# 6 -6.1924 -8.9169 8.8625 -8.8724 -12.8835 34.2199
#
#
#
# Elastic Compliance Matrix: (Units=1/GPa)
#
#
# Indices 1 2 3 4 5 6 
#
# 1 0.010193 -0.002071 -0.004111 0.002126 0.003425 0.004210
# 2 -0.002071 0.016869 -0.001938 0.005010 -0.005805 0.003636
# 3 -0.004111 -0.001938 0.013272 0.007605 -0.006946 -0.005330
# 4 0.002126 0.005010 0.007605 0.043347 -0.004975 0.009086
# 5 0.003425 -0.005805 -0.006946 -0.004975 0.061153 0.022640
# 6 0.004210 0.003636 -0.005330 0.009086 0.022640 0.043192
#
#
# Mechanical properties :
#
#
# Convention : Reuss Voigt Hill
#
# Bulk Modulus (GPa) = 41.50588 61.58457 51.54523
# Shear Modulus (GPa) = 23.55174 32.22294 27.88734
#
# Velocity S-wave (km/s) = 3.42365 4.00461 3.72547
# Velocity P-wave (km/s) = 6.02374 7.21334 6.64521
#
# Compressibility (1/GPa) = 0.02409297
#
# Stress axis : x y z
#
# Youngs Moduli (GPa) = 98.10922 59.27977 75.34453
#
# Poissons Ratio (x) = 0.12277 0.30977
# Poissons Ratio (y) = 0.20319 0.14604
# Poissons Ratio (z) = 0.40336 0.11490
#
# Static dielectric constant tensor:
#      x y z
#    x 1.567030 -0.067980 0.154450 
#    y -0.067980 1.735960 0.066070 
#    z 0.154450 0.066070 1.637200 
# 
# From -- ./inp_files/271521.got.cif
#   From: 2010.05.17/outbox.cif.g08.bks.cpg/sg2_136_cif.got.tgz:271521.got - 2010.06.03 11:33:40.
