data_PCOD9088800
_publ_section_title
;
Structure prediction by ZEFSAII (Michael W. Deem and Ramdas Pophale) SiO2 
 PCOD9088800
Probable space group: P -1
;
_chemical_formula_sum "Si O2"
_cell_formula_units_Z 16
_cell_length_a 11.520152
_cell_length_b 10.502193
_cell_length_c 13.889081
_cell_angle_alpha 128.745078
_cell_angle_beta 148.787429
_cell_angle_gamma 61.683032
_cell_volume 671.416905
_symmetry_space_group_name_H-M "P -1"
_symmetry_group_IT_number 2
_symmetry_cell_setting 'triclinic'
loop_
_space_group_symop_operation_xyz
x,y,z
-x,-y,-z
loop_
_atom_site_type_symbol
_atom_site_label
_atom_site_fract_x
_atom_site_fract_y
_atom_site_fract_z
Si Si1 0.507093 0.696658 0.593058
Si Si2 0.747702 0.912570 0.031068
Si Si3 0.845007 0.724425 0.681556
Si Si4 0.764147 0.977847 0.592468
Si Si5 0.084403 0.654004 0.402443
Si Si6 0.300010 0.832962 0.165744
Si Si7 0.414727 0.478449 0.037968
Si Si8 0.351326 0.773572 0.823862
O O1 0.500000 0.500000 0.500000
O O2 0.685524 0.794270 0.840596
O O3 0.617666 0.742655 0.589445
O O4 0.259711 0.713808 0.468636
O O5 0.582506 0.839853 0.963812
O O6 0.688253 0.097129 0.061310
O O7 0.008941 0.935516 0.254374
O O8 0.813578 0.805466 0.594418
O O9 0.880309 0.533701 0.629618
O O10 0.071286 0.826759 0.939170
O O11 0.538149 0.938239 0.350272
O O12 0.733547 0.092876 0.717720
O O13 0.158882 0.761574 0.600541
O O14 0.822823 0.644784 0.187786
O O15 0.352549 0.646168 0.117448
O O16 0.500000 0.500000 0.000000
O O17 0.612004 0.403058 0.195622
#
# Coordination Sequence:
#
# PCOD9088800 Si02
#       8
#     2   2   2   2   2   2   2   2
#     4   9  18  37  62  88 119 152 200 248 300 358
#     4  10  22  40  65  88 123 166 200 251 304 361
#     4  10  19  37  63  88 124 159 199 255 298 358
#     4  11  22  38  62  91 123 161 201 250 308 353
#     4   9  21  40  61  91 118 165 205 244 308 359
#     4  10  23  39  56  94 124 153 207 247 302 365
#     4  11  25  41  63  92 123 160 207 253 299 365
#     4  10  23  44  61  89 125 160 207 249 302 363
#
# _framework density 23.830200999999999
#
# number of rings (size 3 to 8) (size 9 to 14) (size 15 to 20)
#    0.000    2.000    1.250    1.125    5.250    0.500 
#    4.500    6.250    0.000    0.000    0.000    0.000 
#    0.000    0.000    0.000    0.000    0.000    0.000 
#
# Total GULP energy -89405.288263 kJ/mol
# GULP energy per Si atom -5587.830516 kJ/mol
# Density = 2.377596 g / cm^3
# Si number density = 23.830201 Si / 1000 Ang^3
#
#
#
# Elastic Constant Matrix: (Units=GPa)
#
#
# Indices 1 2 3 4 5 6 
#
# 1 50.6969 -19.1317 14.3402 9.6999 6.4298 3.0834
# 2 -19.1317 80.7222 -7.8156 6.6395 -22.6690 -5.6237
# 3 14.3402 -7.8156 139.0652 6.7699 18.2295 2.3029
# 4 9.6999 6.6395 6.7699 29.2961 2.1700 -6.6600
# 5 6.4298 -22.6690 18.2295 2.1700 23.2872 6.7562
# 6 3.0834 -5.6237 2.3029 -6.6600 6.7562 17.8562
#
#
#
# Elastic Compliance Matrix: (Units=1/GPa)
#
#
# Indices 1 2 3 4 5 6 
#
# 1 0.025379 0.007875 -0.002231 -0.012009 0.005944 -0.008343
# 2 0.007875 0.020727 -0.001991 -0.010064 0.022482 -0.006835
# 3 -0.002231 -0.001991 0.008372 0.000344 -0.008495 0.002021
# 4 -0.012009 -0.010064 0.000344 0.046880 -0.017816 0.023086
# 5 0.005944 0.022482 -0.008495 -0.017816 0.080147 -0.029821
# 6 -0.008343 -0.006835 0.002021 0.023086 -0.029821 0.074924
#
#
# Mechanical properties :
#
#
# Convention : Reuss Voigt Hill
#
# Bulk Modulus (GPa) = 16.18540 27.25223 21.71881
# Shear Modulus (GPa) = 18.53783 32.96067 25.74925
#
# Velocity S-wave (km/s) = 2.79214 3.72310 3.29071
# Velocity P-wave (km/s) = 4.14746 5.47200 4.85511
#
# Compressibility (1/GPa) = 0.06178407
#
# Stress axis : x y z
#
# Youngs Moduli (GPa) = 39.40245 48.24654 119.44101
#
# Poissons Ratio (x) = -0.37994 0.26646
# Poissons Ratio (y) = -0.31029 0.23782
# Poissons Ratio (z) = 0.08790 0.09606
#
# Static dielectric constant tensor:
#      x y z
#    x 1.900860 0.005810 0.014510 
#    y 0.005810 1.949300 0.017370 
#    z 0.014510 0.017370 1.891760 
# 
# From -- ./inp_files/519180.got.cif
#   From: 2010.05.17/outbox.cif.g08.bks.cpg/sg2_260_cif.got.tgz:519180.got - 2010.06.03 11:33:40.
