data_PCOD9088112
_publ_section_title
;
Structure prediction by ZEFSAII (Michael W. Deem and Ramdas Pophale) SiO2 
 PCOD9088112
Probable space group: P -1
;
_chemical_formula_sum "Si O2"
_cell_formula_units_Z 16
_cell_length_a 16.539938
_cell_length_b 7.960379
_cell_length_c 21.740586
_cell_angle_alpha 107.258783
_cell_angle_beta 161.444399
_cell_angle_gamma 81.622681
_cell_volume 778.530141
_symmetry_space_group_name_H-M "P -1"
_symmetry_group_IT_number 2
_symmetry_cell_setting 'triclinic'
loop_
_space_group_symop_operation_xyz
x,y,z
-x,-y,-z
loop_
_atom_site_type_symbol
_atom_site_label
_atom_site_fract_x
_atom_site_fract_y
_atom_site_fract_z
Si Si1 0.763894 0.107613 0.803510
Si Si2 0.181208 0.449893 0.672221
Si Si3 0.647454 0.341987 0.986056
Si Si4 0.064290 0.741086 0.402597
Si Si5 0.466530 0.649704 0.420000
Si Si6 0.010468 0.319670 0.133110
Si Si7 0.597529 0.756465 0.725657
Si Si8 0.412505 0.151976 0.922138
O O1 0.608663 0.204663 0.660174
O O2 0.597583 0.880232 0.678232
O O3 0.842843 0.208337 0.939277
O O4 0.075703 0.156341 0.007319
O O5 0.000000 0.500000 0.500000
O O6 0.980218 0.304061 0.562394
O O7 0.380400 0.372348 0.774057
O O8 0.393814 0.637811 0.884635
O O9 0.875857 0.542443 0.205701
O O10 0.800107 0.304997 0.034300
O O11 0.507374 0.182177 0.922256
O O12 0.382074 0.790519 0.618455
O O13 0.909077 0.882724 0.298961
O O14 0.216055 0.535273 0.276460
O O15 0.767203 0.745282 0.681538
O O16 0.480207 0.470100 0.370882
O O17 0.500000 0.000000 0.000000
#
# Coordination Sequence:
#
# PCOD9088112 Si02
#       8
#     2   2   2   2   2   2   2   2
#     4  10  23  38  58  90 117 153 199 242 287 339
#     4   9  19  35  55  82 106 142 188 224 282 345
#     4   9  18  36  58  77 111 148 184 231 278 342
#     4   9  18  36  59  76 108 155 181 225 292 334
#     4  10  21  38  62  82 115 163 191 234 299 341
#     4  10  19  37  59  84 115 149 201 237 282 352
#     4  10  19  39  59  80 123 149 191 246 286 338
#     4   9  19  37  57  80 111 143 185 232 279 342
#
# _framework density 20.551549000000001
#
# number of rings (size 3 to 8) (size 9 to 14) (size 15 to 20)
#    0.000    2.500    1.250    3.000    0.000    3.000 
#    4.500   12.500    8.250    0.000    0.000    0.000 
#    0.000    0.000    0.000    0.000    0.000    0.000 
#
# Total GULP energy -89165.397552 kJ/mol
# GULP energy per Si atom -5572.837347 kJ/mol
# Density = 2.050477 g / cm^3
# Si number density = 20.551549 Si / 1000 Ang^3
#
#
#
# Elastic Constant Matrix: (Units=GPa)
#
#
# Indices 1 2 3 4 5 6 
#
# 1 104.0595 34.8269 66.6666 -30.5495 28.8475 -12.1602
# 2 34.8269 122.9369 41.4401 -45.3356 8.3100 15.5327
# 3 66.6666 41.4401 75.4524 -36.0857 24.7954 -0.4545
# 4 -30.5495 -45.3356 -36.0857 40.0090 -6.9447 -13.4616
# 5 28.8475 8.3100 24.7954 -6.9447 47.9771 -13.1521
# 6 -12.1602 15.5327 -0.4545 -13.4616 -13.1521 22.1280
#
#
#
# Elastic Compliance Matrix: (Units=1/GPa)
#
#
# Indices 1 2 3 4 5 6 
#
# 1 0.027480 -0.000030 -0.018935 0.011620 0.001107 0.022460
# 2 -0.000030 0.013979 -0.000238 0.015349 -0.000233 -0.000634
# 3 -0.018935 -0.000238 0.044091 0.023904 -0.007733 0.000613
# 4 0.011620 0.015349 0.023904 0.093272 0.007154 0.057097
# 5 0.001107 -0.000233 -0.007733 0.007154 0.031790 0.023860
# 6 0.022460 -0.000634 0.000613 0.057097 0.023860 0.106909
#
#
# Mechanical properties :
#
#
# Convention : Reuss Voigt Hill
#
# Bulk Modulus (GPa) = 21.21114 65.36846 43.28980
# Shear Modulus (GPa) = 13.45385 32.65717 23.05551
#
# Velocity S-wave (km/s) = 2.56137 3.99060 3.35302
# Velocity P-wave (km/s) = 4.36931 7.28761 6.00833
#
# Compressibility (1/GPa) = 0.04714503
#
# Stress axis : x y z
#
# Youngs Moduli (GPa) = 36.39058 71.53582 22.68029
#
# Poissons Ratio (x) = 0.00211 0.42944
# Poissons Ratio (y) = 0.00107 0.00540
# Poissons Ratio (z) = 0.68905 0.01704
#
# Static dielectric constant tensor:
#      x y z
#    x 1.735650 -0.048720 -0.014740 
#    y -0.048720 1.767850 0.048210 
#    z -0.014740 0.048210 1.776030 
# 
# From -- ./inp_files/540097.got.cif
#   From: 2010.05.17/outbox.cif.g08.bks.cpg/sg2_271_cif.got.tgz:540097.got - 2010.06.03 11:33:40.
