data_PCOD9088962
_publ_section_title
;
Structure prediction by ZEFSAII (Michael W. Deem and Ramdas Pophale) SiO2 
 PCOD9088962
Probable space group: P -1
;
_chemical_formula_sum "Si O2"
_cell_formula_units_Z 16
_cell_length_a 27.776644
_cell_length_b 5.308186
_cell_length_c 8.343820
_cell_angle_alpha 59.964153
_cell_angle_beta 142.537517
_cell_angle_gamma 107.257059
_cell_volume 635.856204
_symmetry_space_group_name_H-M "P -1"
_symmetry_group_IT_number 2
_symmetry_cell_setting 'triclinic'
loop_
_space_group_symop_operation_xyz
x,y,z
-x,-y,-z
loop_
_atom_site_type_symbol
_atom_site_label
_atom_site_fract_x
_atom_site_fract_y
_atom_site_fract_z
Si Si1 0.499133 0.311331 0.311425
Si Si2 0.380513 0.421925 0.650091
Si Si3 0.747732 0.019160 0.218255
Si Si4 0.968084 0.431590 0.759726
Si Si5 0.239363 0.787610 0.340857
Si Si6 0.624342 0.176094 0.088646
Si Si7 0.885299 0.942565 0.842696
Si Si8 0.205091 0.336621 0.862593
O O1 0.583358 0.379802 0.445467
O O2 0.500000 0.000000 0.500000
O O3 0.440005 0.374029 0.978186
O O4 0.454193 0.581945 0.214006
O O5 0.288694 0.567342 0.409509
O O6 0.388447 0.076619 0.738768
O O7 0.660595 0.045829 0.058532
O O8 0.769595 0.345381 0.146915
O O9 0.811560 0.861626 0.572052
O O10 0.758471 0.821634 0.152896
O O11 0.891524 0.655789 0.415358
O O12 0.924644 0.153467 0.763476
O O13 0.000000 0.500000 0.000000
O O14 0.042941 0.340947 0.864701
O O15 0.299722 0.705907 0.675378
O O16 0.150679 0.851688 0.168054
O O17 0.237016 0.113753 0.159335
#
# Coordination Sequence:
#
# PCOD9088962 Si02
#       8
#     2   2   2   2   2   2   2   2
#     4  10  23  43  67  98 135 178 226 283 347 412
#     4  10  23  42  65  96 138 174 229 285 343 413
#     4  10  23  39  67  94 134 173 236 275 342 409
#     4  10  19  37  64  87 128 173 230 276 335 411
#     4  10  24  40  62  93 134 173 219 286 348 396
#     4  10  23  42  67  94 130 185 225 281 343 414
#     4   9  20  39  60  90 124 178 218 280 343 406
#     4  11  24  41  62 102 135 175 229 290 336 417
#
# _framework density 25.16292
#
# number of rings (size 3 to 8) (size 9 to 14) (size 15 to 20)
#    0.000    2.000    1.250    0.375   10.500    1.000 
#    0.000    0.625    0.000    0.000    0.000    0.000 
#    0.000    0.000    0.000    0.000    0.000    0.000 
#
# Total GULP energy -89286.690722 kJ/mol
# GULP energy per Si atom -5580.418170 kJ/mol
# Density = 2.510565 g / cm^3
# Si number density = 25.162920 Si / 1000 Ang^3
#
#
#
# Elastic Constant Matrix: (Units=GPa)
#
#
# Indices 1 2 3 4 5 6 
#
# 1 146.6308 41.6724 68.5464 -29.4654 35.4464 3.2290
# 2 41.6724 80.9506 37.7896 -22.2296 6.3548 0.1407
# 3 68.5464 37.7896 106.7006 -16.4837 -5.0465 -6.4171
# 4 -29.4654 -22.2296 -16.4837 47.4304 -3.3704 -3.6112
# 5 35.4464 6.3548 -5.0465 -3.3704 39.7334 -16.4200
# 6 3.2290 0.1407 -6.4171 -3.6112 -16.4200 37.5337
#
#
#
# Elastic Compliance Matrix: (Units=1/GPa)
#
#
# Indices 1 2 3 4 5 6 
#
# 1 0.022884 -0.000590 -0.016103 0.005002 -0.028922 -0.016891
# 2 -0.000590 0.016681 -0.004935 0.005399 -0.002990 -0.001644
# 3 -0.016103 -0.004935 0.023414 -0.001202 0.024674 0.016086
# 4 0.005002 0.005399 -0.001202 0.026127 -0.003045 0.000525
# 5 -0.028922 -0.002990 0.024674 -0.003045 0.069552 0.036852
# 6 -0.016891 -0.001644 0.016086 0.000525 0.036852 0.047024
#
#
# Mechanical properties :
#
#
# Convention : Reuss Voigt Hill
#
# Bulk Modulus (GPa) = 50.70407 70.03319 60.36863
# Shear Modulus (GPa) = 19.56850 37.35776 28.46313
#
# Velocity S-wave (km/s) = 2.79170 3.85728 3.36691
# Velocity P-wave (km/s) = 5.53042 6.90872 6.25763
#
# Compressibility (1/GPa) = 0.01972228
#
# Stress axis : x y z
#
# Youngs Moduli (GPa) = 43.69866 59.94935 42.71016
#
# Poissons Ratio (x) = 0.03535 0.68777
# Poissons Ratio (y) = 0.02576 0.21079
# Poissons Ratio (z) = 0.70369 0.29587
#
# Static dielectric constant tensor:
#      x y z
#    x 2.021090 -0.049610 0.027260 
#    y -0.049610 2.171090 0.010790 
#    z 0.027260 0.010790 2.052090 
# 
# From -- ./inp_files/355961.got.cif
#   From: 2010.05.17/outbox.cif.g08.bks.cpg/sg2_178_cif.got.tgz:355961.got - 2010.06.03 11:33:40.
