data_PCOD9088615
_publ_section_title
;
Structure prediction by ZEFSAII (Michael W. Deem and Ramdas Pophale) SiO2 
 PCOD9088615
Probable space group: P -1
;
_chemical_formula_sum "Si O2"
_cell_formula_units_Z 16
_cell_length_a 12.066416
_cell_length_b 10.017998
_cell_length_c 16.097799
_cell_angle_alpha 68.685781
_cell_angle_beta 26.578072
_cell_angle_gamma 84.124404
_cell_volume 685.609842
_symmetry_space_group_name_H-M "P -1"
_symmetry_group_IT_number 2
_symmetry_cell_setting 'triclinic'
loop_
_space_group_symop_operation_xyz
x,y,z
-x,-y,-z
loop_
_atom_site_type_symbol
_atom_site_label
_atom_site_fract_x
_atom_site_fract_y
_atom_site_fract_z
Si Si1 0.905046 0.899670 0.171683
Si Si2 0.723829 0.236810 0.434782
Si Si3 0.290175 0.484127 0.400584
Si Si4 0.763725 0.533280 0.743312
Si Si5 0.198981 0.164137 0.058343
Si Si6 0.656143 0.841395 0.859620
Si Si7 0.243606 0.914517 0.393842
Si Si8 0.225281 0.429351 0.638678
O O1 0.550699 0.813717 0.428445
O O2 0.988765 0.758186 0.142920
O O3 0.034752 0.009235 0.141982
O O4 0.000000 0.000000 0.000000
O O5 0.607516 0.117767 0.621334
O O6 0.860898 0.430698 0.330347
O O7 0.971634 0.214315 0.232542
O O8 0.352762 0.449671 0.272793
O O9 0.291633 0.403063 0.505167
O O10 0.968630 0.453492 0.616439
O O11 0.544077 0.678944 0.199418
O O12 0.017490 0.726576 0.551335
O O13 0.490839 0.362990 0.011269
O O14 0.361029 0.142977 0.033778
O O15 0.008088 0.948763 0.585963
O O16 0.568814 0.938630 0.831962
O O17 0.500000 0.500000 0.500000
#
# Coordination Sequence:
#
# PCOD9088615 Si02
#       8
#     2   2   2   2   2   2   2   2
#     4  11  24  40  64  90 120 157 203 262 313 367
#     4  10  21  41  62  90 120 164 204 252 308 370
#     4  10  21  39  57  88 117 162 203 250 304 361
#     4  10  20  36  60  83 125 162 209 246 304 370
#     4  10  21  41  64  87 127 157 205 257 304 368
#     4   9  21  36  58  96 122 166 201 256 309 360
#     4  10  19  37  62  87 131 159 207 253 307 368
#     4  10  21  40  62  85 119 157 203 253 310 366
#
# _framework density 23.336887000000001
#
# number of rings (size 3 to 8) (size 9 to 14) (size 15 to 20)
#    0.000    2.000    1.250    2.250    1.750    1.000 
#    0.000    8.750    0.000    0.000    0.000    0.000 
#    0.000    0.000    0.000    0.000    0.000    0.000 
#
# Total GULP energy -89119.132270 kJ/mol
# GULP energy per Si atom -5569.945767 kJ/mol
# Density = 2.328377 g / cm^3
# Si number density = 23.336887 Si / 1000 Ang^3
#
#
#
# Elastic Constant Matrix: (Units=GPa)
#
#
# Indices 1 2 3 4 5 6 
#
# 1 118.4477 22.3197 12.6015 -38.9072 -5.7518 -14.3229
# 2 22.3197 76.0760 23.4053 -30.5500 4.5257 -8.7772
# 3 12.6015 23.4053 75.9808 -28.2070 3.7591 -10.1110
# 4 -38.9072 -30.5500 -28.2070 41.9051 -11.6191 -3.4769
# 5 -5.7518 4.5257 3.7591 -11.6191 44.6704 -12.9859
# 6 -14.3229 -8.7772 -10.1110 -3.4769 -12.9859 28.6916
#
#
#
# Elastic Compliance Matrix: (Units=1/GPa)
#
#
# Indices 1 2 3 4 5 6 
#
# 1 0.040105 0.019836 0.025705 0.086058 0.042174 0.064664
# 2 0.019836 0.031459 0.014904 0.062711 0.027448 0.044800
# 3 0.025705 0.014904 0.037298 0.073740 0.033758 0.054750
# 4 0.086058 0.062711 0.073740 0.243728 0.110688 0.167763
# 5 0.042174 0.027448 0.033758 0.110688 0.077041 0.089629
# 6 0.064664 0.044800 0.054750 0.167763 0.089629 0.161029
#
#
# Mechanical properties :
#
#
# Convention : Reuss Voigt Hill
#
# Bulk Modulus (GPa) = 4.35254 43.01748 23.68501
# Shear Modulus (GPa) = 9.15157 37.19861 23.17509
#
# Velocity S-wave (km/s) = 1.98243 3.99680 3.15471
# Velocity P-wave (km/s) = 2.66630 6.30655 4.84157
#
# Compressibility (1/GPa) = 0.22975111
#
# Stress axis : x y z
#
# Youngs Moduli (GPa) = 24.93428 31.78770 26.81128
#
# Poissons Ratio (x) = -0.63053 -0.68918
# Poissons Ratio (y) = -0.49459 -0.39960
# Poissons Ratio (z) = -0.64094 -0.47376
#
# Static dielectric constant tensor:
#      x y z
#    x 1.932860 -0.011620 0.015360 
#    y -0.011620 2.058120 0.054890 
#    z 0.015360 0.054890 1.929900 
# 
# From -- ./inp_files/568652.got.cif
#   From: 2010.05.17/outbox.cif.g08.bks.cpg/sg2_285_cif.got.tgz:568652.got - 2010.06.03 11:33:40.
