data_PCOD9088972
_publ_section_title
;
Structure prediction by ZEFSAII (Michael W. Deem and Ramdas Pophale) SiO2 
 PCOD9088972
Probable space group: P -1
;
_chemical_formula_sum "Si O2"
_cell_formula_units_Z 16
_cell_length_a 9.283153
_cell_length_b 24.989314
_cell_length_c 5.433217
_cell_angle_alpha 59.667251
_cell_angle_beta 100.871274
_cell_angle_gamma 139.222901
_cell_volume 667.177786
_symmetry_space_group_name_H-M "P -1"
_symmetry_group_IT_number 2
_symmetry_cell_setting 'triclinic'
loop_
_space_group_symop_operation_xyz
x,y,z
-x,-y,-z
loop_
_atom_site_type_symbol
_atom_site_label
_atom_site_fract_x
_atom_site_fract_y
_atom_site_fract_z
Si Si1 0.160236 0.844490 0.783059
Si Si2 0.851589 0.944396 0.831281
Si Si3 0.208418 0.559751 0.227847
Si Si4 0.903360 0.700066 0.640139
Si Si5 0.962839 0.854452 0.062770
Si Si6 0.562165 0.467808 0.391696
Si Si7 0.605746 0.978201 0.861424
Si Si8 0.995793 0.395597 0.135556
O O1 0.324864 0.882810 0.979360
O O2 0.007159 0.740956 0.852828
O O3 0.329178 0.932672 0.434752
O O4 0.990733 0.843611 0.815839
O O5 0.671640 0.941365 0.797761
O O6 0.000000 0.000000 0.500000
O O7 0.775561 0.847361 0.044569
O O8 0.000000 0.000000 0.000000
O O9 0.430188 0.597970 0.326259
O O10 0.120891 0.481150 0.177593
O O11 0.000000 0.500000 0.500000
O O12 0.223186 0.633953 0.949107
O O13 0.633952 0.596330 0.733437
O O14 0.042428 0.687395 0.595956
O O15 0.917866 0.775536 0.371732
O O16 0.217428 0.965311 0.981319
O O17 0.500000 0.500000 0.500000
O O18 0.817965 0.554486 0.143855
#
# Coordination Sequence:
#
# PCOD9088972 Si02
#       8
#     2   2   2   2   2   2   2   2
#     4  10  20  36  59  84 120 153 200 252 300 363
#     4  10  19  37  64  89 120 164 211 259 310 383
#     4   9  20  38  64  86 110 154 207 251 304 378
#     4  11  24  36  58  93 122 155 204 260 311 362
#     4  10  21  36  60  87 121 157 201 255 308 368
#     4  11  22  38  64  89 116 164 207 248 314 381
#     4   9  19  37  60  85 110 161 205 239 308 374
#     4  10  21  40  63  86 118 160 208 251 309 375
#
# _framework density 23.981612999999999
#
# number of rings (size 3 to 8) (size 9 to 14) (size 15 to 20)
#    0.000    2.000    2.500    0.750    1.750    0.000 
#    2.250    0.000    0.000    0.000    0.000    0.000 
#    0.000    0.000    0.000    0.000    0.000    0.000 
#
# Total GULP energy -89067.639938 kJ/mol
# GULP energy per Si atom -5566.727496 kJ/mol
# Density = 2.392703 g / cm^3
# Si number density = 23.981613 Si / 1000 Ang^3
#
#
#
# Elastic Constant Matrix: (Units=GPa)
#
#
# Indices 1 2 3 4 5 6 
#
# 1 154.6340 55.8202 25.6930 -4.1711 23.7695 -43.3277
# 2 55.8202 126.3876 23.4041 2.6544 2.6288 -21.7811
# 3 25.6930 23.4041 61.8180 -6.2181 13.9736 -10.1545
# 4 -4.1711 2.6544 -6.2181 31.9226 -14.6457 9.0138
# 5 23.7695 2.6288 13.9736 -14.6457 50.1325 3.5801
# 6 -43.3277 -21.7811 -10.1545 9.0138 3.5801 44.4886
#
#
#
# Elastic Compliance Matrix: (Units=1/GPa)
#
#
# Indices 1 2 3 4 5 6 
#
# 1 0.011942 -0.002846 -0.000749 -0.005172 -0.007653 0.011730
# 2 -0.002846 0.009998 -0.002696 -0.001816 0.000918 0.001802
# 3 -0.000749 -0.002696 0.019081 0.000979 -0.004713 0.002486
# 4 -0.005172 -0.001816 0.000979 0.042680 0.015859 -0.015626
# 5 -0.007653 0.000918 -0.004713 0.015859 0.030456 -0.013744
# 6 0.011730 0.001802 0.002486 -0.015626 -0.013744 0.039623
#
#
# Mechanical properties :
#
#
# Convention : Reuss Voigt Hill
#
# Bulk Modulus (GPa) = 35.16540 61.40825 48.28682
# Shear Modulus (GPa) = 28.43434 41.17022 34.80228
#
# Velocity S-wave (km/s) = 3.44710 4.14785 3.81360
# Velocity P-wave (km/s) = 5.52617 6.97148 6.29048
#
# Compressibility (1/GPa) = 0.02843704
#
# Stress axis : x y z
#
# Youngs Moduli (GPa) = 83.73547 100.01854 52.40772
#
# Poissons Ratio (x) = 0.28469 0.03928
# Poissons Ratio (y) = 0.23835 0.14131
# Poissons Ratio (z) = 0.06276 0.26969
#
# Static dielectric constant tensor:
#      x y z
#    x 1.953280 -0.036070 0.047040 
#    y -0.036070 1.816180 0.056200 
#    z 0.047040 0.056200 2.295000 
# 
# From -- ./inp_files/51189.got.cif
#   From: 2010.05.17/outbox.cif.g08.bks.cpg/sg2_26_cif.got.tgz:51189.got - 2010.06.03 11:33:40.
