data_PCOD9088803
_publ_section_title
;
Structure prediction by ZEFSAII (Michael W. Deem and Ramdas Pophale) SiO2 
 PCOD9088803
Probable space group: P -1
;
_chemical_formula_sum "Si O2"
_cell_formula_units_Z 16
_cell_length_a 16.447943
_cell_length_b 8.608735
_cell_length_c 8.080446
_cell_angle_alpha 54.618585
_cell_angle_beta 47.006050
_cell_angle_gamma 59.569021
_cell_volume 670.244261
_symmetry_space_group_name_H-M "P -1"
_symmetry_group_IT_number 2
_symmetry_cell_setting 'triclinic'
loop_
_space_group_symop_operation_xyz
x,y,z
-x,-y,-z
loop_
_atom_site_type_symbol
_atom_site_label
_atom_site_fract_x
_atom_site_fract_y
_atom_site_fract_z
Si Si1 0.269603 0.331063 0.750668
Si Si2 0.908688 0.110651 0.432479
Si Si3 0.499852 0.834882 0.847275
Si Si4 0.333732 0.450006 0.015583
Si Si5 0.055617 0.588773 0.025871
Si Si6 0.704768 0.943270 0.851999
Si Si7 0.463380 0.766611 0.566054
Si Si8 0.848582 0.485912 0.508931
O O1 0.403249 0.330535 0.572465
O O2 0.224424 0.355694 0.611125
O O3 0.186666 0.485672 0.888142
O O4 0.256498 0.125770 0.973084
O O5 0.851545 0.292241 0.514995
O O6 0.813190 0.993780 0.584879
O O7 0.955634 0.190549 0.150834
O O8 0.000000 0.000000 0.500000
O O9 0.578364 0.633523 0.908546
O O10 0.448058 0.822443 0.745745
O O11 0.554666 0.031262 0.636220
O O12 0.400489 0.883862 0.089555
O O13 0.331426 0.246472 0.054880
O O14 0.214607 0.525367 0.224419
O O15 0.383325 0.611216 0.745257
O O16 0.974806 0.535186 0.313755
O O17 0.000000 0.500000 0.000000
#
# Coordination Sequence:
#
# PCOD9088803 Si02
#       8
#     2   2   2   2   2   2   2   2
#     4   9  18  36  59  81 115 155 202 239 288 370
#     4  10  19  37  63  89 113 154 211 250 292 367
#     4  10  22  39  60  90 127 158 213 243 292 368
#     4  12  24  39  59  93 131 159 198 255 306 358
#     4   8  17  33  58  84 106 149 199 248 295 339
#     4  11  23  37  58  94 124 156 197 255 312 352
#     4  10  21  38  63  90 116 168 205 247 297 357
#     4  10  20  38  62  86 114 163 202 247 301 361
#
# _framework density 23.871894999999999
#
# number of rings (size 3 to 8) (size 9 to 14) (size 15 to 20)
#    0.000    2.250    1.250    3.750    3.500    2.000 
#    6.750    3.125    0.000    0.000    0.000    0.000 
#    0.000    0.000    0.000    0.000    0.000    0.000 
#
# Total GULP energy -89280.899062 kJ/mol
# GULP energy per Si atom -5580.056191 kJ/mol
# Density = 2.381756 g / cm^3
# Si number density = 23.871895 Si / 1000 Ang^3
#
#
#
# Elastic Constant Matrix: (Units=GPa)
#
#
# Indices 1 2 3 4 5 6 
#
# 1 27.6121 6.0899 22.0132 -0.8985 -15.2988 0.3470
# 2 6.0899 52.0512 19.7322 3.5858 -14.9869 -4.7744
# 3 22.0132 19.7322 112.1977 -5.0859 -42.0801 -0.0233
# 4 -0.8985 3.5858 -5.0859 39.1175 2.7017 -0.4138
# 5 -15.2988 -14.9869 -42.0801 2.7017 39.3027 -3.0060
# 6 0.3470 -4.7744 -0.0233 -0.4138 -3.0060 33.3803
#
#
#
# Elastic Compliance Matrix: (Units=1/GPa)
#
#
# Indices 1 2 3 4 5 6 
#
# 1 0.047233 0.000200 -0.003948 -0.000428 0.014327 0.000820
# 2 0.000200 0.022437 -0.001150 -0.002705 0.007886 0.003883
# 3 -0.003948 -0.001150 0.015379 0.001025 0.014513 0.001207
# 4 -0.000428 -0.002705 0.001025 0.026065 -0.001910 -0.000231
# 5 0.014327 0.007886 0.014513 -0.001910 0.050117 0.005479
# 6 0.000820 0.003883 0.001207 -0.000231 0.005479 0.030996
#
#
# Mechanical properties :
#
#
# Convention : Reuss Voigt Hill
#
# Bulk Modulus (GPa) = 13.28806 31.94795 22.61801
# Shear Modulus (GPa) = 22.01600 31.96181 26.98891
#
# Velocity S-wave (km/s) = 3.04016 3.66305 3.36605
# Velocity P-wave (km/s) = 4.23107 5.59489 4.96007
#
# Compressibility (1/GPa) = 0.07525552
#
# Stress axis : x y z
#
# Youngs Moduli (GPa) = 21.17143 44.56864 65.02166
#
# Poissons Ratio (x) = -0.00893 0.25672
# Poissons Ratio (y) = -0.00424 0.07474
# Poissons Ratio (z) = 0.08359 0.05123
#
# Static dielectric constant tensor:
#      x y z
#    x 2.051620 -0.039980 0.025200 
#    y -0.039980 1.951940 -0.011150 
#    z 0.025200 -0.011150 1.984180 
# 
# From -- ./inp_files/342422.got.cif
#   From: 2010.05.17/outbox.cif.g08.bks.cpg/sg2_172_cif.got.tgz:342422.got - 2010.06.03 11:33:40.
