data_PCOD9088464
_publ_section_title
;
Structure prediction by ZEFSAII (Michael W. Deem and Ramdas Pophale) SiO2 
 PCOD9088464
Probable space group: P -1
;
_chemical_formula_sum "Si O2"
_cell_formula_units_Z 16
_cell_length_a 11.255646
_cell_length_b 7.124941
_cell_length_c 24.423990
_cell_angle_alpha 58.811492
_cell_angle_beta 31.946276
_cell_angle_gamma 43.722189
_cell_volume 691.522719
_symmetry_space_group_name_H-M "P -1"
_symmetry_group_IT_number 2
_symmetry_cell_setting 'triclinic'
loop_
_space_group_symop_operation_xyz
x,y,z
-x,-y,-z
loop_
_atom_site_type_symbol
_atom_site_label
_atom_site_fract_x
_atom_site_fract_y
_atom_site_fract_z
Si Si1 0.798957 0.413012 0.583412
Si Si2 0.711473 0.001943 0.686054
Si Si3 0.980150 0.100659 0.822991
Si Si4 0.465831 0.768156 0.762687
Si Si5 0.550697 0.561125 0.087029
Si Si6 0.949325 0.453998 0.151946
Si Si7 0.876431 0.872985 0.761320
Si Si8 0.640777 0.111546 0.395988
O O1 0.904793 0.098583 0.584966
O O2 0.607167 0.532194 0.696123
O O3 0.599123 0.588807 0.583102
O O4 0.000000 0.500000 0.500000
O O5 0.379310 0.284240 0.770044
O O6 0.701317 0.812262 0.675559
O O7 0.783132 0.867570 0.738273
O O8 0.163468 0.035295 0.815339
O O9 0.167278 0.081420 0.701901
O O10 0.989984 0.827825 0.853421
O O11 0.653946 0.363025 0.896713
O O12 0.409219 0.673160 0.854875
O O13 0.374988 0.841803 0.151563
O O14 0.839709 0.501880 0.964728
O O15 0.023025 0.378260 0.198862
O O16 0.144168 0.878015 0.652944
O O17 0.500000 0.000000 0.500000
#
# Coordination Sequence:
#
# PCOD9088464 Si02
#       8
#     2   2   2   2   2   2   2   2
#     4  11  22  43  68  86 123 162 196 254 308 364
#     4  12  23  40  63  91 127 161 200 254 302 363
#     4   9  19  38  59  88 120 163 203 252 301 359
#     4  11  24  40  60  95 125 157 207 249 304 366
#     4  10  20  37  63  89 122 165 210 252 302 357
#     4  10  20  38  62  90 120 168 210 249 305 357
#     4  10  19  37  61  88 121 163 207 249 301 361
#     4   9  17  33  62  91 110 151 203 242 306 360
#
# _framework density 23.137345
#
# number of rings (size 3 to 8) (size 9 to 14) (size 15 to 20)
#    0.000    2.000    5.000    2.250    1.750    5.000 
#    0.000    1.250    0.000    2.250    0.000    0.000 
#    0.000    0.000    0.000    0.000    0.000    0.000 
#
# Total GULP energy -89429.157760 kJ/mol
# GULP energy per Si atom -5589.322360 kJ/mol
# Density = 2.308468 g / cm^3
# Si number density = 23.137345 Si / 1000 Ang^3
#
#
#
# Elastic Constant Matrix: (Units=GPa)
#
#
# Indices 1 2 3 4 5 6 
#
# 1 135.5235 41.2941 13.3575 -4.9273 -3.1500 -21.5273
# 2 41.2941 63.2383 21.8175 -17.5542 4.5288 -15.5284
# 3 13.3575 21.8175 115.4374 -27.8151 -8.9102 0.1615
# 4 -4.9273 -17.5542 -27.8151 29.3189 -4.4708 -3.4955
# 5 -3.1500 4.5288 -8.9102 -4.4708 14.4757 -1.0457
# 6 -21.5273 -15.5284 0.1615 -3.4955 -1.0457 36.8700
#
#
#
# Elastic Compliance Matrix: (Units=1/GPa)
#
#
# Indices 1 2 3 4 5 6 
#
# 1 0.009830 -0.006259 0.000120 -0.000986 0.004092 0.003125
# 2 -0.006259 0.026799 -0.001487 0.013748 -0.005781 0.008778
# 3 0.000120 -0.001487 0.013262 0.013821 0.013000 0.001065
# 4 -0.000986 0.013748 0.013821 0.060233 0.023427 0.011529
# 5 0.004092 -0.005781 0.013000 0.023427 0.087349 0.004596
# 6 0.003125 0.008778 0.001065 0.011529 0.004596 0.033863
#
#
# Mechanical properties :
#
#
# Convention : Reuss Voigt Hill
#
# Bulk Modulus (GPa) = 28.86955 51.90417 40.38686
# Shear Modulus (GPa) = 19.36973 31.98161 25.67567
#
# Velocity S-wave (km/s) = 2.89652 3.72190 3.33484
# Velocity P-wave (km/s) = 4.86734 6.39936 5.68519
#
# Compressibility (1/GPa) = 0.03463857
#
# Stress axis : x y z
#
# Youngs Moduli (GPa) = 101.72978 37.31437 75.40368
#
# Poissons Ratio (x) = 0.23357 -0.00902
# Poissons Ratio (y) = 0.63677 0.11209
# Poissons Ratio (z) = -0.01216 0.05547
#
# Static dielectric constant tensor:
#      x y z
#    x 1.882520 0.024810 -0.024340 
#    y 0.024810 1.894620 0.008160 
#    z -0.024340 0.008160 1.853330 
# 
# From -- ./inp_files/618065.got.cif
#   From: 2010.05.17/outbox.cif.g08.bks.cpg/sg2_310_cif.got.tgz:618065.got - 2010.06.03 11:33:40.
