data_PCOD9088792
_publ_section_title
;
Structure prediction by ZEFSAII (Michael W. Deem and Ramdas Pophale) SiO2 
 PCOD9088792
Probable space group: P -1
;
_chemical_formula_sum "Si O2"
_cell_formula_units_Z 14
_cell_length_a 13.411343
_cell_length_b 11.311290
_cell_length_c 12.922576
_cell_angle_alpha 38.232290
_cell_angle_beta 31.488761
_cell_angle_gamma 41.544975
_cell_volume 614.655545
_symmetry_space_group_name_H-M "P -1"
_symmetry_group_IT_number 2
_symmetry_cell_setting 'triclinic'
loop_
_space_group_symop_operation_xyz
x,y,z
-x,-y,-z
loop_
_atom_site_type_symbol
_atom_site_label
_atom_site_fract_x
_atom_site_fract_y
_atom_site_fract_z
Si Si1 0.440814 0.307177 0.313327
Si Si2 0.554442 0.944226 0.135463
Si Si3 0.978588 0.707925 0.939220
Si Si4 0.351227 0.335316 0.143534
Si Si5 0.910972 0.512888 0.341711
Si Si6 0.426373 0.615436 0.377203
Si Si7 0.366297 0.779848 0.604141
O O1 0.384212 0.247414 0.291170
O O2 0.241112 0.384173 0.504981
O O3 0.595107 0.162526 0.352713
O O4 0.550578 0.480932 0.073561
O O5 0.783865 0.862095 0.968465
O O6 0.447815 0.833386 0.224154
O O7 0.512042 0.851515 0.348134
O O8 0.465754 0.172182 0.074371
O O9 0.956015 0.659593 0.113565
O O10 0.000000 0.500000 0.000000
O O11 0.158025 0.813857 0.708464
O O12 0.119475 0.397690 0.281467
O O13 0.789446 0.385547 0.470323
O O14 0.500000 0.500000 0.500000
O O15 0.571729 0.460912 0.281338
#
# Coordination Sequence:
#
# PCOD9088792 Si02
#       7
#     2   2   2   2   2   2   2
#     4  10  22  44  64  85 123 168 212 243 308 372
#     4  11  22  39  59  98 127 149 209 263 295 353
#     4  12  20  36  67  91 119 169 201 240 313 373
#     4  11  25  40  64  90 125 164 202 262 306 350
#     4  11  21  40  65  89 119 170 205 239 315 374
#     4   9  16  35  59  86 119 152 195 246 291 366
#     4  10  19  37  63  88 117 166 209 243 297 371
#
# _framework density 22.776983999999999
#
# number of rings (size 3 to 8) (size 9 to 14) (size 15 to 20)
#    0.000    1.429    7.143    1.286    0.000    2.286 
#    0.000    7.143    0.000    0.000    0.000    0.000 
#    0.000    0.000    0.000    0.000    0.000    0.000 
#
# Total GULP energy -78105.212875 kJ/mol
# GULP energy per Si atom -5578.943777 kJ/mol
# Density = 2.272514 g / cm^3
# Si number density = 22.776984 Si / 1000 Ang^3
#
#
#
# Elastic Constant Matrix: (Units=GPa)
#
#
# Indices 1 2 3 4 5 6 
#
# 1 124.3084 33.8546 24.2677 17.3962 1.5229 12.6990
# 2 33.8546 67.6948 19.3897 13.1665 -26.1098 -9.0679
# 3 24.2677 19.3897 54.2521 21.8412 -8.9954 -12.8647
# 4 17.3962 13.1665 21.8412 35.1556 -8.2552 0.2315
# 5 1.5229 -26.1098 -8.9954 -8.2552 44.6441 8.5219
# 6 12.6990 -9.0679 -12.8647 0.2315 8.5219 23.4666
#
#
#
# Elastic Compliance Matrix: (Units=1/GPa)
#
#
# Indices 1 2 3 4 5 6 
#
# 1 0.012609 -0.007530 -0.006215 -0.000403 -0.003926 -0.011711
# 2 -0.007530 0.025279 -0.000374 -0.002570 0.012767 0.009027
# 3 -0.006215 -0.000374 0.033760 -0.018089 -0.000785 0.022190
# 4 -0.000403 -0.002570 -0.018089 0.042136 0.005133 -0.012972
# 5 -0.003926 0.012767 -0.000785 0.005133 0.031736 -0.004948
# 6 -0.011711 0.009027 0.022190 -0.012972 -0.004948 0.066529
#
#
# Mechanical properties :
#
#
# Convention : Reuss Voigt Hill
#
# Bulk Modulus (GPa) = 23.03591 44.58661 33.81126
# Shear Modulus (GPa) = 19.62650 31.90281 25.76465
#
# Velocity S-wave (km/s) = 2.93863 3.74660 3.36694
# Velocity P-wave (km/s) = 4.65292 6.19143 5.47647
#
# Compressibility (1/GPa) = 0.04341049
#
# Stress axis : x y z
#
# Youngs Moduli (GPa) = 79.30548 39.55895 29.62062
#
# Poissons Ratio (x) = 0.29790 0.18408
# Poissons Ratio (y) = 0.59721 0.01107
# Poissons Ratio (z) = 0.49286 0.01479
#
# Static dielectric constant tensor:
#      x y z
#    x 1.928060 0.013800 0.039530 
#    y 0.013800 1.871900 -0.024600 
#    z 0.039530 -0.024600 1.921720 
# 
# From -- ./inp_files/530946.got.cif
#   From: 2010.05.17/outbox.cif.g08.bks.cpg/sg2_266_cif.got.tgz:530946.got - 2010.06.03 11:33:40.
