data_PCOD9088295
_publ_section_title
;
Structure prediction by ZEFSAII (Michael W. Deem and Ramdas Pophale) SiO2 
 PCOD9088295
Probable space group: P -1
;
_chemical_formula_sum "Si O2"
_cell_formula_units_Z 13
_cell_length_a 17.789777
_cell_length_b 19.974439
_cell_length_c 6.896708
_cell_angle_alpha 37.334246
_cell_angle_beta 135.912140
_cell_angle_gamma 160.119339
_cell_volume 500.237287
_symmetry_space_group_name_H-M "P -1"
_symmetry_group_IT_number 2
_symmetry_cell_setting 'triclinic'
loop_
_space_group_symop_operation_xyz
x,y,z
-x,-y,-z
loop_
_atom_site_type_symbol
_atom_site_label
_atom_site_fract_x
_atom_site_fract_y
_atom_site_fract_z
Si Si1 0.580953 0.836772 0.536401
Si Si2 0.087654 0.312570 0.725127
Si Si3 0.359780 0.138840 0.948682
Si Si4 0.500000 0.500000 0.500000
Si Si5 0.672246 0.237606 0.170565
Si Si6 0.727824 0.737023 0.982145
Si Si7 0.125802 0.712061 0.923653
O O1 0.325553 0.568729 0.649751
O O2 0.689123 0.048513 0.179852
O O3 0.593207 0.851441 0.760804
O O4 0.738042 0.878064 0.653395
O O5 0.105076 0.202939 0.931965
O O6 0.003438 0.316825 0.389466
O O7 0.888938 0.127439 0.939526
O O8 0.395976 0.301305 0.640511
O O9 0.543916 0.239352 0.934764
O O10 0.692326 0.686730 0.260094
O O11 0.746685 0.257336 0.054039
O O12 0.500000 0.000000 0.500000
O O13 0.914197 0.465239 0.202087
O O14 0.500000 0.500000 0.000000
#
# Coordination Sequence:
#
# PCOD9088295 Si02
#       7
#     2   2   2   1   2   2   2
#     4   9  19  37  57  86 121 159 204 250 312 371
#     4  10  19  37  60  87 123 162 200 256 316 365
#     4  10  21  37  60  89 124 159 204 259 308 375
#     4  10  20  36  60  90 120 166 212 246 318 382
#     4  11  20  40  61  85 123 155 204 261 304 369
#     4   9  19  35  58  88 127 163 205 263 307 370
#     4  10  22  37  64  82 114 170 198 252 320 364
#
# _framework density 25.987669
#
# number of rings (size 3 to 8) (size 9 to 14) (size 15 to 20)
#    0.000    2.154    3.077    0.923    0.000    6.769 
#    0.000   17.692    0.000    1.846    0.000    0.000 
#    0.000    0.000    0.000    0.000    0.000    0.000 
#
# Total GULP energy -72408.577501 kJ/mol
# GULP energy per Si atom -5569.890577 kJ/mol
# Density = 2.592852 g / cm^3
# Si number density = 25.987669 Si / 1000 Ang^3
#
#
#
# Elastic Constant Matrix: (Units=GPa)
#
#
# Indices 1 2 3 4 5 6 
#
# 1 160.9736 57.0534 29.6346 -21.6295 21.6130 25.0865
# 2 57.0534 153.3698 56.8822 -49.3467 11.0301 7.5876
# 3 29.6346 56.8822 95.8727 -55.3844 8.8598 7.0546
# 4 -21.6295 -49.3467 -55.3844 57.1445 -1.7001 3.3296
# 5 21.6130 11.0301 8.8598 -1.7001 47.1391 -6.0185
# 6 25.0865 7.5876 7.0546 3.3296 -6.0185 44.1266
#
#
#
# Elastic Compliance Matrix: (Units=1/GPa)
#
#
# Indices 1 2 3 4 5 6 
#
# 1 0.008533 -0.002154 0.000715 0.002250 -0.004142 -0.005330
# 2 -0.002154 0.010057 -0.001319 0.006616 -0.000998 -0.000929
# 3 0.000715 -0.001319 0.026380 0.024957 -0.004966 -0.006958
# 4 0.002250 0.006616 0.024957 0.048689 -0.006922 -0.011025
# 5 -0.004142 -0.000998 -0.004966 -0.006922 0.024955 0.007246
# 6 -0.005330 -0.000929 -0.006958 -0.011025 0.007246 0.028785
#
#
# Mechanical properties :
#
#
# Convention : Reuss Voigt Hill
#
# Bulk Modulus (GPa) = 25.34503 77.48405 51.41454
# Shear Modulus (GPa) = 30.10865 47.45844 38.78354
#
# Velocity S-wave (km/s) = 3.40748 4.27803 3.86733
# Velocity P-wave (km/s) = 5.02544 7.36767 6.30625
#
# Compressibility (1/GPa) = 0.03945547
#
# Stress axis : x y z
#
# Youngs Moduli (GPa) = 117.19114 99.43487 37.90736
#
# Poissons Ratio (x) = 0.21418 -0.02712
# Poissons Ratio (y) = 0.25242 0.04999
# Poissons Ratio (z) = -0.08384 0.13112
#
# Static dielectric constant tensor:
#      x y z
#    x 2.007900 -0.031480 -0.021870 
#    y -0.031480 2.123420 0.018870 
#    z -0.021870 0.018870 2.149770 
# 
# From -- ./inp_files/337490.got.cif
#   From: 2010.05.17/outbox.cif.g08.bks.cpg/sg2_169_cif.got.tgz:337490.got - 2010.06.03 11:33:40.
