data_PCOD9088030
_publ_section_title
;
Structure prediction by ZEFSAII (Michael W. Deem and Ramdas Pophale) SiO2 
 PCOD9088030
Probable space group: P -1
;
_chemical_formula_sum "Si O2"
_cell_formula_units_Z 16
_cell_length_a 9.108637
_cell_length_b 9.061592
_cell_length_c 14.194817
_cell_angle_alpha 51.419752
_cell_angle_beta 121.748279
_cell_angle_gamma 91.082694
_cell_volume 689.447532
_symmetry_space_group_name_H-M "P -1"
_symmetry_group_IT_number 2
_symmetry_cell_setting 'triclinic'
loop_
_space_group_symop_operation_xyz
x,y,z
-x,-y,-z
loop_
_atom_site_type_symbol
_atom_site_label
_atom_site_fract_x
_atom_site_fract_y
_atom_site_fract_z
Si Si1 0.187918 0.587225 0.119685
Si Si2 0.564550 0.978416 0.215887
Si Si3 0.235489 0.905378 0.403728
Si Si4 0.880582 0.872269 0.530517
Si Si5 0.731095 0.780029 0.840186
Si Si6 0.955754 0.422858 0.723782
Si Si7 0.179030 0.993095 0.873080
Si Si8 0.395040 0.463024 0.569920
O O1 0.299891 0.372156 0.183516
O O2 0.178572 0.565689 0.237024
O O3 0.959817 0.677287 0.979444
O O4 0.241719 0.768234 0.033234
O O5 0.723734 0.924354 0.374660
O O6 0.658691 0.009401 0.140920
O O7 0.518541 0.778968 0.271426
O O8 0.381367 0.182445 0.115225
O O9 0.358934 0.650980 0.556069
O O10 0.016669 0.960712 0.272474
O O11 0.218931 0.039205 0.437784
O O12 0.325041 0.993194 0.317983
O O13 0.007757 0.615621 0.679557
O O14 0.000000 0.000000 0.500000
O O15 0.820428 0.481816 0.562241
O O16 0.117523 0.183633 0.852259
O O17 0.500000 0.500000 0.500000
#
# Coordination Sequence:
#
# PCOD9088030 Si02
#       8
#     2   2   2   2   2   2   2   2
#     4  10  21  41  63  83 113 159 209 243 285 341
#     4  11  23  38  59  93 122 153 195 239 308 349
#     4  10  19  37  58  86 119 159 193 232 302 346
#     4  11  22  35  61  92 124 150 190 248 295 355
#     4  10  21  37  63  87 115 156 201 249 284 352
#     4  10  22  38  64  87 114 160 204 233 290 359
#     4  10  22  38  59  86 120 158 193 244 292 350
#     4  10  21  36  61  89 123 151 184 245 298 356
#
# _framework density 23.206989
#
# number of rings (size 3 to 8) (size 9 to 14) (size 15 to 20)
#    0.000    1.750    3.750    0.375    1.750    3.500 
#    0.000    0.625    0.000    0.000    0.000    0.000 
#    0.000    0.000    0.000    0.000    0.000    0.000 
#
# Total GULP energy -89477.755694 kJ/mol
# GULP energy per Si atom -5592.359731 kJ/mol
# Density = 2.315417 g / cm^3
# Si number density = 23.206989 Si / 1000 Ang^3
#
#
#
# Elastic Constant Matrix: (Units=GPa)
#
#
# Indices 1 2 3 4 5 6 
#
# 1 103.4751 49.4961 28.2352 -22.0122 -25.4514 -4.6191
# 2 49.4961 174.9615 56.2424 -28.1704 -6.7940 -5.2223
# 3 28.2352 56.2424 55.2060 -17.4031 -17.5566 8.4096
# 4 -22.0122 -28.1704 -17.4031 49.2393 9.3143 4.1987
# 5 -25.4514 -6.7940 -17.5566 9.3143 22.1571 -0.3793
# 6 -4.6191 -5.2223 8.4096 4.1987 -0.3793 35.1405
#
#
#
# Elastic Compliance Matrix: (Units=1/GPa)
#
#
# Indices 1 2 3 4 5 6 
#
# 1 0.015957 -0.004237 0.002441 0.002077 0.018106 0.000831
# 2 -0.004237 0.011045 -0.013086 0.001847 -0.012559 0.003860
# 3 0.002441 -0.013086 0.043209 0.004020 0.031132 -0.012109
# 4 0.002077 0.001847 0.004020 0.024832 -0.004361 -0.003429
# 5 0.018106 -0.012559 0.031132 -0.004361 0.088487 -0.005461
# 6 0.000831 0.003860 -0.012109 -0.003429 -0.005461 0.032389
#
#
# Mechanical properties :
#
#
# Convention : Reuss Voigt Hill
#
# Bulk Modulus (GPa) = 24.72252 66.84331 45.78291
# Shear Modulus (GPa) = 19.29278 34.61865 26.95571
#
# Velocity S-wave (km/s) = 2.88642 3.86649 3.41183
# Velocity P-wave (km/s) = 4.66741 6.98560 5.94068
#
# Compressibility (1/GPa) = 0.04044895
#
# Stress axis : x y z
#
# Youngs Moduli (GPa) = 62.66905 90.53523 23.14317
#
# Poissons Ratio (x) = 0.38356 -0.05649
# Poissons Ratio (y) = 0.26550 0.30284
# Poissons Ratio (z) = -0.15297 1.18472
#
# Static dielectric constant tensor:
#      x y z
#    x 1.869740 0.019110 0.055150 
#    y 0.019110 1.873510 0.030430 
#    z 0.055150 0.030430 1.909950 
# 
# From -- ./inp_files/177867.got.cif
#   From: 2010.05.17/outbox.cif.g08.bks.cpg/sg2_89_cif.got.tgz:177867.got - 2010.06.03 11:33:40.
