data_PCOD9088568
_publ_section_title
;
Structure prediction by ZEFSAII (Michael W. Deem and Ramdas Pophale) SiO2 
 PCOD9088568
Probable space group: P -1
;
_chemical_formula_sum "Si O2"
_cell_formula_units_Z 16
_cell_length_a 11.632003
_cell_length_b 10.510049
_cell_length_c 16.495087
_cell_angle_alpha 147.454663
_cell_angle_beta 43.011085
_cell_angle_gamma 127.939486
_cell_volume 740.012049
_symmetry_space_group_name_H-M "P -1"
_symmetry_group_IT_number 2
_symmetry_cell_setting 'triclinic'
loop_
_space_group_symop_operation_xyz
x,y,z
-x,-y,-z
loop_
_atom_site_type_symbol
_atom_site_label
_atom_site_fract_x
_atom_site_fract_y
_atom_site_fract_z
Si Si1 0.733668 0.114414 0.669476
Si Si2 0.002623 0.847453 0.313191
Si Si3 0.247814 0.378233 0.117468
Si Si4 0.421940 0.872659 0.738281
Si Si5 0.097124 0.607451 0.787669
Si Si6 0.497007 0.752443 0.819305
Si Si7 0.822544 0.637987 0.671616
Si Si8 0.873666 0.203966 0.949510
O O1 0.680232 0.387564 0.836342
O O2 0.820044 0.094669 0.703571
O O3 0.880768 0.071700 0.504602
O O4 0.587469 0.924137 0.628491
O O5 0.916400 0.659464 0.317010
O O6 0.023204 0.744333 0.157740
O O7 0.252650 0.415168 0.230303
O O8 0.055276 0.352322 0.173188
O O9 0.335362 0.129860 0.921560
O O10 0.274257 0.684435 0.699065
O O11 0.486683 0.809583 0.760702
O O12 0.066263 0.748325 0.964105
O O13 0.663891 0.603104 0.673999
O O14 0.308541 0.664094 0.890975
O O15 0.500000 0.000000 0.000000
O O16 0.000000 0.500000 0.500000
O O17 0.856781 0.919182 0.799799
#
# Coordination Sequence:
#
# PCOD9088568 Si02
#       8
#     2   2   2   2   2   2   2   2
#     4  10  22  36  57  90 119 154 192 254 300 344
#     4  10  21  38  59  87 120 151 202 244 301 346
#     4  11  21  37  59  88 121 155 201 240 298 355
#     4  11  20  37  62  85 119 153 205 241 291 357
#     4  10  22  37  62  87 114 162 199 242 293 359
#     4   9  17  33  56  86 111 151 197 238 283 343
#     4  11  21  34  59  90 125 153 189 249 304 348
#     4  10  19  37  62  82 117 158 202 241 281 363
#
# _framework density 21.621269999999999
#
# number of rings (size 3 to 8) (size 9 to 14) (size 15 to 20)
#    0.000    1.750    3.750    3.375    0.000    2.500 
#    0.000    1.250    0.000    0.750    0.000    0.000 
#    0.000    0.000    0.000    0.000    0.000    0.000 
#
# Total GULP energy -89224.232174 kJ/mol
# GULP energy per Si atom -5576.514511 kJ/mol
# Density = 2.157206 g / cm^3
# Si number density = 21.621270 Si / 1000 Ang^3
#
#
#
# Elastic Constant Matrix: (Units=GPa)
#
#
# Indices 1 2 3 4 5 6 
#
# 1 103.3351 28.0558 19.4165 -0.3425 -22.2507 4.4781
# 2 28.0558 88.0938 6.0730 -5.5533 -12.8066 15.3982
# 3 19.4165 6.0730 63.1330 4.2885 -22.0422 2.7752
# 4 -0.3425 -5.5533 4.2885 15.9667 -2.3768 -3.4061
# 5 -22.2507 -12.8066 -22.0422 -2.3768 41.2330 -0.7016
# 6 4.4781 15.3982 2.7752 -3.4061 -0.7016 23.5981
#
#
#
# Elastic Compliance Matrix: (Units=1/GPa)
#
#
# Indices 1 2 3 4 5 6 
#
# 1 0.011787 -0.002969 -0.001799 0.000396 0.004502 0.000103
# 2 -0.002969 0.014404 0.000839 0.003445 0.003377 -0.008337
# 3 -0.001799 0.000839 0.020141 -0.004324 0.009757 -0.002909
# 4 0.000396 0.003445 -0.004324 0.067141 0.002978 0.007965
# 5 0.004502 0.003377 0.009757 0.002978 0.033071 -0.002792
# 6 0.000103 -0.008337 -0.002909 0.007965 -0.002792 0.049205
#
#
# Mechanical properties :
#
#
# Convention : Reuss Voigt Hill
#
# Bulk Modulus (GPa) = 25.99134 40.18361 33.08747
# Shear Modulus (GPa) = 23.10187 29.56067 26.33127
#
# Velocity S-wave (km/s) = 3.27231 3.70158 3.49354
# Velocity P-wave (km/s) = 5.13075 6.07409 5.62224
#
# Compressibility (1/GPa) = 0.03847436
#
# Stress axis : x y z
#
# Youngs Moduli (GPa) = 84.83567 69.42278 49.65104
#
# Poissons Ratio (x) = 0.20609 0.08934
# Poissons Ratio (y) = 0.25184 -0.04165
# Poissons Ratio (z) = 0.15265 -0.05824
#
# Static dielectric constant tensor:
#      x y z
#    x 1.825100 0.033120 -0.003650 
#    y 0.033120 1.868700 -0.018850 
#    z -0.003650 -0.018850 1.838930 
# 
# From -- ./inp_files/260006.got.cif
#   From: 2010.05.17/outbox.cif.g08.bks.cpg/sg2_131_cif.got.tgz:260006.got - 2010.06.03 11:33:40.
