data_PCOD9088693
_publ_section_title
;
Structure prediction by ZEFSAII (Michael W. Deem and Ramdas Pophale) SiO2 
 PCOD9088693
Probable space group: P -1
;
_chemical_formula_sum "Si O2"
_cell_formula_units_Z 14
_cell_length_a 8.719923
_cell_length_b 14.289183
_cell_length_c 16.554797
_cell_angle_alpha 23.079547
_cell_angle_beta 86.814252
_cell_angle_gamma 69.808222
_cell_volume 532.880126
_symmetry_space_group_name_H-M "P -1"
_symmetry_group_IT_number 2
_symmetry_cell_setting 'triclinic'
loop_
_space_group_symop_operation_xyz
x,y,z
-x,-y,-z
loop_
_atom_site_type_symbol
_atom_site_label
_atom_site_fract_x
_atom_site_fract_y
_atom_site_fract_z
Si Si1 0.042568 0.934797 0.145171
Si Si2 0.075126 0.140428 0.196832
Si Si3 0.879331 0.438959 0.417758
Si Si4 0.462271 0.448645 0.244303
Si Si5 0.568858 0.690375 0.821042
Si Si6 0.309796 0.052985 0.114273
Si Si7 0.637995 0.908848 0.331035
O O1 0.783627 0.286107 0.911635
O O2 0.242305 0.888219 0.202962
O O3 0.131684 0.592764 0.461342
O O4 0.000000 0.000000 0.000000
O O5 0.307194 0.856950 0.467571
O O6 0.110283 0.289300 0.004181
O O7 0.054010 0.899995 0.349231
O O8 0.841972 0.437223 0.019298
O O9 0.686699 0.760176 0.106782
O O10 0.087382 0.381743 0.445291
O O11 0.478420 0.269187 0.305401
O O12 0.459350 0.729620 0.991279
O O13 0.440970 0.996024 0.649402
O O14 0.500000 0.500000 0.000000
O O15 0.533569 0.824180 0.345669
#
# Coordination Sequence:
#
# PCOD9088693 Si02
#       7
#     2   2   2   2   2   2   2
#     4  10  23  46  69  90 121 163 208 259 320 373
#     4  11  21  38  63  89 129 169 205 248 309 365
#     4  10  21  42  63  89 135 160 200 261 307 363
#     4  10  20  40  62  88 130 164 202 260 308 361
#     4  10  19  37  62  93 125 174 208 243 309 364
#     4  11  23  39  65  92 125 164 205 257 310 366
#     4  10  21  36  65  92 124 170 208 248 308 363
#
# _framework density 26.272324999999999
#
# number of rings (size 3 to 8) (size 9 to 14) (size 15 to 20)
#    0.000    1.714    7.143    0.000    2.000    4.571 
#    0.000    7.143    0.000    0.000    0.000    0.000 
#    0.000    0.000    0.000    0.000    0.000    0.000 
#
# Total GULP energy -78311.988651 kJ/mol
# GULP energy per Si atom -5593.713475 kJ/mol
# Density = 2.621253 g / cm^3
# Si number density = 26.272325 Si / 1000 Ang^3
#
#
#
# Elastic Constant Matrix: (Units=GPa)
#
#
# Indices 1 2 3 4 5 6 
#
# 1 124.3844 65.6043 37.7483 15.7793 28.5003 14.9254
# 2 65.6043 200.2416 68.0898 41.0948 14.7915 -15.4003
# 3 37.7483 68.0898 145.7913 41.4572 24.0872 -7.1165
# 4 15.7793 41.0948 41.4572 48.7294 3.5587 3.6500
# 5 28.5003 14.7915 24.0872 3.5587 52.9994 17.2195
# 6 14.9254 -15.4003 -7.1165 3.6500 17.2195 38.8442
#
#
#
# Elastic Compliance Matrix: (Units=1/GPa)
#
#
# Indices 1 2 3 4 5 6 
#
# 1 0.011543 -0.003713 -0.001295 0.001086 -0.003067 -0.004887
# 2 -0.003713 0.008097 -0.000840 -0.005231 -0.001339 0.005568
# 3 -0.001295 -0.000840 0.011081 -0.008313 -0.005274 0.005314
# 4 0.001086 -0.005231 -0.008313 0.031956 0.005594 -0.009496
# 5 -0.003067 -0.001339 -0.005274 0.005594 0.027088 -0.012852
# 6 -0.004887 0.005568 0.005314 -0.009496 -0.012852 0.037392
#
#
# Mechanical properties :
#
#
# Convention : Reuss Voigt Hill
#
# Bulk Modulus (GPa) = 52.56249 90.36690 71.46470
# Shear Modulus (GPa) = 34.43661 48.04627 41.24144
#
# Velocity S-wave (km/s) = 3.62436 4.28106 3.96633
# Velocity P-wave (km/s) = 6.12902 7.67513 6.94523
#
# Compressibility (1/GPa) = 0.01902497
#
# Stress axis : x y z
#
# Youngs Moduli (GPa) = 86.63548 123.50704 90.24461
#
# Poissons Ratio (x) = 0.45863 0.11684
# Poissons Ratio (y) = 0.32171 0.07576
# Poissons Ratio (z) = 0.11217 0.10368
#
# Static dielectric constant tensor:
#      x y z
#    x 2.075460 -0.013870 -0.100260 
#    y -0.013870 2.085520 0.001340 
#    z -0.100260 0.001340 2.082150 
# 
# From -- ./inp_files/503618.got.cif
#   From: 2010.05.17/outbox.cif.g08.bks.cpg/sg2_252_cif.got.tgz:503618.got - 2010.06.03 11:33:40.
