data_PCOD9088617
_publ_section_title
;
Structure prediction by ZEFSAII (Michael W. Deem and Ramdas Pophale) SiO2 
 PCOD9088617
Probable space group: P -1
;
_chemical_formula_sum "Si O2"
_cell_formula_units_Z 16
_cell_length_a 9.271960
_cell_length_b 12.305958
_cell_length_c 12.859444
_cell_angle_alpha 134.177784
_cell_angle_beta 123.711312
_cell_angle_gamma 59.545405
_cell_volume 857.432504
_symmetry_space_group_name_H-M "P -1"
_symmetry_group_IT_number 2
_symmetry_cell_setting 'triclinic'
loop_
_space_group_symop_operation_xyz
x,y,z
-x,-y,-z
loop_
_atom_site_type_symbol
_atom_site_label
_atom_site_fract_x
_atom_site_fract_y
_atom_site_fract_z
Si Si1 0.646763 0.594299 0.659532
Si Si2 0.009858 0.456195 0.596631
Si Si3 0.923185 0.186400 0.672070
Si Si4 0.606431 0.582909 0.184709
Si Si5 0.678157 0.784072 0.178791
Si Si6 0.920693 0.137103 0.409211
Si Si7 0.319497 0.513919 0.162688
Si Si8 0.557899 0.065163 0.173419
O O1 0.500000 0.500000 0.500000
O O2 0.674581 0.551941 0.763442
O O3 0.569238 0.775910 0.739893
O O4 0.831742 0.545029 0.640868
O O5 0.188458 0.483527 0.745248
O O6 0.000000 0.500000 0.500000
O O7 0.999827 0.275608 0.486490
O O8 0.836936 0.185379 0.523041
O O9 0.838630 0.336234 0.803601
O O10 0.122609 0.191642 0.722914
O O11 0.938073 0.023061 0.626263
O O12 0.609772 0.745385 0.238212
O O13 0.492734 0.576955 0.238825
O O14 0.500000 0.500000 0.000000
O O15 0.568240 0.932007 0.175271
O O16 0.692006 0.628600 0.011963
O O17 0.753434 0.100676 0.256890
O O18 0.500000 0.000000 0.000000
#
# Coordination Sequence:
#
# PCOD9088617 Si02
#       8
#     2   2   2   2   2   2   2   2
#     4  12  22  40  65  94 124 167 221 257 312 391
#     4  12  24  42  66  92 130 169 213 265 324 377
#     4  10  19  37  62  88 112 157 212 257 302 371
#     4  10  23  40  60  92 128 166 204 263 319 371
#     4  10  20  38  63  88 128 160 202 262 318 367
#     4  10  21  37  61  85 124 155 204 259 315 367
#     4  11  20  36  63  89 120 161 211 257 307 381
#     4  11  22  38  63  96 127 163 205 265 318 375
#
# _framework density 18.660361000000002
#
# number of rings (size 3 to 8) (size 9 to 14) (size 15 to 20)
#    0.000    1.250    5.000    1.125    0.000    1.000 
#    2.250    0.625    0.000    3.750    0.000    0.000 
#    0.000    0.000    0.000    0.000    0.000    0.000 
#
# Total GULP energy -89211.720145 kJ/mol
# GULP energy per Si atom -5575.732509 kJ/mol
# Density = 1.861789 g / cm^3
# Si number density = 18.660361 Si / 1000 Ang^3
#
#
#
# Elastic Constant Matrix: (Units=GPa)
#
#
# Indices 1 2 3 4 5 6 
#
# 1 107.8665 61.6161 31.1414 -7.3394 2.6882 10.7283
# 2 61.6161 150.9283 45.2728 17.8047 -1.9604 7.4595
# 3 31.1414 45.2728 88.7598 -3.5351 12.5812 -0.2665
# 4 -7.3394 17.8047 -3.5351 39.1330 -2.7051 1.7967
# 5 2.6882 -1.9604 12.5812 -2.7051 28.2146 -5.0972
# 6 10.7283 7.4595 -0.2665 1.7967 -5.0972 23.9044
#
#
#
# Elastic Compliance Matrix: (Units=1/GPa)
#
#
# Indices 1 2 3 4 5 6 
#
# 1 0.013778 -0.005492 -0.001646 0.005074 -0.001408 -0.005170
# 2 -0.005492 0.010906 -0.004249 -0.006198 0.002587 0.000032
# 3 -0.001646 -0.004249 0.015032 0.002504 -0.006482 0.000662
# 4 0.005074 -0.006198 0.002504 0.029691 0.000370 -0.002468
# 5 -0.001408 0.002587 -0.006482 0.000370 0.040180 0.008292
# 6 -0.005170 0.000032 0.000662 -0.002468 0.008292 0.046104
#
#
# Mechanical properties :
#
#
# Convention : Reuss Voigt Hill
#
# Bulk Modulus (GPa) = 59.03325 69.29058 64.16191
# Shear Modulus (GPa) = 27.15726 32.21870 29.68798
#
# Velocity S-wave (km/s) = 3.81904 4.15973 3.99302
# Velocity P-wave (km/s) = 7.15200 7.76429 7.46442
#
# Compressibility (1/GPa) = 0.01693961
#
# Stress axis : x y z
#
# Youngs Moduli (GPa) = 72.58013 91.69540 66.52580
#
# Poissons Ratio (x) = 0.50362 0.10953
# Poissons Ratio (y) = 0.39863 0.28267
# Poissons Ratio (z) = 0.11950 0.38962
#
# Static dielectric constant tensor:
#      x y z
#    x 1.634990 -0.000960 0.023930 
#    y -0.000960 1.673430 -0.026510 
#    z 0.023930 -0.026510 1.754660 
# 
# From -- ./inp_files/305194.got.cif
#   From: 2010.05.17/outbox.cif.g08.bks.cpg/sg2_153_cif.got.tgz:305194.got - 2010.06.03 11:33:40.
