data_PCOD9088908
_publ_section_title
;
Structure prediction by ZEFSAII (Michael W. Deem and Ramdas Pophale) SiO2 
 PCOD9088908
Probable space group: P -1
;
_chemical_formula_sum "Si O2"
_cell_formula_units_Z 16
_cell_length_a 9.407905
_cell_length_b 13.356623
_cell_length_c 15.927022
_cell_angle_alpha 44.910530
_cell_angle_beta 146.899329
_cell_angle_gamma 133.726478
_cell_volume 746.323183
_symmetry_space_group_name_H-M "P -1"
_symmetry_group_IT_number 2
_symmetry_cell_setting 'triclinic'
loop_
_space_group_symop_operation_xyz
x,y,z
-x,-y,-z
loop_
_atom_site_type_symbol
_atom_site_label
_atom_site_fract_x
_atom_site_fract_y
_atom_site_fract_z
Si Si1 0.290606 0.101832 0.108045
Si Si2 0.500161 0.142271 0.843405
Si Si3 0.913104 0.686952 0.002098
Si Si4 0.238700 0.456923 0.337667
Si Si5 0.618802 0.976448 0.482487
Si Si6 0.082194 0.145278 0.512813
Si Si7 0.212511 0.328616 0.235532
Si Si8 0.402383 0.808601 0.966991
O O1 0.451795 0.164216 0.066039
O O2 0.433143 0.004806 0.296372
O O3 0.256261 0.239502 0.063457
O O4 0.000000 0.000000 0.000000
O O5 0.382834 0.185940 0.673232
O O6 0.822418 0.184201 0.969318
O O7 0.367651 0.969522 0.878433
O O8 0.436448 0.215468 0.854982
O O9 0.043670 0.565189 0.178927
O O10 0.755342 0.633949 0.869076
O O11 0.500000 0.500000 0.500000
O O12 0.065111 0.292729 0.371730
O O13 0.337857 0.448355 0.295853
O O14 0.687577 0.818425 0.610051
O O15 0.500000 0.000000 0.500000
O O16 0.890773 0.101414 0.524273
O O17 0.000000 0.000000 0.500000
O O18 0.891414 0.298696 0.111597
#
# Coordination Sequence:
#
# PCOD9088908 Si02
#       8
#     2   2   2   2   2   2   2   2
#     4  12  25  37  63 103 139 175 218 286 342 395
#     4  10  19  37  63  96 130 172 221 275 328 390
#     4  11  24  43  64  99 142 178 220 275 348 405
#     4  12  25  42  72 104 134 177 232 285 334 407
#     4  12  25  41  69 103 133 174 229 286 339 390
#     4  12  23  42  70  99 130 176 231 282 330 402
#     4  11  23  45  68  96 132 182 229 277 332 412
#     4  10  21  37  66  96 131 174 226 275 327 399
#
# _framework density 21.438434999999998
#
# number of rings (size 3 to 8) (size 9 to 14) (size 15 to 20)
#    0.000    0.750    6.250    1.875    3.500    0.000 
#    0.000    2.500    2.750    1.500    0.000    0.000 
#    0.000    0.000    0.000    0.000    0.000    0.000 
#
# Total GULP energy -89309.195547 kJ/mol
# GULP energy per Si atom -5581.824722 kJ/mol
# Density = 2.138964 g / cm^3
# Si number density = 21.438435 Si / 1000 Ang^3
#
#
#
# Elastic Constant Matrix: (Units=GPa)
#
#
# Indices 1 2 3 4 5 6 
#
# 1 154.0651 32.2484 35.2079 9.0162 -20.9845 -25.0297
# 2 32.2484 72.9858 44.9040 -4.0806 -11.7838 -10.4059
# 3 35.2079 44.9040 128.7959 1.7852 -11.0542 -31.5528
# 4 9.0162 -4.0806 1.7852 48.2505 -5.7242 -12.9098
# 5 -20.9845 -11.7838 -11.0542 -5.7242 27.9294 5.8742
# 6 -25.0297 -10.4059 -31.5528 -12.9098 5.8742 27.6883
#
#
#
# Elastic Compliance Matrix: (Units=1/GPa)
#
#
# Indices 1 2 3 4 5 6 
#
# 1 0.008520 -0.002406 0.000512 0.000486 0.004279 0.006699
# 2 -0.002406 0.019148 -0.006091 0.002369 0.004728 -0.001818
# 3 0.000512 -0.006091 0.013330 0.002868 0.000614 0.014571
# 4 0.000486 0.002369 0.002868 0.025403 0.004446 0.015498
# 5 0.004279 0.004728 0.000614 0.004446 0.042285 -0.000553
# 6 0.006699 -0.001818 0.014571 0.015498 -0.000553 0.065438
#
#
# Mechanical properties :
#
#
# Convention : Reuss Voigt Hill
#
# Bulk Modulus (GPa) = 39.95412 64.50749 52.23081
# Shear Modulus (GPa) = 25.19678 37.00607 31.10142
#
# Velocity S-wave (km/s) = 3.43200 4.15921 3.81298
# Velocity P-wave (km/s) = 5.86361 7.29523 6.61824
#
# Compressibility (1/GPa) = 0.02502871
#
# Stress axis : x y z
#
# Youngs Moduli (GPa) = 117.36581 52.22393 75.01594
#
# Poissons Ratio (x) = 0.12566 -0.03838
# Poissons Ratio (y) = 0.28240 0.45689
# Poissons Ratio (z) = -0.06004 0.31808
#
# Static dielectric constant tensor:
#      x y z
#    x 1.820510 0.001200 -0.090110 
#    y 0.001200 1.800600 -0.017870 
#    z -0.090110 -0.017870 1.989650 
# 
# From -- ./inp_files/500121.got.cif
#   From: 2010.05.17/outbox.cif.g08.bks.cpg/sg2_251_cif.got.tgz:500121.got - 2010.06.03 11:33:40.
