data_PCOD9088221
_publ_section_title
;
Structure prediction by ZEFSAII (Michael W. Deem and Ramdas Pophale) SiO2 
 PCOD9088221
Probable space group: P -1
;
_chemical_formula_sum "Si O2"
_cell_formula_units_Z 16
_cell_length_a 8.456352
_cell_length_b 14.412740
_cell_length_c 26.674007
_cell_angle_alpha 161.060909
_cell_angle_beta 118.613111
_cell_angle_gamma 72.891807
_cell_volume 769.107934
_symmetry_space_group_name_H-M "P -1"
_symmetry_group_IT_number 2
_symmetry_cell_setting 'triclinic'
loop_
_space_group_symop_operation_xyz
x,y,z
-x,-y,-z
loop_
_atom_site_type_symbol
_atom_site_label
_atom_site_fract_x
_atom_site_fract_y
_atom_site_fract_z
Si Si1 0.976852 0.587448 0.624401
Si Si2 0.755714 0.128202 0.732966
Si Si3 0.434536 0.758505 0.415266
Si Si4 0.627227 0.842245 0.960861
Si Si5 0.460439 0.648355 0.019892
Si Si6 0.555927 0.690205 0.249450
Si Si7 0.512031 0.820867 0.642722
Si Si8 0.952503 0.050277 0.278638
O O1 0.055341 0.374668 0.497875
O O2 0.740096 0.311396 0.469280
O O3 0.955359 0.806270 0.688983
O O4 0.149397 0.849929 0.824260
O O5 0.647589 0.871520 0.538080
O O6 0.624728 0.941684 0.668209
O O7 0.991338 0.209182 0.821976
O O8 0.684308 0.388481 0.841660
O O9 0.331459 0.375123 0.184347
O O10 0.500000 0.000000 0.500000
O O11 0.675412 0.088848 0.489092
O O12 0.486192 0.566909 0.843327
O O13 0.500000 0.000000 0.000000
O O14 0.374917 0.870561 0.141692
O O15 0.500000 0.500000 0.000000
O O16 0.347018 0.376231 0.818789
O O17 0.700604 0.910005 0.167840
O O18 0.500000 0.500000 0.500000
#
# Coordination Sequence:
#
# PCOD9088221 Si02
#       8
#     2   2   2   2   2   2   2   2
#     4  10  21  35  55  91 121 149 197 241 290 351
#     4  10  19  37  60  82 118 157 189 236 303 337
#     4   8  18  35  54  81 111 146 199 240 276 327
#     4  11  20  36  62  85 112 156 205 244 284 338
#     4  11  20  37  55  86 123 154 184 236 297 356
#     4   9  20  36  57  84 112 153 197 239 288 347
#     4  11  22  36  58  87 127 152 185 240 307 352
#     4  10  20  34  58  86 124 149 191 240 293 357
#
# _framework density 20.803322999999999
#
# number of rings (size 3 to 8) (size 9 to 14) (size 15 to 20)
#    0.750    1.250    3.750    0.750    0.000    1.500 
#    2.250    0.625    0.000    2.250    0.000    0.000 
#    0.000    0.000    0.000    0.000    0.000    0.000 
#
# Total GULP energy -89083.488896 kJ/mol
# GULP energy per Si atom -5567.718056 kJ/mol
# Density = 2.075597 g / cm^3
# Si number density = 20.803323 Si / 1000 Ang^3
#
#
#
# Elastic Constant Matrix: (Units=GPa)
#
#
# Indices 1 2 3 4 5 6 
#
# 1 33.5479 30.7548 22.7286 -8.0366 -9.7440 7.2424
# 2 30.7548 112.0882 26.1337 6.9565 -21.0595 -8.5135
# 3 22.7286 26.1337 119.9345 -14.9045 -43.2614 0.5900
# 4 -8.0366 6.9565 -14.9045 39.0337 2.2901 -7.2683
# 5 -9.7440 -21.0595 -43.2614 2.2901 41.3033 1.7400
# 6 7.2424 -8.5135 0.5900 -7.2683 1.7400 30.2013
#
#
#
# Elastic Compliance Matrix: (Units=1/GPa)
#
#
# Indices 1 2 3 4 5 6 
#
# 1 0.052227 -0.014811 -0.006069 0.008468 -0.001448 -0.014460
# 2 -0.014811 0.014433 0.000751 -0.004439 0.004633 0.006270
# 3 -0.006069 0.000751 0.014961 0.003758 0.014352 0.001452
# 4 0.008468 -0.004439 0.003758 0.030189 0.001836 0.003804
# 5 -0.001448 0.004633 0.014352 0.001836 0.041186 -0.000558
# 6 -0.014460 0.006270 0.001452 0.003804 -0.000558 0.039265
#
#
# Mechanical properties :
#
#
# Convention : Reuss Voigt Hill
#
# Bulk Modulus (GPa) = 24.17666 47.20054 35.68860
# Shear Modulus (GPa) = 20.29983 34.50455 27.40219
#
# Velocity S-wave (km/s) = 3.12716 4.07702 3.63327
# Velocity P-wave (km/s) = 4.96847 6.70082 5.89859
#
# Compressibility (1/GPa) = 0.04136221
#
# Stress axis : x y z
#
# Youngs Moduli (GPa) = 19.14707 69.28771 66.83987
#
# Poissons Ratio (x) = 1.02622 0.40565
# Poissons Ratio (y) = 0.28359 -0.05017
# Poissons Ratio (z) = 0.11620 -0.05200
#
# Static dielectric constant tensor:
#      x y z
#    x 1.818620 -0.034660 -0.052300 
#    y -0.034660 1.751810 -0.005470 
#    z -0.052300 -0.005470 1.883490 
# 
# From -- ./inp_files/617269.got.cif
#   From: 2010.05.17/outbox.cif.g08.bks.cpg/sg2_309_cif.got.tgz:617269.got - 2010.06.03 11:33:40.
