data_PCOD9088070
_publ_section_title
;
Structure prediction by ZEFSAII (Michael W. Deem and Ramdas Pophale) SiO2 
 PCOD9088070
Probable space group: P -1
;
_chemical_formula_sum "Si O2"
_cell_formula_units_Z 14
_cell_length_a 16.351002
_cell_length_b 14.037128
_cell_length_c 12.367149
_cell_angle_alpha 51.146621
_cell_angle_beta 153.504257
_cell_angle_gamma 148.468219
_cell_volume 539.141216
_symmetry_space_group_name_H-M "P -1"
_symmetry_group_IT_number 2
_symmetry_cell_setting 'triclinic'
loop_
_space_group_symop_operation_xyz
x,y,z
-x,-y,-z
loop_
_atom_site_type_symbol
_atom_site_label
_atom_site_fract_x
_atom_site_fract_y
_atom_site_fract_z
Si Si1 0.620443 0.235654 0.239706
Si Si2 0.444598 0.601880 0.107252
Si Si3 0.699443 0.831036 0.643512
Si Si4 0.674216 0.962551 0.738246
Si Si5 0.000104 0.240456 0.409971
Si Si6 0.033761 0.255148 0.675201
Si Si7 0.368710 0.727042 0.114865
O O1 0.475987 0.166746 0.235197
O O2 0.000000 0.500000 0.500000
O O3 0.673736 0.126090 0.342624
O O4 0.423265 0.208230 0.942004
O O5 0.276053 0.568286 0.034455
O O6 0.752948 0.686328 0.432838
O O7 0.210959 0.403369 0.886123
O O8 0.979255 0.083428 0.752063
O O9 0.590313 0.831309 0.627987
O O10 0.428868 0.697536 0.323147
O O11 0.916965 0.828273 0.916224
O O12 0.500000 0.000000 0.500000
O O13 0.178390 0.364035 0.650339
O O14 0.707321 0.983813 0.285757
O O15 0.883389 0.301441 0.176794
#
# Coordination Sequence:
#
# PCOD9088070 Si02
#       7
#     2   2   2   2   2   2   2
#     4  10  20  35  61  94 126 159 203 259 315 357
#     4  11  21  35  59  91 128 164 198 258 323 360
#     4  10  23  41  63  94 123 162 215 257 308 371
#     4  11  22  40  68  91 122 165 215 260 305 375
#     4  10  20  33  54  86 126 165 206 255 311 366
#     4  10  19  37  58  91 125 158 208 258 302 373
#     4  10  21  36  54  87 128 158 204 260 307 380
#
# _framework density 25.967223000000001
#
# number of rings (size 3 to 8) (size 9 to 14) (size 15 to 20)
#    0.000    1.714    2.857    2.571    0.000    2.286 
#    0.000    0.000    0.000    6.857    0.000    0.000 
#    0.000    0.000    0.000    0.000    0.000    0.000 
#
# Total GULP energy -78246.108873 kJ/mol
# GULP energy per Si atom -5589.007777 kJ/mol
# Density = 2.590812 g / cm^3
# Si number density = 25.967223 Si / 1000 Ang^3
#
#
#
# Elastic Constant Matrix: (Units=GPa)
#
#
# Indices 1 2 3 4 5 6 
#
# 1 158.8901 24.8340 65.0903 -24.3309 -5.2615 10.9804
# 2 24.8340 40.4309 31.7209 -13.8412 1.1825 -4.7159
# 3 65.0903 31.7209 136.9342 -42.7671 16.2466 -13.6708
# 4 -24.3309 -13.8412 -42.7671 37.3687 -8.5636 -0.4125
# 5 -5.2615 1.1825 16.2466 -8.5636 63.6682 -7.8429
# 6 10.9804 -4.7159 -13.6708 -0.4125 -7.8429 41.4922
#
#
#
# Elastic Compliance Matrix: (Units=1/GPa)
#
#
# Indices 1 2 3 4 5 6 
#
# 1 0.008658 -0.002551 -0.003883 0.000525 0.001382 -0.003594
# 2 -0.002551 0.031914 -0.004267 0.005642 0.001441 0.003225
# 3 -0.003883 -0.004267 0.014739 0.012429 -0.001690 0.005203
# 4 0.000525 0.005642 0.012429 0.044264 0.003421 0.005684
# 5 0.001382 0.001441 -0.001690 0.003421 0.016992 0.002487
# 6 -0.003594 0.003225 0.005203 0.005684 0.002487 0.027659
#
#
# Mechanical properties :
#
#
# Convention : Reuss Voigt Hill
#
# Bulk Modulus (GPa) = 29.49182 64.39393 46.94287
# Shear Modulus (GPa) = 28.25963 42.81316 35.53640
#
# Velocity S-wave (km/s) = 3.30249 4.06487 3.70335
# Velocity P-wave (km/s) = 5.09155 6.84711 6.03352
#
# Compressibility (1/GPa) = 0.03390771
#
# Stress axis : x y z
#
# Youngs Moduli (GPa) = 115.50465 31.33426 67.84726
#
# Poissons Ratio (x) = 0.07994 0.26346
# Poissons Ratio (y) = 0.29467 0.28952
# Poissons Ratio (z) = 0.44852 0.13371
#
# Static dielectric constant tensor:
#      x y z
#    x 2.055330 -0.096580 -0.004200 
#    y -0.096580 2.181760 0.024510 
#    z -0.004200 0.024510 2.177360 
# 
# From -- ./inp_files/455660.got.cif
#   From: 2010.05.17/outbox.cif.g08.bks.cpg/sg2_228_cif.got.tgz:455660.got - 2010.06.03 11:33:40.
