data_PCOD9088553
_publ_section_title
;
Structure prediction by ZEFSAII (Michael W. Deem and Ramdas Pophale) SiO2 
 PCOD9088553
Probable space group: P -1
;
_chemical_formula_sum "Si O2"
_cell_formula_units_Z 15
_cell_length_a 12.400775
_cell_length_b 8.376110
_cell_length_c 9.405784
_cell_angle_alpha 53.100349
_cell_angle_beta 88.771883
_cell_angle_gamma 61.508605
_cell_volume 635.987697
_symmetry_space_group_name_H-M "P -1"
_symmetry_group_IT_number 2
_symmetry_cell_setting 'triclinic'
loop_
_space_group_symop_operation_xyz
x,y,z
-x,-y,-z
loop_
_atom_site_type_symbol
_atom_site_label
_atom_site_fract_x
_atom_site_fract_y
_atom_site_fract_z
Si Si1 0.435998 0.687625 0.238872
Si Si2 0.299076 0.346027 0.775802
Si Si3 0.297983 0.353477 0.097498
Si Si4 0.738881 0.013725 0.175471
Si Si5 0.941955 0.124320 0.086568
Si Si6 0.500000 0.500000 0.000000
Si Si7 0.624516 0.140104 0.532291
Si Si8 0.876175 0.077850 0.558035
O O1 0.548290 0.739847 0.193725
O O2 0.506311 0.406626 0.331304
O O3 0.384092 0.752676 0.364704
O O4 0.317157 0.842971 0.051001
O O5 0.211954 0.630264 0.590379
O O6 0.258052 0.222804 0.729971
O O7 0.270197 0.310426 0.958630
O O8 0.376192 0.095814 0.317103
O O9 0.166882 0.580697 0.057932
O O10 0.386164 0.452245 0.015159
O O11 0.868380 0.002019 0.211255
O O12 0.615225 0.199505 0.176542
O O13 0.061997 0.051329 0.225290
O O14 0.000000 0.000000 0.000000
O O15 0.771518 0.028461 0.532304
O O16 0.000000 0.000000 0.500000
#
# Coordination Sequence:
#
# PCOD9088553 Si02
#       8
#     2   2   2   2   2   1   2   2
#     4  10  19  37  61  98 132 161 212 277 320 392
#     4  11  21  38  71  95 123 175 226 265 324 401
#     4  11  21  41  67  99 124 180 219 264 333 400
#     4  11  21  37  63  90 131 171 213 263 334 390
#     4  11  26  43  62  93 137 173 213 281 333 372
#     4  10  22  36  60  96 134 160 208 272 334 392
#     4  10  22  35  65  98 127 168 224 266 321 383
#     4  11  24  44  65  96 131 175 229 277 311 385
#
# _framework density 23.585362
#
# number of rings (size 3 to 8) (size 9 to 14) (size 15 to 20)
#    0.000    1.333    4.000    2.000    0.000    2.133 
#    0.000    4.000    0.000    0.000    0.000    0.000 
#    0.000    0.000    0.000    0.000    0.000    0.000 
#
# Total GULP energy -83570.456653 kJ/mol
# GULP energy per Si atom -5571.363777 kJ/mol
# Density = 2.353168 g / cm^3
# Si number density = 23.585362 Si / 1000 Ang^3
#
#
#
# Elastic Constant Matrix: (Units=GPa)
#
#
# Indices 1 2 3 4 5 6 
#
# 1 62.9804 17.5992 7.8644 -25.4988 -2.9627 -5.4695
# 2 17.5992 90.0666 2.5937 -1.9093 -5.0587 -10.9348
# 3 7.8644 2.5937 16.7791 -38.4796 -10.8553 0.3737
# 4 -25.4988 -1.9093 -38.4796 35.9402 13.1755 -12.8564
# 5 -2.9627 -5.0587 -10.8553 13.1755 38.8971 -8.5353
# 6 -5.4695 -10.9348 0.3737 -12.8564 -8.5353 41.2125
#
#
#
# Elastic Compliance Matrix: (Units=1/GPa)
#
#
# Indices 1 2 3 4 5 6 
#
# 1 0.017558 -0.003134 -0.014583 -0.002342 -0.002252 0.000434
# 2 -0.003134 0.012222 0.001258 0.000086 0.002406 0.003340
# 3 -0.014583 0.001258 -0.021724 -0.039473 0.003510 -0.012991
# 4 -0.002342 0.000086 -0.039473 -0.015700 -0.007254 -0.006330
# 5 -0.002252 0.002406 0.003510 -0.007254 0.030232 0.004306
# 6 0.000434 0.003340 -0.012991 -0.006330 0.004306 0.024243
#
#
# Mechanical properties :
#
#
# Convention : Reuss Voigt Hill
#
# Bulk Modulus (GPa) = -40.22024 25.10453 -7.55786
# Shear Modulus (GPa) = 69.96771 32.66122 51.31446
#
# Velocity S-wave (km/s) = 5.45253 3.72534 4.66949
# Velocity P-wave (km/s) = 4.74870 5.40106 5.08535
#
# Compressibility (1/GPa) = -0.02486310
#
# Stress axis : x y z
#
# Youngs Moduli (GPa) = 56.95340 81.82229 -46.03172
#
# Poissons Ratio (x) = 0.25646 -0.67129
# Poissons Ratio (y) = 0.17852 0.05792
# Poissons Ratio (z) = 0.83057 -0.10296
#
# Static dielectric constant tensor:
#      x y z
#    x 1.612120 0.032280 0.354850 
#    y 0.032280 1.962590 0.095510 
#    z 0.354850 0.095510 1.450920 
# 
# From -- ./inp_files/185137.got.cif
#   From: 2010.05.17/outbox.cif.g08.bks.cpg/sg2_93_cif.got.tgz:185137.got - 2010.06.03 11:33:40.
