data_PCOD9088321
_publ_section_title
;
Structure prediction by ZEFSAII (Michael W. Deem and Ramdas Pophale) SiO2 
 PCOD9088321
Probable space group: P -1
;
_chemical_formula_sum "Si O2"
_cell_formula_units_Z 14
_cell_length_a 12.802345
_cell_length_b 6.997823
_cell_length_c 13.704927
_cell_angle_alpha 83.891518
_cell_angle_beta 65.243881
_cell_angle_gamma 33.617321
_cell_volume 540.869997
_symmetry_space_group_name_H-M "P -1"
_symmetry_group_IT_number 2
_symmetry_cell_setting 'triclinic'
loop_
_space_group_symop_operation_xyz
x,y,z
-x,-y,-z
loop_
_atom_site_type_symbol
_atom_site_label
_atom_site_fract_x
_atom_site_fract_y
_atom_site_fract_z
Si Si1 0.606195 0.172672 0.383059
Si Si2 0.110173 0.826395 0.595638
Si Si3 0.915279 0.077372 0.195148
Si Si4 0.223037 0.286194 0.464196
Si Si5 0.470014 0.312902 0.018747
Si Si6 0.490477 0.743878 0.203929
Si Si7 0.569789 0.631461 0.757470
O O1 0.333837 0.633554 0.489334
O O2 0.797847 0.052408 0.285214
O O3 0.567831 0.112579 0.300345
O O4 0.674621 0.954102 0.463090
O O5 0.135682 0.712971 0.702593
O O6 0.131748 0.621935 0.523117
O O7 0.844053 0.292935 0.674316
O O8 0.768890 0.339327 0.141981
O O9 0.193629 0.668501 0.096290
O O10 0.000000 0.500000 0.500000
O O11 0.389259 0.008388 0.320359
O O12 0.548688 0.137393 0.106098
O O13 0.500000 0.500000 0.000000
O O14 0.581781 0.081684 0.885519
O O15 0.422473 0.615411 0.239303
#
# Coordination Sequence:
#
# PCOD9088321 Si02
#       7
#     2   2   2   2   2   2   2
#     4  11  23  38  61  93 130 153 205 257 307 367
#     4  11  21  37  59  93 128 160 201 244 315 372
#     4  10  21  36  65  94 118 160 205 260 305 343
#     4  12  25  39  59  93 128 168 197 246 319 370
#     4   9  19  37  62  94 115 154 213 262 291 351
#     4  10  19  37  60  89 123 158 205 252 294 362
#     4   9  20  36  62  92 115 160 205 258 299 344
#
# _framework density 25.884225000000001
#
# number of rings (size 3 to 8) (size 9 to 14) (size 15 to 20)
#    0.000    1.714    2.857    1.714    2.000    2.286 
#    0.000    0.000    0.000    5.143    0.000    0.000 
#    0.000    0.000    0.000    0.000    0.000    0.000 
#
# Total GULP energy -78196.364422 kJ/mol
# GULP energy per Si atom -5585.454602 kJ/mol
# Density = 2.582531 g / cm^3
# Si number density = 25.884225 Si / 1000 Ang^3
#
#
#
# Elastic Constant Matrix: (Units=GPa)
#
#
# Indices 1 2 3 4 5 6 
#
# 1 112.0892 14.9803 35.5771 4.0765 2.0095 -8.4300
# 2 14.9803 103.7329 53.2519 -32.0494 17.5184 -30.0335
# 3 35.5771 53.2519 133.8542 -48.4979 23.3625 -19.0828
# 4 4.0765 -32.0494 -48.4979 49.1581 -35.9806 13.6253
# 5 2.0095 17.5184 23.3625 -35.9806 46.8621 4.3211
# 6 -8.4300 -30.0335 -19.0828 13.6253 4.3211 43.1123
#
#
#
# Elastic Compliance Matrix: (Units=1/GPa)
#
#
# Indices 1 2 3 4 5 6 
#
# 1 0.012448 -0.000098 -0.006915 -0.017969 -0.011412 0.006128
# 2 -0.000098 0.015083 -0.003736 0.000631 -0.004121 0.009048
# 3 -0.006915 -0.003736 0.017522 0.028881 0.015770 -0.006908
# 4 -0.017969 0.000631 0.028881 0.121899 0.083156 -0.037150
# 5 -0.011412 -0.004121 0.015770 0.083156 0.082365 -0.032658
# 6 0.006128 0.009048 -0.006908 -0.037150 -0.032658 0.042653
#
#
# Mechanical properties :
#
#
# Convention : Reuss Voigt Hill
#
# Bulk Modulus (GPa) = 42.45516 61.92168 52.18842
# Shear Modulus (GPa) = 15.56069 44.21765 29.88917
#
# Velocity S-wave (km/s) = 2.45453 4.13763 3.40181
# Velocity P-wave (km/s) = 4.94676 6.84113 5.96957
#
# Compressibility (1/GPa) = 0.02355427
#
# Stress axis : x y z
#
# Youngs Moduli (GPa) = 80.33208 66.29922 57.07013
#
# Poissons Ratio (x) = 0.00653 0.39463
# Poissons Ratio (y) = 0.00791 0.21324
# Poissons Ratio (z) = 0.55548 0.24773
#
# Static dielectric constant tensor:
#      x y z
#    x 2.119680 0.033090 -0.037250 
#    y 0.033090 2.101350 -0.075500 
#    z -0.037250 -0.075500 2.096140 
# 
# From -- ./inp_files/529786.got.cif
#   From: 2010.05.17/outbox.cif.g08.bks.cpg/sg2_265_cif.got.tgz:529786.got - 2010.06.03 11:33:40.
