data_PCOD9088311
_publ_section_title
;
Structure prediction by ZEFSAII (Michael W. Deem and Ramdas Pophale) SiO2 
 PCOD9088311
Probable space group: P -1
;
_chemical_formula_sum "Si O2"
_cell_formula_units_Z 16
_cell_length_a 7.416668
_cell_length_b 16.018809
_cell_length_c 7.928332
_cell_angle_alpha 67.601920
_cell_angle_beta 58.882823
_cell_angle_gamma 56.447077
_cell_volume 666.000094
_symmetry_space_group_name_H-M "P -1"
_symmetry_group_IT_number 2
_symmetry_cell_setting 'triclinic'
loop_
_space_group_symop_operation_xyz
x,y,z
-x,-y,-z
loop_
_atom_site_type_symbol
_atom_site_label
_atom_site_fract_x
_atom_site_fract_y
_atom_site_fract_z
Si Si1 0.872903 0.160018 0.625905
Si Si2 0.303343 0.271230 0.418180
Si Si3 0.935269 0.476314 0.360640
Si Si4 0.559808 0.363282 0.430286
Si Si5 0.817316 0.992492 0.954416
Si Si6 0.599394 0.918991 0.665544
Si Si7 0.971071 0.780528 0.146797
Si Si8 0.756835 0.431774 0.006601
O O1 0.687868 0.261245 0.550917
O O2 0.908719 0.194473 0.769701
O O3 0.121823 0.118059 0.440440
O O4 0.810912 0.066667 0.751543
O O5 0.052586 0.354842 0.403752
O O6 0.454497 0.328758 0.347218
O O7 0.427856 0.180146 0.300148
O O8 0.250087 0.226260 0.650384
O O9 0.000000 0.500000 0.500000
O O10 0.657933 0.549354 0.434525
O O11 0.079230 0.512872 0.138128
O O12 0.724820 0.406533 0.233284
O O13 0.561304 0.034252 0.131871
O O14 0.905293 0.873211 0.978886
O O15 0.000000 0.000000 0.000000
O O16 0.500000 0.000000 0.500000
O O17 0.121894 0.673145 0.072985
O O18 0.500000 0.500000 0.000000
#
# Coordination Sequence:
#
# PCOD9088311 Si02
#       8
#     2   2   2   2   2   2   2   2
#     4  10  24  40  60  93 125 156 195 258 307 340
#     4  10  19  37  65  87 115 162 201 242 296 353
#     4  10  19  37  60  88 120 154 202 244 294 359
#     4  11  23  39  62  91 129 150 198 260 304 342
#     4  10  20  37  64  83 118 161 206 234 296 362
#     4  11  20  39  64  87 120 157 210 243 283 367
#     4  10  20  39  64  87 114 163 209 236 292 365
#     4  12  21  37  65  92 114 160 210 240 289 370
#
# _framework density 24.024021999999999
#
# number of rings (size 3 to 8) (size 9 to 14) (size 15 to 20)
#    0.000    1.500    8.750    0.000    3.500    1.000 
#    0.000    8.750    0.000    4.500    0.000    0.000 
#    0.000    0.000    0.000    0.000    0.000    0.000 
#
# Total GULP energy -89529.206742 kJ/mol
# GULP energy per Si atom -5595.575421 kJ/mol
# Density = 2.396934 g / cm^3
# Si number density = 24.024022 Si / 1000 Ang^3
#
#
#
# Elastic Constant Matrix: (Units=GPa)
#
#
# Indices 1 2 3 4 5 6 
#
# 1 51.2499 29.1636 33.4178 -5.1869 -2.3899 -14.5421
# 2 29.1636 159.8691 35.0340 -12.0381 3.0199 -6.2475
# 3 33.4178 35.0340 117.5742 -24.6578 -17.0557 -6.4923
# 4 -5.1869 -12.0381 -24.6578 49.9378 1.6312 0.5724
# 5 -2.3899 3.0199 -17.0557 1.6312 28.5647 -5.4120
# 6 -14.5421 -6.2475 -6.4923 0.5724 -5.4120 40.6916
#
#
#
# Elastic Compliance Matrix: (Units=1/GPa)
#
#
# Indices 1 2 3 4 5 6 
#
# 1 0.028162 -0.003437 -0.006733 -0.001339 0.000393 0.008534
# 2 -0.003437 0.007251 -0.001342 0.000801 -0.002016 -0.000608
# 3 -0.006733 -0.001342 0.012938 0.005131 0.007072 0.000320
# 4 -0.001339 0.000801 0.005131 0.022555 0.001648 0.000365
# 5 0.000393 -0.002016 0.007072 0.001648 0.040583 0.006333
# 6 0.008534 -0.000608 0.000320 0.000365 0.006333 0.028420
#
#
# Mechanical properties :
#
#
# Convention : Reuss Voigt Hill
#
# Bulk Modulus (GPa) = 39.48102 58.21379 48.84741
# Shear Modulus (GPa) = 29.17587 39.24398 34.20993
#
# Velocity S-wave (km/s) = 3.48867 4.04608 3.77767
# Velocity P-wave (km/s) = 5.71817 6.79057 6.27731
#
# Compressibility (1/GPa) = 0.02532863
#
# Stress axis : x y z
#
# Youngs Moduli (GPa) = 35.50822 137.91728 77.28904
#
# Poissons Ratio (x) = 0.47398 0.52039
# Poissons Ratio (y) = 0.12203 0.10371
# Poissons Ratio (z) = 0.23908 0.18505
#
# Static dielectric constant tensor:
#      x y z
#    x 2.069950 0.026780 0.012030 
#    y 0.026780 1.877200 -0.016130 
#    z 0.012030 -0.016130 1.918140 
# 
# From -- ./inp_files/216947.got.cif
#   From: 2010.05.17/outbox.cif.g08.bks.cpg/sg2_109_cif.got.tgz:216947.got - 2010.06.03 11:33:40.
