data_PCOD9088091
_publ_section_title
;
Structure prediction by ZEFSAII (Michael W. Deem and Ramdas Pophale) SiO2 
 PCOD9088091
Probable space group: P -1
;
_chemical_formula_sum "Si O2"
_cell_formula_units_Z 16
_cell_length_a 16.956298
_cell_length_b 6.597799
_cell_length_c 7.104701
_cell_angle_alpha 66.726580
_cell_angle_beta 117.180950
_cell_angle_gamma 98.832220
_cell_volume 649.171501
_symmetry_space_group_name_H-M "P -1"
_symmetry_group_IT_number 2
_symmetry_cell_setting 'triclinic'
loop_
_space_group_symop_operation_xyz
x,y,z
-x,-y,-z
loop_
_atom_site_type_symbol
_atom_site_label
_atom_site_fract_x
_atom_site_fract_y
_atom_site_fract_z
Si Si1 0.747303 0.244722 0.328806
Si Si2 0.804631 0.767630 0.577880
Si Si3 0.349700 0.536899 0.471235
Si Si4 0.212473 0.859164 0.000824
Si Si5 0.448907 0.729772 0.883936
Si Si6 0.863069 0.674161 0.286740
Si Si7 0.076682 0.513246 0.928438
Si Si8 0.496780 0.797070 0.344951
O O1 0.734278 0.173082 0.124208
O O2 0.809586 0.449344 0.319974
O O3 0.788882 0.018129 0.535038
O O4 0.651206 0.310862 0.285102
O O5 0.714962 0.657674 0.443975
O O6 0.875752 0.744962 0.491817
O O7 0.841586 0.631580 0.843127
O O8 0.430451 0.710982 0.461565
O O9 0.410335 0.343629 0.490507
O O10 0.268144 0.709319 0.261103
O O11 0.116614 0.756432 0.886923
O O12 0.195077 0.115375 0.929775
O O13 0.455983 0.758775 0.105874
O O14 0.500000 0.500000 0.000000
O O15 0.486907 0.943031 0.748058
O O16 0.939538 0.603414 0.246959
O O17 0.000000 0.500000 0.000000
#
# Coordination Sequence:
#
# PCOD9088091 Si02
#       8
#     2   2   2   2   2   2   2   2
#     4  10  20  39  59  85 128 165 218 255 304 375
#     4  10  22  41  66  91 124 169 208 256 314 372
#     4  10  19  37  59  80 122 167 205 259 314 355
#     4   9  20  40  63  88 122 167 204 255 315 371
#     4  11  23  35  56  86 119 172 217 260 314 367
#     4  10  23  40  66  95 122 170 206 246 316 380
#     4  10  23  44  68  98 129 155 201 260 312 380
#     4  10  22  38  53  82 127 165 207 272 317 348
#
# _framework density 24.646796999999999
#
# number of rings (size 3 to 8) (size 9 to 14) (size 15 to 20)
#    0.000    2.000    2.500    0.000    3.500    3.000 
#    0.000    9.375    0.000    0.000    0.000    0.000 
#    0.000    0.000    0.000    0.000    0.000    0.000 
#
# Total GULP energy -89074.222890 kJ/mol
# GULP energy per Si atom -5567.138931 kJ/mol
# Density = 2.459070 g / cm^3
# Si number density = 24.646797 Si / 1000 Ang^3
#
#
#
# Elastic Constant Matrix: (Units=GPa)
#
#
# Indices 1 2 3 4 5 6 
#
# 1 205.1516 141.2610 -11.3670 -15.4897 -35.3832 -60.9889
# 2 141.2610 272.3863 47.7556 -50.0878 -17.9267 -66.6327
# 3 -11.3670 47.7556 71.0187 -20.3235 -7.5371 5.2598
# 4 -15.4897 -50.0878 -20.3235 45.9472 5.4784 -8.9090
# 5 -35.3832 -17.9267 -7.5371 5.4784 27.9341 9.0419
# 6 -60.9889 -66.6327 5.2598 -8.9090 9.0419 54.9902
#
#
#
# Elastic Compliance Matrix: (Units=1/GPa)
#
#
# Indices 1 2 3 4 5 6 
#
# 1 0.013019 -0.006089 0.007330 0.000248 0.013139 0.004239
# 2 -0.006089 0.013353 -0.008266 0.012461 -0.008216 0.013586
# 3 0.007330 -0.008266 0.022785 0.000995 0.011826 -0.005849
# 4 0.000248 0.012461 0.000995 0.041182 -0.006973 0.023098
# 5 0.013139 -0.008216 0.011826 -0.006973 0.053830 -0.006495
# 6 0.004239 0.013586 -0.005849 0.023098 -0.006495 0.044719
#
#
# Mechanical properties :
#
#
# Convention : Reuss Voigt Hill
#
# Bulk Modulus (GPa) = 28.48492 100.42842 64.45667
# Shear Modulus (GPa) = 23.29499 50.50142 36.89821
#
# Velocity S-wave (km/s) = 3.07767 4.53150 3.87341
# Velocity P-wave (km/s) = 4.92054 8.25923 6.79804
#
# Compressibility (1/GPa) = 0.03510630
#
# Stress axis : x y z
#
# Youngs Moduli (GPa) = 76.81348 74.89202 43.88841
#
# Poissons Ratio (x) = 0.45604 -0.32170
# Poissons Ratio (y) = 0.46774 0.36276
# Poissons Ratio (z) = -0.56304 0.61903
#
# Static dielectric constant tensor:
#      x y z
#    x 1.991610 0.036370 -0.006270 
#    y 0.036370 1.539910 -0.118850 
#    z -0.006270 -0.118850 1.911200 
# 
# From -- ./inp_files/323354.got.cif
#   From: 2010.05.17/outbox.cif.g08.bks.cpg/sg2_162_cif.got.tgz:323354.got - 2010.06.03 11:33:40.
