data_PCOD9088879
_publ_section_title
;
Structure prediction by ZEFSAII (Michael W. Deem and Ramdas Pophale) SiO2 
 PCOD9088879
Probable space group: P -1
;
_chemical_formula_sum "Si O2"
_cell_formula_units_Z 16
_cell_length_a 11.657069
_cell_length_b 15.226665
_cell_length_c 8.774918
_cell_angle_alpha 74.565858
_cell_angle_beta 80.683533
_cell_angle_gamma 26.205203
_cell_volume 652.077121
_symmetry_space_group_name_H-M "P -1"
_symmetry_group_IT_number 2
_symmetry_cell_setting 'triclinic'
loop_
_space_group_symop_operation_xyz
x,y,z
-x,-y,-z
loop_
_atom_site_type_symbol
_atom_site_label
_atom_site_fract_x
_atom_site_fract_y
_atom_site_fract_z
Si Si1 0.000402 0.145480 0.716031
Si Si2 0.510776 0.201741 0.734840
Si Si3 0.941137 0.621922 0.275148
Si Si4 0.192468 0.194017 0.482299
Si Si5 0.784641 0.426892 0.228322
Si Si6 0.967838 0.784241 0.020351
Si Si7 0.249095 0.751683 0.551905
Si Si8 0.484150 0.745876 0.635469
O O1 0.257919 0.902842 0.739159
O O2 0.107043 0.161079 0.599983
O O3 0.764733 0.269559 0.610764
O O4 0.944655 0.206756 0.872838
O O5 0.255461 0.317940 0.758970
O O6 0.436424 0.352334 0.751919
O O7 0.569124 0.166338 0.556579
O O8 0.751696 0.986404 0.870286
O O9 0.923271 0.650818 0.447537
O O10 0.253770 0.395380 0.285872
O O11 0.855305 0.775371 0.137171
O O12 0.052006 0.283892 0.308745
O O13 0.500000 0.000000 0.500000
O O14 0.783352 0.320842 0.321231
O O15 0.804888 0.412325 0.049102
O O16 0.496188 0.633931 0.619552
O O17 0.000000 0.000000 0.500000
#
# Coordination Sequence:
#
# PCOD9088879 Si02
#       8
#     2   2   2   2   2   2   2   2
#     4   9  21  39  68  95 130 178 219 269 339 395
#     4  12  25  43  68 102 137 175 227 277 339 401
#     4  11  24  42  66 102 134 177 226 278 337 397
#     4  10  19  37  63  93 128 172 222 275 327 391
#     4  11  24  42  67 101 134 178 227 273 336 407
#     4  11  25  45  63  98 147 181 215 270 350 407
#     4   9  20  45  73  98 130 175 230 283 334 393
#     4  11  22  43  73  99 128 171 235 288 325 394
#
# _framework density 24.536975999999999
#
# number of rings (size 3 to 8) (size 9 to 14) (size 15 to 20)
#    0.000    1.500    1.250    4.500    3.500    2.000 
#    0.000    6.250    0.000    0.000    0.000    0.000 
#    0.000    0.000    0.000    0.000    0.000    0.000 
#
# Total GULP energy -89439.121033 kJ/mol
# GULP energy per Si atom -5589.945065 kJ/mol
# Density = 2.448113 g / cm^3
# Si number density = 24.536976 Si / 1000 Ang^3
#
#
#
# Elastic Constant Matrix: (Units=GPa)
#
#
# Indices 1 2 3 4 5 6 
#
# 1 124.5917 10.3751 19.2314 4.2235 -6.0823 8.3750
# 2 10.3751 84.0213 33.8843 6.8579 -2.6222 10.2918
# 3 19.2314 33.8843 110.7607 10.2379 7.3093 12.1119
# 4 4.2235 6.8579 10.2379 45.1172 10.1952 5.9959
# 5 -6.0823 -2.6222 7.3093 10.1952 23.3184 -2.4481
# 6 8.3750 10.2918 12.1119 5.9959 -2.4481 45.8232
#
#
#
# Elastic Compliance Matrix: (Units=1/GPa)
#
#
# Indices 1 2 3 4 5 6 
#
# 1 0.008500 -0.000195 -0.001429 -0.001007 0.002995 -0.000840
# 2 -0.000195 0.014046 -0.004152 -0.001733 0.003419 -0.001612
# 3 -0.001429 -0.004152 0.011086 -0.000531 -0.004281 -0.001896
# 4 -0.001007 -0.001733 -0.000531 0.025771 -0.011904 -0.003294
# 5 0.002995 0.003419 -0.004281 -0.011904 0.051027 0.004100
# 6 -0.000840 -0.001612 -0.001896 -0.003294 0.004100 0.023490
#
#
# Mechanical properties :
#
#
# Convention : Reuss Voigt Hill
#
# Bulk Modulus (GPa) = 45.29061 49.59502 47.44281
# Shear Modulus (GPa) = 32.71587 39.91063 36.31325
#
# Velocity S-wave (km/s) = 3.65544 4.03743 3.85117
# Velocity P-wave (km/s) = 6.02615 6.48002 6.25720
#
# Compressibility (1/GPa) = 0.02207963
#
# Stress axis : x y z
#
# Youngs Moduli (GPa) = 117.64938 71.19493 90.20557
#
# Poissons Ratio (x) = 0.01386 0.12890
# Poissons Ratio (y) = 0.02291 0.37456
# Poissons Ratio (z) = 0.16811 0.29562
#
# Static dielectric constant tensor:
#      x y z
#    x 1.974800 0.042740 -0.015360 
#    y 0.042740 2.080180 -0.037770 
#    z -0.015360 -0.037770 1.922760 
# 
# From -- ./inp_files/272904.got.cif
#   From: 2010.05.17/outbox.cif.g08.bks.cpg/sg2_137_cif.got.tgz:272904.got - 2010.06.03 11:33:40.
