data_PCOD9088886
_publ_section_title
;
Structure prediction by ZEFSAII (Michael W. Deem and Ramdas Pophale) SiO2 
 PCOD9088886
Probable space group: P -1
;
_chemical_formula_sum "Si O2"
_cell_formula_units_Z 14
_cell_length_a 18.600611
_cell_length_b 9.279908
_cell_length_c 13.431144
_cell_angle_alpha 147.417178
_cell_angle_beta 27.906487
_cell_angle_gamma 144.981157
_cell_volume 558.337957
_symmetry_space_group_name_H-M "P -1"
_symmetry_group_IT_number 2
_symmetry_cell_setting 'triclinic'
loop_
_space_group_symop_operation_xyz
x,y,z
-x,-y,-z
loop_
_atom_site_type_symbol
_atom_site_label
_atom_site_fract_x
_atom_site_fract_y
_atom_site_fract_z
Si Si1 0.339354 0.910636 0.717423
Si Si2 0.210286 0.582094 0.509340
Si Si3 0.706448 0.352038 0.981823
Si Si4 0.447595 0.511508 0.933026
Si Si5 0.036694 0.766628 0.535605
Si Si6 0.816909 0.877173 0.267016
Si Si7 0.488837 0.887275 0.727900
O O1 0.313491 0.214955 0.942683
O O2 0.500000 0.000000 0.500000
O O3 0.206177 0.677216 0.685082
O O4 0.388635 0.820276 0.710257
O O5 0.380714 0.515587 0.262520
O O6 0.193051 0.858943 0.634380
O O7 0.089374 0.317946 0.449321
O O8 0.572935 0.433272 0.126185
O O9 0.622045 0.179796 0.078926
O O10 0.833851 0.634833 0.032237
O O11 0.796291 0.202631 0.709239
O O12 0.429056 0.777050 0.168589
O O13 0.063874 0.022522 0.728209
O O14 0.000000 0.500000 0.500000
O O15 0.637221 0.760534 0.465188
#
# Coordination Sequence:
#
# PCOD9088886 Si02
#       7
#     2   2   2   2   2   2   2
#     4  10  19  37  63  94 127 167 217 265 316 380
#     4  10  21  42  63  96 127 168 224 271 315 384
#     4  12  25  43  68  99 134 172 217 274 330 386
#     4  11  21  39  70  95 128 166 224 274 316 382
#     4  10  25  44  65  96 134 175 220 265 326 400
#     4  11  21  41  68  99 132 168 220 269 329 384
#     4  12  23  39  66 104 133 167 219 276 329 382
#
# _framework density 25.074421000000001
#
# number of rings (size 3 to 8) (size 9 to 14) (size 15 to 20)
#    0.000    1.143    5.714    2.143    0.000    2.286 
#    2.571    1.429    0.000    0.000    0.000    0.000 
#    0.000    0.000    0.000    0.000    0.000    0.000 
#
# Total GULP energy -78274.429361 kJ/mol
# GULP energy per Si atom -5591.030669 kJ/mol
# Density = 2.501735 g / cm^3
# Si number density = 25.074421 Si / 1000 Ang^3
#
#
#
# Elastic Constant Matrix: (Units=GPa)
#
#
# Indices 1 2 3 4 5 6 
#
# 1 212.4666 49.5133 28.2389 -2.4531 47.6459 33.8847
# 2 49.5133 37.4056 9.6255 -8.7222 9.2011 5.3413
# 3 28.2389 9.6255 81.0791 5.4126 22.4282 3.1810
# 4 -2.4531 -8.7222 5.4126 47.7961 7.2872 22.8122
# 5 47.6459 9.2011 22.4282 7.2872 39.0052 2.9984
# 6 33.8847 5.3413 3.1810 22.8122 2.9984 46.9815
#
#
#
# Elastic Compliance Matrix: (Units=1/GPa)
#
#
# Indices 1 2 3 4 5 6 
#
# 1 0.010704 -0.009330 0.000555 0.004386 -0.011390 -0.008100
# 2 -0.009330 0.041430 -0.002623 0.007957 0.001783 -0.001781
# 3 0.000555 -0.002623 0.014844 -0.000746 -0.008440 -0.000207
# 4 0.004386 0.007957 -0.000746 0.033867 -0.011617 -0.019721
# 5 -0.011390 0.001783 -0.008440 -0.011617 0.045283 0.011335
# 6 -0.008100 -0.001781 -0.000207 -0.019721 0.011335 0.036195
#
#
# Mechanical properties :
#
#
# Convention : Reuss Voigt Hill
#
# Bulk Modulus (GPa) = 22.63363 56.18961 39.41162
# Shear Modulus (GPa) = 22.74305 42.99480 32.86892
#
# Velocity S-wave (km/s) = 3.01495 4.14537 3.62450
# Velocity P-wave (km/s) = 4.60066 6.73572 5.76784
#
# Compressibility (1/GPa) = 0.04418204
#
# Stress axis : x y z
#
# Youngs Moduli (GPa) = 93.42488 24.13685 67.36657
#
# Poissons Ratio (x) = 0.22520 -0.03741
# Poissons Ratio (y) = 0.87168 0.17672
# Poissons Ratio (z) = -0.05189 0.06332
#
# Static dielectric constant tensor:
#      x y z
#    x 1.949410 0.034160 -0.021370 
#    y 0.034160 2.065940 0.024150 
#    z -0.021370 0.024150 2.078670 
# 
# From -- ./inp_files/437463.got.cif
#   From: 2010.05.17/outbox.cif.g08.bks.cpg/sg2_219_cif.got.tgz:437463.got - 2010.06.03 11:33:40.
