data_PCOD9088909
_publ_section_title
;
Structure prediction by ZEFSAII (Michael W. Deem and Ramdas Pophale) SiO2 
 PCOD9088909
Probable space group: P -1
;
_chemical_formula_sum "Si O2"
_cell_formula_units_Z 14
_cell_length_a 14.122807
_cell_length_b 7.139622
_cell_length_c 11.454273
_cell_angle_alpha 69.798154
_cell_angle_beta 133.682218
_cell_angle_gamma 76.973314
_cell_volume 572.153030
_symmetry_space_group_name_H-M "P -1"
_symmetry_group_IT_number 2
_symmetry_cell_setting 'triclinic'
loop_
_space_group_symop_operation_xyz
x,y,z
-x,-y,-z
loop_
_atom_site_type_symbol
_atom_site_label
_atom_site_fract_x
_atom_site_fract_y
_atom_site_fract_z
Si Si1 0.152659 0.105446 0.807009
Si Si2 0.223308 0.586195 0.978833
Si Si3 0.575698 0.202932 0.489354
Si Si4 0.500249 0.745235 0.332692
Si Si5 0.951601 0.555808 0.698763
Si Si6 0.989320 0.799105 0.966369
Si Si7 0.321763 0.172664 0.731886
O O1 0.199562 0.215911 0.725782
O O2 0.966668 0.364327 0.653550
O O3 0.176860 0.855142 0.834604
O O4 0.295938 0.959426 0.066838
O O5 0.122702 0.519222 0.837507
O O6 0.124713 0.677843 0.000607
O O7 0.433069 0.326613 0.236190
O O8 0.563370 0.452332 0.450300
O O9 0.501604 0.177953 0.551523
O O10 0.789174 0.952603 0.718258
O O11 0.616210 0.728928 0.335344
O O12 0.776555 0.860981 0.446213
O O13 0.954456 0.434464 0.847197
O O14 0.000000 0.000000 0.000000
O O15 0.500000 0.000000 0.000000
#
# Coordination Sequence:
#
# PCOD9088909 Si02
#       7
#     2   2   2   2   2   2   2
#     4  10  21  42  63  87 124 171 209 257 317 362
#     4  11  25  40  63  98 134 160 210 265 311 383
#     4  10  19  37  63  96 132 164 202 260 320 373
#     4   9  17  36  64  93 122 163 211 255 308 379
#     4  12  23  41  63  94 126 165 213 261 318 375
#     4  12  21  39  68  97 128 172 208 253 324 382
#     4  10  22  39  66  90 120 169 216 262 316 371
#
# _framework density 24.468978
#
# number of rings (size 3 to 8) (size 9 to 14) (size 15 to 20)
#    0.000    1.429    2.857    4.286    0.000    1.143 
#    5.143    0.000    0.000    6.000    0.000    0.000 
#    0.000    0.000    0.000    0.000    0.000    0.000 
#
# Total GULP energy -77938.067927 kJ/mol
# GULP energy per Si atom -5567.004852 kJ/mol
# Density = 2.441329 g / cm^3
# Si number density = 24.468978 Si / 1000 Ang^3
#
#
#
# Elastic Constant Matrix: (Units=GPa)
#
#
# Indices 1 2 3 4 5 6 
#
# 1 144.9071 9.6662 36.4650 -10.9900 -2.7920 -1.3188
# 2 9.6662 81.3580 22.4194 -8.5071 0.0283 11.2167
# 3 36.4650 22.4194 139.5611 19.6311 5.1289 5.5757
# 4 -10.9900 -8.5071 19.6311 29.5534 9.2680 3.6083
# 5 -2.7920 0.0283 5.1289 9.2680 43.7159 4.8498
# 6 -1.3188 11.2167 5.5757 3.6083 4.8498 17.8552
#
#
#
# Elastic Compliance Matrix: (Units=1/GPa)
#
#
# Indices 1 2 3 4 5 6 
#
# 1 0.007969 0.000307 -0.002836 0.004972 -0.000251 0.000345
# 2 0.000307 0.015401 -0.003268 0.008019 -0.000175 -0.010205
# 3 -0.002836 -0.003268 0.009602 -0.008574 0.000462 0.000452
# 4 0.004972 0.008019 -0.008574 0.047243 -0.007648 -0.009463
# 5 -0.000251 -0.000175 0.000462 -0.007648 0.025014 -0.005302
# 6 0.000345 -0.010205 0.000452 -0.009463 -0.005302 0.065653
#
#
# Mechanical properties :
#
#
# Convention : Reuss Voigt Hill
#
# Bulk Modulus (GPa) = 46.77443 55.88083 51.32763
# Shear Modulus (GPa) = 26.37088 38.04327 32.20707
#
# Velocity S-wave (km/s) = 3.28644 3.94732 3.63194
# Velocity P-wave (km/s) = 5.79294 6.60773 6.21371
#
# Compressibility (1/GPa) = 0.02137920
#
# Stress axis : x y z
#
# Youngs Moduli (GPa) = 125.47947 64.93110 104.14345
#
# Poissons Ratio (x) = -0.01993 0.29530
# Poissons Ratio (y) = -0.03852 0.34035
# Poissons Ratio (z) = 0.35580 0.21220
#
# Static dielectric constant tensor:
#      x y z
#    x 1.957880 -0.025660 0.080570 
#    y -0.025660 2.048370 0.010770 
#    z 0.080570 0.010770 2.026890 
# 
# From -- ./inp_files/445671.got.cif
#   From: 2010.05.17/outbox.cif.g08.bks.cpg/sg2_223_cif.got.tgz:445671.got - 2010.06.03 11:33:40.
