data_PCOD9088761
_publ_section_title
;
Structure prediction by ZEFSAII (Michael W. Deem and Ramdas Pophale) SiO2 
 PCOD9088761
Probable space group: P -1
;
_chemical_formula_sum "Si O2"
_cell_formula_units_Z 16
_cell_length_a 11.151288
_cell_length_b 18.247315
_cell_length_c 14.177556
_cell_angle_alpha 160.318924
_cell_angle_beta 116.455034
_cell_angle_gamma 74.740850
_cell_volume 743.869369
_symmetry_space_group_name_H-M "P -1"
_symmetry_group_IT_number 2
_symmetry_cell_setting 'triclinic'
loop_
_space_group_symop_operation_xyz
x,y,z
-x,-y,-z
loop_
_atom_site_type_symbol
_atom_site_label
_atom_site_fract_x
_atom_site_fract_y
_atom_site_fract_z
Si Si1 0.816420 0.975759 0.503125
Si Si2 0.131324 0.603856 0.818273
Si Si3 0.660301 0.047287 0.201416
Si Si4 0.942777 0.204742 0.618538
Si Si5 0.475831 0.794855 0.165719
Si Si6 0.576073 0.332057 0.202190
Si Si7 0.825305 0.211837 0.150742
Si Si8 0.428023 0.199692 0.321799
O O1 0.853932 0.065656 0.516103
O O2 0.630052 0.776658 0.210779
O O3 0.867138 0.227100 0.889133
O O4 0.919257 0.852961 0.415615
O O5 0.138846 0.755386 0.908179
O O6 0.978271 0.329815 0.412748
O O7 0.289921 0.591961 0.864567
O O8 0.822334 0.105231 0.369560
O O9 0.599134 0.236031 0.438338
O O10 0.531872 0.783477 0.885699
O O11 0.649902 0.015008 0.047395
O O12 0.000000 0.500000 0.000000
O O13 0.500000 0.000000 0.500000
O O14 0.486640 0.873829 0.155120
O O15 0.746708 0.384684 0.349274
O O16 0.569942 0.560107 0.428614
O O17 0.689133 0.929750 0.789488
#
# Coordination Sequence:
#
# PCOD9088761 Si02
#       8
#     2   2   2   2   2   2   2   2
#     4  10  22  41  62  88 119 166 198 244 305 356
#     4   9  19  39  65  85 123 159 199 252 301 355
#     4  10  22  39  56  91 124 156 199 247 300 361
#     4  11  25  39  61  93 123 155 203 253 296 362
#     4   9  18  37  62  85 112 157 203 239 292 351
#     4  10  19  37  63  85 120 159 196 246 302 364
#     4   9  20  38  59  93 118 153 199 253 301 351
#     4  10  22  36  62  90 122 157 198 248 302 362
#
# _framework density 21.509150999999999
#
# number of rings (size 3 to 8) (size 9 to 14) (size 15 to 20)
#    0.000    2.250    1.250    0.375    5.250    0.000 
#    0.000    9.375    0.000    6.750    0.000    0.000 
#    0.000    0.000    0.000    0.000    0.000    0.000 
#
# Total GULP energy -89162.985203 kJ/mol
# GULP energy per Si atom -5572.686575 kJ/mol
# Density = 2.146020 g / cm^3
# Si number density = 21.509151 Si / 1000 Ang^3
#
#
#
# Elastic Constant Matrix: (Units=GPa)
#
#
# Indices 1 2 3 4 5 6 
#
# 1 117.5390 33.8584 24.1990 -7.3768 7.1013 -37.6142
# 2 33.8584 78.0959 18.6670 -1.0815 1.8167 -24.9888
# 3 24.1990 18.6670 25.0127 1.6769 -3.3378 -19.6017
# 4 -7.3768 -1.0815 1.6769 47.5120 -6.3362 1.1816
# 5 7.1013 1.8167 -3.3378 -6.3362 24.5017 -10.4333
# 6 -37.6142 -24.9888 -19.6017 1.1816 -10.4333 51.4520
#
#
#
# Elastic Compliance Matrix: (Units=1/GPa)
#
#
# Indices 1 2 3 4 5 6 
#
# 1 0.012322 -0.002041 -0.006811 0.001748 -0.001756 0.005026
# 2 -0.002041 0.016697 -0.007603 0.000234 -0.000044 0.003706
# 3 -0.006811 -0.007603 0.074405 -0.001440 0.022649 0.024300
# 4 0.001748 0.000234 -0.001440 0.022088 0.005620 0.001475
# 5 -0.001756 -0.000044 0.022649 0.005620 0.053552 0.018054
# 6 0.005026 0.003706 0.024300 0.001475 0.018054 0.037795
#
#
# Mechanical properties :
#
#
# Convention : Reuss Voigt Hill
#
# Bulk Modulus (GPa) = 14.18147 41.56628 27.87388
# Shear Modulus (GPa) = 18.29662 34.28802 26.29232
#
# Velocity S-wave (km/s) = 2.91974 3.99697 3.50005
# Velocity P-wave (km/s) = 4.23958 6.37714 5.41488
#
# Compressibility (1/GPa) = 0.07051453
#
# Stress axis : x y z
#
# Youngs Moduli (GPa) = 81.15471 59.89001 13.43988
#
# Poissons Ratio (x) = 0.12224 0.09154
# Poissons Ratio (y) = 0.16564 0.10219
# Poissons Ratio (z) = 0.55272 0.45537
#
# Static dielectric constant tensor:
#      x y z
#    x 1.832080 -0.018220 -0.002860 
#    y -0.018220 1.811870 -0.036370 
#    z -0.002860 -0.036370 1.829610 
# 
# From -- ./inp_files/523374.got.cif
#   From: 2010.05.17/outbox.cif.g08.bks.cpg/sg2_262_cif.got.tgz:523374.got - 2010.06.03 11:33:40.
