data_PCOD9088166
_publ_section_title
;
Structure prediction by ZEFSAII (Michael W. Deem and Ramdas Pophale) SiO2 
 PCOD9088166
Probable space group: P -1
;
_chemical_formula_sum "Si O2"
_cell_formula_units_Z 16
_cell_length_a 26.503267
_cell_length_b 7.071587
_cell_length_c 11.169555
_cell_angle_alpha 54.108375
_cell_angle_beta 148.019463
_cell_angle_gamma 137.993321
_cell_volume 736.232123
_symmetry_space_group_name_H-M "P -1"
_symmetry_group_IT_number 2
_symmetry_cell_setting 'triclinic'
loop_
_space_group_symop_operation_xyz
x,y,z
-x,-y,-z
loop_
_atom_site_type_symbol
_atom_site_label
_atom_site_fract_x
_atom_site_fract_y
_atom_site_fract_z
Si Si1 0.510199 0.257074 0.668691
Si Si2 0.331910 0.294072 0.811324
Si Si3 0.456310 0.692657 0.683550
Si Si4 0.852538 0.204488 0.545646
Si Si5 0.857049 0.750970 0.398343
Si Si6 0.770202 0.689617 0.003884
Si Si7 0.972421 0.707432 0.304415
Si Si8 0.688480 0.837531 0.566559
O O1 0.500000 0.500000 0.500000
O O2 0.419485 0.136459 0.641437
O O3 0.471595 0.990199 0.606362
O O4 0.647291 0.419137 0.905914
O O5 0.398409 0.524800 0.754262
O O6 0.260251 0.374003 0.716807
O O7 0.239858 0.995293 0.669906
O O8 0.420367 0.268033 0.079149
O O9 0.374499 0.482250 0.492527
O O10 0.874903 0.510092 0.486205
O O11 0.971090 0.239334 0.733147
O O12 0.787888 0.044928 0.596846
O O13 0.841825 0.863539 0.200496
O O14 0.955703 0.995189 0.589782
O O15 0.840401 0.598560 0.100075
O O16 0.743916 0.863733 0.796799
O O17 0.000000 0.500000 0.500000
#
# Coordination Sequence:
#
# PCOD9088166 Si02
#       8
#     2   2   2   2   2   2   2   2
#     4  10  22  38  57  88 127 162 201 238 297 369
#     4   9  20  34  62  93 117 162 208 246 305 354
#     4  10  19  37  59  88 127 162 201 252 298 360
#     4  10  21  40  66  90 122 158 203 260 297 358
#     4  11  21  39  65  87 118 157 204 258 304 354
#     4  11  23  40  60  90 124 162 201 249 304 362
#     4  11  24  42  63  91 118 155 212 254 303 361
#     4  10  23  42  60  92 128 159 203 247 308 365
#
# _framework density 21.732275999999999
#
# number of rings (size 3 to 8) (size 9 to 14) (size 15 to 20)
#    0.000    1.750    1.250    2.625    1.750    2.500 
#    4.500    5.625    0.000    0.000    0.000    0.000 
#    0.000    0.000    0.000    0.000    0.000    0.000 
#
# Total GULP energy -89343.408573 kJ/mol
# GULP energy per Si atom -5583.963036 kJ/mol
# Density = 2.168281 g / cm^3
# Si number density = 21.732276 Si / 1000 Ang^3
#
#
#
# Elastic Constant Matrix: (Units=GPa)
#
#
# Indices 1 2 3 4 5 6 
#
# 1 144.0422 4.1116 30.7592 4.0230 32.9335 -0.2747
# 2 4.1116 91.9692 10.2621 -0.0054 -0.0162 -16.7036
# 3 30.7592 10.2621 35.8968 -10.0010 17.3171 -6.2126
# 4 4.0230 -0.0054 -10.0010 7.9533 -3.3930 0.3008
# 5 32.9335 -0.0162 17.3171 -3.3930 49.9824 2.0537
# 6 -0.2747 -16.7036 -6.2126 0.3008 2.0537 32.0330
#
#
#
# Elastic Compliance Matrix: (Units=1/GPa)
#
#
# Indices 1 2 3 4 5 6 
#
# 1 0.012529 0.001031 -0.018042 -0.030638 -0.003989 -0.002311
# 2 0.001031 0.012483 -0.006104 -0.008106 0.000669 0.005367
# 3 -0.018042 -0.006104 0.081697 0.107284 -0.009634 0.012117
# 4 -0.030638 -0.008106 0.107284 0.276127 0.001199 0.013647
# 5 -0.003989 0.000669 -0.009634 0.001199 0.026188 -0.003244
# 6 -0.002311 0.005367 0.012117 0.013647 -0.003244 0.036427
#
#
# Mechanical properties :
#
#
# Convention : Reuss Voigt Hill
#
# Bulk Modulus (GPa) = 16.53488 40.24155 28.38822
# Shear Modulus (GPa) = 9.76868 33.11209 21.44039
#
# Velocity S-wave (km/s) = 2.12244 3.90761 3.14438
# Velocity P-wave (km/s) = 3.69206 6.23830 5.12580
#
# Compressibility (1/GPa) = 0.06047821
#
# Stress axis : x y z
#
# Youngs Moduli (GPa) = 79.81431 80.11093 12.24039
#
# Poissons Ratio (x) = -0.08258 0.22084
# Poissons Ratio (y) = -0.08228 0.07472
# Poissons Ratio (z) = 1.44001 0.48900
#
# Static dielectric constant tensor:
#      x y z
#    x 1.858720 0.039480 0.029470 
#    y 0.039480 1.763560 0.005850 
#    z 0.029470 0.005850 1.815480 
# 
# From -- ./inp_files/459442.got.cif
#   From: 2010.05.17/outbox.cif.g08.bks.cpg/sg2_230_cif.got.tgz:459442.got - 2010.06.03 11:33:40.
