data_PCOD9088645
_publ_section_title
;
Structure prediction by ZEFSAII (Michael W. Deem and Ramdas Pophale) SiO2 
 PCOD9088645
Probable space group: P -1
;
_chemical_formula_sum "Si O2"
_cell_formula_units_Z 16
_cell_length_a 8.564435
_cell_length_b 22.935742
_cell_length_c 11.804492
_cell_angle_alpha 149.065758
_cell_angle_beta 43.730408
_cell_angle_gamma 149.294528
_cell_volume 607.671057
_symmetry_space_group_name_H-M "P -1"
_symmetry_group_IT_number 2
_symmetry_cell_setting 'triclinic'
loop_
_space_group_symop_operation_xyz
x,y,z
-x,-y,-z
loop_
_atom_site_type_symbol
_atom_site_label
_atom_site_fract_x
_atom_site_fract_y
_atom_site_fract_z
Si Si1 0.084479 0.895537 0.271064
Si Si2 0.658768 0.353503 0.550248
Si Si3 0.638082 0.713693 0.815447
Si Si4 0.514530 0.458047 0.617449
Si Si5 0.432764 0.606136 0.078985
Si Si6 0.961490 0.123935 0.494521
Si Si7 0.702012 0.113506 0.186887
Si Si8 0.373569 0.781698 0.237578
O O1 0.058536 0.826181 0.288779
O O2 0.804519 0.744739 0.097096
O O3 0.438624 0.017696 0.258860
O O4 0.000000 0.000000 0.500000
O O5 0.748259 0.471204 0.599913
O O6 0.639722 0.410169 0.777095
O O7 0.791098 0.274654 0.380199
O O8 0.312261 0.207518 0.443490
O O9 0.582757 0.585867 0.711833
O O10 0.593803 0.669489 0.632989
O O11 0.000148 0.856682 0.885352
O O12 0.392278 0.719352 0.004756
O O13 0.328943 0.461099 0.821476
O O14 0.299313 0.670159 0.191276
O O15 0.812646 0.165479 0.560119
O O16 0.728329 0.941524 0.321391
O O17 0.500000 0.000000 0.000000
#
# Coordination Sequence:
#
# PCOD9088645 Si02
#       8
#     2   2   2   2   2   2   2   2
#     4  11  19  39  66  92 129 157 207 268 324 375
#     4  11  22  39  63  94 123 160 221 269 310 378
#     4  10  24  43  61  88 132 175 209 254 322 387
#     4  10  23  44  61  85 130 176 216 256 310 383
#     4  10  19  40  66  89 124 165 212 267 316 370
#     4  10  20  35  63  96 121 159 210 265 324 374
#     4  12  23  39  68  98 127 167 210 265 331 382
#     4  10  19  37  62  89 129 164 205 264 324 380
#
# _framework density 26.330034000000001
#
# number of rings (size 3 to 8) (size 9 to 14) (size 15 to 20)
#    0.000    1.500    3.750    2.625    0.000    4.500 
#    0.000   16.250    0.000    0.000    0.000    0.000 
#    0.000    0.000    0.000    0.000    0.000    0.000 
#
# Total GULP energy -89269.024985 kJ/mol
# GULP energy per Si atom -5579.314062 kJ/mol
# Density = 2.627011 g / cm^3
# Si number density = 26.330034 Si / 1000 Ang^3
#
#
#
# Elastic Constant Matrix: (Units=GPa)
#
#
# Indices 1 2 3 4 5 6 
#
# 1 98.2712 8.8562 39.3445 -27.2122 -0.5120 -31.9019
# 2 8.8562 49.5587 2.1690 -1.8544 5.0041 -19.5905
# 3 39.3445 2.1690 99.7718 -15.5109 26.5290 -10.0909
# 4 -27.2122 -1.8544 -15.5109 30.7109 -4.1494 6.4413
# 5 -0.5120 5.0041 26.5290 -4.1494 44.2168 -9.0228
# 6 -31.9019 -19.5905 -10.0909 6.4413 -9.0228 32.6759
#
#
#
# Elastic Compliance Matrix: (Units=1/GPa)
#
#
# Indices 1 2 3 4 5 6 
#
# 1 0.025597 0.005431 -0.008289 0.014927 0.011336 0.025875
# 2 0.005431 0.027767 -0.000795 0.001765 0.002036 0.021918
# 3 -0.008289 -0.000795 0.015525 0.000435 -0.010668 -0.006806
# 4 0.014927 0.001765 0.000435 0.045110 0.005668 0.008439
# 5 0.011336 0.002036 -0.010668 0.005668 0.032911 0.016963
# 6 0.025875 0.021918 -0.006806 0.008439 0.016963 0.069925
#
#
# Mechanical properties :
#
#
# Convention : Reuss Voigt Hill
#
# Bulk Modulus (GPa) = 16.23838 38.70458 27.47148
# Shear Modulus (GPa) = 20.43574 34.66954 27.55264
#
# Velocity S-wave (km/s) = 2.78895 3.63261 3.23837
# Velocity P-wave (km/s) = 4.06837 5.68561 4.94357
#
# Compressibility (1/GPa) = 0.06158250
#
# Stress axis : x y z
#
# Youngs Moduli (GPa) = 39.06652 36.01380 64.41371
#
# Poissons Ratio (x) = -0.19558 0.53391
# Poissons Ratio (y) = -0.21216 0.05123
# Poissons Ratio (z) = 0.32381 0.02864
#
# Static dielectric constant tensor:
#      x y z
#    x 2.775050 -0.870260 0.903500 
#    y -0.870260 3.384040 -1.173570 
#    z 0.903500 -1.173570 3.260490 
# 
# From -- ./inp_files/406748.got.cif
#   From: 2010.05.17/outbox.cif.g08.bks.cpg/sg2_204_cif.got.tgz:406748.got - 2010.06.03 11:33:40.
