data_PCOD9088684
_publ_section_title
;
Structure prediction by ZEFSAII (Michael W. Deem and Ramdas Pophale) SiO2 
 PCOD9088684
Probable space group: P -1
;
_chemical_formula_sum "Si O2"
_cell_formula_units_Z 16
_cell_length_a 22.840158
_cell_length_b 28.728226
_cell_length_c 9.396862
_cell_angle_alpha 143.543074
_cell_angle_beta 26.441432
_cell_angle_gamma 162.178643
_cell_volume 786.142603
_symmetry_space_group_name_H-M "P -1"
_symmetry_group_IT_number 2
_symmetry_cell_setting 'triclinic'
loop_
_space_group_symop_operation_xyz
x,y,z
-x,-y,-z
loop_
_atom_site_type_symbol
_atom_site_label
_atom_site_fract_x
_atom_site_fract_y
_atom_site_fract_z
Si Si1 0.008055 0.718513 0.725679
Si Si2 0.120606 0.493354 0.632100
Si Si3 0.612617 0.582219 0.730393
Si Si4 0.640084 0.853607 0.285052
Si Si5 0.571173 0.993660 0.681800
Si Si6 0.805849 0.939470 0.463972
Si Si7 0.498935 0.378542 0.666772
Si Si8 0.840432 0.130360 0.934905
O O1 0.133864 0.830324 0.592836
O O2 0.076217 0.662270 0.416600
O O3 0.128301 0.817838 0.849825
O O4 0.677829 0.547234 0.025600
O O5 0.373996 0.660486 0.404465
O O6 0.226359 0.492571 0.526317
O O7 0.000000 0.500000 0.000000
O O8 0.556856 0.467571 0.633795
O O9 0.864321 0.715786 0.405795
O O10 0.676589 0.670971 0.947264
O O11 0.740792 0.922680 0.397706
O O12 0.569863 0.899539 0.478006
O O13 0.885161 0.931189 0.874573
O O14 0.500000 0.000000 0.000000
O O15 0.359625 0.920073 0.847659
O O16 0.622077 0.767590 0.475469
O O17 0.756271 0.994876 0.787978
#
# Coordination Sequence:
#
# PCOD9088684 Si02
#       8
#     2   2   2   2   2   2   2   2
#     4  11  25  44  62  92 134 169 202 262 327 384
#     4  10  21  36  62  87 122 161 210 253 312 368
#     4  10  21  39  67  92 125 165 219 260 311 374
#     4  10  20  37  62  92 119 159 217 267 296 366
#     4  12  25  41  66  96 126 168 218 263 311 376
#     4  10  19  37  62  92 123 161 208 260 318 369
#     4   9  20  35  62  96 119 153 216 275 290 358
#     4  12  25  41  65  95 133 169 205 260 333 382
#
# _framework density 20.352542
#
# number of rings (size 3 to 8) (size 9 to 14) (size 15 to 20)
#    0.000    1.500    1.250    5.250    8.750    0.000 
#    0.000    4.375    0.000    0.000    0.000    0.000 
#    0.000    0.000    0.000    0.000    0.000    0.000 
#
# Total GULP energy -89341.051704 kJ/mol
# GULP energy per Si atom -5583.815731 kJ/mol
# Density = 2.030622 g / cm^3
# Si number density = 20.352542 Si / 1000 Ang^3
#
#
#
# Elastic Constant Matrix: (Units=GPa)
#
#
# Indices 1 2 3 4 5 6 
#
# 1 65.7115 55.6433 39.5306 23.2984 -7.5156 -11.1176
# 2 55.6433 132.3361 44.0157 34.1335 -0.4576 -5.8232
# 3 39.5306 44.0157 76.9642 21.0284 -7.3162 2.5751
# 4 23.2984 34.1335 21.0284 46.8577 -5.0261 -1.1030
# 5 -7.5156 -0.4576 -7.3162 -5.0261 33.4475 5.6311
# 6 -11.1176 -5.8232 2.5751 -1.1030 5.6311 23.7090
#
#
#
# Elastic Compliance Matrix: (Units=1/GPa)
#
#
# Indices 1 2 3 4 5 6 
#
# 1 0.033555 -0.008423 -0.011381 -0.004912 0.001798 0.014246
# 2 -0.008423 0.012978 -0.002100 -0.004632 -0.002859 -0.000071
# 3 -0.011381 -0.002100 0.021256 -0.002215 0.003252 -0.009036
# 4 -0.004912 -0.004632 -0.002215 0.028418 0.003057 -0.002605
# 5 0.001798 -0.002859 0.003252 0.003057 0.032755 -0.007849
# 6 0.014246 -0.000071 -0.009036 -0.002605 -0.007849 0.051566
#
#
# Mechanical properties :
#
#
# Convention : Reuss Voigt Hill
#
# Bulk Modulus (GPa) = 41.69886 61.48789 51.59338
# Shear Modulus (GPa) = 21.52116 29.85765 25.68940
#
# Velocity S-wave (km/s) = 3.25533 3.83433 3.55663
# Velocity P-wave (km/s) = 5.88747 7.06256 6.50162
#
# Compressibility (1/GPa) = 0.02398147
#
# Stress axis : x y z
#
# Youngs Moduli (GPa) = 29.80193 77.05142 47.04573
#
# Poissons Ratio (x) = 0.64903 0.53542
# Poissons Ratio (y) = 0.25103 0.09878
# Poissons Ratio (z) = 0.33917 0.16179
#
# Static dielectric constant tensor:
#      x y z
#    x 1.701130 0.005880 -0.024920 
#    y 0.005880 1.815660 0.015420 
#    z -0.024920 0.015420 1.835350 
# 
# From -- ./inp_files/350253.got.cif
#   From: 2010.05.17/outbox.cif.g08.bks.cpg/sg2_176_cif.got.tgz:350253.got - 2010.06.03 11:33:40.
