data_PCOD9088820
_publ_section_title
;
Structure prediction by ZEFSAII (Michael W. Deem and Ramdas Pophale) SiO2 
 PCOD9088820
Probable space group: P -1
;
_chemical_formula_sum "Si O2"
_cell_formula_units_Z 16
_cell_length_a 21.890254
_cell_length_b 9.044365
_cell_length_c 12.997226
_cell_angle_alpha 145.247922
_cell_angle_beta 149.073337
_cell_angle_gamma 44.851291
_cell_volume 753.779608
_symmetry_space_group_name_H-M "P -1"
_symmetry_group_IT_number 2
_symmetry_cell_setting 'triclinic'
loop_
_space_group_symop_operation_xyz
x,y,z
-x,-y,-z
loop_
_atom_site_type_symbol
_atom_site_label
_atom_site_fract_x
_atom_site_fract_y
_atom_site_fract_z
Si Si1 0.258712 0.150413 0.837971
Si Si2 0.790918 0.036979 0.115437
Si Si3 0.341444 0.719381 0.586869
Si Si4 0.324028 0.736386 0.326347
Si Si5 0.128585 0.426452 0.182635
Si Si6 0.001310 0.239479 0.416829
Si Si7 0.548971 0.862216 0.593241
Si Si8 0.099703 0.050336 0.088080
O O1 0.219070 0.016050 0.809693
O O2 0.134194 0.198941 0.626104
O O3 0.360652 0.989709 0.830185
O O4 0.308968 0.433338 0.103232
O O5 0.827167 0.780314 0.956863
O O6 0.654525 0.053316 0.890567
O O7 0.895610 0.230790 0.344153
O O8 0.325482 0.763713 0.467442
O O9 0.214523 0.662177 0.422690
O O10 0.411755 0.442645 0.544104
O O11 0.446527 0.841028 0.517893
O O12 0.215396 0.892257 0.203325
O O13 0.136124 0.331694 0.257995
O O14 0.000000 0.500000 0.000000
O O15 0.000000 0.500000 0.500000
O O16 0.960895 0.040153 0.157279
O O17 0.500000 0.000000 0.500000
O O18 0.000000 0.000000 0.000000
#
# Coordination Sequence:
#
# PCOD9088820 Si02
#       8
#     2   2   2   2   2   2   2   2
#     4  12  24  41  69 100 137 175 218 275 341 399
#     4  10  23  42  63  94 132 178 221 267 341 391
#     4  11  24  42  66 100 129 175 228 272 330 403
#     4  12  23  45  70  96 136 179 221 278 336 395
#     4  10  19  37  63  89 130 173 223 267 327 398
#     4  11  22  38  62  97 136 171 220 273 331 397
#     4  11  24  46  74  92 131 180 227 277 333 400
#     4  11  23  38  65  98 132 176 223 275 337 396
#
# _framework density 21.226365999999999
#
# number of rings (size 3 to 8) (size 9 to 14) (size 15 to 20)
#    0.000    1.000    3.750    6.000    0.000    1.500 
#    0.000    1.875    0.000    0.000    0.000    0.000 
#    0.000    0.000    0.000    0.000    0.000    0.000 
#
# Total GULP energy -89188.057264 kJ/mol
# GULP energy per Si atom -5574.253579 kJ/mol
# Density = 2.117805 g / cm^3
# Si number density = 21.226366 Si / 1000 Ang^3
#
#
#
# Elastic Constant Matrix: (Units=GPa)
#
#
# Indices 1 2 3 4 5 6 
#
# 1 142.5422 51.4881 28.8426 -1.3281 -1.7479 13.9545
# 2 51.4881 100.4610 11.7926 -12.1566 -7.0143 20.0672
# 3 28.8426 11.7926 20.1154 -4.4288 -4.4575 -3.5640
# 4 -1.3281 -12.1566 -4.4288 31.2422 3.4784 -0.7277
# 5 -1.7479 -7.0143 -4.4575 3.4784 42.6438 -8.5491
# 6 13.9545 20.0672 -3.5640 -0.7277 -8.5491 31.8131
#
#
#
# Elastic Compliance Matrix: (Units=1/GPa)
#
#
# Indices 1 2 3 4 5 6 
#
# 1 0.012598 -0.003682 -0.018381 -0.003315 -0.002971 -0.006137
# 2 -0.003682 0.014371 -0.003491 0.004771 -0.000096 -0.007758
# 3 -0.018381 -0.003491 0.086915 0.009426 0.011671 0.023354
# 4 -0.003315 0.004771 0.009426 0.035197 -0.001242 -0.000028
# 5 -0.002971 -0.000096 0.011671 -0.001242 0.026596 0.009790
# 6 -0.006137 -0.007758 0.023354 -0.000028 0.009790 0.044266
#
#
# Mechanical properties :
#
#
# Convention : Reuss Voigt Hill
#
# Bulk Modulus (GPa) = 15.92971 49.70725 32.81848
# Shear Modulus (GPa) = 17.12463 32.53950 24.83207
#
# Velocity S-wave (km/s) = 2.84344 3.91957 3.42405
# Velocity P-wave (km/s) = 4.27799 6.62967 5.57915
#
# Compressibility (1/GPa) = 0.06277579
#
# Stress axis : x y z
#
# Youngs Moduli (GPa) = 79.37668 69.58365 11.50552
#
# Poissons Ratio (x) = 0.25620 0.21148
# Poissons Ratio (y) = 0.29225 0.04017
# Poissons Ratio (z) = 1.45902 0.24294
#
# Static dielectric constant tensor:
#      x y z
#    x 1.579440 -0.105050 -0.558410 
#    y -0.105050 1.749650 -0.329130 
#    z -0.558410 -0.329130 -0.009090 
# 
# From -- ./inp_files/464925.got.cif
#   From: 2010.05.17/outbox.cif.g08.bks.cpg/sg2_233_cif.got.tgz:464925.got - 2010.06.03 11:33:40.
