data_PCOD9088457
_publ_section_title
;
Structure prediction by ZEFSAII (Michael W. Deem and Ramdas Pophale) SiO2 
 PCOD9088457
Probable space group: P -1
;
_chemical_formula_sum "Si O2"
_cell_formula_units_Z 13
_cell_length_a 17.623853
_cell_length_b 7.768484
_cell_length_c 6.068328
_cell_angle_alpha 89.387109
_cell_angle_beta 58.915245
_cell_angle_gamma 122.439205
_cell_volume 550.889486
_symmetry_space_group_name_H-M "P -1"
_symmetry_group_IT_number 2
_symmetry_cell_setting 'triclinic'
loop_
_space_group_symop_operation_xyz
x,y,z
-x,-y,-z
loop_
_atom_site_type_symbol
_atom_site_label
_atom_site_fract_x
_atom_site_fract_y
_atom_site_fract_z
Si Si1 0.125076 0.973996 0.437401
Si Si2 0.668634 0.317795 0.818105
Si Si3 0.500000 0.500000 0.000000
Si Si4 0.423766 0.069775 0.357645
Si Si5 0.871684 0.652280 0.819381
Si Si6 0.655953 0.817172 0.145868
Si Si7 0.244097 0.307050 0.634062
O O1 0.119322 0.144505 0.302491
O O2 0.159335 0.079663 0.628856
O O3 0.230461 0.003802 0.170048
O O4 0.999911 0.737005 0.625223
O O5 0.780000 0.449111 0.800904
O O6 0.669899 0.505340 0.681205
O O7 0.654995 0.162148 0.649250
O O8 0.554843 0.169817 0.136702
O O9 0.575308 0.754460 0.785282
O O10 0.443464 0.390685 0.842172
O O11 0.385440 0.068765 0.658831
O O12 0.824088 0.625608 0.137663
O O13 0.694412 0.721127 0.267213
#
# Coordination Sequence:
#
# PCOD9088457 Si02
#       7
#     2   2   1   2   2   2   2
#     4   9  18  34  59  89 118 149 195 237 281 340
#     4  10  23  39  58  88 119 153 195 234 288 347
#     4  12  24  40  60  84 114 150 196 236 282 352
#     4  11  23  40  60  84 120 155 190 239 288 345
#     4   9  18  35  59  88 119 152 190 239 283 335
#     4  11  23  38  60  87 115 152 193 240 289 339
#     4  10  19  37  61  88 118 150 191 238 290 339
#
# _framework density 23.598199000000001
#
# number of rings (size 3 to 8) (size 9 to 14) (size 15 to 20)
#    0.000    1.846    0.000    5.538    0.000    4.923 
#    0.000    6.154    0.000    4.615    0.000    0.000 
#    0.000    0.000    0.000    0.000    0.000    0.000 
#
# Total GULP energy -72538.550028 kJ/mol
# GULP energy per Si atom -5579.888464 kJ/mol
# Density = 2.354449 g / cm^3
# Si number density = 23.598199 Si / 1000 Ang^3
#
#
#
# Elastic Constant Matrix: (Units=GPa)
#
#
# Indices 1 2 3 4 5 6 
#
# 1 71.9209 52.2222 56.5272 4.4896 3.5139 29.4063
# 2 52.2222 169.6580 82.8968 24.4031 -20.1176 39.4988
# 3 56.5272 82.8968 129.1458 19.1050 -24.3995 38.3841
# 4 4.4896 24.4031 19.1050 35.1158 0.4202 3.4131
# 5 3.5139 -20.1176 -24.3995 0.4202 28.3662 -11.5881
# 6 29.4063 39.4988 38.3841 3.4131 -11.5881 51.1674
#
#
#
# Elastic Compliance Matrix: (Units=1/GPa)
#
#
# Indices 1 2 3 4 5 6 
#
# 1 0.033964 -0.005037 -0.014215 0.008267 -0.024666 -0.011105
# 2 -0.005037 0.010288 -0.002000 -0.005293 0.005481 -0.001952
# 3 -0.014215 -0.002000 0.019884 -0.007741 0.017241 -0.000782
# 4 0.008267 -0.005293 -0.007741 0.035445 -0.011930 0.000076
# 5 -0.024666 0.005481 0.017241 -0.011930 0.062047 0.011859
# 6 -0.011105 -0.001952 -0.000782 0.000076 0.011859 0.030700
#
#
# Mechanical properties :
#
#
# Convention : Reuss Voigt Hill
#
# Bulk Modulus (GPa) = 46.23169 83.77968 65.00568
# Shear Modulus (GPa) = 20.65751 34.86844 27.76297
#
# Velocity S-wave (km/s) = 2.96190 3.84811 3.43372
# Velocity P-wave (km/s) = 5.59740 7.43798 6.58234
#
# Compressibility (1/GPa) = 0.02163019
#
# Stress axis : x y z
#
# Youngs Moduli (GPa) = 29.44303 97.20442 50.29210
#
# Poissons Ratio (x) = 0.48964 0.71492
# Poissons Ratio (y) = 0.14831 0.10059
# Poissons Ratio (z) = 0.41854 0.19442
#
# Static dielectric constant tensor:
#      x y z
#    x 1.421390 0.089920 0.218890 
#    y 0.089920 1.810060 -0.060510 
#    z 0.218890 -0.060510 1.814580 
# 
# From -- ./inp_files/103915.got.cif
#   From: 2010.05.17/outbox.cif.g08.bks.cpg/sg2_52_cif.got.tgz:103915.got - 2010.06.03 11:33:40.
