data_PCOD9088240
_publ_section_title
;
Structure prediction by ZEFSAII (Michael W. Deem and Ramdas Pophale) SiO2 
 PCOD9088240
Probable space group: P -1
;
_chemical_formula_sum "Si O2"
_cell_formula_units_Z 16
_cell_length_a 16.432979
_cell_length_b 10.971864
_cell_length_c 19.088317
_cell_angle_alpha 146.951866
_cell_angle_beta 20.718779
_cell_angle_gamma 138.620585
_cell_volume 653.821356
_symmetry_space_group_name_H-M "P -1"
_symmetry_group_IT_number 2
_symmetry_cell_setting 'triclinic'
loop_
_space_group_symop_operation_xyz
x,y,z
-x,-y,-z
loop_
_atom_site_type_symbol
_atom_site_label
_atom_site_fract_x
_atom_site_fract_y
_atom_site_fract_z
Si Si1 0.467231 0.021148 0.644619
Si Si2 0.658635 0.103070 0.000191
Si Si3 0.188478 0.769972 0.914862
Si Si4 0.173030 0.848967 0.690106
Si Si5 0.564332 0.524320 0.039727
Si Si6 0.201564 0.959000 0.372521
Si Si7 0.317308 0.373329 0.299429
Si Si8 0.275289 0.260654 0.583636
O O1 0.595382 0.133289 0.533748
O O2 0.386930 0.227748 0.862074
O O3 0.255411 0.914519 0.732151
O O4 0.665537 0.839861 0.435089
O O5 0.808129 0.180093 0.980442
O O6 0.429941 0.035530 0.190303
O O7 0.550091 0.292967 0.121871
O O8 0.768252 0.864640 0.760544
O O9 0.139951 0.517728 0.816920
O O10 0.458202 0.750517 0.664252
O O11 0.028338 0.968870 0.096076
O O12 0.156274 0.584554 0.568736
O O13 0.375012 0.467136 0.221476
O O14 0.500000 0.500000 0.000000
O O15 0.763193 0.309950 0.781528
O O16 0.167883 0.098420 0.539006
O O17 0.000000 0.000000 0.500000
#
# Coordination Sequence:
#
# PCOD9088240 Si02
#       8
#     2   2   2   2   2   2   2   2
#     4  10  21  39  59  83 123 154 193 246 300 349
#     4   9  19  40  59  83 120 157 190 247 293 350
#     4  10  22  38  60  87 119 154 202 241 297 352
#     4  10  22  38  58  91 117 154 200 244 294 356
#     4  10  19  37  60  84 116 155 192 243 298 344
#     4  10  21  37  58  87 116 153 201 240 293 351
#     4   9  19  38  61  84 116 156 193 241 297 345
#     4  10  21  40  59  83 121 160 192 248 295 351
#
# _framework density 24.471516000000001
#
# number of rings (size 3 to 8) (size 9 to 14) (size 15 to 20)
#    0.000    2.250    1.250    0.750    1.750    1.500 
#    9.000    0.000    0.000    0.000    0.000    0.000 
#    0.000    0.000    0.000    0.000    0.000    0.000 
#
# Total GULP energy -89424.419982 kJ/mol
# GULP energy per Si atom -5589.026249 kJ/mol
# Density = 2.441582 g / cm^3
# Si number density = 24.471516 Si / 1000 Ang^3
#
#
#
# Elastic Constant Matrix: (Units=GPa)
#
#
# Indices 1 2 3 4 5 6 
#
# 1 150.8495 36.2808 63.5628 14.8191 2.2015 24.8687
# 2 36.2808 86.8288 36.4582 12.6044 8.5064 11.4214
# 3 63.5628 36.4582 172.6677 44.7560 -3.8843 33.3934
# 4 14.8191 12.6044 44.7560 40.3882 -1.4797 6.9722
# 5 2.2015 8.5064 -3.8843 -1.4797 43.0410 5.2918
# 6 24.8687 11.4214 33.3934 6.9722 5.2918 44.6156
#
#
#
# Elastic Compliance Matrix: (Units=1/GPa)
#
#
# Indices 1 2 3 4 5 6 
#
# 1 0.008524 -0.002365 -0.002301 0.000604 0.000156 -0.002537
# 2 -0.002365 0.013736 -0.001563 -0.001712 -0.002740 -0.000435
# 3 -0.002301 -0.001563 0.010322 -0.009219 0.001631 -0.004796
# 4 0.000604 -0.001712 -0.009219 0.035054 0.000500 0.001464
# 5 0.000156 -0.002740 0.001631 0.000500 0.024371 -0.003575
# 6 -0.002537 -0.000435 -0.004796 0.001464 -0.003575 0.027724
#
#
# Mechanical properties :
#
#
# Convention : Reuss Voigt Hill
#
# Bulk Modulus (GPa) = 49.69310 75.88329 62.78820
# Shear Modulus (GPa) = 35.99779 43.87857 39.93818
#
# Velocity S-wave (km/s) = 3.83953 4.23903 4.04422
# Velocity P-wave (km/s) = 6.32508 7.41858 6.89355
#
# Compressibility (1/GPa) = 0.02012352
#
# Stress axis : x y z
#
# Youngs Moduli (GPa) = 117.31547 72.80292 96.87659
#
# Poissons Ratio (x) = 0.17217 0.22291
# Poissons Ratio (y) = 0.27744 0.15146
# Poissons Ratio (z) = 0.26994 0.11382
#
# Static dielectric constant tensor:
#      x y z
#    x 1.930890 -0.068220 0.094610 
#    y -0.068220 2.110200 -0.118640 
#    z 0.094610 -0.118640 1.929320 
# 
# From -- ./inp_files/389385.got.cif
#   From: 2010.05.17/outbox.cif.g08.bks.cpg/sg2_195_cif.got.tgz:389385.got - 2010.06.03 11:33:40.
