data_PCOD9088219
_publ_section_title
;
Structure prediction by ZEFSAII (Michael W. Deem and Ramdas Pophale) SiO2 
 PCOD9088219
Probable space group: P -1
;
_chemical_formula_sum "Si O2"
_cell_formula_units_Z 16
_cell_length_a 8.804363
_cell_length_b 21.150279
_cell_length_c 21.414686
_cell_angle_alpha 160.897268
_cell_angle_beta 142.502701
_cell_angle_gamma 36.067276
_cell_volume 759.219222
_symmetry_space_group_name_H-M "P -1"
_symmetry_group_IT_number 2
_symmetry_cell_setting 'triclinic'
loop_
_space_group_symop_operation_xyz
x,y,z
-x,-y,-z
loop_
_atom_site_type_symbol
_atom_site_label
_atom_site_fract_x
_atom_site_fract_y
_atom_site_fract_z
Si Si1 0.635835 0.032184 0.442559
Si Si2 0.725639 0.832388 0.150552
Si Si3 0.957940 0.735159 0.501531
Si Si4 0.759722 0.056001 0.119837
Si Si5 0.867183 0.371447 0.200408
Si Si6 0.056747 0.811830 0.467833
Si Si7 0.762982 0.200013 0.121597
Si Si8 0.722438 0.423197 0.792033
O O1 0.343382 0.134175 0.465074
O O2 0.780064 0.209163 0.647348
O O3 0.627872 0.938239 0.283969
O O4 0.802997 0.869666 0.394028
O O5 0.489665 0.826114 0.021653
O O6 0.868444 0.595592 0.992069
O O7 0.876278 0.977239 0.303661
O O8 0.995122 0.527528 0.356769
O O9 0.014069 0.714150 0.427125
O O10 0.141894 0.848406 0.699809
O O11 0.718445 0.206104 0.186636
O O12 0.500000 0.000000 0.000000
O O13 0.983439 0.850768 0.982319
O O14 0.853096 0.366702 0.266955
O O15 0.560797 0.450631 0.156685
O O16 0.279056 0.659644 0.356719
O O17 0.000000 0.000000 0.000000
#
# Coordination Sequence:
#
# PCOD9088219 Si02
#       8
#     2   2   2   2   2   2   2   2
#     4  10  21  38  59  85 114 152 196 232 282 345
#     4  10  19  37  60  82 114 148 188 245 286 323
#     4  11  23  40  58  82 123 155 182 238 290 333
#     4  11  23  40  62  88 116 149 190 235 289 346
#     4   9  21  39  60  85 113 150 195 236 280 338
#     4  11  23  35  57  88 116 153 193 231 286 344
#     4   9  18  36  60  83 109 146 191 231 278 338
#     4   9  19  37  60  85 114 148 194 239 279 337
#
# _framework density 21.074280999999999
#
# number of rings (size 3 to 8) (size 9 to 14) (size 15 to 20)
#    0.000    2.000    0.000    4.875    0.000    6.000 
#    0.000    7.500    0.000    8.250    0.000    0.000 
#    0.000    0.000    0.000    0.000    0.000    0.000 
#
# Total GULP energy -89208.856074 kJ/mol
# GULP energy per Si atom -5575.553505 kJ/mol
# Density = 2.102631 g / cm^3
# Si number density = 21.074281 Si / 1000 Ang^3
#
#
#
# Elastic Constant Matrix: (Units=GPa)
#
#
# Indices 1 2 3 4 5 6 
#
# 1 95.1002 17.1678 15.2040 1.0986 11.6666 39.8951
# 2 17.1678 73.0974 11.5953 2.3784 -1.4605 22.1010
# 3 15.2040 11.5953 81.3437 7.8910 12.8542 10.2985
# 4 1.0986 2.3784 7.8910 32.8856 4.0262 4.0193
# 5 11.6666 -1.4605 12.8542 4.0262 29.3932 1.3296
# 6 39.8951 22.1010 10.2985 4.0193 1.3296 24.1706
#
#
#
# Elastic Compliance Matrix: (Units=1/GPa)
#
#
# Indices 1 2 3 4 5 6 
#
# 1 0.055683 0.019553 0.002802 0.012055 -0.018942 -0.111944
# 2 0.019553 0.025932 0.000063 0.004937 -0.004617 -0.056579
# 3 0.002802 0.000063 0.014241 -0.001458 -0.006678 -0.010139
# 4 0.012055 0.004937 -0.001458 0.034452 -0.007303 -0.029117
# 5 -0.018942 -0.004617 -0.006678 -0.007303 0.043551 0.037151
# 6 -0.111944 -0.056579 -0.010139 -0.029117 0.037151 0.284995
#
#
# Mechanical properties :
#
#
# Convention : Reuss Voigt Hill
#
# Bulk Modulus (GPa) = 7.10777 37.49728 22.30252
# Shear Modulus (GPa) = 10.84795 30.99481 20.92138
#
# Velocity S-wave (km/s) = 2.27127 3.83918 3.15420
# Velocity P-wave (km/s) = 3.20285 6.12242 4.88581
#
# Compressibility (1/GPa) = 0.14069108
#
# Stress axis : x y z
#
# Youngs Moduli (GPa) = 17.95878 38.56251 70.21733
#
# Poissons Ratio (x) = -0.75402 -0.19672
# Poissons Ratio (y) = -0.35115 -0.00439
# Poissons Ratio (z) = -0.05031 -0.00241
#
# Static dielectric constant tensor:
#      x y z
#    x 1.750370 0.006310 0.036280 
#    y 0.006310 1.827300 0.017870 
#    z 0.036280 0.017870 1.786550 
# 
# From -- ./inp_files/353858.got.cif
#   From: 2010.05.17/outbox.cif.g08.bks.cpg/sg2_177_cif.got.tgz:353858.got - 2010.06.03 11:33:40.
