data_PCOD9088543
_publ_section_title
;
Structure prediction by ZEFSAII (Michael W. Deem and Ramdas Pophale) SiO2 
 PCOD9088543
Probable space group: P -1
;
_chemical_formula_sum "Si O2"
_cell_formula_units_Z 16
_cell_length_a 11.375097
_cell_length_b 9.206295
_cell_length_c 12.430669
_cell_angle_alpha 123.639230
_cell_angle_beta 133.309908
_cell_angle_gamma 87.009249
_cell_volume 663.183144
_symmetry_space_group_name_H-M "P -1"
_symmetry_group_IT_number 2
_symmetry_cell_setting 'triclinic'
loop_
_space_group_symop_operation_xyz
x,y,z
-x,-y,-z
loop_
_atom_site_type_symbol
_atom_site_label
_atom_site_fract_x
_atom_site_fract_y
_atom_site_fract_z
Si Si1 0.182550 0.805349 0.471169
Si Si2 0.229408 0.188617 0.710678
Si Si3 0.363165 0.333486 0.092001
Si Si4 0.046298 0.345834 0.525336
Si Si5 0.799503 0.084428 0.888424
Si Si6 0.013431 0.053820 0.197940
Si Si7 0.454312 0.660869 0.590736
Si Si8 0.857688 0.483207 0.996469
O O1 0.271272 0.667369 0.444848
O O2 0.131562 0.768933 0.550528
O O3 0.988667 0.692659 0.233389
O O4 0.297399 0.054896 0.632784
O O5 0.338753 0.263665 0.924085
O O6 0.222438 0.373536 0.722634
O O7 0.000000 0.000000 0.500000
O O8 0.330219 0.520968 0.158353
O O9 0.539514 0.368569 0.288460
O O10 0.180803 0.153100 0.970332
O O11 0.058827 0.209384 0.385118
O O12 0.000000 0.500000 0.500000
O O13 0.837622 0.006210 0.768560
O O14 0.618791 0.892403 0.752636
O O15 0.794377 0.284119 0.946278
O O16 0.975798 0.144517 0.103896
O O17 0.500000 0.500000 0.500000
O O18 0.000000 0.500000 0.000000
#
# Coordination Sequence:
#
# PCOD9088543 Si02
#       8
#     2   2   2   2   2   2   2   2
#     4  11  23  42  68  97 131 173 222 273 334 405
#     4  10  19  39  64  99 127 166 221 275 323 394
#     4  11  20  41  66  95 132 172 218 278 327 398
#     4  11  21  35  66 101 127 158 223 284 322 379
#     4  10  24  38  63  94 135 168 226 272 324 401
#     4  10  19  37  61  95 125 166 215 275 317 377
#     4  11  27  46  63  96 141 181 217 269 348 407
#     4  12  21  37  70  98 124 175 231 274 328 385
#
# _framework density 24.126065000000001
#
# number of rings (size 3 to 8) (size 9 to 14) (size 15 to 20)
#    0.000    1.250    6.250    1.500    5.250    0.500 
#    0.000    3.750    0.000    1.500    0.000    0.000 
#    0.000    0.000    0.000    0.000    0.000    0.000 
#
# Total GULP energy -89239.953016 kJ/mol
# GULP energy per Si atom -5577.497064 kJ/mol
# Density = 2.407115 g / cm^3
# Si number density = 24.126065 Si / 1000 Ang^3
#
#
#
# Elastic Constant Matrix: (Units=GPa)
#
#
# Indices 1 2 3 4 5 6 
#
# 1 47.5998 10.5190 19.0321 -0.8933 -22.2631 -11.5607
# 2 10.5190 165.0516 19.2256 -6.5502 -3.1276 -16.4460
# 3 19.0321 19.2256 49.7582 -12.1514 -20.7658 1.9033
# 4 -0.8933 -6.5502 -12.1514 29.9974 -0.8114 -0.3346
# 5 -22.2631 -3.1276 -20.7658 -0.8114 38.7391 -1.7360
# 6 -11.5607 -16.4460 1.9033 -0.3346 -1.7360 35.4276
#
#
#
# Elastic Compliance Matrix: (Units=1/GPa)
#
#
# Indices 1 2 3 4 5 6 
#
# 1 0.034635 0.000142 -0.007151 -0.001245 0.016619 0.012555
# 2 0.000142 0.006731 -0.003090 0.000235 -0.000879 0.003296
# 3 -0.007151 -0.003090 0.032877 0.012737 0.013318 -0.004762
# 4 -0.001245 0.000235 0.012737 0.038694 0.006929 -0.000276
# 5 0.016619 -0.000879 0.013318 0.006929 0.042868 0.006466
# 6 0.012555 0.003296 -0.004762 -0.000276 0.006466 0.034424
#
#
# Mechanical properties :
#
#
# Convention : Reuss Voigt Hill
#
# Bulk Modulus (GPa) = 18.50326 39.99590 29.24958
# Shear Modulus (GPa) = 21.88737 35.07503 28.48120
#
# Velocity S-wave (km/s) = 3.01526 3.81704 3.43959
# Velocity P-wave (km/s) = 4.45067 6.00335 5.28435
#
# Compressibility (1/GPa) = 0.05404453
#
# Stress axis : x y z
#
# Youngs Moduli (GPa) = 28.87226 148.57222 30.41629
#
# Poissons Ratio (x) = -0.02112 0.21751
# Poissons Ratio (y) = -0.00410 0.09400
# Poissons Ratio (z) = 0.20647 0.45916
#
# Static dielectric constant tensor:
#      x y z
#    x 2.002160 -0.021020 -0.006360 
#    y -0.021020 2.092690 -0.045810 
#    z -0.006360 -0.045810 1.966610 
# 
# From -- ./inp_files/419845.got.cif
#   From: 2010.05.17/outbox.cif.g08.bks.cpg/sg2_210_cif.got.tgz:419845.got - 2010.06.03 11:33:40.
