data_PCOD9088888
_publ_section_title
;
Structure prediction by ZEFSAII (Michael W. Deem and Ramdas Pophale) SiO2 
 PCOD9088888
Probable space group: P -1
;
_chemical_formula_sum "Si O2"
_cell_formula_units_Z 16
_cell_length_a 11.145381
_cell_length_b 13.363812
_cell_length_c 11.307479
_cell_angle_alpha 68.572065
_cell_angle_beta 40.397374
_cell_angle_gamma 48.916888
_cell_volume 790.617661
_symmetry_space_group_name_H-M "P -1"
_symmetry_group_IT_number 2
_symmetry_cell_setting 'triclinic'
loop_
_space_group_symop_operation_xyz
x,y,z
-x,-y,-z
loop_
_atom_site_type_symbol
_atom_site_label
_atom_site_fract_x
_atom_site_fract_y
_atom_site_fract_z
Si Si1 0.163719 0.619927 0.171743
Si Si2 0.163146 0.408910 0.103513
Si Si3 0.677589 0.570173 0.263148
Si Si4 0.400714 0.190327 0.215860
Si Si5 0.579563 0.601356 0.752651
Si Si6 0.033473 0.009401 0.111947
Si Si7 0.685023 0.318665 0.318654
Si Si8 0.738369 0.909314 0.436903
O O1 0.201709 0.502836 0.111014
O O2 0.225998 0.555859 0.284417
O O3 0.906396 0.763623 0.305388
O O4 0.346510 0.644291 0.980216
O O5 0.250967 0.278223 0.174661
O O6 0.891389 0.511814 0.219677
O O7 0.307351 0.362083 0.892894
O O8 0.726315 0.430820 0.242626
O O9 0.429484 0.668789 0.475049
O O10 0.356041 0.304825 0.291438
O O11 0.322426 0.112563 0.377730
O O12 0.686531 0.088176 0.026098
O O13 0.514994 0.626617 0.654517
O O14 0.885131 0.966866 0.302197
O O15 0.906575 0.166302 0.178155
O O16 0.000000 0.000000 0.000000
O O17 0.500000 0.000000 0.500000
#
# Coordination Sequence:
#
# PCOD9088888 Si02
#       8
#     2   2   2   2   2   2   2   2
#     4  10  21  35  64  96 129 164 204 271 331 375
#     4  10  23  43  63  94 126 168 220 269 314 373
#     4  10  24  42  66  88 126 174 219 265 309 377
#     4  11  24  41  65  99 132 165 210 271 326 381
#     4  10  19  37  63  94 128 163 202 275 331 366
#     4  12  23  43  65  96 137 166 206 266 330 386
#     4  11  22  41  66  94 123 171 219 260 320 388
#     4  12  24  36  62 102 131 170 203 249 344 392
#
# _framework density 20.237341000000001
#
# number of rings (size 3 to 8) (size 9 to 14) (size 15 to 20)
#    0.000    1.250    5.000    0.000    5.250    1.000 
#    4.500    1.250    0.000    0.000    0.000    0.000 
#    0.000    0.000    0.000    0.000    0.000    0.000 
#
# Total GULP energy -89373.141049 kJ/mol
# GULP energy per Si atom -5585.821316 kJ/mol
# Density = 2.019128 g / cm^3
# Si number density = 20.237341 Si / 1000 Ang^3
#
#
#
# Elastic Constant Matrix: (Units=GPa)
#
#
# Indices 1 2 3 4 5 6 
#
# 1 45.6979 13.2173 9.7196 -10.7798 2.0221 -9.2353
# 2 13.2173 73.8120 39.6262 -0.3109 5.9955 -13.6140
# 3 9.7196 39.6262 86.0506 -13.9164 -7.0714 -3.9770
# 4 -10.7798 -0.3109 -13.9164 36.4387 -2.6122 3.2561
# 5 2.0221 5.9955 -7.0714 -2.6122 14.2486 -0.5738
# 6 -9.2353 -13.6140 -3.9770 3.2561 -0.5738 30.2701
#
#
#
# Elastic Compliance Matrix: (Units=1/GPa)
#
#
# Indices 1 2 3 4 5 6 
#
# 1 0.025696 -0.003559 0.000085 0.007072 -0.000590 0.005478
# 2 -0.003559 0.024081 -0.012960 -0.007790 -0.017143 0.008555
# 3 0.000085 -0.012960 0.020298 0.009229 0.017054 -0.003806
# 4 0.007072 -0.007790 0.009229 0.034244 0.012989 -0.003571
# 5 -0.000590 -0.017143 0.017054 0.012989 0.088108 -0.005377
# 6 0.005478 0.008555 -0.003806 -0.003571 -0.005377 0.038337
#
#
# Mechanical properties :
#
#
# Convention : Reuss Voigt Hill
#
# Bulk Modulus (GPa) = 26.87780 36.74296 31.81038
# Shear Modulus (GPa) = 18.11375 25.72465 21.91920
#
# Velocity S-wave (km/s) = 2.99501 3.56918 3.29463
# Velocity P-wave (km/s) = 5.02695 5.93135 5.49778
#
# Compressibility (1/GPa) = 0.03720542
#
# Stress axis : x y z
#
# Youngs Moduli (GPa) = 38.91728 41.52725 49.26622
#
# Poissons Ratio (x) = 0.14778 -0.00417
# Poissons Ratio (y) = 0.13849 0.63851
# Poissons Ratio (z) = -0.00330 0.53821
#
# Static dielectric constant tensor:
#      x y z
#    x 1.709210 -0.011010 -0.013330 
#    y -0.011010 1.731570 -0.013090 
#    z -0.013330 -0.013090 1.754950 
# 
# From -- ./inp_files/283173.got.cif
#   From: 2010.05.17/outbox.cif.g08.bks.cpg/sg2_142_cif.got.tgz:283173.got - 2010.06.03 11:33:40.
