data_PCOD9088266
_publ_section_title
;
Structure prediction by ZEFSAII (Michael W. Deem and Ramdas Pophale) SiO2 
 PCOD9088266
Probable space group: P -1
;
_chemical_formula_sum "Si O2"
_cell_formula_units_Z 10
_cell_length_a 9.207103
_cell_length_b 15.026196
_cell_length_c 20.833899
_cell_angle_alpha 16.947872
_cell_angle_beta 149.414920
_cell_angle_gamma 149.656280
_cell_volume 412.051561
_symmetry_space_group_name_H-M "P -1"
_symmetry_group_IT_number 2
_symmetry_cell_setting 'triclinic'
loop_
_space_group_symop_operation_xyz
x,y,z
-x,-y,-z
loop_
_atom_site_type_symbol
_atom_site_label
_atom_site_fract_x
_atom_site_fract_y
_atom_site_fract_z
Si Si1 0.705847 0.210121 0.231542
Si Si2 0.195500 0.370806 0.396114
Si Si3 0.801091 0.651219 0.140967
Si Si4 0.343450 0.747098 0.517351
Si Si5 0.715665 0.783301 0.247473
O O1 0.009425 0.438173 0.215883
O O2 0.791284 0.986972 0.363619
O O3 0.584907 0.004747 0.391542
O O4 0.434016 0.315155 0.025825
O O5 0.533460 0.570907 0.381490
O O6 0.028458 0.477267 0.316989
O O7 0.619398 0.418758 0.287124
O O8 0.000000 0.000000 0.000000
O O9 0.282850 0.447028 0.653308
O O10 0.062529 0.893003 0.319089
O O11 0.500000 0.000000 0.000000
#
# Coordination Sequence:
#
# PCOD9088266 Si02
#       5
#     2   2   2   2   2
#     4  10  23  44  60  84 125 160 193 244 297 351
#     4  10  22  40  62  86 121 160 196 241 299 353
#     4  12  23  37  63  93 119 154 199 248 295 347
#     4  10  22  37  59  89 117 152 201 241 289 353
#     4  10  19  37  60  85 120 158 192 241 296 348
#
# _framework density 24.268806000000001
#
# number of rings (size 3 to 8) (size 9 to 14) (size 15 to 20)
#    0.000    1.600    0.000    6.600    0.000    5.600 
#    0.000    9.000    0.000    0.000    0.000    0.000 
#    0.000    0.000    0.000    0.000    0.000    0.000 
#
# Total GULP energy -55819.400437 kJ/mol
# GULP energy per Si atom -5581.940044 kJ/mol
# Density = 2.421357 g / cm^3
# Si number density = 24.268806 Si / 1000 Ang^3
#
#
#
# Elastic Constant Matrix: (Units=GPa)
#
#
# Indices 1 2 3 4 5 6 
#
# 1 135.6765 13.6357 46.4645 1.7183 12.5580 13.3973
# 2 13.6357 88.6300 38.0009 14.2405 1.6879 13.5962
# 3 46.4645 38.0009 118.3130 21.4974 11.0685 -1.7337
# 4 1.7183 14.2405 21.4974 34.3446 2.9236 10.3467
# 5 12.5580 1.6879 11.0685 2.9236 53.9966 2.9149
# 6 13.3973 13.5962 -1.7337 10.3467 2.9149 25.6891
#
#
#
# Elastic Compliance Matrix: (Units=1/GPa)
#
#
# Indices 1 2 3 4 5 6 
#
# 1 0.009809 0.001138 -0.005076 0.004663 -0.001107 -0.007813
# 2 0.001138 0.014773 -0.005352 -0.000265 0.000858 -0.008764
# 3 -0.005076 -0.005352 0.014175 -0.009397 -0.001611 0.010404
# 4 0.004663 -0.000265 -0.009397 0.040712 -0.000313 -0.019287
# 5 -0.001107 0.000858 -0.001611 -0.000313 0.019208 -0.002039
# 6 -0.007813 -0.008764 0.010404 -0.019287 -0.002039 0.056342
#
#
# Mechanical properties :
#
#
# Convention : Reuss Voigt Hill
#
# Bulk Modulus (GPa) = 49.56218 59.86909 54.71563
# Shear Modulus (GPa) = 27.72753 39.10730 33.41741
#
# Velocity S-wave (km/s) = 3.38378 4.01861 3.71478
# Velocity P-wave (km/s) = 5.97772 6.80110 6.40266
#
# Compressibility (1/GPa) = 0.02017668
#
# Stress axis : x y z
#
# Youngs Moduli (GPa) = 101.94369 67.68921 70.54569
#
# Poissons Ratio (x) = -0.07700 0.35808
# Poissons Ratio (y) = -0.11597 0.37759
# Poissons Ratio (z) = 0.51745 0.36230
#
# Static dielectric constant tensor:
#      x y z
#    x 1.929520 -0.001450 -0.053270 
#    y -0.001450 1.965410 -0.043130 
#    z -0.053270 -0.043130 1.960630 
# 
# From -- ./inp_files/15951.got.cif
#   From: 2010.05.17/outbox.cif.g08.bks.cpg/sg2_8_cif.got.tgz:15951.got - 2010.06.03 11:33:40.
