data_PCOD9088051
_publ_section_title
;
Structure prediction by ZEFSAII (Michael W. Deem and Ramdas Pophale) SiO2 
 PCOD9088051
Probable space group: P -1
;
_chemical_formula_sum "Si O2"
_cell_formula_units_Z 16
_cell_length_a 16.872684
_cell_length_b 18.584020
_cell_length_c 7.109199
_cell_angle_alpha 122.200454
_cell_angle_beta 52.503333
_cell_angle_gamma 157.696453
_cell_volume 667.803554
_symmetry_space_group_name_H-M "P -1"
_symmetry_group_IT_number 2
_symmetry_cell_setting 'triclinic'
loop_
_space_group_symop_operation_xyz
x,y,z
-x,-y,-z
loop_
_atom_site_type_symbol
_atom_site_label
_atom_site_fract_x
_atom_site_fract_y
_atom_site_fract_z
Si Si1 0.313204 0.416398 0.879065
Si Si2 0.833798 0.111067 0.080737
Si Si3 0.418577 0.677484 0.162992
Si Si4 0.405438 0.526106 0.464669
Si Si5 0.953373 0.377355 0.288142
Si Si6 0.262317 0.770698 0.011240
Si Si7 0.475473 0.768256 0.624942
Si Si8 0.925951 0.205058 0.630701
O O1 0.341910 0.445790 0.652463
O O2 0.415511 0.404434 0.774755
O O3 0.048916 0.230514 0.031274
O O4 0.454482 0.603636 0.015299
O O5 0.884619 0.166778 0.863705
O O6 0.802352 0.182619 0.309221
O O7 0.621974 0.888852 0.089762
O O8 0.197946 0.520645 0.137131
O O9 0.377004 0.678233 0.434819
O O10 0.494893 0.690423 0.579128
O O11 0.171794 0.355780 0.451990
O O12 0.000000 0.500000 0.500000
O O13 0.840921 0.314226 0.165442
O O14 0.328473 0.724077 0.894414
O O15 0.098912 0.713552 0.269057
O O16 0.500000 0.000000 0.000000
O O17 0.719650 0.995338 0.555038
#
# Coordination Sequence:
#
# PCOD9088051 Si02
#       8
#     2   2   2   2   2   2   2   2
#     4   9  21  41  63  86 113 155 211 252 304 362
#     4   9  20  38  61  85 119 157 200 253 296 359
#     4  11  22  37  61  90 124 158 198 249 308 363
#     4  10  21  40  64  84 113 158 205 259 301 356
#     4  10  19  37  58  88 121 160 208 238 290 362
#     4   9  19  38  58  86 125 159 199 246 296 358
#     4  11  22  36  57  88 123 157 195 248 312 362
#     4   9  20  38  58  83 117 155 205 246 294 361
#
# _framework density 23.959140000000001
#
# number of rings (size 3 to 8) (size 9 to 14) (size 15 to 20)
#    0.000    2.250    1.250    1.500    0.000    4.500 
#    0.000    7.500    0.000    0.000    0.000    0.000 
#    0.000    0.000    0.000    0.000    0.000    0.000 
#
# Total GULP energy -89409.831924 kJ/mol
# GULP energy per Si atom -5588.114495 kJ/mol
# Density = 2.390461 g / cm^3
# Si number density = 23.959140 Si / 1000 Ang^3
#
#
#
# Elastic Constant Matrix: (Units=GPa)
#
#
# Indices 1 2 3 4 5 6 
#
# 1 111.5928 49.2926 53.0538 7.5589 -45.8134 2.3090
# 2 49.2926 147.0801 29.1668 23.6429 -21.7413 3.1034
# 3 53.0538 29.1668 53.7719 19.7975 -20.5598 14.1303
# 4 7.5589 23.6429 19.7975 36.6511 3.9898 3.2519
# 5 -45.8134 -21.7413 -20.5598 3.9898 65.2214 6.1145
# 6 2.3090 3.1034 14.1303 3.2519 6.1145 32.6469
#
#
#
# Elastic Compliance Matrix: (Units=1/GPa)
#
#
# Indices 1 2 3 4 5 6 
#
# 1 0.024527 -0.003972 -0.024830 0.009538 0.006822 0.007162
# 2 -0.003972 0.008912 0.002160 -0.006142 0.001344 -0.001141
# 3 -0.024830 0.002160 0.060511 -0.027588 0.006202 -0.023053
# 4 0.009538 -0.006142 -0.027588 0.044219 -0.007580 0.008865
# 5 0.006822 0.001344 0.006202 -0.007580 0.023645 -0.006968
# 6 0.007162 -0.001141 -0.023053 0.008865 -0.006968 0.040633
#
#
# Mechanical properties :
#
#
# Convention : Reuss Voigt Hill
#
# Bulk Modulus (GPa) = 24.59119 63.94125 44.26622
# Shear Modulus (GPa) = 18.56762 38.96598 28.76680
#
# Velocity S-wave (km/s) = 2.78685 4.03718 3.46881
# Velocity P-wave (km/s) = 4.54329 6.96257 5.87872
#
# Compressibility (1/GPa) = 0.04066497
#
# Stress axis : x y z
#
# Youngs Moduli (GPa) = 40.77117 112.20977 16.52603
#
# Poissons Ratio (x) = 0.44569 0.41035
# Poissons Ratio (y) = 0.16194 -0.03570
# Poissons Ratio (z) = 1.01236 -0.24237
#
# Static dielectric constant tensor:
#      x y z
#    x 1.977360 -0.023330 0.024200 
#    y -0.023330 1.875220 -0.005200 
#    z 0.024200 -0.005200 2.000060 
# 
# From -- ./inp_files/338149.got.cif
#   From: 2010.05.17/outbox.cif.g08.bks.cpg/sg2_170_cif.got.tgz:338149.got - 2010.06.03 11:33:40.
