data_PCOD9088488
_publ_section_title
;
Structure prediction by ZEFSAII (Michael W. Deem and Ramdas Pophale) SiO2 
 PCOD9088488
Probable space group: P -1
;
_chemical_formula_sum "Si O2"
_cell_formula_units_Z 16
_cell_length_a 17.185267
_cell_length_b 11.301165
_cell_length_c 11.469914
_cell_angle_alpha 118.081183
_cell_angle_beta 159.996779
_cell_angle_gamma 61.345436
_cell_volume 667.176513
_symmetry_space_group_name_H-M "P -1"
_symmetry_group_IT_number 2
_symmetry_cell_setting 'triclinic'
loop_
_space_group_symop_operation_xyz
x,y,z
-x,-y,-z
loop_
_atom_site_type_symbol
_atom_site_label
_atom_site_fract_x
_atom_site_fract_y
_atom_site_fract_z
Si Si1 0.888928 0.390519 0.004047
Si Si2 0.428597 0.387038 0.758665
Si Si3 0.172240 0.847048 0.733257
Si Si4 0.128642 0.317622 0.889960
Si Si5 0.372106 0.063363 0.233438
Si Si6 0.204053 0.898113 0.288265
Si Si7 0.687075 0.400802 0.468148
Si Si8 0.658025 0.117044 0.268524
O O1 0.793030 0.542337 0.982920
O O2 0.164812 0.361828 0.395442
O O3 0.794316 0.250146 0.836975
O O4 0.813533 0.405383 0.769881
O O5 0.441340 0.455683 0.682001
O O6 0.500000 0.500000 0.000000
O O7 0.614572 0.259266 0.975799
O O8 0.230670 0.891578 0.705822
O O9 0.943967 0.775552 0.360957
O O10 0.177640 0.969857 0.885548
O O11 0.890620 0.369961 0.644960
O O12 0.270290 0.220332 0.139472
O O13 0.563754 0.045143 0.393942
O O14 0.500000 0.000000 0.500000
O O15 0.186205 0.890143 0.398966
O O16 0.000000 0.000000 0.000000
O O17 0.544215 0.274113 0.194662
O O18 0.500000 0.000000 0.000000
#
# Coordination Sequence:
#
# PCOD9088488 Si02
#       8
#     2   2   2   2   2   2   2   2
#     4  10  21  37  64  91 129 165 212 263 313 374
#     4  11  17  33  62  97 122 150 214 260 315 360
#     4  11  22  39  64  93 125 168 210 268 308 380
#     4  10  21  40  59  87 126 165 211 258 315 376
#     4  12  28  41  63  92 128 175 211 258 324 390
#     4  11  25  43  66  96 126 167 212 270 318 373
#     4   9  20  33  61  94 124 164 202 268 309 366
#     4  10  19  37  61  89 123 161 211 253 310 365
#
# _framework density 23.981659000000001
#
# number of rings (size 3 to 8) (size 9 to 14) (size 15 to 20)
#    0.000    1.500    5.000    2.625    8.750    0.500 
#    0.000    0.000    0.000    0.750    0.000    0.000 
#    0.000    0.000    0.000    0.000    0.000    0.000 
#
# Total GULP energy -89312.578348 kJ/mol
# GULP energy per Si atom -5582.036147 kJ/mol
# Density = 2.392708 g / cm^3
# Si number density = 23.981659 Si / 1000 Ang^3
#
#
#
# Elastic Constant Matrix: (Units=GPa)
#
#
# Indices 1 2 3 4 5 6 
#
# 1 50.4397 18.5528 19.5400 -6.0780 -12.9104 5.7463
# 2 18.5528 165.1410 65.2263 -11.2011 -15.2539 14.1862
# 3 19.5400 65.2263 105.9383 1.1978 -25.2763 8.7839
# 4 -6.0780 -11.2011 1.1978 65.1524 5.6850 -16.0259
# 5 -12.9104 -15.2539 -25.2763 5.6850 28.9707 -3.1773
# 6 5.7463 14.1862 8.7839 -16.0259 -3.1773 25.7182
#
#
#
# Elastic Compliance Matrix: (Units=1/GPa)
#
#
# Indices 1 2 3 4 5 6 
#
# 1 0.023236 -0.000979 -0.001540 0.000654 0.008070 -0.002721
# 2 -0.000979 0.008299 -0.004955 0.000965 -0.000817 -0.002166
# 3 -0.001540 -0.004955 0.015545 -0.002869 0.010533 -0.002719
# 4 0.000654 0.000965 -0.002869 0.018823 -0.004134 0.011520
# 5 0.008070 -0.000817 0.010533 -0.004134 0.047502 -0.001657
# 6 -0.002721 -0.002166 -0.002719 0.011520 -0.001657 0.048588
#
#
# Mechanical properties :
#
#
# Convention : Reuss Voigt Hill
#
# Bulk Modulus (GPa) = 31.12064 58.68414 44.90239
# Shear Modulus (GPa) = 26.64513 38.51492 32.58002
#
# Velocity S-wave (km/s) = 3.33688 4.01186 3.68984
# Velocity P-wave (km/s) = 5.27744 6.78112 6.07597
#
# Compressibility (1/GPa) = 0.03213301
#
# Stress axis : x y z
#
# Youngs Moduli (GPa) = 43.03582 120.50204 64.32853
#
# Poissons Ratio (x) = 0.11796 0.09904
# Poissons Ratio (y) = 0.04213 0.31876
# Poissons Ratio (z) = 0.06626 0.59711
#
# Static dielectric constant tensor:
#      x y z
#    x 1.924540 -0.002060 0.022080 
#    y -0.002060 2.044430 0.031570 
#    z 0.022080 0.031570 1.956760 
# 
# From -- ./inp_files/465124.got.cif
#   From: 2010.05.17/outbox.cif.g08.bks.cpg/sg2_233_cif.got.tgz:465124.got - 2010.06.03 11:33:40.
