data_PCOD9088588
_publ_section_title
;
Structure prediction by ZEFSAII (Michael W. Deem and Ramdas Pophale) SiO2 
 PCOD9088588
Probable space group: P -1
;
_chemical_formula_sum "Si O2"
_cell_formula_units_Z 14
_cell_length_a 11.765369
_cell_length_b 15.262536
_cell_length_c 12.213998
_cell_angle_alpha 45.930263
_cell_angle_beta 33.617656
_cell_angle_gamma 27.707492
_cell_volume 557.128566
_symmetry_space_group_name_H-M "P -1"
_symmetry_group_IT_number 2
_symmetry_cell_setting 'triclinic'
loop_
_space_group_symop_operation_xyz
x,y,z
-x,-y,-z
loop_
_atom_site_type_symbol
_atom_site_label
_atom_site_fract_x
_atom_site_fract_y
_atom_site_fract_z
Si Si1 0.508219 0.667367 0.799960
Si Si2 0.267243 0.994544 0.163818
Si Si3 0.565666 0.769079 0.328103
Si Si4 0.642644 0.036483 0.462752
Si Si5 0.664396 0.350430 0.831882
Si Si6 0.555155 0.427188 0.397671
Si Si7 0.793426 0.914200 0.096408
O O1 0.564914 0.768990 0.606028
O O2 0.682432 0.473536 0.772347
O O3 0.527821 0.649028 0.930793
O O4 0.132335 0.807814 0.955814
O O5 0.910309 0.207891 0.288289
O O6 0.400541 0.839101 0.280894
O O7 0.313608 0.951274 0.035035
O O8 0.500000 0.000000 0.000000
O O9 0.299969 0.928681 0.493799
O O10 0.680449 0.581322 0.425439
O O11 0.808478 0.770833 0.152825
O O12 0.552751 0.995440 0.318307
O O13 0.976738 0.859032 0.293035
O O14 0.507796 0.446916 0.756032
O O15 0.500000 0.500000 0.500000
#
# Coordination Sequence:
#
# PCOD9088588 Si02
#       7
#     2   2   2   2   2   2   2
#     4  11  22  44  67  91 138 170 208 273 313 379
#     4  10  19  37  62  85 123 169 207 256 323 372
#     4   9  20  39  62  90 125 167 215 256 313 386
#     4  10  21  41  66  92 130 169 221 251 322 383
#     4  11  23  40  66 101 128 167 219 265 319 380
#     4  12  23  39  66  93 129 166 214 269 322 379
#     4   9  20  39  68  88 130 171 213 262 316 381
#
# _framework density 25.128848999999999
#
# number of rings (size 3 to 8) (size 9 to 14) (size 15 to 20)
#    0.857    0.857    2.857    1.714    0.000    1.714 
#    0.000   12.143    6.286    0.000    0.000    0.000 
#    0.000    0.000    0.000    0.000    0.000    0.000 
#
# Total GULP energy -78236.705533 kJ/mol
# GULP energy per Si atom -5588.336109 kJ/mol
# Density = 2.507165 g / cm^3
# Si number density = 25.128849 Si / 1000 Ang^3
#
#
#
# Elastic Constant Matrix: (Units=GPa)
#
#
# Indices 1 2 3 4 5 6 
#
# 1 88.7157 8.4396 30.2284 -6.4831 19.7253 -4.0554
# 2 8.4396 61.5613 35.2395 -8.6294 14.9011 -1.1612
# 3 30.2284 35.2395 134.5776 -23.6142 29.0413 0.3858
# 4 -6.4831 -8.6294 -23.6142 39.7193 -10.2220 16.1860
# 5 19.7253 14.9011 29.0413 -10.2220 47.0879 -4.6989
# 6 -4.0554 -1.1612 0.3858 16.1860 -4.6989 35.8686
#
#
#
# Elastic Compliance Matrix: (Units=1/GPa)
#
#
# Indices 1 2 3 4 5 6 
#
# 1 0.012935 0.000454 -0.002249 -0.000731 -0.004206 0.001280
# 2 0.000454 0.019639 -0.004315 0.000920 -0.003559 -0.000148
# 3 -0.002249 -0.004315 0.010823 0.005669 -0.003489 -0.003526
# 4 -0.000731 0.000920 0.005669 0.035811 0.002704 -0.015920
# 5 -0.004206 -0.003559 -0.003489 0.002704 0.027041 0.001769
# 6 0.001280 -0.000148 -0.003526 -0.015920 0.001769 0.035473
#
#
# Mechanical properties :
#
#
# Convention : Reuss Voigt Hill
#
# Bulk Modulus (GPa) = 32.07303 48.07440 40.07371
# Shear Modulus (GPa) = 30.42576 38.59831 34.51203
#
# Velocity S-wave (km/s) = 3.48342 3.92346 3.70997
# Velocity P-wave (km/s) = 5.38238 6.30058 5.85950
#
# Compressibility (1/GPa) = 0.03117884
#
# Stress axis : x y z
#
# Youngs Moduli (GPa) = 77.30780 50.91849 92.39320
#
# Poissons Ratio (x) = -0.02310 0.20775
# Poissons Ratio (y) = -0.03507 0.39864
# Poissons Ratio (z) = 0.17383 0.21969
#
# Static dielectric constant tensor:
#      x y z
#    x 2.028520 -0.014570 0.032770 
#    y -0.014570 1.977040 -0.082230 
#    z 0.032770 -0.082230 2.131280 
# 
# From -- ./inp_files/431163.got.cif
#   From: 2010.05.17/outbox.cif.g08.bks.cpg/sg2_216_cif.got.tgz:431163.got - 2010.06.03 11:33:40.
