data_PCOD9088348
_publ_section_title
;
Structure prediction by ZEFSAII (Michael W. Deem and Ramdas Pophale) SiO2 
 PCOD9088348
Probable space group: P -1
;
_chemical_formula_sum "Si O2"
_cell_formula_units_Z 14
_cell_length_a 5.067788
_cell_length_b 11.695769
_cell_length_c 13.258893
_cell_angle_alpha 133.286381
_cell_angle_beta 79.543441
_cell_angle_gamma 84.663589
_cell_volume 535.986420
_symmetry_space_group_name_H-M "P -1"
_symmetry_group_IT_number 2
_symmetry_cell_setting 'triclinic'
loop_
_space_group_symop_operation_xyz
x,y,z
-x,-y,-z
loop_
_atom_site_type_symbol
_atom_site_label
_atom_site_fract_x
_atom_site_fract_y
_atom_site_fract_z
Si Si1 0.372286 0.573085 0.858078
Si Si2 0.683372 0.139200 0.688564
Si Si3 0.780775 0.648655 0.005223
Si Si4 0.260292 0.499639 0.598886
Si Si5 0.030964 0.230697 0.352930
Si Si6 0.467641 0.913599 0.052419
Si Si7 0.282102 0.923516 0.576057
O O1 0.351872 0.492762 0.703720
O O2 0.665276 0.526691 0.870282
O O3 0.112218 0.573213 0.948563
O O4 0.341184 0.764447 0.951029
O O5 0.453061 0.279315 0.849943
O O6 0.700132 0.171932 0.588648
O O7 0.552240 0.985771 0.605231
O O8 0.997475 0.080797 0.677371
O O9 0.736649 0.814558 0.039684
O O10 0.500000 0.500000 0.500000
O O11 0.122045 0.358678 0.494783
O O12 0.035182 0.676478 0.693764
O O13 0.270489 0.059779 0.220000
O O14 0.773119 0.182962 0.392307
O O15 0.500000 0.000000 0.000000
#
# Coordination Sequence:
#
# PCOD9088348 Si02
#       7
#     2   2   2   2   2   2   2
#     4  10  23  38  59  84 118 157 200 243 303 354
#     4  10  19  37  60  95 123 151 193 252 314 357
#     4  10  20  36  60  85 118 152 190 247 304 357
#     4  11  26  40  59  83 125 171 207 244 293 364
#     4  11  23  39  59  89 122 163 202 250 298 357
#     4  10  20  33  58  86 115 151 194 247 297 353
#     4  10  21  35  61  91 126 155 193 250 309 361
#
# _framework density 26.120066000000001
#
# number of rings (size 3 to 8) (size 9 to 14) (size 15 to 20)
#    0.857    0.857    1.429    3.429    6.000    4.571 
#    0.000    0.000    0.000    1.714    0.000    0.000 
#    0.000    0.000    0.000    0.000    0.000    0.000 
#
# Total GULP energy -78372.884709 kJ/mol
# GULP energy per Si atom -5598.063193 kJ/mol
# Density = 2.606062 g / cm^3
# Si number density = 26.120066 Si / 1000 Ang^3
#
#
#
# Elastic Constant Matrix: (Units=GPa)
#
#
# Indices 1 2 3 4 5 6 
#
# 1 92.3465 -0.5730 -4.7454 6.5917 -9.8116 5.4623
# 2 -0.5730 103.0372 6.6918 4.3781 -7.2452 6.6610
# 3 -4.7454 6.6918 87.4640 -12.1399 -0.4174 -1.9739
# 4 6.5917 4.3781 -12.1399 36.9360 7.4813 -4.6665
# 5 -9.8116 -7.2452 -0.4174 7.4813 27.0357 0.1234
# 6 5.4623 6.6610 -1.9739 -4.6665 0.1234 42.9439
#
#
#
# Elastic Compliance Matrix: (Units=1/GPa)
#
#
# Indices 1 2 3 4 5 6 
#
# 1 0.011787 0.000724 0.000076 -0.003523 0.005457 -0.002007
# 2 0.000724 0.010300 -0.001160 -0.002756 0.003777 -0.002053
# 3 0.000076 -0.001160 0.012180 0.004558 -0.001362 0.001229
# 4 -0.003523 -0.002756 0.004558 0.032322 -0.010912 0.004629
# 5 0.005457 0.003777 -0.001362 -0.010912 0.042991 -0.002652
# 6 -0.002007 -0.002053 0.001229 0.004629 -0.002652 0.024427
#
#
# Mechanical properties :
#
#
# Convention : Reuss Voigt Hill
#
# Bulk Modulus (GPa) = 29.80862 31.73270 30.77066
# Shear Modulus (GPa) = 34.26765 40.14808 37.20786
#
# Velocity S-wave (km/s) = 3.62598 3.92479 3.77834
# Velocity P-wave (km/s) = 5.38213 5.71959 5.55342
#
# Compressibility (1/GPa) = 0.03354734
#
# Stress axis : x y z
#
# Youngs Moduli (GPa) = 84.83825 97.08765 82.10144
#
# Poissons Ratio (x) = -0.07027 -0.00623
# Poissons Ratio (y) = -0.06140 0.09520
# Poissons Ratio (z) = -0.00644 0.11258
#
# Static dielectric constant tensor:
#      x y z
#    x 2.045330 -0.091400 -0.061450 
#    y -0.091400 2.154980 0.047240 
#    z -0.061450 0.047240 2.080400 
# 
# From -- ./inp_files/483680.got.cif
#   From: 2010.05.17/outbox.cif.g08.bks.cpg/sg2_242_cif.got.tgz:483680.got - 2010.06.03 11:33:40.
