data_PCOD9088300
_publ_section_title
;
Structure prediction by ZEFSAII (Michael W. Deem and Ramdas Pophale) SiO2 
 PCOD9088300
Probable space group: P -1
;
_chemical_formula_sum "Si O2"
_cell_formula_units_Z 16
_cell_length_a 9.350621
_cell_length_b 7.839342
_cell_length_c 15.462215
_cell_angle_alpha 95.197106
_cell_angle_beta 136.724471
_cell_angle_gamma 67.308415
_cell_volume 683.613830
_symmetry_space_group_name_H-M "P -1"
_symmetry_group_IT_number 2
_symmetry_cell_setting 'triclinic'
loop_
_space_group_symop_operation_xyz
x,y,z
-x,-y,-z
loop_
_atom_site_type_symbol
_atom_site_label
_atom_site_fract_x
_atom_site_fract_y
_atom_site_fract_z
Si Si1 0.036658 0.503401 0.617893
Si Si2 0.796193 0.198904 0.311215
Si Si3 0.348560 0.386607 0.414920
Si Si4 0.327346 0.109835 0.831827
Si Si5 0.662663 0.070448 0.413261
Si Si6 0.098134 0.386175 0.897709
Si Si7 0.125248 0.690053 0.032547
Si Si8 0.655906 0.063017 0.829698
O O1 0.782989 0.620507 0.556917
O O2 0.000000 0.500000 0.500000
O O3 0.197725 0.609469 0.711146
O O4 0.150260 0.288960 0.699824
O O5 0.648677 0.216366 0.335201
O O6 0.730613 0.068839 0.212089
O O7 0.067246 0.064416 0.452148
O O8 0.500000 0.500000 0.500000
O O9 0.526460 0.184840 0.442258
O O10 0.131860 0.492281 0.257152
O O11 0.275277 0.209662 0.907233
O O12 0.576536 0.048974 0.892074
O O13 0.535473 0.953120 0.314571
O O14 0.993230 0.344155 0.936301
O O15 0.204770 0.521335 0.989187
O O16 0.324249 0.742003 0.155125
O O17 0.909078 0.885768 0.907881
#
# Coordination Sequence:
#
# PCOD9088300 Si02
#       8
#     2   2   2   2   2   2   2   2
#     4  11  22  38  59  90 129 168 205 250 310 375
#     4  10  21  38  61  90 131 166 200 257 316 376
#     4  11  22  36  62  92 127 162 205 257 309 378
#     4  10  23  42  62  94 127 164 206 260 313 375
#     4  10  19  37  60  87 126 162 204 255 312 371
#     4  10  22  42  61  90 127 159 209 258 312 364
#     4  10  22  41  64  87 123 165 208 263 302 368
#     4  10  21  39  63  91 119 163 210 258 314 359
#
# _framework density 23.405025999999999
#
# number of rings (size 3 to 8) (size 9 to 14) (size 15 to 20)
#    0.000    1.750    1.250    4.500    0.000    5.500 
#    4.500    0.000    0.000    0.000    0.000    0.000 
#    0.000    0.000    0.000    0.000    0.000    0.000 
#
# Total GULP energy -89483.372689 kJ/mol
# GULP energy per Si atom -5592.710793 kJ/mol
# Density = 2.335176 g / cm^3
# Si number density = 23.405026 Si / 1000 Ang^3
#
#
#
# Elastic Constant Matrix: (Units=GPa)
#
#
# Indices 1 2 3 4 5 6 
#
# 1 108.8284 67.1123 33.3570 34.4383 5.4617 -19.6501
# 2 67.1123 107.8154 33.9949 47.5286 -1.7949 -6.7584
# 3 33.3570 33.9949 59.0149 27.3428 -5.7938 3.7100
# 4 34.4383 47.5286 27.3428 51.2216 4.1770 3.3347
# 5 5.4617 -1.7949 -5.7938 4.1770 37.7695 13.1743
# 6 -19.6501 -6.7584 3.7100 3.3347 13.1743 48.4222
#
#
#
# Elastic Compliance Matrix: (Units=1/GPa)
#
#
# Indices 1 2 3 4 5 6 
#
# 1 0.018906 -0.008826 -0.006334 -0.001142 -0.007117 0.008941
# 2 -0.008826 0.020839 -0.000314 -0.013508 0.003993 -0.000805
# 3 -0.006334 -0.000314 0.026461 -0.009842 0.008210 -0.006197
# 4 -0.001142 -0.013508 -0.009842 0.038693 -0.005281 -0.002823
# 5 -0.007117 0.003993 0.008210 -0.005281 0.033637 -0.011748
# 6 0.008941 -0.000805 -0.006197 -0.002823 -0.011748 0.028033
#
#
# Mechanical properties :
#
#
# Convention : Reuss Voigt Hill
#
# Bulk Modulus (GPa) = 28.36194 60.50968 44.43581
# Shear Modulus (GPa) = 23.89277 36.89561 30.39419
#
# Velocity S-wave (km/s) = 3.19852 3.97469 3.60754
# Velocity P-wave (km/s) = 5.07789 6.85373 6.03153
#
# Compressibility (1/GPa) = 0.03525852
#
# Stress axis : x y z
#
# Youngs Moduli (GPa) = 52.89393 47.98755 37.79104
#
# Poissons Ratio (x) = 0.42353 0.23935
# Poissons Ratio (y) = 0.46683 0.01188
# Poissons Ratio (z) = 0.33501 0.01508
#
# Static dielectric constant tensor:
#      x y z
#    x 1.861380 0.014800 -0.008270 
#    y 0.014800 1.968880 -0.057960 
#    z -0.008270 -0.057960 1.874490 
# 
# From -- ./inp_files/495293.got.cif
#   From: 2010.05.17/outbox.cif.g08.bks.cpg/sg2_248_cif.got.tgz:495293.got - 2010.06.03 11:33:40.
