data_PCOD9088430
_publ_section_title
;
Structure prediction by ZEFSAII (Michael W. Deem and Ramdas Pophale) SiO2 
 PCOD9088430
Probable space group: P -1
;
_chemical_formula_sum "Si O2"
_cell_formula_units_Z 16
_cell_length_a 5.526961
_cell_length_b 10.933603
_cell_length_c 18.795594
_cell_angle_alpha 143.789778
_cell_angle_beta 97.190596
_cell_angle_gamma 70.718332
_cell_volume 612.681358
_symmetry_space_group_name_H-M "P -1"
_symmetry_group_IT_number 2
_symmetry_cell_setting 'triclinic'
loop_
_space_group_symop_operation_xyz
x,y,z
-x,-y,-z
loop_
_atom_site_type_symbol
_atom_site_label
_atom_site_fract_x
_atom_site_fract_y
_atom_site_fract_z
Si Si1 0.212844 0.324375 0.521749
Si Si2 0.805944 0.368204 0.930056
Si Si3 0.194124 0.678778 0.795758
Si Si4 0.980032 0.206233 0.702386
Si Si5 0.254845 0.979683 0.820141
Si Si6 0.717399 0.258006 0.440322
Si Si7 0.371920 0.924016 0.026419
Si Si8 0.499844 0.846831 0.362161
O O1 0.202268 0.444739 0.654256
O O2 0.417062 0.392848 0.515767
O O3 0.345146 0.051068 0.396658
O O4 0.918429 0.384111 0.509810
O O5 0.852133 0.285413 0.811719
O O6 0.950245 0.157812 0.889621
O O7 0.500000 0.500000 0.000000
O O8 0.000000 0.500000 0.000000
O O9 0.315988 0.782589 0.786998
O O10 0.306785 0.719204 0.895043
O O11 0.893982 0.859345 0.869004
O O12 0.149533 0.937941 0.587123
O O13 0.207159 0.288919 0.723298
O O14 0.711932 0.259989 0.673517
O O15 0.434035 0.111622 0.916078
O O16 0.295784 0.874069 0.693767
O O17 0.500000 0.000000 0.000000
O O18 0.500000 0.000000 0.500000
#
# Coordination Sequence:
#
# PCOD9088430 Si02
#       8
#     2   2   2   2   2   2   2   2
#     4  10  22  38  60  94 126 158 212 261 309 372
#     4  11  24  42  65  94 127 162 214 267 312 381
#     4  10  22  40  65  88 128 168 215 265 308 380
#     4   9  19  38  58  84 124 159 195 256 318 363
#     4  10  23  40  67  89 127 171 207 257 338 376
#     4   9  21  37  61  91 126 160 196 258 319 378
#     4   9  21  42  60  86 123 174 211 258 319 368
#     4  10  19  37  61  86 120 165 204 251 318 374
#
# _framework density 26.114712999999998
#
# number of rings (size 3 to 8) (size 9 to 14) (size 15 to 20)
#    0.000    2.250    0.000    1.125    7.000    3.000 
#    2.250    3.750    0.000    0.000    0.000    0.000 
#    0.000    0.000    0.000    0.000    0.000    0.000 
#
# Total GULP energy -89309.124527 kJ/mol
# GULP energy per Si atom -5581.820283 kJ/mol
# Density = 2.605528 g / cm^3
# Si number density = 26.114713 Si / 1000 Ang^3
#
#
#
# Elastic Constant Matrix: (Units=GPa)
#
#
# Indices 1 2 3 4 5 6 
#
# 1 211.7162 37.0452 83.4484 -15.4553 4.9541 -22.5463
# 2 37.0452 51.5896 34.0601 2.0141 4.1281 -10.1719
# 3 83.4484 34.0601 169.5821 -15.0533 8.3752 -23.4697
# 4 -15.4553 2.0141 -15.0533 42.5120 -7.8707 8.4614
# 5 4.9541 4.1281 8.3752 -7.8707 37.5802 -8.8267
# 6 -22.5463 -10.1719 -23.4697 8.4614 -8.8267 36.5576
#
#
#
# Elastic Compliance Matrix: (Units=1/GPa)
#
#
# Indices 1 2 3 4 5 6 
#
# 1 0.006368 -0.002907 -0.002244 0.001480 0.000640 0.001490
# 2 -0.002907 0.024687 -0.003347 -0.004428 -0.001677 0.003548
# 3 -0.002244 -0.003347 0.008180 0.001703 -0.000218 0.002489
# 4 0.001480 -0.004428 0.001703 0.026555 0.004465 -0.004294
# 5 0.000640 -0.001677 -0.000218 0.004465 0.029048 0.005768
# 6 0.001490 0.003548 0.002489 -0.004294 0.005768 0.033245
#
#
# Mechanical properties :
#
#
# Convention : Reuss Voigt Hill
#
# Bulk Modulus (GPa) = 44.96464 82.44395 63.70429
# Shear Modulus (GPa) = 32.78859 41.88558 37.33708
#
# Velocity S-wave (km/s) = 3.54723 4.00923 3.78528
# Velocity P-wave (km/s) = 5.83375 7.28494 6.59935
#
# Compressibility (1/GPa) = 0.02223970
#
# Stress axis : x y z
#
# Youngs Moduli (GPa) = 157.03412 40.50643 122.25235
#
# Poissons Ratio (x) = 0.11773 0.27431
# Poissons Ratio (y) = 0.45642 0.40923
# Poissons Ratio (z) = 0.35236 0.13559
#
# Static dielectric constant tensor:
#      x y z
#    x 1.553430 0.313900 -0.481540 
#    y 0.313900 2.061120 0.232180 
#    z -0.481540 0.232180 1.542060 
# 
# From -- ./inp_files/370524.got.cif
#   From: 2010.05.17/outbox.cif.g08.bks.cpg/sg2_186_cif.got.tgz:370524.got - 2010.06.03 11:33:40.
