data_PCOD9088722
_publ_section_title
;
Structure prediction by ZEFSAII (Michael W. Deem and Ramdas Pophale) SiO2 
 PCOD9088722
Probable space group: P -1
;
_chemical_formula_sum "Si O2"
_cell_formula_units_Z 14
_cell_length_a 17.635360
_cell_length_b 7.268563
_cell_length_c 8.455344
_cell_angle_alpha 102.590354
_cell_angle_beta 67.014546
_cell_angle_gamma 50.546109
_cell_volume 581.659149
_symmetry_space_group_name_H-M "P -1"
_symmetry_group_IT_number 2
_symmetry_cell_setting 'triclinic'
loop_
_space_group_symop_operation_xyz
x,y,z
-x,-y,-z
loop_
_atom_site_type_symbol
_atom_site_label
_atom_site_fract_x
_atom_site_fract_y
_atom_site_fract_z
Si Si1 0.996208 0.739855 0.401479
Si Si2 0.701341 0.211768 0.840355
Si Si3 0.087192 0.261390 0.028595
Si Si4 0.579422 0.675833 0.768101
Si Si5 0.764151 0.674543 0.623027
Si Si6 0.133603 0.842547 0.717527
Si Si7 0.613860 0.209005 0.236731
O O1 0.129374 0.547299 0.359595
O O2 0.853678 0.023156 0.666630
O O3 0.970950 0.902196 0.289673
O O4 0.020818 0.475724 0.279244
O O5 0.594356 0.524506 0.883676
O O6 0.724338 0.963259 0.699264
O O7 0.647898 0.282260 0.073908
O O8 0.102162 0.010188 0.935902
O O9 0.237640 0.081357 0.860768
O O10 0.000000 0.500000 0.000000
O O11 0.716418 0.353982 0.497190
O O12 0.449230 0.863476 0.803144
O O13 0.373579 0.197101 0.214959
O O14 0.836393 0.435846 0.371394
O O15 0.500000 0.500000 0.500000
#
# Coordination Sequence:
#
# PCOD9088722 Si02
#       7
#     2   2   2   2   2   2   2
#     4  10  19  37  62  97 128 165 220 264 320 378
#     4  11  23  38  66  99 127 170 221 271 314 390
#     4  10  20  38  64  94 129 172 214 263 327 385
#     4   9  22  39  62  94 130 166 217 262 319 383
#     4  10  19  37  64  98 128 168 216 269 322 381
#     4   8  18  35  60  90 126 167 206 261 320 372
#     4  12  22  41  67  92 132 180 212 262 337 392
#
# _framework density 24.069078999999999
#
# number of rings (size 3 to 8) (size 9 to 14) (size 15 to 20)
#    0.857    1.143    2.857    1.286    0.000    0.571 
#    0.000    0.714    3.143   11.143    0.000    0.000 
#    0.000    0.000    0.000    0.000    0.000    0.000 
#
# Total GULP energy -78192.356804 kJ/mol
# GULP energy per Si atom -5585.168343 kJ/mol
# Density = 2.401430 g / cm^3
# Si number density = 24.069079 Si / 1000 Ang^3
#
#
#
# Elastic Constant Matrix: (Units=GPa)
#
#
# Indices 1 2 3 4 5 6 
#
# 1 138.1342 57.1740 47.1892 16.4917 4.9175 -29.0271
# 2 57.1740 75.5879 24.9983 27.4326 -3.6908 -12.1653
# 3 47.1892 24.9983 142.5304 2.5682 5.1736 -5.2564
# 4 16.4917 27.4326 2.5682 34.3051 0.9495 -4.1666
# 5 4.9175 -3.6908 5.1736 0.9495 56.5646 16.1971
# 6 -29.0271 -12.1653 -5.2564 -4.1666 16.1971 45.9889
#
#
#
# Elastic Compliance Matrix: (Units=1/GPa)
#
#
# Indices 1 2 3 4 5 6 
#
# 1 0.013121 -0.008843 -0.002437 0.001906 -0.003557 0.007089
# 2 -0.008843 0.026613 -0.001606 -0.017181 0.003360 -0.001465
# 3 -0.002437 -0.001606 0.008062 0.001778 -0.000454 -0.000721
# 4 0.001906 -0.017181 0.001778 0.042106 -0.002613 0.001596
# 5 -0.003557 0.003360 -0.000454 -0.002613 0.020868 -0.008994
# 6 0.007089 -0.001465 -0.000721 0.001596 -0.008994 0.029061
#
#
# Mechanical properties :
#
#
# Convention : Reuss Voigt Hill
#
# Bulk Modulus (GPa) = 45.40441 68.33062 56.86751
# Shear Modulus (GPa) = 28.91079 42.49779 35.70429
#
# Velocity S-wave (km/s) = 3.46953 4.20653 3.85568
# Velocity P-wave (km/s) = 5.91231 7.21417 6.59544
#
# Compressibility (1/GPa) = 0.02202429
#
# Stress axis : x y z
#
# Youngs Moduli (GPa) = 76.21588 37.57529 124.03140
#
# Poissons Ratio (x) = 0.33227 0.30225
# Poissons Ratio (y) = 0.67396 0.19925
# Poissons Ratio (z) = 0.18573 0.06036
#
# Static dielectric constant tensor:
#      x y z
#    x 2.001290 0.013050 -0.001640 
#    y 0.013050 1.884850 -0.000140 
#    z -0.001640 -0.000140 2.060100 
# 
# From -- ./inp_files/302610.got.cif
#   From: 2010.05.17/outbox.cif.g08.bks.cpg/sg2_152_cif.got.tgz:302610.got - 2010.06.03 11:33:40.
