data_PCOD9088664
_publ_section_title
;
Structure prediction by ZEFSAII (Michael W. Deem and Ramdas Pophale) SiO2 
 PCOD9088664
Probable space group: P -1
;
_chemical_formula_sum "Si O2"
_cell_formula_units_Z 16
_cell_length_a 5.578889
_cell_length_b 10.468828
_cell_length_c 13.123365
_cell_angle_alpha 103.432018
_cell_angle_beta 59.576063
_cell_angle_gamma 80.346009
_cell_volume 604.500613
_symmetry_space_group_name_H-M "P -1"
_symmetry_group_IT_number 2
_symmetry_cell_setting 'triclinic'
loop_
_space_group_symop_operation_xyz
x,y,z
-x,-y,-z
loop_
_atom_site_type_symbol
_atom_site_label
_atom_site_fract_x
_atom_site_fract_y
_atom_site_fract_z
Si Si1 0.711450 0.485078 0.855231
Si Si2 0.787642 0.900917 0.292813
Si Si3 0.101643 0.201566 0.972460
Si Si4 0.059055 0.114309 0.311009
Si Si5 0.272610 0.501222 0.812623
Si Si6 0.481033 0.627376 0.600451
Si Si7 0.532166 0.811188 0.907409
Si Si8 0.206641 0.174312 0.494132
O O1 0.558177 0.409235 0.796277
O O2 0.657215 0.641728 0.854983
O O3 0.054190 0.430940 0.798271
O O4 0.500000 0.500000 0.000000
O O5 0.833624 0.821009 0.375786
O O6 0.767699 0.834301 0.175516
O O7 0.498163 0.038085 0.390986
O O8 0.049513 0.966713 0.249886
O O9 0.949682 0.370338 0.049877
O O10 0.818823 0.149490 0.020904
O O11 0.318170 0.151128 0.014757
O O12 0.351857 0.136362 0.209396
O O13 0.994547 0.139845 0.450368
O O14 0.803833 0.238763 0.335751
O O15 0.418020 0.573428 0.711904
O O16 0.500000 0.500000 0.500000
O O17 0.747938 0.684939 0.532066
#
# Coordination Sequence:
#
# PCOD9088664 Si02
#       8
#     2   2   2   2   2   2   2   2
#     4  10  19  37  62  90 127 177 212 270 343 393
#     4  10  24  41  68  99 136 180 223 278 345 407
#     4  10  21  41  64  99 134 172 217 275 342 406
#     4  11  22  43  71  94 132 179 226 287 336 408
#     4  10  21  42  63  94 134 167 224 278 338 397
#     4  11  24  45  67  96 129 180 230 284 336 402
#     4  10  22  39  63  97 138 169 225 275 340 404
#     4  10  23  46  66  96 137 177 231 280 338 404
#
# _framework density 26.468131
#
# number of rings (size 3 to 8) (size 9 to 14) (size 15 to 20)
#    0.000    1.750    2.500    2.250    3.500    1.500 
#    9.000    0.000    0.000    0.000    0.000    0.000 
#    0.000    0.000    0.000    0.000    0.000    0.000 
#
# Total GULP energy -89513.418133 kJ/mol
# GULP energy per Si atom -5594.588633 kJ/mol
# Density = 2.640789 g / cm^3
# Si number density = 26.468131 Si / 1000 Ang^3
#
#
#
# Elastic Constant Matrix: (Units=GPa)
#
#
# Indices 1 2 3 4 5 6 
#
# 1 172.0687 25.7496 39.2404 -13.4460 36.3332 13.9900
# 2 25.7496 78.6476 57.6965 -4.4814 6.4801 13.6855
# 3 39.2404 57.6965 159.2930 -0.1864 42.5366 6.5156
# 4 -13.4460 -4.4814 -0.1864 45.3933 -0.2031 5.7226
# 5 36.3332 6.4801 42.5366 -0.2031 46.1859 -1.4889
# 6 13.9900 13.6855 6.5156 5.7226 -1.4889 33.2416
#
#
#
# Elastic Compliance Matrix: (Units=1/GPa)
#
#
# Indices 1 2 3 4 5 6 
#
# 1 0.007787 -0.001698 0.000581 0.002544 -0.006523 -0.003422
# 2 -0.001698 0.019903 -0.008095 0.002213 0.005814 -0.006013
# 3 0.000581 -0.008095 0.011754 -0.000680 -0.010135 0.000447
# 4 0.002544 0.002213 -0.000680 0.023749 -0.001774 -0.006016
# 5 -0.006523 0.005814 -0.010135 -0.001774 0.035430 0.004230
# 6 -0.003422 -0.006013 0.000447 -0.006016 0.004230 0.035136
#
#
# Mechanical properties :
#
#
# Convention : Reuss Voigt Hill
#
# Bulk Modulus (GPa) = 47.57156 72.82027 60.19591
# Shear Modulus (GPa) = 31.40919 44.11902 37.76410
#
# Velocity S-wave (km/s) = 3.44856 4.08717 3.78137
# Velocity P-wave (km/s) = 5.81970 7.06013 6.46971
#
# Compressibility (1/GPa) = 0.02102096
#
# Stress axis : x y z
#
# Youngs Moduli (GPa) = 128.41135 50.24486 85.07912
#
# Poissons Ratio (x) = 0.08534 -0.04947
# Poissons Ratio (y) = 0.21809 0.68867
# Poissons Ratio (z) = -0.07467 0.40671
#
# Static dielectric constant tensor:
#      x y z
#    x 2.092520 0.029800 -0.038680 
#    y 0.029800 2.037600 -0.028120 
#    z -0.038680 -0.028120 2.079790 
# 
# From -- ./inp_files/364956.got.cif
#   From: 2010.05.17/outbox.cif.g08.bks.cpg/sg2_183_cif.got.tgz:364956.got - 2010.06.03 11:33:40.
