data_PCOD9088322
_publ_section_title
;
Structure prediction by ZEFSAII (Michael W. Deem and Ramdas Pophale) SiO2 
 PCOD9088322
Probable space group: P -1
;
_chemical_formula_sum "Si O2"
_cell_formula_units_Z 14
_cell_length_a 9.052737
_cell_length_b 12.093308
_cell_length_c 22.083581
_cell_angle_alpha 153.072269
_cell_angle_beta 36.654459
_cell_angle_gamma 129.652071
_cell_volume 626.451789
_symmetry_space_group_name_H-M "P -1"
_symmetry_group_IT_number 2
_symmetry_cell_setting 'triclinic'
loop_
_space_group_symop_operation_xyz
x,y,z
-x,-y,-z
loop_
_atom_site_type_symbol
_atom_site_label
_atom_site_fract_x
_atom_site_fract_y
_atom_site_fract_z
Si Si1 0.949217 0.254557 0.101449
Si Si2 0.981853 0.123596 0.704309
Si Si3 0.418173 0.756331 0.314317
Si Si4 0.537335 0.652623 0.503583
Si Si5 0.839883 0.038182 0.308946
Si Si6 0.780972 0.408607 0.112071
Si Si7 0.514920 0.781925 0.159780
O O1 0.799569 0.496463 0.308342
O O2 0.757485 0.270391 0.115000
O O3 0.214903 0.265357 0.987852
O O4 0.000000 0.000000 0.000000
O O5 0.700384 0.244578 0.829065
O O6 0.106749 0.353279 0.791430
O O7 0.135566 0.926716 0.507004
O O8 0.008315 0.960883 0.678341
O O9 0.528557 0.526420 0.212556
O O10 0.479577 0.667682 0.181912
O O11 0.587377 0.952020 0.367346
O O12 0.500000 0.500000 0.500000
O O13 0.287945 0.718550 0.572356
O O14 0.550276 0.922995 0.654997
O O15 0.014944 0.801955 0.097349
#
# Coordination Sequence:
#
# PCOD9088322 Si02
#       7
#     2   2   2   2   2   2   2
#     4  12  23  41  69  88 119 166 212 250 297 366
#     4  11  22  37  61  95 134 155 195 263 319 355
#     4  10  19  37  60  89 124 160 202 245 304 370
#     4  11  21  43  66  86 117 162 215 249 290 373
#     4  10  20  38  59  91 122 163 208 245 295 372
#     4  11  20  39  63  92 121 166 209 247 301 371
#     4  11  24  41  60  99 125 159 202 257 317 355
#
# _framework density 22.348091
#
# number of rings (size 3 to 8) (size 9 to 14) (size 15 to 20)
#    0.000    1.143    4.286    6.429    0.000    0.571 
#    5.143    0.714    0.000    1.714    0.000    0.000 
#    0.000    0.000    0.000    0.000    0.000    0.000 
#
# Total GULP energy -78156.955491 kJ/mol
# GULP energy per Si atom -5582.639678 kJ/mol
# Density = 2.229723 g / cm^3
# Si number density = 22.348091 Si / 1000 Ang^3
#
#
#
# Elastic Constant Matrix: (Units=GPa)
#
#
# Indices 1 2 3 4 5 6 
#
# 1 125.2452 48.5025 33.4872 -6.1434 -11.1541 -44.5082
# 2 48.5025 70.6660 42.4768 2.6614 -2.0544 -50.3157
# 3 33.4872 42.4768 186.9105 -28.2818 8.5024 -14.8246
# 4 -6.1434 2.6614 -28.2818 38.4099 -11.4213 -5.6828
# 5 -11.1541 -2.0544 8.5024 -11.4213 38.1755 8.4935
# 6 -44.5082 -50.3157 -14.8246 -5.6828 8.4935 41.6207
#
#
#
# Elastic Compliance Matrix: (Units=1/GPa)
#
#
# Indices 1 2 3 4 5 6 
#
# 1 0.015635 0.019868 -0.003422 0.004181 -0.001329 0.040361
# 2 0.019868 0.217153 -0.029397 -0.003725 -0.039564 0.280859
# 3 -0.003422 -0.029397 0.010392 0.005228 0.004616 -0.035725
# 4 0.004181 -0.003725 0.005228 0.034191 0.009051 0.004651
# 5 -0.001329 -0.039564 0.004616 0.009051 0.037371 -0.053997
# 6 0.040361 0.280859 -0.035725 0.004651 -0.053997 0.405651
#
#
# Mechanical properties :
#
#
# Convention : Reuss Voigt Hill
#
# Bulk Modulus (GPa) = 4.60243 70.19496 37.39870
# Shear Modulus (GPa) = 6.10710 40.86492 23.48601
#
# Velocity S-wave (km/s) = 1.65489 4.28081 3.24530
# Velocity P-wave (km/s) = 2.39070 7.47742 5.55100
#
# Compressibility (1/GPa) = 0.21727634
#
# Stress axis : x y z
#
# Youngs Moduli (GPa) = 63.95851 4.60506 96.23190
#
# Poissons Ratio (x) = -0.09149 0.32931
# Poissons Ratio (y) = -1.27070 2.82893
# Poissons Ratio (z) = 0.21887 0.13537
#
# Static dielectric constant tensor:
#      x y z
#    x 1.899840 -0.048640 -0.017850 
#    y -0.048640 1.857170 0.031210 
#    z -0.017850 0.031210 1.880550 
# 
# From -- ./inp_files/427057.got.cif
#   From: 2010.05.17/outbox.cif.g08.bks.cpg/sg2_214_cif.got.tgz:427057.got - 2010.06.03 11:33:40.
