data_PCOD9088172
_publ_section_title
;
Structure prediction by ZEFSAII (Michael W. Deem and Ramdas Pophale) SiO2 
 PCOD9088172
Probable space group: P -1
;
_chemical_formula_sum "Si O2"
_cell_formula_units_Z 16
_cell_length_a 7.773107
_cell_length_b 11.807301
_cell_length_c 22.980525
_cell_angle_alpha 26.356609
_cell_angle_beta 130.342937
_cell_angle_gamma 124.463709
_cell_volume 713.055833
_symmetry_space_group_name_H-M "P -1"
_symmetry_group_IT_number 2
_symmetry_cell_setting 'triclinic'
loop_
_space_group_symop_operation_xyz
x,y,z
-x,-y,-z
loop_
_atom_site_type_symbol
_atom_site_label
_atom_site_fract_x
_atom_site_fract_y
_atom_site_fract_z
Si Si1 0.462053 0.869866 0.363856
Si Si2 0.157035 0.709637 0.967527
Si Si3 0.703961 0.789523 0.566478
Si Si4 0.493689 0.570299 0.899724
Si Si5 0.812293 0.605731 0.488606
Si Si6 0.162510 0.649967 0.690535
Si Si7 0.444622 0.564320 0.205286
Si Si8 0.229376 0.270363 0.711058
O O1 0.494230 0.817911 0.463298
O O2 0.707726 0.817481 0.411495
O O3 0.307515 0.657292 0.402004
O O4 0.385174 0.160782 0.203778
O O5 0.381583 0.659279 0.001266
O O6 0.236564 0.649776 0.078658
O O7 0.000000 0.500000 0.000000
O O8 0.099717 0.009210 0.811389
O O9 0.630968 0.682704 0.661470
O O10 0.898400 0.608450 0.661178
O O11 0.804908 0.069465 0.459017
O O12 0.261938 0.631254 0.786504
O O13 0.500000 0.500000 0.000000
O O14 0.742087 0.692561 0.368427
O O15 0.074924 0.516999 0.585012
O O16 0.336948 0.479765 0.768441
O O17 0.540372 0.742705 0.195142
#
# Coordination Sequence:
#
# PCOD9088172 Si02
#       8
#     2   2   2   2   2   2   2   2
#     4  10  19  37  59  89 121 157 209 257 305 370
#     4  11  25  42  62  90 124 163 211 257 310 383
#     4  10  19  37  60  88 125 163 210 257 313 369
#     4  10  21  37  59  84 122 162 203 255 310 366
#     4  10  21  36  62  89 122 161 201 260 311 367
#     4   9  21  36  57  91 123 162 208 259 305 373
#     4  11  22  40  64  90 124 167 209 259 315 375
#     4  11  22  41  62  91 125 164 207 253 319 370
#
# _framework density 22.438635000000001
#
# number of rings (size 3 to 8) (size 9 to 14) (size 15 to 20)
#    0.000    1.750    1.250    3.000    1.750    0.000 
#    6.750    0.000    0.000    3.000    0.000    0.000 
#    0.000    0.000    0.000    0.000    0.000    0.000 
#
# Total GULP energy -89215.389927 kJ/mol
# GULP energy per Si atom -5575.961870 kJ/mol
# Density = 2.238756 g / cm^3
# Si number density = 22.438635 Si / 1000 Ang^3
#
#
#
# Elastic Constant Matrix: (Units=GPa)
#
#
# Indices 1 2 3 4 5 6 
#
# 1 50.6809 0.7324 34.1798 11.3512 -2.4679 -12.2903
# 2 0.7324 75.7869 39.2482 17.9217 -4.2706 6.4189
# 3 34.1798 39.2482 106.5774 9.5687 -24.2170 -11.2163
# 4 11.3512 17.9217 9.5687 34.7658 -18.0624 -0.9734
# 5 -2.4679 -4.2706 -24.2170 -18.0624 28.9203 -1.2346
# 6 -12.2903 6.4189 -11.2163 -0.9734 -1.2346 32.3687
#
#
#
# Elastic Compliance Matrix: (Units=1/GPa)
#
#
# Indices 1 2 3 4 5 6 
#
# 1 0.045022 0.020775 -0.027749 -0.038818 -0.040543 0.000646
# 2 0.020775 0.033788 -0.025564 -0.037436 -0.038464 -0.010263
# 3 -0.027749 -0.025564 0.036330 0.037541 0.048156 0.010088
# 4 -0.038818 -0.037436 0.037541 0.092854 0.081082 0.011578
# 5 -0.040543 -0.038464 0.048156 0.081082 0.117078 0.015824
# 6 0.000646 -0.010263 0.010088 0.011578 0.015824 0.037622
#
#
# Mechanical properties :
#
#
# Convention : Reuss Voigt Hill
#
# Bulk Modulus (GPa) = 19.97445 42.37399 31.17422
# Shear Modulus (GPa) = 11.24971 29.80326 20.52649
#
# Velocity S-wave (km/s) = 2.24152 3.64842 3.02782
# Velocity P-wave (km/s) = 3.95226 6.05585 5.11340
#
# Compressibility (1/GPa) = 0.05006395
#
# Stress axis : x y z
#
# Youngs Moduli (GPa) = 22.21152 29.59657 27.52580
#
# Poissons Ratio (x) = -0.61488 0.76380
# Poissons Ratio (y) = -0.46145 0.70368
# Poissons Ratio (z) = 0.61634 0.75662
#
# Static dielectric constant tensor:
#      x y z
#    x 1.956550 0.067390 0.068640 
#    y 0.067390 1.882100 0.039050 
#    z 0.068640 0.039050 1.833680 
# 
# From -- ./inp_files/589380.got.cif
#   From: 2010.05.17/outbox.cif.g08.bks.cpg/sg2_295_cif.got.tgz:589380.got - 2010.06.03 11:33:40.
