data_PCOD9088648
_publ_section_title
;
Structure prediction by ZEFSAII (Michael W. Deem and Ramdas Pophale) SiO2 
 PCOD9088648
Probable space group: P -1
;
_chemical_formula_sum "Si O2"
_cell_formula_units_Z 16
_cell_length_a 18.936622
_cell_length_b 9.401838
_cell_length_c 9.385040
_cell_angle_alpha 43.709256
_cell_angle_beta 55.618053
_cell_angle_gamma 41.845504
_cell_volume 769.010295
_symmetry_space_group_name_H-M "P -1"
_symmetry_group_IT_number 2
_symmetry_cell_setting 'triclinic'
loop_
_space_group_symop_operation_xyz
x,y,z
-x,-y,-z
loop_
_atom_site_type_symbol
_atom_site_label
_atom_site_fract_x
_atom_site_fract_y
_atom_site_fract_z
Si Si1 0.746034 0.349503 0.221650
Si Si2 0.575374 0.693535 0.634499
Si Si3 0.796308 0.958785 0.107943
Si Si4 0.129250 0.721018 0.312234
Si Si5 0.685560 0.686799 0.766959
Si Si6 0.056663 0.204334 0.687079
Si Si7 0.608686 0.224359 0.366977
Si Si8 0.217102 0.471546 0.660416
O O1 0.636161 0.378440 0.323587
O O2 0.776779 0.437320 0.259022
O O3 0.835855 0.044513 0.323143
O O4 0.730411 0.524328 0.977583
O O5 0.611441 0.632289 0.802695
O O6 0.504990 0.620394 0.692615
O O7 0.677156 0.602529 0.489012
O O8 0.500000 0.000000 0.500000
O O9 0.903355 0.812569 0.186430
O O10 0.786238 0.770156 0.161752
O O11 0.695843 0.103036 0.226148
O O12 0.811593 0.145633 0.867197
O O13 0.210930 0.436295 0.361619
O O14 0.119851 0.683186 0.516667
O O15 0.028881 0.841907 0.236398
O O16 0.627890 0.988485 0.608284
O O17 0.000000 0.500000 0.500000
#
# Coordination Sequence:
#
# PCOD9088648 Si02
#       8
#     2   2   2   2   2   2   2   2
#     4  11  25  38  59  90 127 155 195 254 309 353
#     4   9  18  37  67  86 117 160 205 245 284 363
#     4  11  20  36  63  89 115 156 201 251 291 352
#     4  11  20  38  63  88 113 158 212 239 290 362
#     4  10  19  37  62  90 115 159 200 249 289 357
#     4  11  21  40  66  88 115 160 205 250 292 357
#     4  10  19  39  62  89 120 157 205 244 292 352
#     4  11  23  41  56  90 130 153 192 257 306 340
#
# _framework density 20.805963999999999
#
# number of rings (size 3 to 8) (size 9 to 14) (size 15 to 20)
#    0.000    1.500    7.500    1.125    0.000    2.500 
#    0.000    3.125    0.000    0.000    0.000    0.000 
#    0.000    0.000    0.000    0.000    0.000    0.000 
#
# Total GULP energy -89072.999394 kJ/mol
# GULP energy per Si atom -5567.062462 kJ/mol
# Density = 2.075861 g / cm^3
# Si number density = 20.805964 Si / 1000 Ang^3
#
#
#
# Elastic Constant Matrix: (Units=GPa)
#
#
# Indices 1 2 3 4 5 6 
#
# 1 159.9479 29.9199 27.0806 3.5866 3.4882 23.6854
# 2 29.9199 40.2974 22.1763 -5.5187 9.4647 20.2266
# 3 27.0806 22.1763 93.3197 -11.6162 6.9948 18.5986
# 4 3.5866 -5.5187 -11.6162 12.5417 6.5617 0.6088
# 5 3.4882 9.4647 6.9948 6.5617 42.9521 -0.4043
# 6 23.6854 20.2266 18.5986 0.6088 -0.4043 42.5086
#
#
#
# Elastic Compliance Matrix: (Units=1/GPa)
#
#
# Indices 1 2 3 4 5 6 
#
# 1 0.007933 -0.006201 -0.001872 -0.007870 0.002224 -0.000517
# 2 -0.006201 0.047005 -0.000671 0.030388 -0.014568 -0.019191
# 3 -0.001872 -0.000671 0.014965 0.016858 -0.004764 -0.005472
# 4 -0.007870 0.030388 0.016858 0.126752 -0.028350 -0.019536
# 5 0.002224 -0.014568 -0.004764 -0.028350 0.031498 0.008482
# 6 -0.000517 -0.019191 -0.005472 -0.019536 0.008482 0.035699
#
#
# Mechanical properties :
#
#
# Convention : Reuss Voigt Hill
#
# Bulk Modulus (GPa) = 19.07864 50.21318 34.64591
# Shear Modulus (GPa) = 16.73298 33.89303 25.31301
#
# Velocity S-wave (km/s) = 2.83899 4.04047 3.49180
# Velocity P-wave (km/s) = 4.46499 6.77891 5.73977
#
# Compressibility (1/GPa) = 0.05241465
#
# Stress axis : x y z
#
# Youngs Moduli (GPa) = 126.04884 21.27439 66.82397
#
# Poissons Ratio (x) = 0.13192 0.12509
# Poissons Ratio (y) = 0.78162 0.04486
# Poissons Ratio (z) = 0.23596 0.01428
#
# Static dielectric constant tensor:
#      x y z
#    x 1.833590 -0.018600 0.001600 
#    y -0.018600 1.757830 -0.012040 
#    z 0.001600 -0.012040 1.796520 
# 
# From -- ./inp_files/327089.got.cif
#   From: 2010.05.17/outbox.cif.g08.bks.cpg/sg2_164_cif.got.tgz:327089.got - 2010.06.03 11:33:40.
