data_PCOD9088887
_publ_section_title
;
Structure prediction by ZEFSAII (Michael W. Deem and Ramdas Pophale) SiO2 
 PCOD9088887
Probable space group: P -1
;
_chemical_formula_sum "Si O2"
_cell_formula_units_Z 16
_cell_length_a 15.102616
_cell_length_b 8.337010
_cell_length_c 7.752958
_cell_angle_alpha 83.166901
_cell_angle_beta 110.269923
_cell_angle_gamma 134.024139
_cell_volume 647.628556
_symmetry_space_group_name_H-M "P -1"
_symmetry_group_IT_number 2
_symmetry_cell_setting 'triclinic'
loop_
_space_group_symop_operation_xyz
x,y,z
-x,-y,-z
loop_
_atom_site_type_symbol
_atom_site_label
_atom_site_fract_x
_atom_site_fract_y
_atom_site_fract_z
Si Si1 0.498492 0.480828 0.714016
Si Si2 0.784502 0.928476 0.284558
Si Si3 0.842295 0.721403 0.809377
Si Si4 0.358252 0.025493 0.278067
Si Si5 0.034396 0.671070 0.856130
Si Si6 0.097255 0.737800 0.363701
Si Si7 0.421518 0.748790 0.305871
Si Si8 0.932165 0.823866 0.227157
O O1 0.500000 0.500000 0.500000
O O2 0.584010 0.739209 0.791830
O O3 0.548185 0.356972 0.797243
O O4 0.357561 0.312596 0.732948
O O5 0.820594 0.091625 0.127890
O O6 0.824817 0.096783 0.444042
O O7 0.877648 0.881715 0.324814
O O8 0.711117 0.490105 0.669906
O O9 0.959390 0.735971 0.864422
O O10 0.839683 0.746448 0.008700
O O11 0.911113 0.954049 0.736282
O O12 0.453547 0.102543 0.500337
O O13 0.211280 0.879109 0.271813
O O14 0.378659 0.879305 0.209217
O O15 0.954300 0.507961 0.657196
O O16 0.000000 0.500000 0.000000
O O17 0.953802 0.659085 0.276408
#
# Coordination Sequence:
#
# PCOD9088887 Si02
#       8
#     2   2   2   2   2   2   2   2
#     4  10  20  41  63  92 134 171 218 274 323 386
#     4  11  24  42  62 101 131 168 224 271 338 391
#     4  10  20  39  63  91 129 175 219 261 336 403
#     4  10  21  35  65  99 125 175 222 267 330 385
#     4  11  23  42  65  93 133 173 212 275 336 401
#     4  12  20  41  67  99 130 165 218 279 336 395
#     4  10  19  37  63  94 127 175 221 271 315 393
#     4  10  23  37  62  97 130 170 214 273 335 400
#
# _framework density 24.705518000000001
#
# number of rings (size 3 to 8) (size 9 to 14) (size 15 to 20)
#    0.000    1.500    5.000    1.500    1.750    0.000 
#    2.250    0.625    0.000    1.500    0.000    0.000 
#    0.000    0.000    0.000    0.000    0.000    0.000 
#
# Total GULP energy -89097.864489 kJ/mol
# GULP energy per Si atom -5568.616531 kJ/mol
# Density = 2.464929 g / cm^3
# Si number density = 24.705518 Si / 1000 Ang^3
#
#
#
# Elastic Constant Matrix: (Units=GPa)
#
#
# Indices 1 2 3 4 5 6 
#
# 1 154.1558 69.6484 17.6815 -3.7055 -12.6891 -12.3108
# 2 69.6484 167.4928 35.2077 11.1942 -2.7224 20.9721
# 3 17.6815 35.2077 66.8939 0.3216 -13.5266 4.7559
# 4 -3.7055 11.1942 0.3216 39.7053 -4.4675 -2.4360
# 5 -12.6891 -2.7224 -13.5266 -4.4675 20.7614 9.7463
# 6 -12.3108 20.9721 4.7559 -2.4360 9.7463 51.2723
#
#
#
# Elastic Compliance Matrix: (Units=1/GPa)
#
#
# Indices 1 2 3 4 5 6 
#
# 1 0.009114 -0.004431 0.000580 0.002794 0.004450 0.003234
# 2 -0.004431 0.009375 -0.004049 -0.003610 -0.002953 -0.004133
# 3 0.000580 -0.004049 0.020093 0.002524 0.014749 -0.002752
# 4 0.002794 -0.003610 0.002524 0.027446 0.007987 0.001699
# 5 0.004450 -0.002953 0.014749 0.007987 0.067221 -0.011490
# 6 0.003234 -0.004133 -0.002752 0.001699 -0.011490 0.024491
#
#
# Mechanical properties :
#
#
# Convention : Reuss Voigt Hill
#
# Bulk Modulus (GPa) = 43.89607 70.40197 57.14902
# Shear Modulus (GPa) = 27.60367 40.08145 33.84256
#
# Velocity S-wave (km/s) = 3.34624 4.03223 3.70515
# Velocity P-wave (km/s) = 5.72154 7.08780 6.44100
#
# Compressibility (1/GPa) = 0.02278108
#
# Stress axis : x y z
#
# Youngs Moduli (GPa) = 109.71862 106.66797 49.76878
#
# Poissons Ratio (x) = 0.47266 -0.02885
# Poissons Ratio (y) = 0.48618 0.20151
# Poissons Ratio (z) = -0.06360 0.43190
#
# Static dielectric constant tensor:
#      x y z
#    x 2.005650 -0.071510 0.048810 
#    y -0.071510 2.190690 -0.119520 
#    z 0.048810 -0.119520 2.159770 
# 
# From -- ./inp_files/285007.got.cif
#   From: 2010.05.17/outbox.cif.g08.bks.cpg/sg2_143_cif.got.tgz:285007.got - 2010.06.03 11:33:40.
