data_PCOD9088344
_publ_section_title
;
Structure prediction by ZEFSAII (Michael W. Deem and Ramdas Pophale) SiO2 
 PCOD9088344
Probable space group: P -1
;
_chemical_formula_sum "Si O2"
_cell_formula_units_Z 14
_cell_length_a 9.739003
_cell_length_b 8.920344
_cell_length_c 7.554655
_cell_angle_alpha 100.559189
_cell_angle_beta 72.423647
_cell_angle_gamma 68.493556
_cell_volume 549.210608
_symmetry_space_group_name_H-M "P -1"
_symmetry_group_IT_number 2
_symmetry_cell_setting 'triclinic'
loop_
_space_group_symop_operation_xyz
x,y,z
-x,-y,-z
loop_
_atom_site_type_symbol
_atom_site_label
_atom_site_fract_x
_atom_site_fract_y
_atom_site_fract_z
Si Si1 0.989983 0.324991 0.653287
Si Si2 0.581451 0.905548 0.175850
Si Si3 0.368293 0.374973 0.658411
Si Si4 0.351931 0.540187 0.336775
Si Si5 0.885553 0.269395 0.027546
Si Si6 0.399194 0.811721 0.954829
Si Si7 0.103837 0.276526 0.227626
O O1 0.814744 0.344495 0.666099
O O2 0.965432 0.518724 0.720912
O O3 0.014274 0.242699 0.818066
O O4 0.108578 0.239332 0.425866
O O5 0.622705 0.802429 0.319459
O O6 0.561955 0.095267 0.205720
O O7 0.431743 0.891132 0.136999
O O8 0.729515 0.805956 0.959782
O O9 0.317315 0.447100 0.497443
O O10 0.544047 0.367551 0.615968
O O11 0.240221 0.528273 0.864389
O O12 0.471606 0.385694 0.135001
O O13 0.774653 0.178174 0.007696
O O14 0.980522 0.222495 0.164426
#
# Coordination Sequence:
#
# PCOD9088344 Si02
#       7
#     2   2   2   2   2   2   2
#     4  11  21  36  63  92 119 151 191 255 291 345
#     4  11  22  40  59  84 121 158 196 240 295 348
#     4  10  20  34  64  90 117 148 200 249 291 341
#     4  10  19  37  60  93 115 149 201 246 287 350
#     4  11  21  39  63  89 118 155 196 243 297 342
#     4  10  23  40  59  83 119 160 198 239 288 355
#     4  11  23  36  60  93 121 148 198 244 294 351
#
# _framework density 25.491133000000001
#
# number of rings (size 3 to 8) (size 9 to 14) (size 15 to 20)
#    0.000    1.429    4.286    1.286    0.000    3.429 
#    0.000    0.714    0.000    0.000    0.000    0.000 
#    0.000    0.000    0.000    0.000    0.000    0.000 
#
# Total GULP energy -78401.136505 kJ/mol
# GULP energy per Si atom -5600.081179 kJ/mol
# Density = 2.543311 g / cm^3
# Si number density = 25.491133 Si / 1000 Ang^3
#
#
#
# Elastic Constant Matrix: (Units=GPa)
#
#
# Indices 1 2 3 4 5 6 
#
# 1 116.5452 -3.6664 8.6154 15.5060 4.6744 20.3723
# 2 -3.6664 59.1852 22.4164 -18.9408 -3.7407 -2.4629
# 3 8.6154 22.4164 115.6154 -20.8084 -6.2351 0.7406
# 4 15.5060 -18.9408 -20.8084 36.7794 -5.8202 -6.1265
# 5 4.6744 -3.7407 -6.2351 -5.8202 27.2434 1.8003
# 6 20.3723 -2.4629 0.7406 -6.1265 1.8003 22.0601
#
#
#
# Elastic Compliance Matrix: (Units=1/GPa)
#
#
# Indices 1 2 3 4 5 6 
#
# 1 0.013127 -0.002892 -0.002713 -0.011859 -0.004796 -0.015256
# 2 -0.002892 0.022581 -0.001296 0.014500 0.005817 0.008788
# 3 -0.002713 -0.001296 0.010712 0.007834 0.004159 0.003837
# 4 -0.011859 0.014500 0.007834 0.050648 0.014977 0.025151
# 5 -0.004796 0.005817 0.004159 0.014977 0.042105 0.005662
# 6 -0.015256 0.008788 0.003837 0.025151 0.005662 0.066795
#
#
# Mechanical properties :
#
#
# Convention : Reuss Voigt Hill
#
# Bulk Modulus (GPa) = 30.65661 38.45295 34.55478
# Shear Modulus (GPa) = 21.67853 34.81528 28.24691
#
# Velocity S-wave (km/s) = 2.91938 3.69966 3.33244
# Velocity P-wave (km/s) = 4.83903 5.77646 5.32840
#
# Compressibility (1/GPa) = 0.03261940
#
# Stress axis : x y z
#
# Youngs Moduli (GPa) = 76.17990 44.28433 93.34903
#
# Poissons Ratio (x) = 0.12809 0.25322
# Poissons Ratio (y) = 0.22035 0.12094
# Poissons Ratio (z) = 0.20664 0.05737
#
# Static dielectric constant tensor:
#      x y z
#    x 1.999750 -0.013140 -0.004100 
#    y -0.013140 2.032340 0.002360 
#    z -0.004100 0.002360 2.006490 
# 
# From -- ./inp_files/154606.got.cif
#   From: 2010.05.17/outbox.cif.g08.bks.cpg/sg2_78_cif.got.tgz:154606.got - 2010.06.03 11:33:40.
