data_PCOD9088526
_publ_section_title
;
Structure prediction by ZEFSAII (Michael W. Deem and Ramdas Pophale) SiO2 
 PCOD9088526
Probable space group: P -1
;
_chemical_formula_sum "Si O2"
_cell_formula_units_Z 16
_cell_length_a 7.661072
_cell_length_b 8.442396
_cell_length_c 9.651028
_cell_angle_alpha 90.179996
_cell_angle_beta 84.091773
_cell_angle_gamma 70.866223
_cell_volume 586.138979
_symmetry_space_group_name_H-M "P -1"
_symmetry_group_IT_number 2
_symmetry_cell_setting 'triclinic'
loop_
_space_group_symop_operation_xyz
x,y,z
-x,-y,-z
loop_
_atom_site_type_symbol
_atom_site_label
_atom_site_fract_x
_atom_site_fract_y
_atom_site_fract_z
Si Si1 0.507484 0.853878 0.307929
Si Si2 0.159923 0.709143 0.716729
Si Si3 0.294350 0.516507 0.957692
Si Si4 0.961371 0.188830 0.558624
Si Si5 0.199395 0.834813 0.134925
Si Si6 0.254446 0.263919 0.164005
Si Si7 0.675388 0.760387 0.559870
Si Si8 0.318081 0.960449 0.870489
O O1 0.393795 0.797212 0.200824
O O2 0.544981 0.750801 0.445454
O O3 0.395394 0.045876 0.372826
O O4 0.681069 0.878237 0.213727
O O5 0.176466 0.702344 0.549325
O O6 0.247710 0.844344 0.772041
O O7 0.937235 0.764775 0.771370
O O8 0.262336 0.542312 0.796743
O O9 0.179670 0.694818 0.034178
O O10 0.219904 0.383470 0.036730
O O11 0.500000 0.500000 0.000000
O O12 0.921760 0.166122 0.721552
O O13 0.132217 0.256205 0.528267
O O14 0.000000 0.000000 0.500000
O O15 0.204616 0.977587 0.022726
O O16 0.300267 0.348048 0.303933
O O17 0.462169 0.133328 0.114277
#
# Coordination Sequence:
#
# PCOD9088526 Si02
#       8
#     2   2   2   2   2   2   2   2
#     4  10  19  37  61  92 128 160 207 254 314 379
#     4  10  22  39  69  93 117 174 210 250 324 368
#     4  11  22  45  64  89 129 165 216 265 300 363
#     4  11  21  40  61  92 130 158 204 258 315 380
#     4  11  23  37  64  94 123 168 208 253 316 372
#     4  10  20  40  69  85 121 168 211 254 314 358
#     4   9  20  36  62  90 121 168 203 254 316 373
#     4  10  21  40  62  93 127 160 210 259 313 372
#
# _framework density 27.297277999999999
#
# number of rings (size 3 to 8) (size 9 to 14) (size 15 to 20)
#    0.000    1.750    3.750    1.500    3.500    0.000 
#    4.500    8.125    0.000    0.000    0.000    0.000 
#    0.000    0.000    0.000    0.000    0.000    0.000 
#
# Total GULP energy -89356.103234 kJ/mol
# GULP energy per Si atom -5584.756452 kJ/mol
# Density = 2.723515 g / cm^3
# Si number density = 27.297278 Si / 1000 Ang^3
#
#
#
# Elastic Constant Matrix: (Units=GPa)
#
#
# Indices 1 2 3 4 5 6 
#
# 1 145.3364 14.6667 47.9938 -11.3190 -9.0766 6.3902
# 2 14.6667 22.5554 12.0341 -7.7813 1.2939 1.0595
# 3 47.9938 12.0341 145.2200 -14.3738 -11.3605 -19.4017
# 4 -11.3190 -7.7813 -14.3738 43.3109 0.1357 5.2426
# 5 -9.0766 1.2939 -11.3605 0.1357 56.2242 -5.1951
# 6 6.3902 1.0595 -19.4017 5.2426 -5.1951 24.1459
#
#
#
# Elastic Compliance Matrix: (Units=1/GPa)
#
#
# Indices 1 2 3 4 5 6 
#
# 1 0.008543 -0.003327 -0.003028 0.001200 0.000405 -0.004721
# 2 -0.003327 0.051633 -0.003505 0.008054 -0.003064 -0.006609
# 3 -0.003028 -0.003505 0.009641 0.000674 0.002376 0.009067
# 4 0.001200 0.008054 0.000674 0.025780 -0.000456 -0.005825
# 5 0.000405 -0.003064 0.002376 -0.000456 0.018968 0.006117
# 6 -0.004721 -0.006609 0.009067 -0.005825 0.006117 0.052821
#
#
# Mechanical properties :
#
#
# Convention : Reuss Voigt Hill
#
# Bulk Modulus (GPa) = 19.96089 51.38901 35.67495
# Shear Modulus (GPa) = 24.53350 40.63068 32.58209
#
# Velocity S-wave (km/s) = 3.00117 3.86223 3.45860
# Velocity P-wave (km/s) = 4.39746 6.22540 5.38950
#
# Compressibility (1/GPa) = 0.05009797
#
# Stress axis : x y z
#
# Youngs Moduli (GPa) = 117.06150 19.36744 103.72235
#
# Poissons Ratio (x) = 0.06443 0.31406
# Poissons Ratio (y) = 0.38943 0.36352
# Poissons Ratio (z) = 0.35445 0.06788
#
# Static dielectric constant tensor:
#      x y z
#    x 2.271870 -0.082960 -0.013960 
#    y -0.082960 2.249090 -0.025120 
#    z -0.013960 -0.025120 2.123040 
# 
# From -- ./inp_files/177798.got.cif
#   From: 2010.05.17/outbox.cif.g08.bks.cpg/sg2_89_cif.got.tgz:177798.got - 2010.06.03 11:33:40.
