data_PCOD9088751
_publ_section_title
;
Structure prediction by ZEFSAII (Michael W. Deem and Ramdas Pophale) SiO2 
 PCOD9088751
Probable space group: P -1
;
_chemical_formula_sum "Si O2"
_cell_formula_units_Z 16
_cell_length_a 16.140825
_cell_length_b 7.892959
_cell_length_c 23.375398
_cell_angle_alpha 146.298340
_cell_angle_beta 27.245737
_cell_angle_gamma 129.316118
_cell_volume 687.420711
_symmetry_space_group_name_H-M "P -1"
_symmetry_group_IT_number 2
_symmetry_cell_setting 'triclinic'
loop_
_space_group_symop_operation_xyz
x,y,z
-x,-y,-z
loop_
_atom_site_type_symbol
_atom_site_label
_atom_site_fract_x
_atom_site_fract_y
_atom_site_fract_z
Si Si1 0.979191 0.194474 0.735663
Si Si2 0.735526 0.835289 0.812707
Si Si3 0.734522 0.249248 0.465050
Si Si4 0.544893 0.030263 0.192708
Si Si5 0.607888 0.732447 0.258895
Si Si6 0.805993 0.931572 0.103800
Si Si7 0.868243 0.958755 0.891075
Si Si8 0.685305 0.194817 0.646137
O O1 0.818883 0.044568 0.780034
O O2 0.878072 0.549677 0.928892
O O3 0.123473 0.931868 0.619980
O O4 0.133741 0.160570 0.580825
O O5 0.802137 0.867717 0.845146
O O6 0.788028 0.451882 0.657892
O O7 0.500000 0.000000 0.000000
O O8 0.613134 0.651521 0.654621
O O9 0.555388 0.134307 0.553490
O O10 0.893446 0.165116 0.292405
O O11 0.628935 0.150990 0.231095
O O12 0.428369 0.824244 0.232064
O O13 0.745293 0.846194 0.981011
O O14 0.718035 0.947204 0.225438
O O15 0.480869 0.701565 0.272827
O O16 0.771475 0.363918 0.070525
O O17 0.000000 0.000000 0.000000
#
# Coordination Sequence:
#
# PCOD9088751 Si02
#       8
#     2   2   2   2   2   2   2   2
#     4  10  21  39  64  85 122 167 207 250 298 367
#     4  11  18  34  62  91 118 168 216 239 287 368
#     4   9  19  37  64  83 118 168 197 243 305 361
#     4  10  23  39  60  91 128 158 194 263 308 351
#     4   9  17  38  60  85 120 158 202 250 288 360
#     4  11  22  42  67  91 117 157 205 258 314 365
#     4  10  19  37  63  84 127 168 196 241 309 348
#     4  10  20  35  58  93 124 158 209 249 295 355
#
# _framework density 23.275410999999998
#
# number of rings (size 3 to 8) (size 9 to 14) (size 15 to 20)
#    0.000    2.000    3.750    1.125    1.750    0.500 
#    0.000   11.250    0.000    0.000    0.000    0.000 
#    0.000    0.000    0.000    0.000    0.000    0.000 
#
# Total GULP energy -89192.630509 kJ/mol
# GULP energy per Si atom -5574.539407 kJ/mol
# Density = 2.322244 g / cm^3
# Si number density = 23.275411 Si / 1000 Ang^3
#
#
#
# Elastic Constant Matrix: (Units=GPa)
#
#
# Indices 1 2 3 4 5 6 
#
# 1 36.3243 28.7024 10.6140 11.6085 11.0359 14.8886
# 2 28.7024 112.4958 46.0133 -64.8243 1.2560 -11.7873
# 3 10.6140 46.0133 148.6397 -44.4432 1.7879 -6.5424
# 4 11.6085 -64.8243 -44.4432 29.4502 -28.0156 -15.4775
# 5 11.0359 1.2560 1.7879 -28.0156 15.1182 -12.8444
# 6 14.8886 -11.7873 -6.5424 -15.4775 -12.8444 15.6860
#
#
#
# Elastic Compliance Matrix: (Units=1/GPa)
#
#
# Indices 1 2 3 4 5 6 
#
# 1 0.017574 0.001408 0.001596 0.010786 0.010475 0.004263
# 2 0.001408 0.008212 -0.003381 -0.001830 -0.010929 -0.007330
# 3 0.001596 -0.003381 0.007807 0.000681 -0.002144 -0.001883
# 4 0.010786 -0.001830 0.000681 0.004973 -0.013287 -0.017302
# 5 0.010475 -0.010929 -0.002144 -0.013287 0.025358 -0.011395
# 6 0.004263 -0.007330 -0.001883 -0.017302 -0.011395 0.027009
#
#
# Mechanical properties :
#
#
# Convention : Reuss Voigt Hill
#
# Bulk Modulus (GPa) = 30.45115 52.01324 41.23219
# Shear Modulus (GPa) = 48.71696 26.19287 37.45491
#
# Velocity S-wave (km/s) = 4.57997 3.35826 4.01584
# Velocity P-wave (km/s) = 6.40933 6.11821 6.26546
#
# Compressibility (1/GPa) = 0.03283948
#
# Stress axis : x y z
#
# Youngs Moduli (GPa) = 56.90210 121.76654 128.08950
#
# Poissons Ratio (x) = -0.17149 -0.20439
# Poissons Ratio (y) = -0.08014 0.43308
# Poissons Ratio (z) = -0.09080 0.41171
#
# Static dielectric constant tensor:
#      x y z
#    x 1.885680 -0.044900 0.043900 
#    y -0.044900 1.968860 -0.019510 
#    z 0.043900 -0.019510 1.940750 
# 
# From -- ./inp_files/624005.got.cif
#   From: 2010.05.17/outbox.cif.g08.bks.cpg/sg2_313_cif.got.tgz:624005.got - 2010.06.03 11:33:40.
