data_PCOD9088005
_publ_section_title
;
Structure prediction by ZEFSAII (Michael W. Deem and Ramdas Pophale) SiO2 
 PCOD9088005
Probable space group: P -1
;
_chemical_formula_sum "Si O2"
_cell_formula_units_Z 14
_cell_length_a 9.684221
_cell_length_b 15.546957
_cell_length_c 11.726225
_cell_angle_alpha 35.518202
_cell_angle_beta 138.272923
_cell_angle_gamma 112.653121
_cell_volume 558.581538
_symmetry_space_group_name_H-M "P -1"
_symmetry_group_IT_number 2
_symmetry_cell_setting 'triclinic'
loop_
_space_group_symop_operation_xyz
x,y,z
-x,-y,-z
loop_
_atom_site_type_symbol
_atom_site_label
_atom_site_fract_x
_atom_site_fract_y
_atom_site_fract_z
Si Si1 0.088834 0.581675 0.064841
Si Si2 0.330685 0.678984 0.626673
Si Si3 0.396821 0.715396 0.377305
Si Si4 0.457891 0.856750 0.784254
Si Si5 0.271759 0.243141 0.150966
Si Si6 0.021104 0.082687 0.667915
Si Si7 0.327425 0.081005 0.662350
O O1 0.389392 0.457005 0.375619
O O2 0.000000 0.500000 0.000000
O O3 0.968774 0.598698 0.096367
O O4 0.941828 0.787721 0.711073
O O5 0.332612 0.655208 0.518465
O O6 0.483269 0.768770 0.639372
O O7 0.059340 0.812867 0.374065
O O8 0.500000 0.500000 0.000000
O O9 0.522560 0.826795 0.358090
O O10 0.143830 0.870625 0.991096
O O11 0.713531 0.732035 0.002293
O O12 0.244589 0.820477 0.668363
O O13 0.338269 0.050194 0.438503
O O14 0.471610 0.892887 0.886198
O O15 0.230069 0.087914 0.721295
#
# Coordination Sequence:
#
# PCOD9088005 Si02
#       7
#     2   2   2   2   2   2   2
#     4   9  16  31  59  75 110 148 190 216 276 338
#     4  11  21  36  59  85 113 145 195 232 276 341
#     4  11  21  37  55  88 120 145 179 245 294 321
#     4   9  18  35  59  79 116 147 199 218 277 345
#     4   9  17  34  57  83 101 155 188 229 267 332
#     4  11  23  33  57  93 115 141 187 244 287 321
#     4  10  19  37  58  83 111 156 193 222 276 351
#
# _framework density 25.063485
#
# number of rings (size 3 to 8) (size 9 to 14) (size 15 to 20)
#    0.000    2.000    4.286    2.143    2.000    0.000 
#    0.000    2.857    0.000    1.714    0.000    0.000 
#    0.000    0.000    0.000    0.000    0.000    0.000 
#
# Total GULP energy -78113.239656 kJ/mol
# GULP energy per Si atom -5579.517118 kJ/mol
# Density = 2.500644 g / cm^3
# Si number density = 25.063485 Si / 1000 Ang^3
#
#
#
# Elastic Constant Matrix: (Units=GPa)
#
#
# Indices 1 2 3 4 5 6 
#
# 1 196.0578 39.0292 38.0020 -5.2785 31.9507 -48.2463
# 2 39.0292 58.8427 0.9688 -0.6042 22.6782 -21.5658
# 3 38.0020 0.9688 85.7407 -7.3827 15.9517 -19.6335
# 4 -5.2785 -0.6042 -7.3827 16.2123 -6.7880 15.4855
# 5 31.9507 22.6782 15.9517 -6.7880 36.9881 -21.0963
# 6 -48.2463 -21.5658 -19.6335 15.4855 -21.0963 49.1236
#
#
#
# Elastic Compliance Matrix: (Units=1/GPa)
#
#
# Indices 1 2 3 4 5 6 
#
# 1 0.007728 -0.001888 -0.001970 -0.005969 -0.001700 0.007125
# 2 -0.001888 0.026791 0.004174 -0.012712 -0.013297 0.009872
# 3 -0.001970 0.004174 0.014221 0.000882 -0.005038 0.003140
# 4 -0.005969 -0.012712 0.000882 0.100635 0.008766 -0.039050
# 5 -0.001700 -0.013297 -0.005038 0.008766 0.044277 0.006731
# 6 0.007125 0.009872 0.003140 -0.039050 0.006731 0.048144
#
#
# Mechanical properties :
#
#
# Convention : Reuss Voigt Hill
#
# Bulk Modulus (GPa) = 20.25457 55.18234 37.71846
# Shear Modulus (GPa) = 19.40827 37.97423 28.69125
#
# Velocity S-wave (km/s) = 2.78576 3.89668 3.38708
# Velocity P-wave (km/s) = 4.29490 6.50464 5.51164
#
# Compressibility (1/GPa) = 0.04937157
#
# Stress axis : x y z
#
# Youngs Moduli (GPa) = 129.40032 37.32660 70.31719
#
# Poissons Ratio (x) = 0.07048 0.13852
# Poissons Ratio (y) = 0.24433 -0.29351
# Poissons Ratio (z) = 0.25491 -0.15580
#
# Static dielectric constant tensor:
#      x y z
#    x 2.047930 -0.058600 0.008790 
#    y -0.058600 2.070370 -0.015100 
#    z 0.008790 -0.015100 2.020030 
# 
# From -- ./inp_files/168820.got.cif
#   From: 2010.05.17/outbox.cif.g08.bks.cpg/sg2_85_cif.got.tgz:168820.got - 2010.06.03 11:33:40.
