data_PCOD9088269
_publ_section_title
;
Structure prediction by ZEFSAII (Michael W. Deem and Ramdas Pophale) SiO2 
 PCOD9088269
Probable space group: P -1
;
_chemical_formula_sum "Si O2"
_cell_formula_units_Z 14
_cell_length_a 6.700470
_cell_length_b 9.514203
_cell_length_c 17.133671
_cell_angle_alpha 88.018093
_cell_angle_beta 59.532888
_cell_angle_gamma 125.104738
_cell_volume 682.847796
_symmetry_space_group_name_H-M "P -1"
_symmetry_group_IT_number 2
_symmetry_cell_setting 'triclinic'
loop_
_space_group_symop_operation_xyz
x,y,z
-x,-y,-z
loop_
_atom_site_type_symbol
_atom_site_label
_atom_site_fract_x
_atom_site_fract_y
_atom_site_fract_z
Si Si1 0.421414 0.367665 0.590150
Si Si2 0.088018 0.689669 0.880181
Si Si3 0.864831 0.587116 0.100321
Si Si4 0.505343 0.917755 0.421201
Si Si5 0.294927 0.884946 0.300933
Si Si6 0.837161 0.714975 0.784049
Si Si7 0.442131 0.616116 0.262979
O O1 0.500000 0.500000 0.500000
O O2 0.565266 0.449752 0.646570
O O3 0.036930 0.216920 0.672185
O O4 0.552660 0.268445 0.545678
O O5 0.990220 0.486695 0.883646
O O6 0.866645 0.691812 0.869070
O O7 0.434802 0.892608 0.783011
O O8 0.030792 0.684594 0.983481
O O9 0.513746 0.372480 0.157377
O O10 0.774823 0.692435 0.160622
O O11 0.859133 0.073248 0.309587
O O12 0.500000 0.000000 0.500000
O O13 0.275429 0.881272 0.399739
O O14 0.402542 0.767305 0.267022
O O15 0.821686 0.567399 0.736261
#
# Coordination Sequence:
#
# PCOD9088269 Si02
#       7
#     2   2   2   2   2   2   2
#     4  11  25  39  57  82 115 150 185 230 282 331
#     4  10  19  37  60  86 110 148 186 232 278 319
#     4   9  20  34  61  87 111 143 192 226 273 336
#     4  10  23  39  60  84 109 145 191 231 277 332
#     4  10  23  39  56  82 117 147 182 233 279 330
#     4   9  20  37  60  81 115 144 186 231 272 331
#     4   9  23  37  58  83 113 150 185 227 277 334
#
# _framework density 20.502372000000001
#
# number of rings (size 3 to 8) (size 9 to 14) (size 15 to 20)
#    0.857    1.429    0.000    1.286    6.000    3.429 
#    0.000    0.714    0.000    0.000    0.000    0.000 
#    0.000    0.000    0.000    0.000    0.000    0.000 
#
# Total GULP energy -77935.406447 kJ/mol
# GULP energy per Si atom -5566.814746 kJ/mol
# Density = 2.045571 g / cm^3
# Si number density = 20.502372 Si / 1000 Ang^3
#
#
#
# Elastic Constant Matrix: (Units=GPa)
#
#
# Indices 1 2 3 4 5 6 
#
# 1 43.3869 3.9845 16.0706 -7.0589 18.3202 -7.6729
# 2 3.9845 46.9017 10.6216 5.1239 18.4815 -7.8266
# 3 16.0706 10.6216 61.5402 2.3620 21.2683 -13.8352
# 4 -7.0589 5.1239 2.3620 24.9814 -7.9066 -0.7558
# 5 18.3202 18.4815 21.2683 -7.9066 28.7269 -6.6715
# 6 -7.6729 -7.8266 -13.8352 -0.7558 -6.6715 26.2966
#
#
#
# Elastic Compliance Matrix: (Units=1/GPa)
#
#
# Indices 1 2 3 4 5 6 
#
# 1 0.034202 0.008158 -0.000216 0.000111 -0.025518 0.005824
# 2 0.008158 0.036660 0.006429 -0.017228 -0.036695 0.006870
# 3 -0.000216 0.006429 0.026061 -0.011255 -0.024283 0.009078
# 4 0.000111 -0.017228 -0.011255 0.055551 0.034479 -0.000673
# 5 -0.025518 -0.036695 -0.024283 0.034479 0.101115 -0.004499
# 6 0.005824 0.006870 0.009078 -0.000673 -0.004499 0.045387
#
#
# Mechanical properties :
#
#
# Convention : Reuss Voigt Hill
#
# Bulk Modulus (GPa) = 7.95754 23.68691 15.82222
# Shear Modulus (GPa) = 16.01941 24.07779 20.04860
#
# Velocity S-wave (km/s) = 2.79829 3.43066 3.13048
# Velocity P-wave (km/s) = 3.78553 5.22215 4.56076
#
# Compressibility (1/GPa) = 0.12566701
#
# Stress axis : x y z
#
# Youngs Moduli (GPa) = 29.23804 27.27776 38.37120
#
# Poissons Ratio (x) = -0.22253 0.00827
# Poissons Ratio (y) = -0.23853 -0.24671
# Poissons Ratio (z) = 0.00631 -0.17538
#
# Static dielectric constant tensor:
#      x y z
#    x 1.737360 0.012210 -0.029030 
#    y 0.012210 1.738820 0.001880 
#    z -0.029030 0.001880 1.731440 
# 
# From -- ./inp_files/39938.got.cif
#   From: 2010.05.17/outbox.cif.g08.bks.cpg/sg2_20_cif.got.tgz:39938.got - 2010.06.03 11:33:40.
