data_PCOD9088985
_publ_section_title
;
Structure prediction by ZEFSAII (Michael W. Deem and Ramdas Pophale) SiO2 
 PCOD9088985
Probable space group: P -1
;
_chemical_formula_sum "Si O2"
_cell_formula_units_Z 14
_cell_length_a 5.893560
_cell_length_b 14.267421
_cell_length_c 18.214773
_cell_angle_alpha 157.581100
_cell_angle_beta 104.872467
_cell_angle_gamma 76.812546
_cell_volume 564.375144
_symmetry_space_group_name_H-M "P -1"
_symmetry_group_IT_number 2
_symmetry_cell_setting 'triclinic'
loop_
_space_group_symop_operation_xyz
x,y,z
-x,-y,-z
loop_
_atom_site_type_symbol
_atom_site_label
_atom_site_fract_x
_atom_site_fract_y
_atom_site_fract_z
Si Si1 0.663466 0.138431 0.242879
Si Si2 0.568012 0.033127 0.614638
Si Si3 0.041278 0.159195 0.044193
Si Si4 0.772887 0.470449 0.885936
Si Si5 0.918915 0.912751 0.315074
Si Si6 0.547977 0.472795 0.600820
Si Si7 0.409062 0.618692 0.842244
O O1 0.636125 0.235822 0.393519
O O2 0.599390 0.366866 0.352139
O O3 0.490625 0.905321 0.043442
O O4 0.901616 0.033925 0.154988
O O5 0.630635 0.326186 0.834388
O O6 0.329338 0.979404 0.601841
O O7 0.837935 0.935417 0.572772
O O8 0.500000 0.000000 0.500000
O O9 0.240680 0.351777 0.226780
O O10 0.850442 0.334560 0.120014
O O11 0.000000 0.000000 0.000000
O O12 0.985506 0.281159 0.755276
O O13 0.862937 0.733188 0.111814
O O14 0.597731 0.510104 0.833407
O O15 0.397894 0.457782 0.651220
#
# Coordination Sequence:
#
# PCOD9088985 Si02
#       7
#     2   2   2   2   2   2   2
#     4  10  21  37  58  83 114 160 199 247 296 360
#     4  10  19  37  64  91 117 156 202 245 302 368
#     4  11  19  35  59  83 113 156 202 242 300 354
#     4   9  22  36  62  83 116 155 198 245 301 364
#     4   9  20  40  63  86 117 163 200 238 306 372
#     4  10  21  37  58  82 117 155 205 242 299 358
#     4  11  21  40  57  87 118 153 196 252 295 357
#
# _framework density 24.806194999999999
#
# number of rings (size 3 to 8) (size 9 to 14) (size 15 to 20)
#    0.857    1.143    2.857    1.714    0.000    4.000 
#    2.571    1.429    0.000    0.000    0.000    0.000 
#    0.000    0.000    0.000    0.000    0.000    0.000 
#
# Total GULP energy -77998.348227 kJ/mol
# GULP energy per Si atom -5571.310588 kJ/mol
# Density = 2.474973 g / cm^3
# Si number density = 24.806195 Si / 1000 Ang^3
#
#
#
# Elastic Constant Matrix: (Units=GPa)
#
#
# Indices 1 2 3 4 5 6 
#
# 1 135.1002 35.5694 56.3914 -0.2115 -21.6305 -8.9553
# 2 35.5694 91.6894 34.7172 -1.2236 -19.0412 -13.0202
# 3 56.3914 34.7172 140.3821 -8.4577 -41.6279 -3.1473
# 4 -0.2115 -1.2236 -8.4577 36.1282 1.3957 -1.4194
# 5 -21.6305 -19.0412 -41.6279 1.3957 45.2348 7.7265
# 6 -8.9553 -13.0202 -3.1473 -1.4194 7.7265 28.0559
#
#
#
# Elastic Compliance Matrix: (Units=1/GPa)
#
#
# Indices 1 2 3 4 5 6 
#
# 1 0.009456 -0.002182 -0.003120 -0.000710 0.000501 0.001482
# 2 -0.002182 0.013545 -0.001676 0.000153 0.002295 0.004777
# 3 -0.003120 -0.001676 0.011454 0.002159 0.008754 -0.002790
# 4 -0.000710 0.000153 0.002159 0.028215 0.000611 0.001346
# 5 0.000501 0.002295 0.008754 0.000611 0.032496 -0.006711
# 6 0.001482 0.004777 -0.002790 0.001346 -0.006711 0.039936
#
#
# Mechanical properties :
#
#
# Convention : Reuss Voigt Hill
#
# Bulk Modulus (GPa) = 48.78417 68.94751 58.86584
# Shear Modulus (GPa) = 32.07369 37.91669 34.99519
#
# Velocity S-wave (km/s) = 3.59969 3.91387 3.76006
# Velocity P-wave (km/s) = 6.08160 6.94833 6.52936
#
# Compressibility (1/GPa) = 0.02049845
#
# Stress axis : x y z
#
# Youngs Moduli (GPa) = 105.75365 73.83058 87.30206
#
# Poissons Ratio (x) = 0.16110 0.27237
# Poissons Ratio (y) = 0.23076 0.14635
# Poissons Ratio (z) = 0.32994 0.12377
#
# Static dielectric constant tensor:
#      x y z
#    x 2.617260 2.177150 -0.898720 
#    y 2.177150 11.544950 -4.052500 
#    z -0.898720 -4.052500 3.708460 
# 
# From -- ./inp_files/584001.got.cif
#   From: 2010.05.17/outbox.cif.g08.bks.cpg/sg2_293_cif.got.tgz:584001.got - 2010.06.03 11:33:40.
