data_PCOD9088208
_publ_section_title
;
Structure prediction by ZEFSAII (Michael W. Deem and Ramdas Pophale) SiO2 
 PCOD9088208
Probable space group: P -1
;
_chemical_formula_sum "Si O2"
_cell_formula_units_Z 16
_cell_length_a 12.303920
_cell_length_b 12.295717
_cell_length_c 21.041022
_cell_angle_alpha 139.488534
_cell_angle_beta 28.674863
_cell_angle_gamma 119.607344
_cell_volume 825.406535
_symmetry_space_group_name_H-M "P -1"
_symmetry_group_IT_number 2
_symmetry_cell_setting 'triclinic'
loop_
_space_group_symop_operation_xyz
x,y,z
-x,-y,-z
loop_
_atom_site_type_symbol
_atom_site_label
_atom_site_fract_x
_atom_site_fract_y
_atom_site_fract_z
Si Si1 0.001755 0.464964 0.096694
Si Si2 0.591059 0.333931 0.448749
Si Si3 0.539559 0.253661 0.295432
Si Si4 0.796489 0.873340 0.324385
Si Si5 0.082916 0.072979 0.571904
Si Si6 0.744556 0.513066 0.905858
Si Si7 0.584418 0.084576 0.788335
Si Si8 0.976557 0.910581 0.125682
O O1 0.731518 0.547256 0.316059
O O2 0.904901 0.639590 0.172666
O O3 0.101162 0.247698 0.923260
O O4 0.234778 0.447590 0.013238
O O5 0.647116 0.250999 0.310779
O O6 0.655492 0.503248 0.503879
O O7 0.754891 0.138583 0.321380
O O8 0.441849 0.102680 0.276162
O O9 0.759901 0.168888 0.088206
O O10 0.803174 0.939300 0.422260
O O11 0.994704 0.895358 0.185670
O O12 0.500000 0.000000 0.500000
O O13 0.810310 0.071456 0.713233
O O14 0.997899 0.281799 0.673000
O O15 0.295825 0.914425 0.342095
O O16 0.705178 0.699139 0.968197
O O17 0.500000 0.500000 0.000000
#
# Coordination Sequence:
#
# PCOD9088208 Si02
#       8
#     2   2   2   2   2   2   2   2
#     4  10  20  34  55  81 110 142 183 223 275 323
#     4  10  20  36  51  80 113 143 181 228 268 321
#     4  10  21  33  54  80 108 144 182 226 270 321
#     4  11  21  36  57  79 113 146 178 226 272 319
#     4   9  21  37  56  84 109 140 181 225 269 327
#     4   9  18  31  53  83 109 135 174 224 274 321
#     4  10  19  37  60  80 109 141 180 225 277 319
#     4  11  22  35  52  80 109 147 183 220 271 329
#
# _framework density 19.384388000000001
#
# number of rings (size 3 to 8) (size 9 to 14) (size 15 to 20)
#    0.000    2.000    1.250    3.000    1.750    3.000 
#    0.000    0.625    0.000    0.750    0.000    0.000 
#    0.000    0.000    0.000    0.000    0.000    0.000 
#
# Total GULP energy -89072.496052 kJ/mol
# GULP energy per Si atom -5567.031003 kJ/mol
# Density = 1.934027 g / cm^3
# Si number density = 19.384388 Si / 1000 Ang^3
#
#
#
# Elastic Constant Matrix: (Units=GPa)
#
#
# Indices 1 2 3 4 5 6 
#
# 1 101.4255 46.3689 42.2509 5.5531 -4.5455 -0.8582
# 2 46.3689 128.1948 39.9108 29.7658 -6.6517 0.0612
# 3 42.2509 39.9108 71.5341 10.4681 -6.3328 -3.3388
# 4 5.5531 29.7658 10.4681 41.1969 -11.8903 11.9939
# 5 -4.5455 -6.6517 -6.3328 -11.8903 25.0043 3.1483
# 6 -0.8582 0.0612 -3.3388 11.9939 3.1483 31.3024
#
#
#
# Elastic Compliance Matrix: (Units=1/GPa)
#
#
# Indices 1 2 3 4 5 6 
#
# 1 0.014288 -0.003805 -0.006773 0.003626 0.001833 -0.001897
# 2 -0.003805 0.012225 -0.003320 -0.009396 -0.003181 0.003438
# 3 -0.006773 -0.003320 0.020422 -0.002162 0.001695 0.002657
# 4 0.003626 -0.009396 -0.002162 0.042222 0.019994 -0.018302
# 5 0.001833 -0.003181 0.001695 0.019994 0.050998 -0.012553
# 6 -0.001897 0.003438 0.002657 -0.018302 -0.012553 0.040446
#
#
# Mechanical properties :
#
#
# Convention : Reuss Voigt Hill
#
# Bulk Modulus (GPa) = 52.24587 62.02396 57.13492
# Shear Modulus (GPa) = 23.27992 31.00897 27.14445
#
# Velocity S-wave (km/s) = 3.46925 4.00395 3.74615
# Velocity P-wave (km/s) = 6.56191 7.31039 6.94624
#
# Compressibility (1/GPa) = 0.01914027
#
# Stress axis : x y z
#
# Youngs Moduli (GPa) = 69.98822 81.79683 48.96620
#
# Poissons Ratio (x) = 0.31127 0.33164
# Poissons Ratio (y) = 0.26633 0.16254
# Poissons Ratio (z) = 0.47402 0.27153
#
# Static dielectric constant tensor:
#      x y z
#    x 1.664780 0.010960 0.006950 
#    y 0.010960 1.729470 0.004910 
#    z 0.006950 0.004910 1.777950 
# 
# From -- ./inp_files/472777.got.cif
#   From: 2010.05.17/outbox.cif.g08.bks.cpg/sg2_237_cif.got.tgz:472777.got - 2010.06.03 11:33:40.
