data_PCOD9088227
_publ_section_title
;
Structure prediction by ZEFSAII (Michael W. Deem and Ramdas Pophale) SiO2 
 PCOD9088227
Probable space group: P -1
;
_chemical_formula_sum "Si O2"
_cell_formula_units_Z 14
_cell_length_a 7.779431
_cell_length_b 17.122426
_cell_length_c 10.458428
_cell_angle_alpha 31.609955
_cell_angle_beta 91.512726
_cell_angle_gamma 70.331197
_cell_volume 531.564729
_symmetry_space_group_name_H-M "P -1"
_symmetry_group_IT_number 2
_symmetry_cell_setting 'triclinic'
loop_
_space_group_symop_operation_xyz
x,y,z
-x,-y,-z
loop_
_atom_site_type_symbol
_atom_site_label
_atom_site_fract_x
_atom_site_fract_y
_atom_site_fract_z
Si Si1 0.216675 0.226885 0.739905
Si Si2 0.771455 0.845930 0.684526
Si Si3 0.138704 0.521041 0.829101
Si Si4 0.134123 0.605449 0.268158
Si Si5 0.884255 0.185443 0.406837
Si Si6 0.236576 0.892772 0.237509
Si Si7 0.464408 0.578601 0.160870
O O1 0.108217 0.305345 0.487059
O O2 0.007351 0.307556 0.724868
O O3 0.266318 0.365986 0.593417
O O4 0.349860 0.987887 0.080209
O O5 0.856789 0.933065 0.478428
O O6 0.500000 0.000000 0.500000
O O7 0.825796 0.663869 0.860003
O O8 0.943515 0.728918 0.974906
O O9 0.327978 0.427038 0.847172
O O10 0.189517 0.620177 0.791277
O O11 0.315637 0.632180 0.209665
O O12 0.841157 0.081943 0.651580
O O13 0.716736 0.271644 0.163059
O O14 0.416912 0.652271 0.547052
O O15 0.000000 0.000000 0.000000
#
# Coordination Sequence:
#
# PCOD9088227 Si02
#       7
#     2   2   2   2   2   2   2
#     4  10  20  39  57  83 125 153 192 242 286 350
#     4  10  22  39  59  85 114 153 203 237 285 350
#     4  10  19  37  60  83 116 155 191 240 294 344
#     4   9  22  40  56  84 121 158 191 236 298 347
#     4  10  21  39  60  86 119 150 193 245 295 339
#     4  11  20  37  60  92 116 145 202 242 282 344
#     4  10  21  38  61  87 116 155 196 237 298 343
#
# _framework density 26.337337000000002
#
# number of rings (size 3 to 8) (size 9 to 14) (size 15 to 20)
#    0.000    2.000    2.857    2.143    0.000    4.571 
#    7.714    2.857    0.000    0.000    0.000    0.000 
#    0.000    0.000    0.000    0.000    0.000    0.000 
#
# Total GULP energy -78323.749681 kJ/mol
# GULP energy per Si atom -5594.553549 kJ/mol
# Density = 2.627739 g / cm^3
# Si number density = 26.337337 Si / 1000 Ang^3
#
#
#
# Elastic Constant Matrix: (Units=GPa)
#
#
# Indices 1 2 3 4 5 6 
#
# 1 87.6470 -14.1309 38.0516 14.5016 -13.1107 -16.9322
# 2 -14.1309 46.0362 13.4000 2.5785 0.9169 4.0652
# 3 38.0516 13.4000 100.5797 3.8230 -28.5795 -4.4365
# 4 14.5016 2.5785 3.8230 49.0100 -0.0732 -8.2345
# 5 -13.1107 0.9169 -28.5795 -0.0732 48.7985 -4.5626
# 6 -16.9322 4.0652 -4.4365 -8.2345 -4.5626 50.3909
#
#
#
# Elastic Compliance Matrix: (Units=1/GPa)
#
#
# Indices 1 2 3 4 5 6 
#
# 1 0.017124 0.007126 -0.006862 -0.004241 0.000812 0.003956
# 2 0.007126 0.026242 -0.006894 -0.003138 -0.002723 -0.001089
# 3 -0.006862 -0.006894 0.015544 0.001276 0.007438 0.000501
# 4 -0.004241 -0.003138 0.001276 0.022154 -0.000061 0.002555
# 5 0.000812 -0.002723 0.007438 -0.000061 0.025440 0.003441
# 6 0.003956 -0.001089 0.000501 0.002555 0.003441 0.022035
#
#
# Mechanical properties :
#
#
# Convention : Reuss Voigt Hill
#
# Bulk Modulus (GPa) = 21.90584 34.32270 28.11427
# Shear Modulus (GPa) = 31.84380 42.76935 37.30657
#
# Velocity S-wave (km/s) = 3.48095 4.03414 3.76771
# Velocity P-wave (km/s) = 4.94888 5.89570 5.44292
#
# Compressibility (1/GPa) = 0.04564993
#
# Stress axis : x y z
#
# Youngs Moduli (GPa) = 58.39617 38.10646 64.33361
#
# Poissons Ratio (x) = -0.27153 0.44143
# Poissons Ratio (y) = -0.41611 0.44355
# Poissons Ratio (z) = 0.40069 0.26272
#
# Static dielectric constant tensor:
#      x y z
#    x 2.056590 -0.104800 -0.016650 
#    y -0.104800 2.266040 -0.071070 
#    z -0.016650 -0.071070 2.065120 
# 
# From -- ./inp_files/404047.got.cif
#   From: 2010.05.17/outbox.cif.g08.bks.cpg/sg2_203_cif.got.tgz:404047.got - 2010.06.03 11:33:40.
