data_PCOD9088115
_publ_section_title
;
Structure prediction by ZEFSAII (Michael W. Deem and Ramdas Pophale) SiO2 
 PCOD9088115
Probable space group: P -1
;
_chemical_formula_sum "Si O2"
_cell_formula_units_Z 16
_cell_length_a 14.625045
_cell_length_b 13.232698
_cell_length_c 8.275816
_cell_angle_alpha 115.722865
_cell_angle_beta 109.444677
_cell_angle_gamma 29.444377
_cell_volume 705.615044
_symmetry_space_group_name_H-M "P -1"
_symmetry_group_IT_number 2
_symmetry_cell_setting 'triclinic'
loop_
_space_group_symop_operation_xyz
x,y,z
-x,-y,-z
loop_
_atom_site_type_symbol
_atom_site_label
_atom_site_fract_x
_atom_site_fract_y
_atom_site_fract_z
Si Si1 0.384069 0.299627 0.036560
Si Si2 0.120143 0.370499 0.797386
Si Si3 0.706991 0.781701 0.547737
Si Si4 0.894646 0.974991 0.007449
Si Si5 0.126134 0.577921 0.374596
Si Si6 0.803838 0.299111 0.267059
Si Si7 0.216447 0.146822 0.060799
Si Si8 0.482684 0.651538 0.120184
O O1 0.287925 0.280296 0.903141
O O2 0.426822 0.352154 0.961428
O O3 0.587891 0.062198 0.057209
O O4 0.252885 0.474973 0.221642
O O5 0.152043 0.363667 0.619983
O O6 0.067497 0.290793 0.702328
O O7 0.925261 0.618613 0.914009
O O8 0.757234 0.625874 0.583962
O O9 0.732840 0.864107 0.735151
O O10 0.500000 0.000000 0.500000
O O11 0.737860 0.114512 0.871932
O O12 0.895636 0.856797 0.014670
O O13 0.825333 0.144605 0.199004
O O14 0.089620 0.799728 0.911760
O O15 0.101654 0.714773 0.557263
O O16 0.596109 0.551514 0.284071
O O17 0.500000 0.500000 0.000000
#
# Coordination Sequence:
#
# PCOD9088115 Si02
#       8
#     2   2   2   2   2   2   2   2
#     4  11  22  39  58  86 126 160 194 249 303 356
#     4  11  22  40  61  86 120 162 201 244 295 362
#     4  11  21  37  61  87 115 154 202 250 292 346
#     4   9  18  33  61  87 106 150 199 251 289 344
#     4  11  24  38  57  90 126 160 197 247 304 355
#     4  10  19  37  59  84 116 148 201 250 292 347
#     4  10  20  36  60  86 116 151 206 237 301 356
#     4   9  19  36  61  85 109 154 202 240 292 351
#
# _framework density 22.675255
#
# number of rings (size 3 to 8) (size 9 to 14) (size 15 to 20)
#    0.000    1.750    1.250    4.875    1.750    2.000 
#    2.250    5.625    0.000   10.500    0.000    0.000 
#    0.000    0.000    0.000    0.000    0.000    0.000 
#
# Total GULP energy -89225.218973 kJ/mol
# GULP energy per Si atom -5576.576186 kJ/mol
# Density = 2.262365 g / cm^3
# Si number density = 22.675255 Si / 1000 Ang^3
#
#
#
# Elastic Constant Matrix: (Units=GPa)
#
#
# Indices 1 2 3 4 5 6 
#
# 1 118.5702 15.8458 34.6522 -4.0110 23.7465 2.3124
# 2 15.8458 67.7348 0.8644 -1.7586 5.9687 1.7116
# 3 34.6522 0.8644 77.0294 0.4007 29.8251 7.0540
# 4 -4.0110 -1.7586 0.4007 22.8154 -6.4128 1.0281
# 5 23.7465 5.9687 29.8251 -6.4128 37.8027 1.9536
# 6 2.3124 1.7116 7.0540 1.0281 1.9536 33.4262
#
#
#
# Elastic Compliance Matrix: (Units=1/GPa)
#
#
# Indices 1 2 3 4 5 6 
#
# 1 0.010401 -0.002074 -0.003347 0.000745 -0.003453 0.000272
# 2 -0.002074 0.015471 0.001807 0.000134 -0.002497 -0.000888
# 3 -0.003347 0.001807 0.020649 -0.004925 -0.015145 -0.003182
# 4 0.000745 0.000134 -0.004925 0.047338 0.011486 -0.001146
# 5 -0.003453 -0.002497 -0.015145 0.011486 0.042877 0.000703
# 6 0.000272 -0.000888 -0.003182 -0.001146 0.000703 0.030609
#
#
# Mechanical properties :
#
#
# Convention : Reuss Voigt Hill
#
# Bulk Modulus (GPa) = 25.45078 40.67325 33.06202
# Shear Modulus (GPa) = 26.64241 32.94031 29.79136
#
# Velocity S-wave (km/s) = 3.43148 3.81556 3.62861
# Velocity P-wave (km/s) = 5.19119 6.11454 5.67169
#
# Compressibility (1/GPa) = 0.03929152
#
# Stress axis : x y z
#
# Youngs Moduli (GPa) = 96.14830 64.63507 48.42963
#
# Poissons Ratio (x) = 0.13403 0.16212
# Poissons Ratio (y) = 0.19938 -0.08749
# Poissons Ratio (z) = 0.32185 -0.11677
#
# Static dielectric constant tensor:
#      x y z
#    x 1.884540 0.020190 -0.019240 
#    y 0.020190 1.932910 -0.042270 
#    z -0.019240 -0.042270 1.866810 
# 
# From -- ./inp_files/312937.got.cif
#   From: 2010.05.17/outbox.cif.g08.bks.cpg/sg2_157_cif.got.tgz:312937.got - 2010.06.03 11:33:40.
