data_PCOD9088441
_publ_section_title
;
Structure prediction by ZEFSAII (Michael W. Deem and Ramdas Pophale) SiO2 
 PCOD9088441
Probable space group: P -1
;
_chemical_formula_sum "Si O2"
_cell_formula_units_Z 16
_cell_length_a 13.141632
_cell_length_b 8.072621
_cell_length_c 14.226982
_cell_angle_alpha 104.721918
_cell_angle_beta 56.121890
_cell_angle_gamma 138.577425
_cell_volume 791.286975
_symmetry_space_group_name_H-M "P -1"
_symmetry_group_IT_number 2
_symmetry_cell_setting 'triclinic'
loop_
_space_group_symop_operation_xyz
x,y,z
-x,-y,-z
loop_
_atom_site_type_symbol
_atom_site_label
_atom_site_fract_x
_atom_site_fract_y
_atom_site_fract_z
Si Si1 0.814711 0.335161 0.886701
Si Si2 0.247019 0.683229 0.304703
Si Si3 0.661594 0.081507 0.114825
Si Si4 0.798462 0.434187 0.253073
Si Si5 0.329469 0.417455 0.525617
Si Si6 0.653184 0.944054 0.356976
Si Si7 0.144740 0.882021 0.521560
Si Si8 0.923474 0.098394 0.090678
O O1 0.776611 0.303976 0.791971
O O2 0.986037 0.385897 0.821727
O O3 0.903276 0.608526 0.915240
O O4 0.660141 0.111381 0.008733
O O5 0.224691 0.835921 0.396391
O O6 0.075430 0.385405 0.386888
O O7 0.455190 0.825678 0.224206
O O8 0.732458 0.331146 0.165919
O O9 0.811949 0.095903 0.070420
O O10 0.764436 0.574423 0.342051
O O11 0.685338 0.164581 0.327865
O O12 0.500000 0.500000 0.500000
O O13 0.437265 0.659876 0.435224
O O14 0.195780 0.132650 0.509870
O O15 0.750198 0.049752 0.424496
O O16 0.771312 0.936285 0.230637
O O17 0.000000 0.000000 0.000000
#
# Coordination Sequence:
#
# PCOD9088441 Si02
#       8
#     2   2   2   2   2   2   2   2
#     4  10  21  40  60  85 116 163 199 240 297 359
#     4  11  21  40  60  84 125 163 201 234 305 363
#     4  10  21  37  64  90 112 159 201 242 292 365
#     4  10  19  37  61  87 116 150 198 248 302 353
#     4  10  20  32  58  91 113 147 200 253 287 344
#     4   9  18  37  60  87 116 152 196 244 304 349
#     4  10  21  37  61  83 121 162 194 245 300 349
#     4  10  21  38  62  91 119 148 196 253 302 345
#
# _framework density 20.220223000000001
#
# number of rings (size 3 to 8) (size 9 to 14) (size 15 to 20)
#    0.000    2.250    2.500    3.750    0.000    6.000 
#    0.000    1.250    2.750    0.000    0.000    0.000 
#    0.000    0.000    0.000    0.000    0.000    0.000 
#
# Total GULP energy -89268.802318 kJ/mol
# GULP energy per Si atom -5579.300145 kJ/mol
# Density = 2.017420 g / cm^3
# Si number density = 20.220223 Si / 1000 Ang^3
#
#
#
# Elastic Constant Matrix: (Units=GPa)
#
#
# Indices 1 2 3 4 5 6 
#
# 1 39.1531 27.2020 41.0452 12.7342 1.8941 8.7031
# 2 27.2020 95.4528 64.1493 12.0513 -17.4413 -5.8783
# 3 41.0452 64.1493 123.7959 20.7526 -1.0001 -10.9313
# 4 12.7342 12.0513 20.7526 38.1458 -4.7845 -3.0565
# 5 1.8941 -17.4413 -1.0001 -4.7845 33.7507 10.0038
# 6 8.7031 -5.8783 -10.9313 -3.0565 10.0038 19.9451
#
#
#
# Elastic Compliance Matrix: (Units=1/GPa)
#
#
# Indices 1 2 3 4 5 6 
#
# 1 0.064255 -0.004645 -0.020905 -0.011589 0.005133 -0.045215
# 2 -0.004645 0.019463 -0.008909 0.001432 0.010970 -0.002402
# 3 -0.020905 -0.008909 0.021839 -0.001467 -0.009865 0.023189
# 4 -0.011589 0.001432 -0.001467 0.031491 0.003518 0.007736
# 5 0.005133 0.010970 -0.009865 0.003518 0.042715 -0.025298
# 6 -0.045215 -0.002402 0.023189 0.007736 -0.025298 0.095743
#
#
# Mechanical properties :
#
#
# Convention : Reuss Voigt Hill
#
# Bulk Modulus (GPa) = 27.29366 58.13276 42.71321
# Shear Modulus (GPa) = 14.01985 26.76869 20.39427
#
# Velocity S-wave (km/s) = 2.63603 3.64243 3.17930
# Velocity P-wave (km/s) = 4.77413 6.81924 5.88618
#
# Compressibility (1/GPa) = 0.03663854
#
# Stress axis : x y z
#
# Youngs Moduli (GPa) = 15.56300 51.37936 45.78868
#
# Poissons Ratio (x) = 0.23867 0.95723
# Poissons Ratio (y) = 0.07229 0.40793
# Poissons Ratio (z) = 0.32535 0.45773
#
# Static dielectric constant tensor:
#      x y z
#    x 1.738940 -0.008200 0.040200 
#    y -0.008200 1.742300 -0.030620 
#    z 0.040200 -0.030620 1.782310 
# 
# From -- ./inp_files/527662.got.cif
#   From: 2010.05.17/outbox.cif.g08.bks.cpg/sg2_264_cif.got.tgz:527662.got - 2010.06.03 11:33:40.
