data_PCOD9088323
_publ_section_title
;
Structure prediction by ZEFSAII (Michael W. Deem and Ramdas Pophale) SiO2 
 PCOD9088323
Probable space group: P -1
;
_chemical_formula_sum "Si O2"
_cell_formula_units_Z 14
_cell_length_a 15.093636
_cell_length_b 7.834261
_cell_length_c 10.835573
_cell_angle_alpha 35.128230
_cell_angle_beta 124.662461
_cell_angle_gamma 121.626593
_cell_volume 601.640682
_symmetry_space_group_name_H-M "P -1"
_symmetry_group_IT_number 2
_symmetry_cell_setting 'triclinic'
loop_
_space_group_symop_operation_xyz
x,y,z
-x,-y,-z
loop_
_atom_site_type_symbol
_atom_site_label
_atom_site_fract_x
_atom_site_fract_y
_atom_site_fract_z
Si Si1 0.597292 0.521366 0.160320
Si Si2 0.669116 0.938976 0.252702
Si Si3 0.573331 0.146665 0.837279
Si Si4 0.824044 0.834930 0.046160
Si Si5 0.959303 0.152159 0.191992
Si Si6 0.693429 0.300931 0.583556
Si Si7 0.131416 0.773149 0.651683
O O1 0.711637 0.647795 0.115280
O O2 0.618588 0.262600 0.425130
O O3 0.500000 0.500000 0.000000
O O4 0.563865 0.788264 0.060235
O O5 0.550907 0.798420 0.293787
O O6 0.726555 0.658045 0.412739
O O7 0.742446 0.088817 0.332777
O O8 0.651158 0.208250 0.981836
O O9 0.630585 0.216419 0.711618
O O10 0.885000 0.579504 0.183008
O O11 0.884859 0.006210 0.108360
O O12 0.789128 0.094545 0.776383
O O13 0.899925 0.156774 0.274109
O O14 0.057901 0.954825 0.400975
O O15 0.000000 0.500000 0.000000
#
# Coordination Sequence:
#
# PCOD9088323 Si02
#       7
#     2   2   2   2   2   2   2
#     4  10  21  38  58  90 133 169 207 260 316 380
#     4  10  19  37  60  89 126 169 215 261 317 382
#     4   9  19  33  57  89 127 171 215 258 310 378
#     4  11  24  42  65  97 129 165 216 265 320 387
#     4  11  25  45  67  93 125 164 216 272 325 383
#     4  10  20  36  61  89 129 172 212 261 313 379
#     4  11  24  42  67  92 126 168 210 268 331 380
#
# _framework density 23.269703
#
# number of rings (size 3 to 8) (size 9 to 14) (size 15 to 20)
#    0.000    1.714    0.000    5.143    0.000    5.143 
#    0.000    5.714    0.000    0.000    0.000    0.000 
#    0.000    0.000    0.000    0.000    0.000    0.000 
#
# Total GULP energy -78065.230525 kJ/mol
# GULP energy per Si atom -5576.087895 kJ/mol
# Density = 2.321674 g / cm^3
# Si number density = 23.269703 Si / 1000 Ang^3
#
#
#
# Elastic Constant Matrix: (Units=GPa)
#
#
# Indices 1 2 3 4 5 6 
#
# 1 43.0929 30.1956 33.5607 1.8351 13.3740 2.2421
# 2 30.1956 134.2084 72.3357 17.1657 20.9927 7.3207
# 3 33.5607 72.3357 171.2677 17.5528 33.0917 3.1863
# 4 1.8351 17.1657 17.5528 43.0207 -7.9146 11.2165
# 5 13.3740 20.9927 33.0917 -7.9146 46.3874 -8.7433
# 6 2.2421 7.3207 3.1863 11.2165 -8.7433 28.7076
#
#
#
# Elastic Compliance Matrix: (Units=1/GPa)
#
#
# Indices 1 2 3 4 5 6 
#
# 1 0.030394 -0.004370 -0.003326 0.001723 -0.004682 -0.002989
# 2 -0.004370 0.010857 -0.002937 -0.002949 -0.002377 -0.001673
# 3 -0.003326 -0.002937 0.008961 -0.003157 -0.004677 -0.000177
# 4 0.001723 -0.002949 -0.003157 0.029014 0.006457 -0.008402
# 5 -0.004682 -0.002377 -0.004677 0.006457 0.029946 0.008089
# 6 -0.002989 -0.001673 -0.000177 -0.008402 0.008089 0.041260
#
#
# Mechanical properties :
#
#
# Convention : Reuss Voigt Hill
#
# Bulk Modulus (GPa) = 34.54746 68.97255 51.76000
# Shear Modulus (GPa) = 27.57132 37.78828 32.67980
#
# Velocity S-wave (km/s) = 3.44591 4.03417 3.75159
# Velocity P-wave (km/s) = 5.54177 7.16967 6.40763
#
# Compressibility (1/GPa) = 0.02894569
#
# Stress axis : x y z
#
# Youngs Moduli (GPa) = 32.90158 92.10258 111.58959
#
# Poissons Ratio (x) = 0.40253 0.37118
# Poissons Ratio (y) = 0.14380 0.32770
# Poissons Ratio (z) = 0.10944 0.27047
#
# Static dielectric constant tensor:
#      x y z
#    x 1.961180 0.077900 0.055640 
#    y 0.077900 2.627950 0.509020 
#    z 0.055640 0.509020 2.281980 
# 
# From -- ./inp_files/313422.got.cif
#   From: 2010.05.17/outbox.cif.g08.bks.cpg/sg2_157_cif.got.tgz:313422.got - 2010.06.03 11:33:40.
