data_PCOD9088658
_publ_section_title
;
Structure prediction by ZEFSAII (Michael W. Deem and Ramdas Pophale) SiO2 
 PCOD9088658
Probable space group: P -1
;
_chemical_formula_sum "Si O2"
_cell_formula_units_Z 16
_cell_length_a 7.695486
_cell_length_b 11.361384
_cell_length_c 19.065895
_cell_angle_alpha 22.917174
_cell_angle_beta 72.770734
_cell_angle_gamma 67.462316
_cell_volume 592.004217
_symmetry_space_group_name_H-M "P -1"
_symmetry_group_IT_number 2
_symmetry_cell_setting 'triclinic'
loop_
_space_group_symop_operation_xyz
x,y,z
-x,-y,-z
loop_
_atom_site_type_symbol
_atom_site_label
_atom_site_fract_x
_atom_site_fract_y
_atom_site_fract_z
Si Si1 0.021246 0.837155 0.886121
Si Si2 0.182189 0.362904 0.871111
Si Si3 0.236423 0.139756 0.215332
Si Si4 0.843163 0.767013 0.591007
Si Si5 0.225825 0.873912 0.036044
Si Si6 0.148446 0.268314 0.553681
Si Si7 0.451991 0.900468 0.447425
Si Si8 0.466942 0.421259 0.931081
O O1 0.858395 0.989335 0.765427
O O2 0.918984 0.885812 0.945153
O O3 0.186295 0.953050 0.769690
O O4 0.079133 0.456030 0.087003
O O5 0.316824 0.428103 0.880961
O O6 0.016968 0.632761 0.700234
O O7 0.301947 0.135819 0.921327
O O8 0.309015 0.908964 0.396590
O O9 0.390419 0.280064 0.084152
O O10 0.738326 0.491811 0.746117
O O11 0.907455 0.796648 0.485948
O O12 0.680042 0.054533 0.490949
O O13 0.327529 0.822786 0.977228
O O14 0.000000 0.000000 0.000000
O O15 0.000000 0.500000 0.500000
O O16 0.348235 0.335185 0.475249
O O17 0.499459 0.237723 0.254803
#
# Coordination Sequence:
#
# PCOD9088658 Si02
#       8
#     2   2   2   2   2   2   2   2
#     4  10  21  39  65  91 123 154 207 255 311 362
#     4  10  19  37  62  90 124 159 205 260 306 367
#     4  10  20  38  66  94 118 154 208 266 302 354
#     4  10  22  40  60  89 125 167 207 251 315 369
#     4   9  19  34  57  87 125 161 199 252 305 364
#     4  12  26  42  61  91 128 169 206 253 316 382
#     4  11  22  39  63  91 123 163 213 257 309 373
#     4  10  20  33  60  96 119 154 209 259 307 354
#
# _framework density 27.026834000000001
#
# number of rings (size 3 to 8) (size 9 to 14) (size 15 to 20)
#    0.000    1.750    2.500    1.875    0.000    2.000 
#    0.000    5.625    0.000    0.000    0.000    0.000 
#    0.000    0.000    0.000    0.000    0.000    0.000 
#
# Total GULP energy -89078.790657 kJ/mol
# GULP energy per Si atom -5567.424416 kJ/mol
# Density = 2.696532 g / cm^3
# Si number density = 27.026834 Si / 1000 Ang^3
#
#
#
# Elastic Constant Matrix: (Units=GPa)
#
#
# Indices 1 2 3 4 5 6 
#
# 1 117.9573 28.7194 17.2174 8.9940 28.6317 -5.4730
# 2 28.7194 160.7846 44.6803 21.9129 17.5687 -24.6368
# 3 17.2174 44.6803 68.4640 37.4497 10.3895 -2.2394
# 4 8.9940 21.9129 37.4497 48.2033 3.7268 10.2819
# 5 28.6317 17.5687 10.3895 3.7268 40.5754 5.4638
# 6 -5.4730 -24.6368 -2.2394 10.2819 5.4638 49.9172
#
#
#
# Elastic Compliance Matrix: (Units=1/GPa)
#
#
# Indices 1 2 3 4 5 6 
#
# 1 0.010629 -0.000493 -0.000519 -0.001206 -0.007305 0.001947
# 2 -0.000493 0.008684 -0.004231 -0.001336 -0.002829 0.004627
# 3 -0.000519 -0.004231 0.030392 -0.022177 -0.004117 0.004237
# 4 -0.001206 -0.001336 -0.022177 0.040718 0.004809 -0.010700
# 5 -0.007305 -0.002829 -0.004117 0.004809 0.032572 -0.006937
# 6 0.001947 0.004627 0.004237 -0.010700 -0.006937 0.025684
#
#
# Mechanical properties :
#
#
# Convention : Reuss Voigt Hill
#
# Bulk Modulus (GPa) = 25.49901 58.71559 42.10730
# Shear Modulus (GPa) = 29.02945 44.84509 36.93727
#
# Velocity S-wave (km/s) = 3.28090 4.07785 3.70089
# Velocity P-wave (km/s) = 4.87930 6.62902 5.82028
#
# Compressibility (1/GPa) = 0.03921721
#
# Stress axis : x y z
#
# Youngs Moduli (GPa) = 94.08245 115.15906 32.90286
#
# Poissons Ratio (x) = 0.05683 0.01708
# Poissons Ratio (y) = 0.04643 0.13923
# Poissons Ratio (z) = 0.04883 0.48729
#
# Static dielectric constant tensor:
#      x y z
#    x 2.215730 0.001220 0.015590 
#    y 0.001220 2.218750 -0.053830 
#    z 0.015590 -0.053830 2.251060 
# 
# From -- ./inp_files/418034.got.cif
#   From: 2010.05.17/outbox.cif.g08.bks.cpg/sg2_210_cif.got.tgz:418034.got - 2010.06.03 11:33:40.
