data_PCOD9088407
_publ_section_title
;
Structure prediction by ZEFSAII (Michael W. Deem and Ramdas Pophale) SiO2 
 PCOD9088407
Probable space group: P -1
;
_chemical_formula_sum "Si O2"
_cell_formula_units_Z 16
_cell_length_a 10.447145
_cell_length_b 14.973522
_cell_length_c 7.504595
_cell_angle_alpha 71.827625
_cell_angle_beta 131.202034
_cell_angle_gamma 78.554879
_cell_volume 692.451908
_symmetry_space_group_name_H-M "P -1"
_symmetry_group_IT_number 2
_symmetry_cell_setting 'triclinic'
loop_
_space_group_symop_operation_xyz
x,y,z
-x,-y,-z
loop_
_atom_site_type_symbol
_atom_site_label
_atom_site_fract_x
_atom_site_fract_y
_atom_site_fract_z
Si Si1 0.981989 0.479181 0.252671
Si Si2 0.749701 0.263298 0.902246
Si Si3 0.894704 0.205436 0.436089
Si Si4 0.083510 0.316627 0.131136
Si Si5 0.698526 0.909392 0.357001
Si Si6 0.057977 0.014316 0.247540
Si Si7 0.363079 0.646811 0.598780
Si Si8 0.327182 0.447829 0.774230
O O1 0.970891 0.412046 0.122035
O O2 0.225257 0.414622 0.555042
O O3 0.865303 0.472343 0.317631
O O4 0.897703 0.610100 0.048634
O O5 0.579449 0.330822 0.554971
O O6 0.732733 0.285208 0.081890
O O7 0.916551 0.286503 0.961640
O O8 0.851208 0.130047 0.054141
O O9 0.890256 0.096311 0.533212
O O10 0.852094 0.264154 0.552225
O O11 0.112941 0.157348 0.571292
O O12 0.284502 0.197002 0.459324
O O13 0.765394 0.966172 0.534708
O O14 0.500000 0.000000 0.000000
O O15 0.000000 0.000000 0.000000
O O16 0.396430 0.525203 0.709853
O O17 0.512504 0.645164 0.884141
#
# Coordination Sequence:
#
# PCOD9088407 Si02
#       8
#     2   2   2   2   2   2   2   2
#     4  10  19  39  59  83 120 157 200 243 304 348
#     4  10  19  37  61  85 115 156 196 240 297 356
#     4  10  21  39  64  85 119 166 194 246 302 358
#     4   9  19  37  61  83 115 165 191 241 300 363
#     4  10  22  40  61  92 126 157 202 253 306 364
#     4  10  19  38  64  87 117 158 203 246 297 360
#     4  11  21  39  58  89 120 153 203 242 300 355
#     4  10  22  36  57  88 118 153 197 256 289 356
#
# _framework density 23.106297000000001
#
# number of rings (size 3 to 8) (size 9 to 14) (size 15 to 20)
#    0.000    2.250    2.500    3.000    0.000    1.000 
#    9.000    2.500    0.000    0.000    0.000    0.000 
#    0.000    0.000    0.000    0.000    0.000    0.000 
#
# Total GULP energy -89093.972226 kJ/mol
# GULP energy per Si atom -5568.373264 kJ/mol
# Density = 2.305371 g / cm^3
# Si number density = 23.106297 Si / 1000 Ang^3
#
#
#
# Elastic Constant Matrix: (Units=GPa)
#
#
# Indices 1 2 3 4 5 6 
#
# 1 54.1769 27.0841 33.2030 6.0450 -31.2391 -0.4029
# 2 27.0841 85.7572 18.6524 -7.3834 -18.0658 6.7302
# 3 33.2030 18.6524 118.0534 -0.1565 -36.8958 7.8650
# 4 6.0450 -7.3834 -0.1565 35.7590 1.3281 -20.2856
# 5 -31.2391 -18.0658 -36.8958 1.3281 40.2792 -4.1161
# 6 -0.4029 6.7302 7.8650 -20.2856 -4.1161 33.5376
#
#
#
# Elastic Compliance Matrix: (Units=1/GPa)
#
#
# Indices 1 2 3 4 5 6 
#
# 1 0.039000 -0.007309 -0.001829 -0.009039 0.025596 0.000038
# 2 -0.007309 0.014482 0.000015 0.003877 0.000655 -0.000572
# 3 -0.001829 0.000015 0.012111 -0.001450 0.009466 -0.002581
# 4 -0.009039 0.003877 -0.001450 0.045369 -0.005415 0.026231
# 5 0.025596 0.000655 0.009466 -0.005415 0.053954 0.001302
# 6 0.000038 -0.000572 -0.002581 0.026231 0.001302 0.046564
#
#
# Mechanical properties :
#
#
# Convention : Reuss Voigt Hill
#
# Bulk Modulus (GPa) = 21.11967 46.20738 33.66353
# Shear Modulus (GPa) = 20.36590 33.85170 27.10880
#
# Velocity S-wave (km/s) = 2.97206 3.83174 3.42895
# Velocity P-wave (km/s) = 4.57576 6.29424 5.50250
#
# Compressibility (1/GPa) = 0.04734922
#
# Stress axis : x y z
#
# Youngs Moduli (GPa) = 25.64077 69.04940 82.56713
#
# Poissons Ratio (x) = 0.50465 0.15104
# Poissons Ratio (y) = 0.18740 -0.00127
# Poissons Ratio (z) = 0.04690 -0.00106
#
# Static dielectric constant tensor:
#      x y z
#    x 1.897060 -0.003920 0.022980 
#    y -0.003920 1.844490 0.007360 
#    z 0.022980 0.007360 2.125590 
# 
# From -- ./inp_files/272725.got.cif
#   From: 2010.05.17/outbox.cif.g08.bks.cpg/sg2_137_cif.got.tgz:272725.got - 2010.06.03 11:33:40.
