data_PCOD9088743
_publ_section_title
;
Structure prediction by ZEFSAII (Michael W. Deem and Ramdas Pophale) SiO2 
 PCOD9088743
Probable space group: P -1
;
_chemical_formula_sum "Si O2"
_cell_formula_units_Z 16
_cell_length_a 8.157848
_cell_length_b 15.995576
_cell_length_c 15.716957
_cell_angle_alpha 36.747553
_cell_angle_beta 135.366496
_cell_angle_gamma 150.598490
_cell_volume 601.742502
_symmetry_space_group_name_H-M "P -1"
_symmetry_group_IT_number 2
_symmetry_cell_setting 'triclinic'
loop_
_space_group_symop_operation_xyz
x,y,z
-x,-y,-z
loop_
_atom_site_type_symbol
_atom_site_label
_atom_site_fract_x
_atom_site_fract_y
_atom_site_fract_z
Si Si1 0.905486 0.586044 0.133838
Si Si2 0.253518 0.897340 0.383984
Si Si3 0.769751 0.999994 0.291867
Si Si4 0.654738 0.624361 0.250825
Si Si5 0.733265 0.296422 0.012324
Si Si6 0.791415 0.817276 0.853167
Si Si7 0.442015 0.256686 0.434049
Si Si8 0.188136 0.416630 0.398440
O O1 0.512946 0.381728 0.149536
O O2 0.072983 0.650924 0.048122
O O3 0.089836 0.534790 0.287112
O O4 0.914388 0.755916 0.017442
O O5 0.469475 0.854223 0.482332
O O6 0.948046 0.756285 0.319251
O O7 0.112963 0.811142 0.497674
O O8 0.368537 0.104397 0.243699
O O9 0.898393 0.022314 0.226390
O O10 0.093143 0.147873 0.351801
O O11 0.562790 0.787091 0.432041
O O12 0.625488 0.094662 0.165528
O O13 0.586609 0.740732 0.085198
O O14 0.680219 0.491842 0.316243
O O15 0.305668 0.457829 0.311250
O O16 0.000000 0.500000 0.000000
O O17 0.500000 0.500000 0.500000
#
# Coordination Sequence:
#
# PCOD9088743 Si02
#       8
#     2   2   2   2   2   2   2   2
#     4   9  20  36  62  87 112 148 194 240 284 336
#     4  11  23  37  59  85 120 154 189 236 284 344
#     4  10  22  37  58  89 110 153 190 243 286 334
#     4  10  21  40  59  84 116 155 191 231 289 346
#     4  10  19  37  63  84 111 149 192 237 286 340
#     4  10  21  39  58  86 118 148 195 237 286 335
#     4  11  22  36  58  86 120 147 194 237 287 338
#     4   9  19  37  59  86 113 151 187 231 288 340
#
# _framework density 26.589445999999999
#
# number of rings (size 3 to 8) (size 9 to 14) (size 15 to 20)
#    0.000    2.000    1.250    1.875    1.750    3.000 
#    0.000   13.125    0.000    0.000    0.000    0.000 
#    0.000    0.000    0.000    0.000    0.000    0.000 
#
# Total GULP energy -89487.593224 kJ/mol
# GULP energy per Si atom -5592.974576 kJ/mol
# Density = 2.652893 g / cm^3
# Si number density = 26.589446 Si / 1000 Ang^3
#
#
#
# Elastic Constant Matrix: (Units=GPa)
#
#
# Indices 1 2 3 4 5 6 
#
# 1 88.7555 0.5646 41.3226 -1.9250 28.3601 6.0162
# 2 0.5646 36.7526 23.2148 11.9852 9.7142 -4.4090
# 3 41.3226 23.2148 220.7356 6.5785 64.6973 3.3800
# 4 -1.9250 11.9852 6.5785 34.3345 5.0293 4.3925
# 5 28.3601 9.7142 64.6973 5.0293 50.0235 -5.3361
# 6 6.0162 -4.4090 3.3800 4.3925 -5.3361 25.3110
#
#
#
# Elastic Compliance Matrix: (Units=1/GPa)
#
#
# Indices 1 2 3 4 5 6 
#
# 1 0.014709 0.000719 -0.000124 0.002682 -0.009203 -0.005760
# 2 0.000719 0.034486 -0.003318 -0.012319 -0.000692 0.008271
# 3 -0.000124 -0.003318 0.007857 0.001627 -0.010037 -0.003996
# 4 0.002682 -0.012319 0.001627 0.035460 -0.005908 -0.010400
# 5 -0.009203 -0.000692 -0.010037 -0.005908 0.040297 0.012928
# 6 -0.005760 0.008271 -0.003996 -0.010400 0.012928 0.047383
#
#
# Mechanical properties :
#
#
# Convention : Reuss Voigt Hill
#
# Bulk Modulus (GPa) = 19.37731 52.93865 36.15798
# Shear Modulus (GPa) = 24.64994 40.67657 32.66325
#
# Velocity S-wave (km/s) = 3.04806 3.91551 3.50870
# Velocity P-wave (km/s) = 4.43746 6.35567 5.48113
#
# Compressibility (1/GPa) = 0.05160674
#
# Stress axis : x y z
#
# Youngs Moduli (GPa) = 67.98483 28.99699 127.27477
#
# Poissons Ratio (x) = -0.02084 0.01572
# Poissons Ratio (y) = -0.04887 0.42232
# Poissons Ratio (z) = 0.00840 0.09622
#
# Static dielectric constant tensor:
#      x y z
#    x 2.214300 -0.001950 -0.059660 
#    y -0.001950 2.018950 -0.017590 
#    z -0.059660 -0.017590 2.117530 
# 
# From -- ./inp_files/217031.got.cif
#   From: 2010.05.17/outbox.cif.g08.bks.cpg/sg2_109_cif.got.tgz:217031.got - 2010.06.03 11:33:40.
