data_PCOD9088940
_publ_section_title
;
Structure prediction by ZEFSAII (Michael W. Deem and Ramdas Pophale) SiO2 
 PCOD9088940
Probable space group: P -1
;
_chemical_formula_sum "Si O2"
_cell_formula_units_Z 16
_cell_length_a 14.728178
_cell_length_b 12.235834
_cell_length_c 13.261391
_cell_angle_alpha 109.230968
_cell_angle_beta 50.637042
_cell_angle_gamma 152.270740
_cell_volume 657.018225
_symmetry_space_group_name_H-M "P -1"
_symmetry_group_IT_number 2
_symmetry_cell_setting 'triclinic'
loop_
_space_group_symop_operation_xyz
x,y,z
-x,-y,-z
loop_
_atom_site_type_symbol
_atom_site_label
_atom_site_fract_x
_atom_site_fract_y
_atom_site_fract_z
Si Si1 0.983391 0.382482 0.058669
Si Si2 0.277025 0.359518 0.193365
Si Si3 0.030787 0.541673 0.611899
Si Si4 0.523022 0.815338 0.086571
Si Si5 0.492560 0.727954 0.704382
Si Si6 0.846082 0.733423 0.537438
Si Si7 0.360947 0.758002 0.608907
Si Si8 0.103341 0.212927 0.707181
O O1 0.853081 0.330371 0.229161
O O2 0.737613 0.060766 0.099932
O O3 0.000000 0.500000 0.000000
O O4 0.316001 0.623643 0.892055
O O5 0.282758 0.495700 0.191285
O O6 0.388484 0.471613 0.265624
O O7 0.984128 0.003423 0.292756
O O8 0.500000 0.500000 0.000000
O O9 0.187587 0.575429 0.569858
O O10 0.000000 0.500000 0.500000
O O11 0.695533 0.274401 0.810799
O O12 0.293890 0.880399 0.541345
O O13 0.781052 0.992454 0.884980
O O14 0.388536 0.700243 0.667870
O O15 0.340274 0.464502 0.705691
O O16 0.857065 0.065994 0.567447
O O17 0.765354 0.632815 0.448584
O O18 0.000000 0.000000 0.500000
#
# Coordination Sequence:
#
# PCOD9088940 Si02
#       8
#     2   2   2   2   2   2   2   2
#     4   9  19  38  57  86 124 161 206 256 303 368
#     4   9  19  37  62  86 118 152 202 250 301 370
#     4  11  22  37  59  87 130 166 208 256 305 366
#     4  10  19  37  64  85 120 172 201 254 313 361
#     4  10  21  38  61  87 124 160 201 255 309 365
#     4  10  21  38  63  90 119 158 207 254 311 372
#     4  10  22  38  55  90 126 165 207 252 303 369
#     4   9  21  39  60  91 120 160 208 252 310 370
#
# _framework density 24.352444999999999
#
# number of rings (size 3 to 8) (size 9 to 14) (size 15 to 20)
#    0.000    2.250    1.250    0.750    1.750    4.000 
#    0.000    1.875    2.750   10.500    0.000    0.000 
#    0.000    0.000    0.000    0.000    0.000    0.000 
#
# Total GULP energy -89177.570083 kJ/mol
# GULP energy per Si atom -5573.598130 kJ/mol
# Density = 2.429702 g / cm^3
# Si number density = 24.352445 Si / 1000 Ang^3
#
#
#
# Elastic Constant Matrix: (Units=GPa)
#
#
# Indices 1 2 3 4 5 6 
#
# 1 72.7461 20.3464 25.7337 -2.4866 -4.8109 8.2173
# 2 20.3464 89.9158 15.7508 6.3579 -3.7068 -1.0313
# 3 25.7337 15.7508 123.6941 8.7807 5.5493 16.9019
# 4 -2.4866 6.3579 8.7807 24.5423 2.2155 5.8668
# 5 -4.8109 -3.7068 5.5493 2.2155 28.5681 -5.7169
# 6 8.2173 -1.0313 16.9019 5.8668 -5.7169 28.3036
#
#
#
# Elastic Compliance Matrix: (Units=1/GPa)
#
#
# Indices 1 2 3 4 5 6 
#
# 1 0.016417 -0.003490 -0.002848 0.004316 0.001784 -0.003727
# 2 -0.003490 0.012547 -0.001152 -0.004236 0.002293 0.003499
# 3 -0.002848 -0.001152 0.009854 -0.001910 -0.003477 -0.005406
# 4 0.004316 -0.004236 -0.001910 0.046028 -0.005194 -0.010857
# 5 0.001784 0.002293 -0.003477 -0.005194 0.038792 0.010554
# 6 -0.003727 0.003499 -0.005406 -0.010857 0.010554 0.044151
#
#
# Mechanical properties :
#
#
# Convention : Reuss Voigt Hill
#
# Bulk Modulus (GPa) = 41.95153 45.55752 43.75453
# Shear Modulus (GPa) = 26.21703 31.25114 28.73409
#
# Velocity S-wave (km/s) = 3.28467 3.58618 3.43873
# Velocity P-wave (km/s) = 5.62580 5.99131 5.81143
#
# Compressibility (1/GPa) = 0.02383703
#
# Stress axis : x y z
#
# Youngs Moduli (GPa) = 60.91360 79.69866 101.48259
#
# Poissons Ratio (x) = 0.27817 0.28904
# Poissons Ratio (y) = 0.21261 0.11691
# Poissons Ratio (z) = 0.17349 0.09181
#
# Static dielectric constant tensor:
#      x y z
#    x 2.161640 0.033870 -0.053700 
#    y 0.033870 2.010450 0.024100 
#    z -0.053700 0.024100 2.017690 
# 
# From -- ./inp_files/531881.got.cif
#   From: 2010.05.17/outbox.cif.g08.bks.cpg/sg2_266_cif.got.tgz:531881.got - 2010.06.03 11:33:40.
