data_PCOD9088337
_publ_section_title
;
Structure prediction by ZEFSAII (Michael W. Deem and Ramdas Pophale) SiO2 
 PCOD9088337
Probable space group: P -1
;
_chemical_formula_sum "Si O2"
_cell_formula_units_Z 16
_cell_length_a 16.401982
_cell_length_b 9.218371
_cell_length_c 7.562179
_cell_angle_alpha 84.093727
_cell_angle_beta 134.315189
_cell_angle_gamma 120.644088
_cell_volume 641.574934
_symmetry_space_group_name_H-M "P -1"
_symmetry_group_IT_number 2
_symmetry_cell_setting 'triclinic'
loop_
_space_group_symop_operation_xyz
x,y,z
-x,-y,-z
loop_
_atom_site_type_symbol
_atom_site_label
_atom_site_fract_x
_atom_site_fract_y
_atom_site_fract_z
Si Si1 0.202463 0.260592 0.502723
Si Si2 0.032598 0.395753 0.196599
Si Si3 0.287077 0.086471 0.370951
Si Si4 0.740425 0.780234 0.041039
Si Si5 0.154771 0.684709 0.772520
Si Si6 0.553609 0.324829 0.249154
Si Si7 0.625041 0.386731 0.757495
Si Si8 0.289802 0.804174 0.627900
O O1 0.087878 0.281437 0.236493
O O2 0.230271 0.147048 0.432020
O O3 0.352539 0.471483 0.720022
O O4 0.157374 0.184263 0.644636
O O5 0.175324 0.580041 0.477554
O O6 0.898990 0.276189 0.140669
O O7 0.000000 0.500000 0.000000
O O8 0.221302 0.090622 0.085579
O O9 0.460854 0.242075 0.593568
O O10 0.268673 0.905846 0.430481
O O11 0.607649 0.752819 0.945272
O O12 0.682099 0.588000 0.880757
O O13 0.238858 0.837809 0.728971
O O14 0.000000 0.500000 0.500000
O O15 0.266923 0.647535 0.998197
O O16 0.621978 0.362475 0.544680
O O17 0.566797 0.180800 0.184367
#
# Coordination Sequence:
#
# PCOD9088337 Si02
#       8
#     2   2   2   2   2   2   2   2
#     4  11  21  40  67  92 124 169 217 266 319 385
#     4  10  22  44  72  89 119 174 226 262 304 386
#     4  11  24  41  60 102 136 162 204 272 348 373
#     4  11  21  36  63  93 133 169 212 258 319 398
#     4  10  21  39  62  89 121 167 223 263 306 376
#     4  10  19  37  60  91 128 168 214 257 320 388
#     4  11  20  37  67  95 127 168 218 269 316 395
#     4  10  23  40  61  96 132 164 210 274 323 381
#
# _framework density 24.938631999999998
#
# number of rings (size 3 to 8) (size 9 to 14) (size 15 to 20)
#    0.000    1.500    2.500    4.875    1.750    2.500 
#    4.500    1.250    0.000    0.000    0.000    0.000 
#    0.000    0.000    0.000    0.000    0.000    0.000 
#
# Total GULP energy -89438.089910 kJ/mol
# GULP energy per Si atom -5589.880619 kJ/mol
# Density = 2.488187 g / cm^3
# Si number density = 24.938632 Si / 1000 Ang^3
#
#
#
# Elastic Constant Matrix: (Units=GPa)
#
#
# Indices 1 2 3 4 5 6 
#
# 1 120.9116 48.5338 20.0353 -13.1437 0.5486 1.7619
# 2 48.5338 108.2036 14.0245 -12.7874 -8.6359 -6.3256
# 3 20.0353 14.0245 102.6563 -23.2624 -10.4843 5.2445
# 4 -13.1437 -12.7874 -23.2624 30.3187 3.0162 1.7989
# 5 0.5486 -8.6359 -10.4843 3.0162 36.3014 -18.2899
# 6 1.7619 -6.3256 5.2445 1.7989 -18.2899 29.0933
#
#
#
# Elastic Compliance Matrix: (Units=1/GPa)
#
#
# Indices 1 2 3 4 5 6 
#
# 1 0.010785 -0.004976 -0.001073 0.002395 -0.003962 -0.004180
# 2 -0.004976 0.012641 0.000031 0.002149 0.006410 0.006941
# 3 -0.001073 0.000031 0.012227 0.008792 0.002160 -0.001318
# 4 0.002395 0.002149 0.008792 0.042398 -0.003608 -0.006153
# 5 -0.003962 0.006410 0.002160 -0.003608 0.045071 0.029802
# 6 -0.004180 0.006941 -0.001318 -0.006153 0.029802 0.055488
#
#
# Mechanical properties :
#
#
# Convention : Reuss Voigt Hill
#
# Bulk Modulus (GPa) = 42.34306 55.21763 48.78034
# Shear Modulus (GPa) = 25.18665 35.75454 30.47059
#
# Velocity S-wave (km/s) = 3.18141 3.79053 3.49925
# Velocity P-wave (km/s) = 5.52367 6.43016 5.99408
#
# Compressibility (1/GPa) = 0.02361662
#
# Stress axis : x y z
#
# Youngs Moduli (GPa) = 92.72161 79.10747 81.78746
#
# Poissons Ratio (x) = 0.39363 0.08779
# Poissons Ratio (y) = 0.46137 -0.00255
# Poissons Ratio (z) = 0.09952 -0.00247
#
# Static dielectric constant tensor:
#      x y z
#    x 2.250000 -0.227790 0.047470 
#    y -0.227790 2.182930 -0.045250 
#    z 0.047470 -0.045250 2.096010 
# 
# From -- ./inp_files/328785.got.cif
#   From: 2010.05.17/outbox.cif.g08.bks.cpg/sg2_165_cif.got.tgz:328785.got - 2010.06.03 11:33:40.
