data_PCOD9088334
_publ_section_title
;
Structure prediction by ZEFSAII (Michael W. Deem and Ramdas Pophale) SiO2 
 PCOD9088334
Probable space group: P -1
;
_chemical_formula_sum "Si O2"
_cell_formula_units_Z 16
_cell_length_a 10.009480
_cell_length_b 18.951105
_cell_length_c 8.663800
_cell_angle_alpha 57.271957
_cell_angle_beta 94.674485
_cell_angle_gamma 135.101774
_cell_volume 840.727701
_symmetry_space_group_name_H-M "P -1"
_symmetry_group_IT_number 2
_symmetry_cell_setting 'triclinic'
loop_
_space_group_symop_operation_xyz
x,y,z
-x,-y,-z
loop_
_atom_site_type_symbol
_atom_site_label
_atom_site_fract_x
_atom_site_fract_y
_atom_site_fract_z
Si Si1 0.470006 0.572782 0.995251
Si Si2 0.026117 0.603174 0.461911
Si Si3 0.973013 0.391947 0.180881
Si Si4 0.757032 0.886573 0.179281
Si Si5 0.448928 0.636757 0.225699
Si Si6 0.465465 0.896695 0.032270
Si Si7 0.245530 0.128554 0.437670
Si Si8 0.432263 0.806074 0.827066
O O1 0.623296 0.719768 0.759572
O O2 0.500000 0.500000 0.000000
O O3 0.209533 0.465967 0.094146
O O4 0.532948 0.613024 0.134512
O O5 0.090876 0.636286 0.610625
O O6 0.775974 0.510366 0.551675
O O7 0.000000 0.500000 0.500000
O O8 0.214799 0.744408 0.221394
O O9 0.780173 0.266390 0.198575
O O10 0.000000 0.500000 0.000000
O O11 0.613443 0.744273 0.248144
O O12 0.633236 0.911211 0.097473
O O13 0.763292 0.884812 0.364816
O O14 0.000000 0.000000 0.000000
O O15 0.400371 0.701233 0.047237
O O16 0.501753 0.908857 0.837912
O O17 0.500000 0.000000 0.000000
O O18 0.388575 0.130121 0.358570
O O19 0.000000 0.000000 0.500000
#
# Coordination Sequence:
#
# PCOD9088334 Si02
#       8
#     2   2   2   2   2   2   2   2
#     4  10  22  40  60  91 129 151 197 264 307 341
#     4  11  18  34  64  88 116 160 201 241 300 361
#     4  11  18  35  65  92 115 156 209 248 292 370
#     4  11  22  41  66  87 119 169 210 238 299 381
#     4   9  19  36  62  87 119 156 204 244 293 370
#     4  11  24  41  60  91 132 153 199 265 308 346
#     4  11  22  40  68  86 118 169 210 240 299 377
#     4  10  19  37  60  91 117 157 205 246 294 369
#
# _framework density 19.031133000000001
#
# number of rings (size 3 to 8) (size 9 to 14) (size 15 to 20)
#    0.000    1.500    6.250    3.000    0.000    1.000 
#   13.500    1.875    0.000    0.000    0.000    0.000 
#    0.000    0.000    0.000    0.000    0.000    0.000 
#
# Total GULP energy -89200.729666 kJ/mol
# GULP energy per Si atom -5575.045604 kJ/mol
# Density = 1.898782 g / cm^3
# Si number density = 19.031133 Si / 1000 Ang^3
#
#
#
# Elastic Constant Matrix: (Units=GPa)
#
#
# Indices 1 2 3 4 5 6 
#
# 1 69.7564 65.4232 36.3905 11.7032 -28.5901 -16.1044
# 2 65.4232 185.6867 66.1713 28.5860 -17.0267 -5.8378
# 3 36.3905 66.1713 112.2206 16.7356 -34.2009 0.7460
# 4 11.7032 28.5860 16.7356 39.1584 -1.3213 -6.2121
# 5 -28.5901 -17.0267 -34.2009 -1.3213 19.3875 4.4659
# 6 -16.1044 -5.8378 0.7460 -6.2121 4.4659 45.4021
#
#
#
# Elastic Compliance Matrix: (Units=1/GPa)
#
#
# Indices 1 2 3 4 5 6 
#
# 1 0.217985 -0.068555 0.117466 -0.047396 0.461859 0.014661
# 2 -0.068555 0.028881 -0.041190 0.011435 -0.146709 -0.003931
# 3 0.117466 -0.041190 0.088546 -0.032783 0.290591 0.001846
# 4 -0.047396 0.011435 -0.032783 0.041833 -0.115352 0.002268
# 5 0.461859 -0.146709 0.290591 -0.115352 1.104965 0.015714
# 6 0.014661 -0.003931 0.001846 0.002268 0.015714 0.025454
#
#
# Mechanical properties :
#
#
# Convention : Reuss Voigt Hill
#
# Bulk Modulus (GPa) = 2.85019 78.18151 40.51585
# Shear Modulus (GPa) = 3.10718 34.10152 18.60435
#
# Velocity S-wave (km/s) = 1.27915 4.23765 3.13001
# Velocity P-wave (km/s) = 1.91899 8.06930 5.86499
#
# Compressibility (1/GPa) = 0.35085333
#
# Stress axis : x y z
#
# Youngs Moduli (GPa) = 4.58747 34.62437 11.29353
#
# Poissons Ratio (x) = 2.37367 -1.32660
# Poissons Ratio (y) = 0.31449 0.46518
# Poissons Ratio (z) = -0.53887 1.42619
#
# Static dielectric constant tensor:
#      x y z
#    x 1.648900 0.001200 0.015470 
#    y 0.001200 1.689150 0.006480 
#    z 0.015470 0.006480 1.698100 
# 
# From -- ./inp_files/217302.got.cif
#   From: 2010.05.17/outbox.cif.g08.bks.cpg/sg2_109_cif.got.tgz:217302.got - 2010.06.03 11:33:40.
