data_PCOD9088614
_publ_section_title
;
Structure prediction by ZEFSAII (Michael W. Deem and Ramdas Pophale) SiO2 
 PCOD9088614
Probable space group: P -1
;
_chemical_formula_sum "Si O2"
_cell_formula_units_Z 13
_cell_length_a 13.329138
_cell_length_b 16.807380
_cell_length_c 18.316832
_cell_angle_alpha 157.082188
_cell_angle_beta 156.918752
_cell_angle_gamma 22.582979
_cell_volume 543.324447
_symmetry_space_group_name_H-M "P -1"
_symmetry_group_IT_number 2
_symmetry_cell_setting 'triclinic'
loop_
_space_group_symop_operation_xyz
x,y,z
-x,-y,-z
loop_
_atom_site_type_symbol
_atom_site_label
_atom_site_fract_x
_atom_site_fract_y
_atom_site_fract_z
Si Si1 0.044853 0.600025 0.329335
Si Si2 0.418676 0.370056 0.252311
Si Si3 0.301795 0.271470 0.488095
Si Si4 0.000000 0.000000 0.000000
Si Si5 0.447790 0.508709 0.058635
Si Si6 0.673202 0.113936 0.471295
Si Si7 0.722962 0.922279 0.187970
O O1 0.869944 0.468758 0.122856
O O2 0.138325 0.546924 0.261977
O O3 0.348492 0.539045 0.521306
O O4 0.834655 0.878963 0.431339
O O5 0.571926 0.143523 0.218182
O O6 0.352704 0.273700 0.054129
O O7 0.412260 0.291728 0.498155
O O8 0.000000 0.500000 0.500000
O O9 0.526285 0.284067 0.707345
O O10 0.221772 0.065449 0.251465
O O11 0.708879 0.253824 0.044716
O O12 0.500000 0.500000 0.000000
O O13 0.603969 0.023464 0.273663
O O14 0.928639 0.172169 0.669893
#
# Coordination Sequence:
#
# PCOD9088614 Si02
#       7
#     2   2   2   1   2   2   2
#     4  10  20  38  58  87 132 162 207 269 319 392
#     4   9  19  36  59  92 128 160 209 265 317 394
#     4  10  22  41  65  89 127 174 214 279 324 384
#     4  10  22  46  62  92 130 158 232 274 314 390
#     4  11  24  43  68  95 126 179 222 275 334 385
#     4  10  19  37  62  87 128 168 203 266 326 382
#     4   9  19  35  60  93 121 164 211 252 328 394
#
# _framework density 23.926772
#
# number of rings (size 3 to 8) (size 9 to 14) (size 15 to 20)
#    0.000    2.154    1.538    0.923    0.000    3.692 
#    2.769    3.077    0.000    0.000    0.000    0.000 
#    0.000    0.000    0.000    0.000    0.000    0.000 
#
# Total GULP energy -72376.882121 kJ/mol
# GULP energy per Si atom -5567.452471 kJ/mol
# Density = 2.387231 g / cm^3
# Si number density = 23.926772 Si / 1000 Ang^3
#
#
#
# Elastic Constant Matrix: (Units=GPa)
#
#
# Indices 1 2 3 4 5 6 
#
# 1 124.2949 26.1550 67.7074 -14.1087 -15.3254 -35.3750
# 2 26.1550 74.9705 21.3981 2.7668 2.0452 -30.6365
# 3 67.7074 21.3981 256.8125 6.3274 -16.4836 -26.8841
# 4 -14.1087 2.7668 6.3274 37.5282 -12.0315 1.9965
# 5 -15.3254 2.0452 -16.4836 -12.0315 38.8458 5.9299
# 6 -35.3750 -30.6365 -26.8841 1.9965 5.9299 34.7464
#
#
#
# Elastic Compliance Matrix: (Units=1/GPa)
#
#
# Indices 1 2 3 4 5 6 
#
# 1 0.013790 -0.000006 -0.002333 0.006526 0.004787 0.011036
# 2 -0.000006 0.022160 0.000082 -0.004599 -0.005740 0.020839
# 3 -0.002333 0.000082 0.004709 -0.001636 0.000357 0.001373
# 4 0.006526 -0.004599 -0.001636 0.034072 0.013114 -0.002872
# 5 0.004787 -0.005740 0.000357 0.013114 0.033111 -0.006315
# 6 0.011036 0.020839 0.001373 -0.002872 -0.006315 0.060696
#
#
# Mechanical properties :
#
#
# Convention : Reuss Voigt Hill
#
# Bulk Modulus (GPa) = 27.66798 76.28876 51.97837
# Shear Modulus (GPa) = 27.01241 44.94525 35.97883
#
# Velocity S-wave (km/s) = 3.36365 4.33881 3.88197
# Velocity P-wave (km/s) = 5.16471 7.55340 6.47024
#
# Compressibility (1/GPa) = 0.03614286
#
# Stress axis : x y z
#
# Youngs Moduli (GPa) = 72.51804 45.12707 212.34936
#
# Poissons Ratio (x) = 0.00028 0.49547
# Poissons Ratio (y) = 0.00045 -0.01734
# Poissons Ratio (z) = 0.16920 -0.00369
#
# Static dielectric constant tensor:
#      x y z
#    x 1.860010 0.151600 0.155870 
#    y 0.151600 1.915920 -0.209980 
#    z 0.155870 -0.209980 1.521610 
# 
# From -- ./inp_files/291464.got.cif
#   From: 2010.05.17/outbox.cif.g08.bks.cpg/sg2_146_cif.got.tgz:291464.got - 2010.06.03 11:33:40.
