data_PCOD9088504
_publ_section_title
;
Structure prediction by ZEFSAII (Michael W. Deem and Ramdas Pophale) SiO2 
 PCOD9088504
Probable space group: P -1
;
_chemical_formula_sum "Si O2"
_cell_formula_units_Z 10
_cell_length_a 13.862645
_cell_length_b 13.421423
_cell_length_c 5.341861
_cell_angle_alpha 79.410174
_cell_angle_beta 82.963677
_cell_angle_gamma 151.626744
_cell_volume 368.452414
_symmetry_space_group_name_H-M "P -1"
_symmetry_group_IT_number 2
_symmetry_cell_setting 'triclinic'
loop_
_space_group_symop_operation_xyz
x,y,z
-x,-y,-z
loop_
_atom_site_type_symbol
_atom_site_label
_atom_site_fract_x
_atom_site_fract_y
_atom_site_fract_z
Si Si1 0.880514 0.093445 0.933218
Si Si2 0.259294 0.691266 0.757899
Si Si3 0.914627 0.795651 0.668238
Si Si4 0.701211 0.715909 0.125005
Si Si5 0.448638 0.830469 0.129473
O O1 0.082802 0.263239 0.565132
O O2 0.679368 0.813353 0.039255
O O3 0.719750 0.040306 0.991313
O O4 0.940802 0.127804 0.191578
O O5 0.262339 0.637844 0.515379
O O6 0.500000 0.000000 0.500000
O O7 0.325874 0.682522 0.971601
O O8 0.000000 0.500000 0.000000
O O9 0.000000 0.000000 0.500000
O O10 0.668987 0.593723 0.996817
O O11 0.500000 0.500000 0.500000
O O12 0.000000 0.000000 0.000000
O O13 0.500000 0.000000 0.000000
#
# Coordination Sequence:
#
# PCOD9088504 Si02
#       5
#     2   2   2   2   2
#     4  10  19  37  61  90 123 164 206 252 311 370
#     4  10  21  40  63  87 120 165 208 257 309 358
#     4   9  18  35  59  88 122 160 204 256 310 369
#     4   9  19  38  60  87 120 156 198 251 304 362
#     4  10  21  38  62  92 127 167 210 258 307 369
#
# _framework density 27.140550999999999
#
# number of rings (size 3 to 8) (size 9 to 14) (size 15 to 20)
#    0.000    2.400    0.000    3.600    0.000    0.000 
#    0.000   56.000    0.000    2.400    0.000    0.000 
#    0.000    0.000    0.000    0.000    0.000    0.000 
#
# Total GULP energy -55727.295758 kJ/mol
# GULP energy per Si atom -5572.729576 kJ/mol
# Density = 2.707878 g / cm^3
# Si number density = 27.140551 Si / 1000 Ang^3
#
#
#
# Elastic Constant Matrix: (Units=GPa)
#
#
# Indices 1 2 3 4 5 6 
#
# 1 170.7242 48.3059 44.3104 6.7515 -25.5800 29.3170
# 2 48.3059 125.8559 67.1072 11.5756 4.9641 12.1255
# 3 44.3104 67.1072 228.4753 29.9519 -32.7934 19.4866
# 4 6.7515 11.5756 29.9519 66.6552 16.5238 0.9999
# 5 -25.5800 4.9641 -32.7934 16.5238 35.6202 6.0206
# 6 29.3170 12.1255 19.4866 0.9999 6.0206 61.8980
#
#
#
# Elastic Compliance Matrix: (Units=1/GPa)
#
#
# Indices 1 2 3 4 5 6 
#
# 1 0.009477 -0.004410 0.002244 -0.004182 0.012351 -0.005465
# 2 -0.004410 0.012235 -0.005028 0.003389 -0.011468 0.002336
# 3 0.002244 -0.005028 0.008658 -0.006670 0.014065 -0.004064
# 4 -0.004182 0.003389 -0.006670 0.023001 -0.021149 0.005103
# 5 0.012351 -0.011468 0.014065 -0.021149 0.063647 -0.013880
# 6 -0.005465 0.002336 -0.004064 0.005103 -0.013880 0.020834
#
#
# Mechanical properties :
#
#
# Convention : Reuss Voigt Hill
#
# Bulk Modulus (GPa) = 62.56634 93.83362 78.19998
# Shear Modulus (GPa) = 31.73257 57.19013 44.46135
#
# Velocity S-wave (km/s) = 3.42306 4.59539 4.05185
# Velocity P-wave (km/s) = 6.22301 7.92496 7.12499
#
# Compressibility (1/GPa) = 0.01598303
#
# Stress axis : x y z
#
# Youngs Moduli (GPa) = 105.51746 81.73452 115.49855
#
# Poissons Ratio (x) = 0.36047 -0.25923
# Poissons Ratio (y) = 0.46535 0.58069
# Poissons Ratio (z) = -0.23683 0.41094
#
# Static dielectric constant tensor:
#      x y z
#    x 1.955500 0.851620 -0.005810 
#    y 0.851620 1.491420 0.543160 
#    z -0.005810 0.543160 2.398560 
# 
# From -- ./inp_files/99342.got.cif
#   From: 2010.05.17/outbox.cif.g08.bks.cpg/sg2_50_cif.got.tgz:99342.got - 2010.06.03 11:33:40.
