data_PCOD9088867
_publ_section_title
;
Structure prediction by ZEFSAII (Michael W. Deem and Ramdas Pophale) SiO2 
 PCOD9088867
Probable space group: P -1
;
_chemical_formula_sum "Si O2"
_cell_formula_units_Z 16
_cell_length_a 8.944563
_cell_length_b 8.761955
_cell_length_c 16.744619
_cell_angle_alpha 108.197909
_cell_angle_beta 135.534724
_cell_angle_gamma 90.723316
_cell_volume 816.746108
_symmetry_space_group_name_H-M "P -1"
_symmetry_group_IT_number 2
_symmetry_cell_setting 'triclinic'
loop_
_space_group_symop_operation_xyz
x,y,z
-x,-y,-z
loop_
_atom_site_type_symbol
_atom_site_label
_atom_site_fract_x
_atom_site_fract_y
_atom_site_fract_z
Si Si1 0.788744 0.395664 0.673477
Si Si2 0.132782 0.075109 0.983672
Si Si3 0.656859 0.882886 0.537615
Si Si4 0.117903 0.673780 0.123765
Si Si5 0.621108 0.893694 0.281282
Si Si6 0.962972 0.782951 0.748850
Si Si7 0.416268 0.930071 0.866410
Si Si8 0.085814 0.852845 0.442535
O O1 0.519281 0.306947 0.573621
O O2 0.894268 0.373700 0.795055
O O3 0.851886 0.589157 0.701901
O O4 0.861167 0.290160 0.613653
O O5 0.027172 0.204093 0.925585
O O6 0.405142 0.156530 0.108782
O O7 0.084757 0.902057 0.887295
O O8 0.000000 0.000000 0.000000
O O9 0.786130 0.868626 0.664003
O O10 0.500000 0.000000 0.500000
O O11 0.840760 0.975029 0.556482
O O12 0.379626 0.780095 0.211493
O O13 0.000000 0.500000 0.000000
O O14 0.817130 0.808019 0.348143
O O15 0.579869 0.933357 0.179456
O O16 0.744306 0.075015 0.405663
O O17 0.156329 0.806233 0.759529
O O18 0.500000 0.000000 0.000000
#
# Coordination Sequence:
#
# PCOD9088867 Si02
#       8
#     2   2   2   2   2   2   2   2
#     4  11  24  40  63 100 131 170 215 268 334 386
#     4  11  22  40  64  90 125 172 217 264 326 382
#     4  10  19  37  63  92 122 162 214 259 318 382
#     4  12  26  42  65  99 133 167 221 277 323 389
#     4  11  22  43  69  95 129 171 221 273 325 391
#     4  11  23  41  63  92 131 169 214 266 324 396
#     4  10  23  39  65  92 125 175 222 260 319 393
#     4  10  22  41  70  97 126 173 221 269 329 390
#
# _framework density 19.589931
#
# number of rings (size 3 to 8) (size 9 to 14) (size 15 to 20)
#    0.000    1.250    3.750    2.625    5.250    1.000 
#    0.000    1.875    0.000    0.000    0.000    0.000 
#    0.000    0.000    0.000    0.000    0.000    0.000 
#
# Total GULP energy -89143.751820 kJ/mol
# GULP energy per Si atom -5571.484489 kJ/mol
# Density = 1.954534 g / cm^3
# Si number density = 19.589931 Si / 1000 Ang^3
#
#
#
# Elastic Constant Matrix: (Units=GPa)
#
#
# Indices 1 2 3 4 5 6 
#
# 1 91.8916 39.3714 29.0250 -3.5745 11.9847 1.9179
# 2 39.3714 91.7029 23.7119 3.8507 6.4136 14.1563
# 3 29.0250 23.7119 83.1349 -5.9911 -3.5788 -1.0638
# 4 -3.5745 3.8507 -5.9911 31.6528 1.6322 -7.7535
# 5 11.9847 6.4136 -3.5788 1.6322 46.5999 -0.5230
# 6 1.9179 14.1563 -1.0638 -7.7535 -0.5230 24.2634
#
#
#
# Elastic Compliance Matrix: (Units=1/GPa)
#
#
# Indices 1 2 3 4 5 6 
#
# 1 0.014964 -0.005835 -0.003481 0.002608 -0.003372 0.002830
# 2 -0.005835 0.016260 -0.003207 -0.005910 -0.000901 -0.011074
# 3 -0.003481 -0.003207 0.014572 0.003610 0.002374 0.003990
# 4 0.002608 -0.005910 0.003610 0.037056 -0.000707 0.015227
# 5 -0.003372 -0.000901 0.002374 -0.000707 0.022671 0.001159
# 6 0.002830 -0.011074 0.003990 0.015227 0.001159 0.052517
#
#
# Mechanical properties :
#
#
# Convention : Reuss Voigt Hill
#
# Bulk Modulus (GPa) = 48.19278 50.10510 49.14894
# Shear Modulus (GPa) = 26.31535 32.14462 29.22999
#
# Velocity S-wave (km/s) = 3.66910 4.05517 3.86695
# Velocity P-wave (km/s) = 6.52716 6.89625 6.71425
#
# Compressibility (1/GPa) = 0.02075000
#
# Stress axis : x y z
#
# Youngs Moduli (GPa) = 66.82598 61.50110 68.62410
#
# Poissons Ratio (x) = 0.35886 0.23890
# Poissons Ratio (y) = 0.38993 0.22007
# Poissons Ratio (z) = 0.23264 0.19723
#
# Static dielectric constant tensor:
#      x y z
#    x 1.724370 -0.007800 -0.004950 
#    y -0.007800 1.655500 -0.001660 
#    z -0.004950 -0.001660 1.767750 
# 
# From -- ./inp_files/495344.got.cif
#   From: 2010.05.17/outbox.cif.g08.bks.cpg/sg2_248_cif.got.tgz:495344.got - 2010.06.03 11:33:40.
