data_PCOD9088100
_publ_section_title
;
Structure prediction by ZEFSAII (Michael W. Deem and Ramdas Pophale) SiO2 
 PCOD9088100
Probable space group: P -1
;
_chemical_formula_sum "Si O2"
_cell_formula_units_Z 16
_cell_length_a 10.746169
_cell_length_b 10.331884
_cell_length_c 10.186994
_cell_angle_alpha 136.629236
_cell_angle_beta 56.079519
_cell_angle_gamma 120.320202
_cell_volume 634.684311
_symmetry_space_group_name_H-M "P -1"
_symmetry_group_IT_number 2
_symmetry_cell_setting 'triclinic'
loop_
_space_group_symop_operation_xyz
x,y,z
-x,-y,-z
loop_
_atom_site_type_symbol
_atom_site_label
_atom_site_fract_x
_atom_site_fract_y
_atom_site_fract_z
Si Si1 0.498396 0.658118 0.723766
Si Si2 0.305214 0.802910 0.139135
Si Si3 0.415839 0.927421 0.744820
Si Si4 0.886215 0.903153 0.261557
Si Si5 0.032770 0.353679 0.760273
Si Si6 0.223473 0.081006 0.164091
Si Si7 0.038198 0.397555 0.220820
Si Si8 0.786787 0.255043 0.474445
O O1 0.500000 0.500000 0.500000
O O2 0.460258 0.823833 0.772652
O O3 0.664981 0.720660 0.733369
O O4 0.373279 0.637208 0.897945
O O5 0.137273 0.747530 0.253693
O O6 0.440033 0.902577 0.227753
O O7 0.272288 0.944338 0.147101
O O8 0.365007 0.777684 0.549623
O O9 0.268402 0.012826 0.944208
O O10 0.875766 0.792816 0.327907
O O11 0.046441 0.050890 0.272350
O O12 0.773694 0.045744 0.395824
O O13 0.900876 0.744507 0.023519
O O14 0.077904 0.488249 0.707972
O O15 0.000000 0.500000 0.000000
O O16 0.173502 0.552949 0.319584
O O17 0.934169 0.287092 0.313838
#
# Coordination Sequence:
#
# PCOD9088100 Si02
#       8
#     2   2   2   2   2   2   2   2
#     4   9  17  28  50  85 112 137 187 244 281 323
#     4   8  16  33  55  75 106 153 186 226 281 337
#     4   9  17  32  51  76 112 144 186 229 283 339
#     4  10  19  37  59  82 113 153 191 229 288 343
#     4   9  19  37  62  81 112 154 191 236 284 338
#     4   8  15  30  50  76 105 143 183 229 279 325
#     4  10  22  36  54  85 117 148 193 236 284 332
#     4  11  22  35  57  90 115 151 189 242 283 345
#
# _framework density 25.209381
#
# number of rings (size 3 to 8) (size 9 to 14) (size 15 to 20)
#    0.000    2.750    1.250    1.875    1.750    2.500 
#    2.250    0.625    8.250    3.000    0.000    0.000 
#    0.000    0.000    0.000    0.000    0.000    0.000 
#
# Total GULP energy -89254.218721 kJ/mol
# GULP energy per Si atom -5578.388670 kJ/mol
# Density = 2.515200 g / cm^3
# Si number density = 25.209381 Si / 1000 Ang^3
#
#
#
# Elastic Constant Matrix: (Units=GPa)
#
#
# Indices 1 2 3 4 5 6 
#
# 1 59.2841 22.1492 13.4565 0.4291 22.2632 -4.8426
# 2 22.1492 62.2869 25.1901 2.8688 -4.7580 -24.1809
# 3 13.4565 25.1901 122.3243 -2.4597 20.8837 10.3095
# 4 0.4291 2.8688 -2.4597 22.6085 8.8548 5.4588
# 5 22.2632 -4.7580 20.8837 8.8548 39.0720 2.5390
# 6 -4.8426 -24.1809 10.3095 5.4588 2.5390 31.1420
#
#
#
# Elastic Compliance Matrix: (Units=1/GPa)
#
#
# Indices 1 2 3 4 5 6 
#
# 1 0.035231 -0.027554 0.009375 0.021219 -0.031942 -0.020135
# 2 -0.027554 0.059204 -0.020972 -0.037152 0.039163 0.051948
# 3 0.009375 -0.020972 0.016974 0.017231 -0.019451 -0.021880
# 4 0.021219 -0.037152 0.017231 0.076222 -0.040414 -0.041318
# 5 -0.031942 0.039163 -0.019451 -0.040414 0.065936 0.033590
# 6 -0.020135 0.051948 -0.021880 -0.041318 0.033590 0.081063
#
#
# Mechanical properties :
#
#
# Convention : Reuss Voigt Hill
#
# Bulk Modulus (GPa) = 30.20429 40.60967 35.40698
# Shear Modulus (GPa) = 11.79337 30.77113 21.28225
#
# Velocity S-wave (km/s) = 2.16525 3.49753 2.90870
# Velocity P-wave (km/s) = 4.27299 5.69686 5.03551
#
# Compressibility (1/GPa) = 0.03310788
#
# Stress axis : x y z
#
# Youngs Moduli (GPa) = 28.38392 16.89071 58.91463
#
# Poissons Ratio (x) = 0.46541 -0.55235
# Poissons Ratio (y) = 0.78209 1.23556
# Poissons Ratio (z) = -0.26611 0.35423
#
# Static dielectric constant tensor:
#      x y z
#    x 2.032700 0.015380 -0.030470 
#    y 0.015380 2.077170 0.039830 
#    z -0.030470 0.039830 2.113640 
# 
# From -- ./inp_files/426891.got.cif
#   From: 2010.05.17/outbox.cif.g08.bks.cpg/sg2_214_cif.got.tgz:426891.got - 2010.06.03 11:33:40.
