data_PCOD9088561
_publ_section_title
;
Structure prediction by ZEFSAII (Michael W. Deem and Ramdas Pophale) SiO2 
 PCOD9088561
Probable space group: P -1
;
_chemical_formula_sum "Si O2"
_cell_formula_units_Z 14
_cell_length_a 12.442049
_cell_length_b 8.698842
_cell_length_c 7.460829
_cell_angle_alpha 67.809562
_cell_angle_beta 122.737815
_cell_angle_gamma 92.465770
_cell_volume 615.297759
_symmetry_space_group_name_H-M "P -1"
_symmetry_group_IT_number 2
_symmetry_cell_setting 'triclinic'
loop_
_space_group_symop_operation_xyz
x,y,z
-x,-y,-z
loop_
_atom_site_type_symbol
_atom_site_label
_atom_site_fract_x
_atom_site_fract_y
_atom_site_fract_z
Si Si1 0.045770 0.138944 0.602058
Si Si2 0.675894 0.762360 0.763621
Si Si3 0.471811 0.703752 0.355587
Si Si4 0.275525 0.278410 0.576685
Si Si5 0.885107 0.365642 0.771625
Si Si6 0.879866 0.463735 0.145162
Si Si7 0.782034 0.066913 0.881494
O O1 0.185711 0.178740 0.648305
O O2 0.939131 0.312449 0.400387
O O3 0.000000 0.000000 0.500000
O O4 0.088602 0.041477 0.865604
O O5 0.529186 0.766880 0.564603
O O6 0.750924 0.750953 0.644663
O O7 0.702973 0.928496 0.805543
O O8 0.738824 0.584938 0.995191
O O9 0.500000 0.500000 0.500000
O O10 0.567698 0.751604 0.266969
O O11 0.324298 0.800832 0.154543
O O12 0.220198 0.476406 0.467220
O O13 0.836420 0.197885 0.746712
O O14 0.022994 0.403779 0.819777
O O15 0.887729 0.383630 0.985800
#
# Coordination Sequence:
#
# PCOD9088561 Si02
#       7
#     2   2   2   2   2   2   2
#     4  11  22  34  57  84 114 142 181 223 273 332
#     4   9  21  35  58  81 110 137 187 230 271 312
#     4  10  19  37  62  79 101 148 196 220 257 325
#     4   8  19  38  56  78 108 147 183 220 267 329
#     4   9  16  31  57  77 101 146 189 214 255 328
#     4   9  17  36  52  75 111 146 178 218 269 331
#     4  12  21  32  57  88 109 139 181 235 272 310
#
# _framework density 22.753212000000001
#
# number of rings (size 3 to 8) (size 9 to 14) (size 15 to 20)
#    0.857    1.429    2.857    1.286    0.000    1.714 
#    0.000    0.000    0.000    0.857    0.000    0.000 
#    0.000    0.000    0.000    0.000    0.000    0.000 
#
# Total GULP energy -77998.432170 kJ/mol
# GULP energy per Si atom -5571.316584 kJ/mol
# Density = 2.270142 g / cm^3
# Si number density = 22.753212 Si / 1000 Ang^3
#
#
#
# Elastic Constant Matrix: (Units=GPa)
#
#
# Indices 1 2 3 4 5 6 
#
# 1 66.2866 0.8446 12.0150 -17.8524 18.9924 5.1081
# 2 0.8446 119.2021 27.5051 -12.5842 -0.4354 15.8716
# 3 12.0150 27.5051 65.0551 -17.3570 16.7509 -2.7440
# 4 -17.8524 -12.5842 -17.3570 36.4720 0.5672 4.9333
# 5 18.9924 -0.4354 16.7509 0.5672 30.0181 -5.5355
# 6 5.1081 15.8716 -2.7440 4.9333 -5.5355 29.4511
#
#
#
# Elastic Compliance Matrix: (Units=1/GPa)
#
#
# Indices 1 2 3 4 5 6 
#
# 1 0.026050 0.002343 0.003747 0.017336 -0.021136 -0.012308
# 2 0.002343 0.010700 -0.004115 0.003873 -0.000448 -0.007289
# 3 0.003747 -0.004115 0.023768 0.012151 -0.016161 -0.001291
# 4 0.017336 0.003873 0.012151 0.045467 -0.021430 -0.015606
# 5 -0.021136 -0.000448 -0.016161 -0.021430 0.059262 0.017130
# 6 -0.012308 -0.007289 -0.001291 -0.015606 0.017130 0.045731
#
#
# Mechanical properties :
#
#
# Convention : Reuss Voigt Hill
#
# Bulk Modulus (GPa) = 15.51180 36.80813 26.15997
# Shear Modulus (GPa) = 21.87996 33.20017 27.54006
#
# Velocity S-wave (km/s) = 3.10436 3.82402 3.48283
# Velocity P-wave (km/s) = 4.43640 5.97576 5.26267
#
# Compressibility (1/GPa) = 0.06446704
#
# Stress axis : x y z
#
# Youngs Moduli (GPa) = 38.38706 93.45918 42.07261
#
# Poissons Ratio (x) = -0.21895 -0.15764
# Poissons Ratio (y) = -0.08993 0.17314
# Poissons Ratio (z) = -0.14383 0.38462
#
# Static dielectric constant tensor:
#      x y z
#    x 1.892020 -0.042470 -0.036740 
#    y -0.042470 1.876160 0.033950 
#    z -0.036740 0.033950 1.913530 
# 
# From -- ./inp_files/224987.got.cif
#   From: 2010.05.17/outbox.cif.g08.bks.cpg/sg2_113_cif.got.tgz:224987.got - 2010.06.03 11:33:40.
