data_PCOD9088128
_publ_section_title
;
Structure prediction by ZEFSAII (Michael W. Deem and Ramdas Pophale) SiO2 
 PCOD9088128
Probable space group: P -1
;
_chemical_formula_sum "Si O2"
_cell_formula_units_Z 16
_cell_length_a 15.022810
_cell_length_b 12.472856
_cell_length_c 13.916080
_cell_angle_alpha 69.765302
_cell_angle_beta 30.960734
_cell_angle_gamma 49.154250
_cell_volume 845.903811
_symmetry_space_group_name_H-M "P -1"
_symmetry_group_IT_number 2
_symmetry_cell_setting 'triclinic'
loop_
_space_group_symop_operation_xyz
x,y,z
-x,-y,-z
loop_
_atom_site_type_symbol
_atom_site_label
_atom_site_fract_x
_atom_site_fract_y
_atom_site_fract_z
Si Si1 0.122950 0.791056 0.428561
Si Si2 0.063353 0.629299 0.986317
Si Si3 0.430513 0.268330 0.656154
Si Si4 0.376983 0.869936 0.274703
Si Si5 0.358869 0.424921 0.351158
Si Si6 0.492707 0.367933 0.034749
Si Si7 0.138468 0.465971 0.162196
Si Si8 0.794061 0.186243 0.179477
O O1 0.232489 0.819908 0.401180
O O2 0.232271 0.611769 0.397516
O O3 0.249536 0.783878 0.216817
O O4 0.818277 0.944126 0.648277
O O5 0.787864 0.710387 0.188165
O O6 0.118365 0.570294 0.064993
O O7 0.275108 0.455958 0.781467
O O8 0.082660 0.755186 0.916629
O O9 0.571711 0.144546 0.655751
O O10 0.633117 0.205361 0.407527
O O11 0.654060 0.726258 0.011613
O O12 0.455391 0.336077 0.184742
O O13 0.590907 0.317419 0.243786
O O14 0.137564 0.452409 0.588885
O O15 0.259867 0.451551 0.153048
O O16 0.500000 0.500000 0.000000
O O17 0.000000 0.000000 0.000000
#
# Coordination Sequence:
#
# PCOD9088128 Si02
#       8
#     2   2   2   2   2   2   2   2
#     4   9  19  36  61  85 116 154 195 248 303 356
#     4  10  21  42  66  89 121 166 205 256 308 367
#     4  10  21  41  66  92 121 163 209 249 308 372
#     4   9  19  37  59  88 116 150 197 255 298 348
#     4  11  21  37  57  86 117 159 200 238 305 369
#     4   9  18  33  55  80 109 154 193 231 287 355
#     4  10  19  37  59  85 120 151 200 247 300 361
#     4  12  26  41  62  93 127 162 206 257 309 365
#
# _framework density 18.914680000000001
#
# number of rings (size 3 to 8) (size 9 to 14) (size 15 to 20)
#    0.000    2.000    1.250    3.750    1.750    1.000 
#    0.000    1.250    0.000    0.000    0.000    0.000 
#    0.000    0.000    0.000    0.000    0.000    0.000 
#
# Total GULP energy -89272.354734 kJ/mol
# GULP energy per Si atom -5579.522171 kJ/mol
# Density = 1.887163 g / cm^3
# Si number density = 18.914680 Si / 1000 Ang^3
#
#
#
# Elastic Constant Matrix: (Units=GPa)
#
#
# Indices 1 2 3 4 5 6 
#
# 1 98.6472 18.7715 26.5230 -10.6020 1.3430 -5.2474
# 2 18.7715 50.3919 34.1352 2.0575 -4.5053 5.5817
# 3 26.5230 34.1352 102.7542 -15.1264 4.2762 3.6969
# 4 -10.6020 2.0575 -15.1264 17.7172 -4.9926 -2.7406
# 5 1.3430 -4.5053 4.2762 -4.9926 22.4076 -4.0523
# 6 -5.2474 5.5817 3.6969 -2.7406 -4.0523 26.0687
#
#
#
# Elastic Compliance Matrix: (Units=1/GPa)
#
#
# Indices 1 2 3 4 5 6 
#
# 1 0.012395 -0.005094 -0.000447 0.008671 0.001106 0.004733
# 2 -0.005094 0.031275 -0.011395 -0.016462 0.003790 -0.007247
# 3 -0.000447 -0.011395 0.015751 0.014179 -0.001873 0.001316
# 4 0.008671 -0.016462 0.014179 0.081840 0.014245 0.014077
# 5 0.001106 0.003790 -0.001873 0.014245 0.050486 0.009022
# 6 0.004733 -0.007247 0.001316 0.014077 0.009022 0.043560
#
#
# Mechanical properties :
#
#
# Convention : Reuss Voigt Hill
#
# Bulk Modulus (GPa) = 39.14111 45.62808 42.38460
# Shear Modulus (GPa) = 18.00535 24.72962 21.36748
#
# Velocity S-wave (km/s) = 3.08867 3.61976 3.36471
# Velocity P-wave (km/s) = 5.78432 6.45335 6.12797
#
# Compressibility (1/GPa) = 0.02554858
#
# Stress axis : x y z
#
# Youngs Moduli (GPa) = 80.67613 31.97481 63.48910
#
# Poissons Ratio (x) = 0.16287 0.02839
# Poissons Ratio (y) = 0.41095 0.72346
# Poissons Ratio (z) = 0.03607 0.36435
#
# Static dielectric constant tensor:
#      x y z
#    x 1.668690 0.001640 0.016680 
#    y 0.001640 1.648410 0.002090 
#    z 0.016680 0.002090 1.666700 
# 
# From -- ./inp_files/273974.got.cif
#   From: 2010.05.17/outbox.cif.g08.bks.cpg/sg2_137_cif.got.tgz:273974.got - 2010.06.03 11:33:40.
