data_PCOD9088024
_publ_section_title
;
Structure prediction by ZEFSAII (Michael W. Deem and Ramdas Pophale) SiO2 
 PCOD9088024
Probable space group: P -1
;
_chemical_formula_sum "Si O2"
_cell_formula_units_Z 12
_cell_length_a 12.993959
_cell_length_b 10.054367
_cell_length_c 12.453954
_cell_angle_alpha 141.565605
_cell_angle_beta 142.589385
_cell_angle_gamma 34.437693
_cell_volume 518.599743
_symmetry_space_group_name_H-M "P -1"
_symmetry_group_IT_number 2
_symmetry_cell_setting 'triclinic'
loop_
_space_group_symop_operation_xyz
x,y,z
-x,-y,-z
loop_
_atom_site_type_symbol
_atom_site_label
_atom_site_fract_x
_atom_site_fract_y
_atom_site_fract_z
Si Si1 0.131956 0.657516 0.389487
Si Si2 0.432047 0.169338 0.410520
Si Si3 0.726179 0.819258 0.037398
Si Si4 0.253962 0.702986 0.300275
Si Si5 0.242587 0.357567 0.600436
Si Si6 0.163133 0.844935 0.770418
O O1 0.253214 0.352696 0.298750
O O2 0.238332 0.735653 0.437739
O O3 0.141264 0.748221 0.573383
O O4 0.906498 0.767157 0.233611
O O5 0.556410 0.308944 0.600194
O O6 0.316611 0.215002 0.456333
O O7 0.601886 0.875932 0.342107
O O8 0.743627 0.987743 0.065984
O O9 0.758163 0.543487 0.877085
O O10 0.500000 0.000000 0.000000
O O11 0.061565 0.951492 0.248363
O O12 0.272946 0.593227 0.773352
O O13 0.000000 0.500000 0.500000
#
# Coordination Sequence:
#
# PCOD9088024 Si02
#       6
#     2   2   2   2   2   2
#     4  10  21  36  57  89 121 145 195 239 288 346
#     4  10  21  35  61  88 113 153 193 241 285 335
#     4  11  22  36  55  85 120 156 185 237 300 350
#     4  11  20  36  59  88 119 152 183 240 300 349
#     4  10  19  37  58  85 115 150 200 239 276 336
#     4  10  20  37  61  87 115 153 195 238 282 345
#
# _framework density 23.139232
#
# number of rings (size 3 to 8) (size 9 to 14) (size 15 to 20)
#    0.000    1.667    1.667    6.500    0.000    1.333 
#    0.000    0.000    0.000   20.000    0.000    0.000 
#    0.000    0.000    0.000    0.000    0.000    0.000 
#
# Total GULP energy -66901.051910 kJ/mol
# GULP energy per Si atom -5575.087659 kJ/mol
# Density = 2.308657 g / cm^3
# Si number density = 23.139232 Si / 1000 Ang^3
#
#
#
# Elastic Constant Matrix: (Units=GPa)
#
#
# Indices 1 2 3 4 5 6 
#
# 1 65.2083 31.8950 29.4840 -11.5985 22.0562 -20.8103
# 2 31.8950 235.6348 37.4990 21.3318 20.6626 2.7059
# 3 29.4840 37.4990 78.8005 29.5390 17.1914 -3.0871
# 4 -11.5985 21.3318 29.5390 40.1089 -3.3603 15.0046
# 5 22.0562 20.6626 17.1914 -3.3603 19.8040 -1.3508
# 6 -20.8103 2.7059 -3.0871 15.0046 -1.3508 48.3888
#
#
#
# Elastic Compliance Matrix: (Units=1/GPa)
#
#
# Indices 1 2 3 4 5 6 
#
# 1 0.035705 -0.002298 -0.012667 0.015488 -0.023114 0.009228
# 2 -0.002298 0.005207 0.001207 -0.004773 -0.004721 0.000145
# 3 -0.012667 0.001207 0.035176 -0.034708 -0.023108 0.006846
# 4 0.015488 -0.004773 -0.034708 0.065381 0.027945 -0.014780
# 5 -0.023114 -0.004721 -0.023108 0.027945 0.104812 -0.016890
# 6 0.009228 0.000145 0.006846 -0.014780 -0.016890 0.029175
#
#
# Mechanical properties :
#
#
# Convention : Reuss Voigt Hill
#
# Bulk Modulus (GPa) = 20.58882 64.15553 42.37218
# Shear Modulus (GPa) = 15.66596 40.37805 28.02200
#
# Velocity S-wave (km/s) = 2.60480 4.18186 3.48374
# Velocity P-wave (km/s) = 4.23837 7.14866 5.87652
#
# Compressibility (1/GPa) = 0.04857004
#
# Stress axis : x y z
#
# Youngs Moduli (GPa) = 28.00729 192.03919 28.42864
#
# Poissons Ratio (x) = 0.44136 0.36011
# Poissons Ratio (y) = 0.06437 -0.03430
# Poissons Ratio (z) = 0.35477 -0.23170
#
# Static dielectric constant tensor:
#      x y z
#    x 1.928630 0.029450 -0.017110 
#    y 0.029450 1.971590 0.029250 
#    z -0.017110 0.029250 1.883300 
# 
# From -- ./inp_files/185493.got.cif
#   From: 2010.05.17/outbox.cif.g08.bks.cpg/sg2_93_cif.got.tgz:185493.got - 2010.06.03 11:33:40.
