data_PCOD9088195
_publ_section_title
;
Structure prediction by ZEFSAII (Michael W. Deem and Ramdas Pophale) SiO2 
 PCOD9088195
Probable space group: P -1
;
_chemical_formula_sum "Si O2"
_cell_formula_units_Z 14
_cell_length_a 12.604281
_cell_length_b 9.593686
_cell_length_c 7.383290
_cell_angle_alpha 50.713166
_cell_angle_beta 129.243036
_cell_angle_gamma 114.209136
_cell_volume 535.101645
_symmetry_space_group_name_H-M "P -1"
_symmetry_group_IT_number 2
_symmetry_cell_setting 'triclinic'
loop_
_space_group_symop_operation_xyz
x,y,z
-x,-y,-z
loop_
_atom_site_type_symbol
_atom_site_label
_atom_site_fract_x
_atom_site_fract_y
_atom_site_fract_z
Si Si1 0.570205 0.928335 0.817086
Si Si2 0.894540 0.588264 0.582087
Si Si3 0.666590 0.307478 0.666760
Si Si4 0.978876 0.063582 0.633448
Si Si5 0.625790 0.621146 0.887030
Si Si6 0.682930 0.241925 0.150571
Si Si7 0.896216 0.694522 0.921697
O O1 0.624338 0.733812 0.978741
O O2 0.447328 0.892457 0.855016
O O3 0.500000 0.000000 0.500000
O O4 0.676063 0.088978 0.843929
O O5 0.777943 0.434206 0.586343
O O6 0.895324 0.654581 0.738331
O O7 0.914375 0.775062 0.342237
O O8 0.030660 0.477456 0.775697
O O9 0.517532 0.357885 0.389859
O O10 0.680549 0.333152 0.875636
O O11 0.825141 0.142432 0.415512
O O12 0.980648 0.878025 0.897004
O O13 0.000000 0.000000 0.500000
O O14 0.744579 0.709012 0.820838
O O15 0.658019 0.411096 0.115790
#
# Coordination Sequence:
#
# PCOD9088195 Si02
#       7
#     2   2   2   2   2   2   2
#     4  10  24  41  60  89 130 173 207 255 323 385
#     4  10  19  37  59  94 127 160 208 266 311 363
#     4  11  22  39  63  97 129 157 214 274 304 367
#     4  10  20  34  62  94 125 165 207 259 320 370
#     4  11  22  41  65  92 131 172 204 259 324 381
#     4  12  21  40  67  95 123 164 224 261 308 373
#     4  10  19  37  62  88 127 165 210 255 315 375
#
# _framework density 26.163254999999999
#
# number of rings (size 3 to 8) (size 9 to 14) (size 15 to 20)
#    0.000    1.429    2.857    4.714    0.000    0.000 
#    5.143    0.714    0.000    6.000    0.000    0.000 
#    0.000    0.000    0.000    0.000    0.000    0.000 
#
# Total GULP energy -78390.931523 kJ/mol
# GULP energy per Si atom -5599.352252 kJ/mol
# Density = 2.610371 g / cm^3
# Si number density = 26.163255 Si / 1000 Ang^3
#
#
#
# Elastic Constant Matrix: (Units=GPa)
#
#
# Indices 1 2 3 4 5 6 
#
# 1 110.2730 58.0792 32.7779 -18.4485 21.8933 30.0703
# 2 58.0792 159.5290 40.0233 -38.4387 2.0211 26.3904
# 3 32.7779 40.0233 69.5392 -20.5438 4.3740 7.3996
# 4 -18.4485 -38.4387 -20.5438 53.1625 1.2403 -10.0558
# 5 21.8933 2.0211 4.3740 1.2403 42.5663 -9.4715
# 6 30.0703 26.3904 7.3996 -10.0558 -9.4715 56.8978
#
#
#
# Elastic Compliance Matrix: (Units=1/GPa)
#
#
# Indices 1 2 3 4 5 6 
#
# 1 0.016186 -0.003328 -0.004173 0.000307 -0.009527 -0.008000
# 2 -0.003328 0.009353 -0.002449 0.004390 0.001101 -0.001302
# 3 -0.004173 -0.002449 0.018824 0.004376 0.000593 0.001765
# 4 0.000307 0.004390 0.004376 0.024052 -0.001233 0.001278
# 5 -0.009527 0.001101 0.000593 -0.001233 0.030382 0.009287
# 6 -0.008000 -0.001302 0.001765 0.001278 0.009287 0.023949
#
#
# Mechanical properties :
#
#
# Convention : Reuss Voigt Hill
#
# Bulk Modulus (GPa) = 40.87458 66.78909 53.83184
# Shear Modulus (GPa) = 33.15649 44.42272 38.78960
#
# Velocity S-wave (km/s) = 3.56377 4.12503 3.85463
# Velocity P-wave (km/s) = 5.70883 6.94774 6.35853
#
# Compressibility (1/GPa) = 0.02446508
#
# Stress axis : x y z
#
# Youngs Moduli (GPa) = 61.78318 106.91206 53.12325
#
# Poissons Ratio (x) = 0.35577 0.22167
# Poissons Ratio (y) = 0.20559 0.13008
# Poissons Ratio (z) = 0.25780 0.26180
#
# Static dielectric constant tensor:
#      x y z
#    x 2.044530 -0.015770 0.032000 
#    y -0.015770 2.147930 -0.004540 
#    z 0.032000 -0.004540 2.028330 
# 
# From -- ./inp_files/242279.got.cif
#   From: 2010.05.17/outbox.cif.g08.bks.cpg/sg2_122_cif.got.tgz:242279.got - 2010.06.03 11:33:40.
