data_PCOD9088368
_publ_section_title
;
Structure prediction by ZEFSAII (Michael W. Deem and Ramdas Pophale) SiO2 
 PCOD9088368
Probable space group: P -1
;
_chemical_formula_sum "Si O2"
_cell_formula_units_Z 12
_cell_length_a 13.955226
_cell_length_b 17.054371
_cell_length_c 9.302073
_cell_angle_alpha 58.560565
_cell_angle_beta 136.155408
_cell_angle_gamma 158.240407
_cell_volume 464.225555
_symmetry_space_group_name_H-M "P -1"
_symmetry_group_IT_number 2
_symmetry_cell_setting 'triclinic'
loop_
_space_group_symop_operation_xyz
x,y,z
-x,-y,-z
loop_
_atom_site_type_symbol
_atom_site_label
_atom_site_fract_x
_atom_site_fract_y
_atom_site_fract_z
Si Si1 0.178291 0.879084 0.725171
Si Si2 0.591900 0.684526 0.029493
Si Si3 0.238531 0.631670 0.989033
Si Si4 0.536077 0.867706 0.813659
Si Si5 0.861199 0.125998 0.649527
Si Si6 0.746860 0.572524 0.815918
O O1 0.212369 0.898986 0.571692
O O2 0.782356 0.609922 0.645756
O O3 0.336146 0.072996 0.777393
O O4 0.500000 0.000000 0.000000
O O5 0.926881 0.842081 0.152000
O O6 0.602013 0.642220 0.239412
O O7 0.618094 0.809842 0.946985
O O8 0.183707 0.398189 0.793465
O O9 0.166783 0.481730 0.022535
O O10 0.199309 0.663677 0.766347
O O11 0.000000 0.500000 0.000000
O O12 0.505575 0.893792 0.598373
O O13 0.912016 0.153341 0.011327
#
# Coordination Sequence:
#
# PCOD9088368 Si02
#       6
#     2   2   2   2   2   2
#     4  11  22  37  59  84 119 154 194 242 283 340
#     4   9  19  39  62  85 117 151 191 237 292 348
#     4  10  19  37  61  78 115 160 192 237 284 343
#     4   9  19  36  60  86 115 150 192 241 289 342
#     4  10  21  37  60  89 117 151 193 239 289 341
#     4   9  19  37  59  85 115 150 195 236 287 342
#
# _framework density 25.849505000000001
#
# number of rings (size 3 to 8) (size 9 to 14) (size 15 to 20)
#    0.000    2.333    1.667    0.500    0.000    2.000 
#    0.000   15.833    0.000    0.000    0.000    0.000 
#    0.000    0.000    0.000    0.000    0.000    0.000 
#
# Total GULP energy -66955.663806 kJ/mol
# GULP energy per Si atom -5579.638651 kJ/mol
# Density = 2.579067 g / cm^3
# Si number density = 25.849505 Si / 1000 Ang^3
#
#
#
# Elastic Constant Matrix: (Units=GPa)
#
#
# Indices 1 2 3 4 5 6 
#
# 1 121.3905 65.0421 31.6274 -19.9802 -23.3361 1.3339
# 2 65.0421 161.5293 55.6019 -42.3682 -31.5070 15.2534
# 3 31.6274 55.6019 105.8698 -30.5517 -43.2453 7.9171
# 4 -19.9802 -42.3682 -30.5517 47.0550 16.1236 -22.0608
# 5 -23.3361 -31.5070 -43.2453 16.1236 36.7701 -15.5828
# 6 1.3339 15.2534 7.9171 -22.0608 -15.5828 92.0844
#
#
#
# Elastic Compliance Matrix: (Units=1/GPa)
#
#
# Indices 1 2 3 4 5 6 
#
# 1 0.011096 -0.003665 0.000855 0.000890 0.005134 0.001455
# 2 -0.003665 0.010170 -0.001859 0.005919 0.001706 0.000235
# 3 0.000855 -0.001859 0.020796 0.006352 0.022229 0.003791
# 4 0.000890 0.005919 0.006352 0.033871 0.001122 0.006765
# 5 0.005134 0.001706 0.022229 0.001122 0.061103 0.008341
# 6 0.001455 0.000235 0.003791 0.006765 0.008341 0.013506
#
#
# Mechanical properties :
#
#
# Convention : Reuss Voigt Hill
#
# Bulk Modulus (GPa) = 30.55818 77.03694 53.79756
# Shear Modulus (GPa) = 29.27634 50.94977 40.11305
#
# Velocity S-wave (km/s) = 3.36902 4.44443 3.94355
# Velocity P-wave (km/s) = 5.19432 7.49694 6.44922
#
# Compressibility (1/GPa) = 0.03272446
#
# Stress axis : x y z
#
# Youngs Moduli (GPa) = 90.12083 98.33287 48.08589
#
# Poissons Ratio (x) = 0.36039 -0.04111
# Poissons Ratio (y) = 0.33029 0.08937
# Poissons Ratio (z) = -0.07704 0.18276
#
# Static dielectric constant tensor:
#      x y z
#    x 2.153640 0.109240 0.051420 
#    y 0.109240 2.022420 -0.016850 
#    z 0.051420 -0.016850 2.151320 
# 
# From -- ./inp_files/34613.got.cif
#   From: 2010.05.17/outbox.cif.g08.bks.cpg/sg2_18_cif.got.tgz:34613.got - 2010.06.03 11:33:40.
