data_PCOD9088742
_publ_section_title
;
Structure prediction by ZEFSAII (Michael W. Deem and Ramdas Pophale) SiO2 
 PCOD9088742
Probable space group: P -1
;
_chemical_formula_sum "Si O2"
_cell_formula_units_Z 16
_cell_length_a 9.362333
_cell_length_b 10.125355
_cell_length_c 12.335929
_cell_angle_alpha 126.811105
_cell_angle_beta 127.463599
_cell_angle_gamma 72.451576
_cell_volume 739.481731
_symmetry_space_group_name_H-M "P -1"
_symmetry_group_IT_number 2
_symmetry_cell_setting 'triclinic'
loop_
_space_group_symop_operation_xyz
x,y,z
-x,-y,-z
loop_
_atom_site_type_symbol
_atom_site_label
_atom_site_fract_x
_atom_site_fract_y
_atom_site_fract_z
Si Si1 0.323266 0.363352 0.466105
Si Si2 0.005350 0.790459 0.319505
Si Si3 0.142530 0.832440 0.078200
Si Si4 0.819294 0.635863 0.961258
Si Si5 0.343119 0.743885 0.318177
Si Si6 0.522704 0.723126 0.734823
Si Si7 0.813422 0.115829 0.349209
Si Si8 0.960659 0.169560 0.207821
O O1 0.455613 0.256535 0.544284
O O2 0.388454 0.556055 0.608378
O O3 0.360337 0.316949 0.335551
O O4 0.114630 0.319225 0.370289
O O5 0.199479 0.832286 0.368601
O O6 0.064918 0.757037 0.452674
O O7 0.883848 0.942709 0.330420
O O8 0.892142 0.654666 0.126245
O O9 0.320179 0.808875 0.218310
O O10 0.071882 0.010308 0.158031
O O11 0.986137 0.702366 0.994292
O O12 0.152124 0.809579 0.943130
O O13 0.737678 0.449678 0.808464
O O14 0.658952 0.747482 0.910172
O O15 0.396726 0.865488 0.720843
O O16 0.850394 0.142782 0.253238
#
# Coordination Sequence:
#
# PCOD9088742 Si02
#       8
#     2   2   2   2   2   2   2   2
#     4  10  21  37  58  85 113 152 199 235 277 339
#     4  10  20  36  56  87 117 150 192 231 292 342
#     4  10  20  36  56  87 117 150 192 231 292 342
#     4  10  19  37  63  84 108 151 204 242 267 330
#     4  10  19  37  63  84 108 151 204 242 267 330
#     4  10  21  37  58  85 113 152 199 235 277 339
#     4  11  22  37  57  85 124 151 183 238 295 347
#     4  11  22  37  57  85 124 151 183 238 295 347
#
# _framework density 21.636773000000002
#
# number of rings (size 3 to 8) (size 9 to 14) (size 15 to 20)
#    0.000    1.750    5.000    1.500    0.000    2.500 
#    0.000    1.250    0.000    3.000    0.000    0.000 
#    0.000    0.000    0.000    0.000    0.000    0.000 
#
# Total GULP energy -89327.110012 kJ/mol
# GULP energy per Si atom -5582.944376 kJ/mol
# Density = 2.158753 g / cm^3
# Si number density = 21.636773 Si / 1000 Ang^3
#
#
#
# Elastic Constant Matrix: (Units=GPa)
#
#
# Indices 1 2 3 4 5 6 
#
# 1 10.3787 -0.9116 8.0277 1.9176 -5.6774 -1.4061
# 2 -0.9116 74.1618 16.9468 -24.8078 -1.6661 -12.8910
# 3 8.0277 16.9468 92.0637 -30.4729 -13.1612 4.4770
# 4 1.9176 -24.8078 -30.4729 32.8160 6.9088 1.8943
# 5 -5.6774 -1.6661 -13.1612 6.9088 18.3543 -6.5729
# 6 -1.4061 -12.8910 4.4770 1.8943 -6.5729 32.3123
#
#
#
# Elastic Compliance Matrix: (Units=1/GPa)
#
#
# Indices 1 2 3 4 5 6 
#
# 1 0.154010 -0.002711 -0.020097 -0.043075 0.057282 0.022582
# 2 -0.002711 0.019635 0.001482 0.016440 -0.001982 0.006143
# 3 -0.020097 0.001482 0.019171 0.020726 -0.001752 -0.004511
# 4 -0.043075 0.016440 0.020726 0.070648 -0.026313 -0.007681
# 5 0.057282 -0.001982 -0.001752 -0.026313 0.088355 0.021460
# 6 0.022582 0.006143 -0.004511 -0.007681 0.021460 0.039822
#
#
# Mechanical properties :
#
#
# Convention : Reuss Voigt Hill
#
# Bulk Modulus (GPa) = 6.65943 24.96999 15.81471
# Shear Modulus (GPa) = 10.32315 26.86594 18.59454
#
# Velocity S-wave (km/s) = 2.18666 3.52757 2.93472
# Velocity P-wave (km/s) = 3.07568 5.30634 4.33688
#
# Compressibility (1/GPa) = 0.15016291
#
# Stress axis : x y z
#
# Youngs Moduli (GPa) = 6.49307 50.92985 52.16277
#
# Poissons Ratio (x) = 0.13808 1.04832
# Poissons Ratio (y) = 0.01760 -0.07729
# Poissons Ratio (z) = 0.13049 -0.07546
#
# Static dielectric constant tensor:
#      x y z
#    x 1.764030 -0.004340 -0.003590 
#    y -0.004340 1.836420 0.019270 
#    z -0.003590 0.019270 1.845610 
# 
# From -- ./inp_files/393192.got.cif
#   From: 2010.05.17/outbox.cif.g08.bks.cpg/sg2_197_cif.got.tgz:393192.got - 2010.06.03 11:33:40.
