data_PCOD9088463
_publ_section_title
;
Structure prediction by ZEFSAII (Michael W. Deem and Ramdas Pophale) SiO2 
 PCOD9088463
Probable space group: P -1
;
_chemical_formula_sum "Si O2"
_cell_formula_units_Z 16
_cell_length_a 17.959336
_cell_length_b 13.798606
_cell_length_c 13.626163
_cell_angle_alpha 49.047821
_cell_angle_beta 21.441127
_cell_angle_gamma 37.007013
_cell_volume 681.157352
_symmetry_space_group_name_H-M "P -1"
_symmetry_group_IT_number 2
_symmetry_cell_setting 'triclinic'
loop_
_space_group_symop_operation_xyz
x,y,z
-x,-y,-z
loop_
_atom_site_type_symbol
_atom_site_label
_atom_site_fract_x
_atom_site_fract_y
_atom_site_fract_z
Si Si1 0.265926 0.293716 0.419078
Si Si2 0.748819 0.413556 0.467720
Si Si3 0.300005 0.060738 0.796068
Si Si4 0.780094 0.403330 0.660671
Si Si5 0.162123 0.670443 0.953276
Si Si6 0.461991 0.722299 0.290397
Si Si7 0.637520 0.832838 0.826093
Si Si8 0.653977 0.807196 0.155675
O O1 0.577087 0.120242 0.186205
O O2 0.182035 0.459714 0.465290
O O3 0.279803 0.291885 0.285697
O O4 0.047145 0.278849 0.734835
O O5 0.734526 0.381527 0.619800
O O6 0.771936 0.275487 0.463316
O O7 0.453124 0.605397 0.676758
O O8 0.029516 0.370289 0.137007
O O9 0.500000 0.000000 0.500000
O O10 0.352328 0.150199 0.751970
O O11 0.002221 0.188900 0.024452
O O12 0.072678 0.223519 0.460672
O O13 0.500000 0.500000 0.000000
O O14 0.275380 0.487706 0.891752
O O15 0.452235 0.792822 0.360708
O O16 0.519687 0.802920 0.081643
O O17 0.419710 0.030121 0.921527
#
# Coordination Sequence:
#
# PCOD9088463 Si02
#       8
#     2   2   2   2   2   2   2   2
#     4  10  19  37  61  88 121 160 202 245 302 348
#     4  10  22  37  59  91 119 157 203 247 288 366
#     4   9  21  40  67  85 114 160 200 255 298 354
#     4  12  21  35  58  91 126 163 199 239 301 357
#     4   9  19  39  60  86 121 152 206 246 297 345
#     4  10  21  38  58  88 124 157 196 244 296 363
#     4  11  21  36  59  87 127 159 196 249 291 364
#     4  11  22  40  61  88 120 159 201 243 308 351
#
# _framework density 23.489432000000001
#
# number of rings (size 3 to 8) (size 9 to 14) (size 15 to 20)
#    0.750    1.000    2.500    2.250    0.000    1.500 
#    4.500    0.625    0.000    0.000    0.000    0.000 
#    0.000    0.000    0.000    0.000    0.000    0.000 
#
# Total GULP energy -89301.233829 kJ/mol
# GULP energy per Si atom -5581.327114 kJ/mol
# Density = 2.343597 g / cm^3
# Si number density = 23.489432 Si / 1000 Ang^3
#
#
#
# Elastic Constant Matrix: (Units=GPa)
#
#
# Indices 1 2 3 4 5 6 
#
# 1 142.0543 7.7038 59.8558 7.1098 -11.1190 -14.8376
# 2 7.7038 27.0203 38.8103 16.1412 -19.3522 -19.2611
# 3 59.8558 38.8103 50.2412 -3.6262 -3.2038 -11.7984
# 4 7.1098 16.1412 -3.6262 25.4401 -5.1874 -8.8442
# 5 -11.1190 -19.3522 -3.2038 -5.1874 37.5689 9.4960
# 6 -14.8376 -19.2611 -11.7984 -8.8442 9.4960 36.3821
#
#
#
# Elastic Compliance Matrix: (Units=1/GPa)
#
#
# Indices 1 2 3 4 5 6 
#
# 1 0.005762 -0.012921 0.003048 0.005897 -0.003590 -0.001132
# 2 -0.012921 -0.017009 0.029697 0.017596 -0.008063 0.001738
# 3 0.003048 0.029697 -0.004978 -0.015036 0.011501 0.008694
# 4 0.005897 0.017596 -0.015036 0.030541 0.010853 0.011436
# 5 -0.003590 -0.008063 0.011501 0.010853 0.025396 -0.005993
# 6 -0.001132 0.001738 0.008694 0.011436 -0.005993 0.035108
#
#
# Mechanical properties :
#
#
# Convention : Reuss Voigt Hill
#
# Bulk Modulus (GPa) = 42.69416 48.00619 45.35017
# Shear Modulus (GPa) = 116.33345 27.40795 71.87070
#
# Velocity S-wave (km/s) = 7.04510 3.41958 5.53746
# Velocity P-wave (km/s) = 9.18658 6.00609 7.76100
#
# Compressibility (1/GPa) = 0.02342241
#
# Stress axis : x y z
#
# Youngs Moduli (GPa) = 173.55822 -58.79085 -200.90228
#
# Poissons Ratio (x) = -0.75963 0.61228
# Poissons Ratio (y) = 2.24254 5.96622
# Poissons Ratio (z) = -0.52895 1.74592
#
# Static dielectric constant tensor:
#      x y z
#    x 1.882440 -0.020260 -0.026550 
#    y -0.020260 1.962310 0.016650 
#    z -0.026550 0.016650 1.893800 
# 
# From -- ./inp_files/454709.got.cif
#   From: 2010.05.17/outbox.cif.g08.bks.cpg/sg2_228_cif.got.tgz:454709.got - 2010.06.03 11:33:40.
