data_PCOD9088071
_publ_section_title
;
Structure prediction by ZEFSAII (Michael W. Deem and Ramdas Pophale) SiO2 
 PCOD9088071
Probable space group: P -1
;
_chemical_formula_sum "Si O2"
_cell_formula_units_Z 14
_cell_length_a 7.913766
_cell_length_b 13.261882
_cell_length_c 10.220664
_cell_angle_alpha 32.168944
_cell_angle_beta 109.501796
_cell_angle_gamma 109.139657
_cell_volume 536.150012
_symmetry_space_group_name_H-M "P -1"
_symmetry_group_IT_number 2
_symmetry_cell_setting 'triclinic'
loop_
_space_group_symop_operation_xyz
x,y,z
-x,-y,-z
loop_
_atom_site_type_symbol
_atom_site_label
_atom_site_fract_x
_atom_site_fract_y
_atom_site_fract_z
Si Si1 0.367978 0.214372 0.104379
Si Si2 0.105408 0.434623 0.945652
Si Si3 0.407630 0.249620 0.362958
Si Si4 0.217013 0.798476 0.437012
Si Si5 0.485997 0.285783 0.776529
Si Si6 0.200808 0.953582 0.990854
Si Si7 0.870345 0.080400 0.271062
O O1 0.472345 0.238324 0.241604
O O2 0.290943 0.998058 0.300235
O O3 0.200303 0.337347 0.953828
O O4 0.480959 0.283460 0.933918
O O5 0.106270 0.651953 0.665390
O O6 0.244262 0.385547 0.152490
O O7 0.916808 0.307110 0.051244
O O8 0.590748 0.293170 0.441987
O O9 0.315647 0.045513 0.608923
O O10 0.128447 0.850749 0.218377
O O11 0.500000 0.500000 0.500000
O O12 0.649002 0.178556 0.879775
O O13 0.305180 0.156544 0.829727
O O14 0.086047 0.970610 0.811854
O O15 0.000000 0.000000 0.500000
#
# Coordination Sequence:
#
# PCOD9088071 Si02
#       7
#     2   2   2   2   2   2   2
#     4   9  20  32  55  84 110 147 182 235 289 327
#     4   9  21  35  57  81 112 155 188 226 286 334
#     4   9  19  35  60  79 115 150 184 238 288 331
#     4  11  19  37  57  88 111 139 198 241 281 338
#     4  10  19  37  58  92 118 143 191 244 288 340
#     4  10  22  35  61  82 115 159 188 234 297 334
#     4  10  20  41  60  78 118 163 191 232 286 346
#
# _framework density 26.112093999999999
#
# number of rings (size 3 to 8) (size 9 to 14) (size 15 to 20)
#    0.857    1.429    0.000    4.286    0.000    0.571 
#    2.571    5.000    0.000    0.000    0.000    0.000 
#    0.000    0.000    0.000    0.000    0.000    0.000 
#
# Total GULP energy -78254.281024 kJ/mol
# GULP energy per Si atom -5589.591502 kJ/mol
# Density = 2.605266 g / cm^3
# Si number density = 26.112094 Si / 1000 Ang^3
#
#
#
# Elastic Constant Matrix: (Units=GPa)
#
#
# Indices 1 2 3 4 5 6 
#
# 1 64.6639 29.8063 44.6018 -5.1851 -17.0823 7.2334
# 2 29.8063 87.4228 60.5801 28.2855 0.5705 -3.3406
# 3 44.6018 60.5801 227.6838 -11.5201 -25.7139 5.3276
# 4 -5.1851 28.2855 -11.5201 57.3472 -0.7561 -5.4292
# 5 -17.0823 0.5705 -25.7139 -0.7561 34.8266 -5.9054
# 6 7.2334 -3.3406 5.3276 -5.4292 -5.9054 43.3790
#
#
#
# Elastic Compliance Matrix: (Units=1/GPa)
#
#
# Indices 1 2 3 4 5 6 
#
# 1 0.024581 -0.010870 -0.000146 0.007488 0.011889 -0.002362
# 2 -0.010870 0.024153 -0.006219 -0.014164 -0.010415 0.001246
# 3 -0.000146 -0.006219 0.006893 0.004505 0.005212 -0.000028
# 4 0.007488 -0.014164 0.004505 0.026253 0.008053 0.001489
# 5 0.011889 -0.010415 0.005212 0.008053 0.039235 0.002924
# 6 -0.002362 0.001246 -0.000028 0.001489 0.002924 0.024130
#
#
# Mechanical properties :
#
#
# Convention : Reuss Voigt Hill
#
# Bulk Modulus (GPa) = 47.26791 72.19411 59.73101
# Shear Modulus (GPa) = 26.77121 43.42940 35.10031
#
# Velocity S-wave (km/s) = 3.20541 4.08265 3.67033
# Velocity P-wave (km/s) = 5.64276 7.06624 6.39424
#
# Compressibility (1/GPa) = 0.02115600
#
# Stress axis : x y z
#
# Youngs Moduli (GPa) = 40.68138 41.40330 145.08140
#
# Poissons Ratio (x) = 0.45005 0.02123
# Poissons Ratio (y) = 0.44220 0.90227
# Poissons Ratio (z) = 0.00595 0.25749
#
# Static dielectric constant tensor:
#      x y z
#    x 2.161500 0.019210 0.084000 
#    y 0.019210 2.035860 0.023670 
#    z 0.084000 0.023670 2.049900 
# 
# From -- ./inp_files/429439.got.cif
#   From: 2010.05.17/outbox.cif.g08.bks.cpg/sg2_215_cif.got.tgz:429439.got - 2010.06.03 11:33:40.
