data_PCOD9088448
_publ_section_title
;
Structure prediction by ZEFSAII (Michael W. Deem and Ramdas Pophale) SiO2 
 PCOD9088448
Probable space group: P -1
;
_chemical_formula_sum "Si O2"
_cell_formula_units_Z 12
_cell_length_a 8.325691
_cell_length_b 11.492160
_cell_length_c 9.254665
_cell_angle_alpha 109.276105
_cell_angle_beta 102.014547
_cell_angle_gamma 129.020339
_cell_volume 534.800389
_symmetry_space_group_name_H-M "P -1"
_symmetry_group_IT_number 2
_symmetry_cell_setting 'triclinic'
loop_
_space_group_symop_operation_xyz
x,y,z
-x,-y,-z
loop_
_atom_site_type_symbol
_atom_site_label
_atom_site_fract_x
_atom_site_fract_y
_atom_site_fract_z
Si Si1 0.006906 0.813076 0.459733
Si Si2 0.016547 0.540276 0.352282
Si Si3 0.415070 0.798594 0.318289
Si Si4 0.788762 0.017987 0.136163
Si Si5 0.607928 0.694337 0.129852
Si Si6 0.744282 0.175294 0.965092
O O1 0.915251 0.620835 0.345459
O O2 0.005072 0.842487 0.643521
O O3 0.839913 0.805472 0.327132
O O4 0.298996 0.993171 0.542155
O O5 0.300448 0.708653 0.415302
O O6 0.000000 0.500000 0.500000
O O7 0.880348 0.359659 0.157469
O O8 0.418490 0.674935 0.174354
O O9 0.237125 0.788964 0.187145
O O10 0.696533 0.825973 0.063138
O O11 0.553669 0.970638 0.124437
O O12 0.835207 0.097877 0.018440
O O13 0.500000 0.500000 0.000000
#
# Coordination Sequence:
#
# PCOD9088448 Si02
#       6
#     2   2   2   2   2   2
#     4  10  19  37  61  87 121 154 195 243 305 355
#     4  12  22  36  60  93 120 155 202 250 290 346
#     4  10  22  38  61  89 121 159 199 241 296 356
#     4   9  17  33  57  86 116 155 192 240 295 348
#     4  10  20  37  63  88 120 160 196 243 303 357
#     4   9  18  34  56  85 120 150 195 242 292 343
#
# _framework density 22.438276999999999
#
# number of rings (size 3 to 8) (size 9 to 14) (size 15 to 20)
#    0.000    2.333    1.667    5.000    0.000    0.000 
#    0.000    0.833    0.000    2.000    0.000    1.167 
#    0.000    0.000    0.000    0.000    0.000    0.000 
#
# Total GULP energy -66983.269488 kJ/mol
# GULP energy per Si atom -5581.939124 kJ/mol
# Density = 2.238721 g / cm^3
# Si number density = 22.438277 Si / 1000 Ang^3
#
#
#
# Elastic Constant Matrix: (Units=GPa)
#
#
# Indices 1 2 3 4 5 6 
#
# 1 44.0852 52.3787 30.3918 -13.9481 4.2821 -28.8454
# 2 52.3787 135.6827 57.9254 -28.1294 1.0481 -34.3232
# 3 30.3918 57.9254 105.5462 -11.2643 9.4223 -13.6835
# 4 -13.9481 -28.1294 -11.2643 40.9335 -14.2574 -5.4133
# 5 4.2821 1.0481 9.4223 -14.2574 39.8214 1.3867
# 6 -28.8454 -34.3232 -13.6835 -5.4133 1.3867 45.5717
#
#
#
# Elastic Compliance Matrix: (Units=1/GPa)
#
#
# Indices 1 2 3 4 5 6 
#
# 1 0.071187 -0.010740 -0.007724 0.019722 0.000229 0.036987
# 2 -0.010740 0.016740 -0.004901 0.008887 0.004873 0.005246
# 3 -0.007724 -0.004901 0.013635 -0.004139 -0.003579 -0.004869
# 4 0.019722 0.008887 -0.004139 0.043836 0.013528 0.022729
# 5 0.000229 0.004873 -0.003579 0.013528 0.030530 0.003418
# 6 0.036987 0.005246 -0.004869 0.022729 0.003418 0.050440
#
#
# Mechanical properties :
#
#
# Convention : Reuss Voigt Hill
#
# Bulk Modulus (GPa) = 18.23776 62.96733 40.60255
# Shear Modulus (GPa) = 17.15987 34.90653 26.03320
#
# Velocity S-wave (km/s) = 2.76843 3.94848 3.40989
# Velocity P-wave (km/s) = 4.28539 6.99362 5.79979
#
# Compressibility (1/GPa) = 0.05483128
#
# Stress axis : x y z
#
# Youngs Moduli (GPa) = 14.04745 59.73573 73.33961
#
# Poissons Ratio (x) = 0.64156 0.56651
# Poissons Ratio (y) = 0.15087 0.35946
# Poissons Ratio (z) = 0.10851 0.29278
#
# Static dielectric constant tensor:
#      x y z
#    x 1.859480 -0.007550 -0.025830 
#    y -0.007550 1.900190 -0.007380 
#    z -0.025830 -0.007380 1.869250 
# 
# From -- ./inp_files/168070.got.cif
#   From: 2010.05.17/outbox.cif.g08.bks.cpg/sg2_85_cif.got.tgz:168070.got - 2010.06.03 11:33:40.
