data_PCOD9088305
_publ_section_title
;
Structure prediction by ZEFSAII (Michael W. Deem and Ramdas Pophale) SiO2 
 PCOD9088305
Probable space group: P -1
;
_chemical_formula_sum "Si O2"
_cell_formula_units_Z 16
_cell_length_a 14.033679
_cell_length_b 8.627912
_cell_length_c 14.914460
_cell_angle_alpha 118.166362
_cell_angle_beta 145.906765
_cell_angle_gamma 81.538789
_cell_volume 776.260196
_symmetry_space_group_name_H-M "P -1"
_symmetry_group_IT_number 2
_symmetry_cell_setting 'triclinic'
loop_
_space_group_symop_operation_xyz
x,y,z
-x,-y,-z
loop_
_atom_site_type_symbol
_atom_site_label
_atom_site_fract_x
_atom_site_fract_y
_atom_site_fract_z
Si Si1 0.905139 0.077474 0.023707
Si Si2 0.544750 0.897939 0.588060
Si Si3 0.508955 0.671535 0.869910
Si Si4 0.306351 0.289439 0.481463
Si Si5 0.921816 0.805841 0.320305
Si Si6 0.714137 0.041583 0.481416
Si Si7 0.175575 0.554495 0.718726
Si Si8 0.616245 0.017360 0.920205
O O1 0.093763 0.246220 0.269280
O O2 0.748157 0.946795 0.944654
O O3 0.738136 0.084429 0.835154
O O4 0.000000 0.000000 0.000000
O O5 0.591960 0.736043 0.535997
O O6 0.357922 0.818726 0.485111
O O7 0.500000 0.000000 0.500000
O O8 0.436753 0.496148 0.691251
O O9 0.358574 0.583490 0.810489
O O10 0.505593 0.856908 0.867744
O O11 0.724168 0.754861 0.100222
O O12 0.278272 0.113844 0.483156
O O13 0.880327 0.616165 0.297482
O O14 0.086494 0.849183 0.386874
O O15 0.000000 0.000000 0.500000
O O16 0.539160 0.944564 0.245971
O O17 0.000000 0.500000 0.500000
O O18 0.232479 0.767658 0.864523
#
# Coordination Sequence:
#
# PCOD9088305 Si02
#       8
#     2   2   2   2   2   2   2   2
#     4   9  18  35  60  86 116 153 191 234 285 339
#     4   8  17  34  60  88 118 154 190 232 286 342
#     4  12  24  39  59  86 117 152 195 242 286 341
#     4  10  19  37  60  88 117 153 192 236 287 341
#     4  12  24  40  60  86 115 152 194 240 290 345
#     4  10  20  38  60  84 116 152 191 235 286 344
#     4  12  24  40  60  84 113 151 192 239 293 346
#     4  11  22  39  58  84 116 153 192 238 287 342
#
# _framework density 20.611647000000001
#
# number of rings (size 3 to 8) (size 9 to 14) (size 15 to 20)
#    0.000    1.500    0.000    6.000    0.000    0.000 
#    0.000    7.500    0.000    0.000    0.000    0.000 
#    0.000    0.000    0.000    0.000    0.000    0.000 
#
# Total GULP energy -89120.086933 kJ/mol
# GULP energy per Si atom -5570.005433 kJ/mol
# Density = 2.056473 g / cm^3
# Si number density = 20.611647 Si / 1000 Ang^3
#
#
#
# Elastic Constant Matrix: (Units=GPa)
#
#
# Indices 1 2 3 4 5 6 
#
# 1 130.0779 18.9106 66.9063 9.8111 18.0674 -0.7734
# 2 18.9106 63.7269 36.0387 8.3638 -14.6112 8.4293
# 3 66.9063 36.0387 167.8857 -23.0115 -1.1584 -1.0203
# 4 9.8111 8.3638 -23.0115 35.6609 1.5154 -0.0615
# 5 18.0674 -14.6112 -1.1584 1.5154 36.5106 -5.9521
# 6 -0.7734 8.4293 -1.0203 -0.0615 -5.9521 21.9929
#
#
#
# Elastic Compliance Matrix: (Units=1/GPa)
#
#
# Indices 1 2 3 4 5 6 
#
# 1 0.012031 -0.000918 -0.005525 -0.006389 -0.006433 -0.001240
# 2 -0.000918 0.023569 -0.005980 -0.009527 0.008960 -0.006945
# 3 -0.005525 -0.005980 0.010818 0.009877 0.000735 0.002826
# 4 -0.006389 -0.009527 0.009877 0.038471 -0.001343 0.003629
# 5 -0.006433 0.008960 0.000735 -0.001343 0.035199 0.005896
# 6 -0.001240 -0.006945 0.002826 0.003629 0.005896 0.049824
#
#
# Mechanical properties :
#
#
# Convention : Reuss Voigt Hill
#
# Bulk Modulus (GPa) = 46.35542 67.26686 56.81114
# Shear Modulus (GPa) = 24.75866 34.82187 29.79027
#
# Velocity S-wave (km/s) = 3.46959 4.11472 3.80585
# Velocity P-wave (km/s) = 6.21204 7.43511 6.85092
#
# Compressibility (1/GPa) = 0.02157245
#
# Stress axis : x y z
#
# Youngs Moduli (GPa) = 83.11729 42.42807 92.43808
#
# Poissons Ratio (x) = 0.03895 0.51074
# Poissons Ratio (y) = 0.07630 0.55276
# Poissons Ratio (z) = 0.45925 0.25371
#
# Static dielectric constant tensor:
#      x y z
#    x 1.846750 -0.032770 -0.022820 
#    y -0.032770 1.642910 -0.083620 
#    z -0.022820 -0.083620 1.658250 
# 
# From -- ./inp_files/289219.got.cif
#   From: 2010.05.17/outbox.cif.g08.bks.cpg/sg2_145_cif.got.tgz:289219.got - 2010.06.03 11:33:40.
