data_PCOD9089772
_publ_section_title
;
Structure prediction by ZEFSAII (Michael W. Deem and Ramdas Pophale) SiO2 
 PCOD9089772
Probable space group: P -1
;
_chemical_formula_sum "Si O2"
_cell_formula_units_Z 16
_cell_length_a 25.113152
_cell_length_b 5.408732
_cell_length_c 16.630507
_cell_angle_alpha 116.016229
_cell_angle_beta 158.730041
_cell_angle_gamma 61.843767
_cell_volume 722.479226
_symmetry_space_group_name_H-M "P -1"
_symmetry_group_IT_number 2
_symmetry_cell_setting 'triclinic'
loop_
_space_group_symop_operation_xyz
x,y,z
-x,-y,-z
loop_
_atom_site_type_symbol
_atom_site_label
_atom_site_fract_x
_atom_site_fract_y
_atom_site_fract_z
Si Si1 0.846780 0.650330 0.852413
Si Si2 0.157436 0.048851 0.449298
Si Si3 0.947036 0.173708 0.032397
Si Si4 0.040376 0.516046 0.653532
Si Si5 0.807372 0.201935 0.322307
Si Si6 0.635069 0.608055 0.245192
Si Si7 0.644535 0.487248 0.413404
Si Si8 0.318050 0.378487 0.943585
O O1 0.851328 0.467225 0.912484
O O2 0.705817 0.629662 0.595673
O O3 0.860235 0.969266 0.929408
O O4 0.000000 0.500000 0.000000
O O5 0.316502 0.141424 0.699135
O O6 0.048349 0.205116 0.387369
O O7 0.210559 0.739597 0.444708
O O8 0.083157 0.206578 0.285885
O O9 0.000000 0.000000 0.000000
O O10 0.216688 0.506698 0.895648
O O11 0.000000 0.500000 0.500000
O O12 0.980811 0.242605 0.564590
O O13 0.765029 0.341754 0.369414
O O14 0.730387 0.415113 0.172806
O O15 0.736601 0.922449 0.182356
O O16 0.608419 0.676644 0.310181
O O17 0.500000 0.500000 0.000000
O O18 0.494648 0.365043 0.201175
#
# Coordination Sequence:
#
# PCOD9089772 Si02
#       8
#     2   2   2   2   2   2   2   2
#     4  10  20  37  59  89 122 150 194 260 318 363
#     4  11  23  38  64  93 118 170 209 255 307 374
#     4  10  19  38  61  89 119 148 201 261 311 358
#     4   9  22  43  60  84 126 172 213 244 294 368
#     4  10  22  39  60  78 120 172 208 247 290 355
#     4  11  22  35  52  90 131 159 201 256 305 364
#     4  12  24  34  66  92 125 160 208 259 321 362
#     4  11  23  41  58  86 122 164 205 253 305 358
#
# _framework density 22.145963999999999
#
# number of rings (size 3 to 8) (size 9 to 14) (size 15 to 20)
#    0.000    1.500    3.750    2.625    5.250    1.000 
#    2.250    0.000    0.000    1.500    0.000    0.000 
#    0.000    0.000    0.000    0.000    0.000    0.000 
#
# Total GULP energy -89069.071113 kJ/mol
# GULP energy per Si atom -5566.816945 kJ/mol
# Density = 2.209556 g / cm^3
# Si number density = 22.145964 Si / 1000 Ang^3
#
#
#
# Elastic Constant Matrix: (Units=GPa)
#
#
# Indices 1 2 3 4 5 6 
#
# 1 75.0871 17.4800 43.2924 -0.7661 21.1202 6.4450
# 2 17.4800 94.4215 19.4045 12.8003 13.6108 23.6267
# 3 43.2924 19.4045 108.9096 10.2390 10.0528 6.2999
# 4 -0.7661 12.8003 10.2390 26.5134 4.6003 5.6344
# 5 21.1202 13.6108 10.0528 4.6003 35.2619 -2.3853
# 6 6.4450 23.6267 6.2999 5.6344 -2.3853 40.2301
#
#
#
# Elastic Compliance Matrix: (Units=1/GPa)
#
#
# Indices 1 2 3 4 5 6 
#
# 1 0.021616 -0.000798 -0.007825 0.006753 -0.011519 -0.003397
# 2 -0.000798 0.014079 -0.000936 -0.004007 -0.004688 -0.007711
# 3 -0.007825 -0.000936 0.012711 -0.005198 0.002148 0.000668
# 4 0.006753 -0.004007 -0.005198 0.044036 -0.007065 -0.004501
# 5 -0.011519 -0.004688 0.002148 -0.007065 0.037885 0.007498
# 6 -0.003397 -0.007711 0.000668 -0.004501 0.007498 0.030900
#
#
# Mechanical properties :
#
#
# Convention : Reuss Voigt Hill
#
# Bulk Modulus (GPa) = 34.14422 48.75243 41.44833
# Shear Modulus (GPa) = 26.30074 33.61719 29.95896
#
# Velocity S-wave (km/s) = 3.44991 3.90036 3.68203
# Velocity P-wave (km/s) = 5.59647 6.50735 6.06902
#
# Compressibility (1/GPa) = 0.02928753
#
# Stress axis : x y z
#
# Youngs Moduli (GPa) = 46.26214 71.02554 78.67163
#
# Poissons Ratio (x) = 0.05671 0.61563
# Poissons Ratio (y) = 0.03694 0.07361
# Poissons Ratio (z) = 0.36202 0.06645
#
# Static dielectric constant tensor:
#      x y z
#    x 1.866740 0.039570 0.021490 
#    y 0.039570 2.002970 -0.069530 
#    z 0.021490 -0.069530 1.907030 
# 
# From -- ./inp_files/367692.got.cif
#   From: 2010.05.17/outbox.cif.g08.bks.cpg/sg2_184_cif.got.tgz:367692.got - 2010.06.03 11:33:40.
