data_PCOD9089764
_publ_section_title
;
Structure prediction by ZEFSAII (Michael W. Deem and Ramdas Pophale) SiO2 
 PCOD9089764
Probable space group: P -1
;
_chemical_formula_sum "Si O2"
_cell_formula_units_Z 14
_cell_length_a 7.223070
_cell_length_b 11.215761
_cell_length_c 10.023027
_cell_angle_alpha 95.818605
_cell_angle_beta 47.828586
_cell_angle_gamma 73.263886
_cell_volume 524.275331
_symmetry_space_group_name_H-M "P -1"
_symmetry_group_IT_number 2
_symmetry_cell_setting 'triclinic'
loop_
_space_group_symop_operation_xyz
x,y,z
-x,-y,-z
loop_
_atom_site_type_symbol
_atom_site_label
_atom_site_fract_x
_atom_site_fract_y
_atom_site_fract_z
Si Si1 0.122165 0.716535 0.249010
Si Si2 0.335690 0.294582 0.884453
Si Si3 0.737205 0.549215 0.727050
Si Si4 0.723030 0.195567 0.066313
Si Si5 0.651799 0.003024 0.596882
Si Si6 0.678008 0.491743 0.279012
Si Si7 0.829668 0.075058 0.265968
O O1 0.436605 0.684599 0.136154
O O2 0.140751 0.569989 0.236228
O O3 0.086715 0.763841 0.118160
O O4 0.903099 0.843331 0.460366
O O5 0.477725 0.129829 0.794776
O O6 0.334715 0.366291 0.749835
O O7 0.013137 0.378912 0.105500
O O8 0.597957 0.712661 0.817473
O O9 0.486297 0.540537 0.764197
O O10 0.000000 0.500000 0.500000
O O11 0.746785 0.197455 0.215365
O O12 0.855487 0.037559 0.943034
O O13 0.799812 0.071944 0.438496
O O14 0.399648 0.975396 0.663903
O O15 0.500000 0.500000 0.500000
#
# Coordination Sequence:
#
# PCOD9089764 Si02
#       7
#     2   2   2   2   2   2   2
#     4  10  22  39  60  93 127 165 207 264 308 381
#     4  10  22  42  66  86 129 170 205 256 321 375
#     4  11  23  38  63  91 124 167 209 263 317 367
#     4  10  20  37  57  89 123 160 210 260 316 359
#     4  10  19  38  61  88 124 164 205 255 318 368
#     4  10  24  43  63  94 126 166 216 256 311 386
#     4   9  20  35  60  89 123 159 211 261 302 380
#
# _framework density 26.703524999999999
#
# number of rings (size 3 to 8) (size 9 to 14) (size 15 to 20)
#    0.000    2.000    0.000    2.571    4.000    0.000 
#    5.143    0.714    0.000    0.000    0.000    0.000 
#    0.000    0.000    0.000    0.000    0.000    0.000 
#
# Total GULP energy -78017.574813 kJ/mol
# GULP energy per Si atom -5572.683915 kJ/mol
# Density = 2.664275 g / cm^3
# Si number density = 26.703525 Si / 1000 Ang^3
#
#
#
# Elastic Constant Matrix: (Units=GPa)
#
#
# Indices 1 2 3 4 5 6 
#
# 1 43.0126 8.2992 11.5506 1.7340 -13.4674 -4.0592
# 2 8.2992 179.9163 77.6987 6.4207 -2.4921 -29.9617
# 3 11.5506 77.6987 166.1837 24.7254 -24.5258 -12.8426
# 4 1.7340 6.4207 24.7254 59.7711 -13.0506 -4.6720
# 5 -13.4674 -2.4921 -24.5258 -13.0506 37.3213 5.2491
# 6 -4.0592 -29.9617 -12.8426 -4.6720 5.2491 40.0550
#
#
#
# Elastic Compliance Matrix: (Units=1/GPa)
#
#
# Indices 1 2 3 4 5 6 
#
# 1 0.026577 -0.000959 -0.000113 0.001604 0.009896 0.000830
# 2 -0.000959 0.008036 -0.003790 0.000513 -0.002842 0.005131
# 3 -0.000113 -0.003790 0.008769 -0.002238 0.004817 -0.000927
# 4 0.001604 0.000513 -0.002238 0.018870 0.005558 0.001301
# 5 0.009896 -0.002842 0.004817 0.005558 0.035794 -0.003621
# 6 0.000830 0.005131 -0.000927 0.001301 -0.003621 0.029217
#
#
# Mechanical properties :
#
#
# Convention : Reuss Voigt Hill
#
# Bulk Modulus (GPa) = 29.71021 64.91218 47.31119
# Shear Modulus (GPa) = 33.73700 46.86709 40.30204
#
# Velocity S-wave (km/s) = 3.55828 4.19392 3.88911
# Velocity P-wave (km/s) = 5.29452 6.91471 6.15813
#
# Compressibility (1/GPa) = 0.03365846
#
# Stress axis : x y z
#
# Youngs Moduli (GPa) = 37.62706 124.44347 114.03339
#
# Poissons Ratio (x) = 0.11936 0.01286
# Poissons Ratio (y) = 0.03609 0.43215
# Poissons Ratio (z) = 0.00424 0.47160
#
# Static dielectric constant tensor:
#      x y z
#    x 2.182020 -0.094360 0.122390 
#    y -0.094360 2.396940 0.013040 
#    z 0.122390 0.013040 2.192270 
# 
# From -- ./inp_files/387191.got.cif
#   From: 2010.05.17/outbox.cif.g08.bks.cpg/sg2_194_cif.got.tgz:387191.got - 2010.06.03 11:33:40.
