data_PCOD9089518
_publ_section_title
;
Structure prediction by ZEFSAII (Michael W. Deem and Ramdas Pophale) SiO2 
 PCOD9089518
Probable space group: P -1
;
_chemical_formula_sum "Si O2"
_cell_formula_units_Z 16
_cell_length_a 20.889263
_cell_length_b 9.109917
_cell_length_c 12.020647
_cell_angle_alpha 131.815590
_cell_angle_beta 154.129144
_cell_angle_gamma 47.217810
_cell_volume 721.458838
_symmetry_space_group_name_H-M "P -1"
_symmetry_group_IT_number 2
_symmetry_cell_setting 'triclinic'
loop_
_space_group_symop_operation_xyz
x,y,z
-x,-y,-z
loop_
_atom_site_type_symbol
_atom_site_label
_atom_site_fract_x
_atom_site_fract_y
_atom_site_fract_z
Si Si1 0.174352 0.921935 0.132407
Si Si2 0.556951 0.362814 0.714548
Si Si3 0.139714 0.318473 0.155656
Si Si4 0.713948 0.859085 0.403063
Si Si5 0.736837 0.683280 0.877061
Si Si6 0.564825 0.662863 0.250566
Si Si7 0.285689 0.265790 0.889567
Si Si8 0.019134 0.562613 0.711951
O O1 0.101900 0.140649 0.078681
O O2 0.214822 0.968995 0.345228
O O3 0.074004 0.765291 0.876445
O O4 0.331373 0.822065 0.266726
O O5 0.397873 0.410744 0.424508
O O6 0.536047 0.294034 0.773399
O O7 0.627831 0.557808 0.913070
O O8 0.214557 0.216233 0.105603
O O9 0.267815 0.398883 0.463106
O O10 0.000000 0.500000 0.000000
O O11 0.587686 0.824963 0.274926
O O12 0.840704 0.640460 0.488303
O O13 0.676966 0.891581 0.231812
O O14 0.683055 0.802180 0.967914
O O15 0.887661 0.521794 0.072651
O O16 0.500000 0.500000 0.000000
O O17 0.105367 0.380564 0.672823
#
# Coordination Sequence:
#
# PCOD9089518 Si02
#       8
#     2   2   2   2   2   2   2   2
#     4  10  22  35  61  86 116 151 190 248 282 342
#     4  10  19  38  58  85 114 154 196 229 292 345
#     4  10  21  38  59  88 114 154 199 237 286 350
#     4  11  19  34  55  88 114 147 200 234 288 340
#     4   9  19  33  61  82 113 151 194 231 286 345
#     4  10  20  34  60  87 116 150 191 245 281 344
#     4   9  19  32  58  85 111 150 192 237 282 344
#     4   9  20  36  59  87 110 152 191 240 286 340
#
# _framework density 22.177285999999999
#
# number of rings (size 3 to 8) (size 9 to 14) (size 15 to 20)
#    0.750    1.500    1.250    2.625    0.000    4.500 
#    0.000    0.625    0.000    7.500    0.000    0.000 
#    0.000    0.000    0.000    0.000    0.000    0.000 
#
# Total GULP energy -89128.897798 kJ/mol
# GULP energy per Si atom -5570.556112 kJ/mol
# Density = 2.212681 g / cm^3
# Si number density = 22.177286 Si / 1000 Ang^3
#
#
#
# Elastic Constant Matrix: (Units=GPa)
#
#
# Indices 1 2 3 4 5 6 
#
# 1 121.6162 8.7767 32.5928 21.2739 -32.6695 -30.1004
# 2 8.7767 51.2466 24.2298 7.6677 -10.1863 -12.7052
# 3 32.5928 24.2298 72.1878 11.7870 -27.0863 -7.8965
# 4 21.2739 7.6677 11.7870 29.6155 -12.7943 -1.5395
# 5 -32.6695 -10.1863 -27.0863 -12.7943 35.0989 11.0604
# 6 -30.1004 -12.7052 -7.8965 -1.5395 11.0604 29.6163
#
#
#
# Elastic Compliance Matrix: (Units=1/GPa)
#
#
# Indices 1 2 3 4 5 6 
#
# 1 0.015112 0.004817 -0.003605 -0.007559 0.005511 0.014013
# 2 0.004817 0.027356 -0.009349 -0.006872 -0.001859 0.014476
# 3 -0.003605 -0.009349 0.023022 0.001754 0.014499 -0.006860
# 4 -0.007559 -0.006872 0.001754 0.045125 0.012735 -0.012573
# 5 0.005511 -0.001859 0.014499 0.012735 0.052103 -0.010127
# 6 0.014013 0.014476 -0.006860 -0.012573 -0.010127 0.055517
#
#
# Mechanical properties :
#
#
# Convention : Reuss Voigt Hill
#
# Bulk Modulus (GPa) = 20.31852 41.80548 31.06200
# Shear Modulus (GPa) = 19.92715 30.82956 25.37836
#
# Velocity S-wave (km/s) = 3.00082 3.73250 3.38648
# Velocity P-wave (km/s) = 4.60307 6.12103 5.41550
#
# Compressibility (1/GPa) = 0.04921619
#
# Stress axis : x y z
#
# Youngs Moduli (GPa) = 66.17271 36.55457 43.43727
#
# Poissons Ratio (x) = -0.17608 0.15659
# Poissons Ratio (y) = -0.31875 0.40608
# Poissons Ratio (z) = 0.23856 0.34174
#
# Static dielectric constant tensor:
#      x y z
#    x 1.897470 -0.055210 -0.026160 
#    y -0.055210 1.786630 -0.026730 
#    z -0.026160 -0.026730 1.859400 
# 
# From -- ./inp_files/474590.got.cif
#   From: 2010.05.17/outbox.cif.g08.bks.cpg/sg2_238_cif.got.tgz:474590.got - 2010.06.03 11:33:40.
