data_PCOD9089301
_publ_section_title
;
Structure prediction by ZEFSAII (Michael W. Deem and Ramdas Pophale) SiO2 
 PCOD9089301
Probable space group: P -1
;
_chemical_formula_sum "Si O2"
_cell_formula_units_Z 16
_cell_length_a 7.796676
_cell_length_b 9.306815
_cell_length_c 17.356652
_cell_angle_alpha 48.790298
_cell_angle_beta 138.125005
_cell_angle_gamma 112.293332
_cell_volume 616.745817
_symmetry_space_group_name_H-M "P -1"
_symmetry_group_IT_number 2
_symmetry_cell_setting 'triclinic'
loop_
_space_group_symop_operation_xyz
x,y,z
-x,-y,-z
loop_
_atom_site_type_symbol
_atom_site_label
_atom_site_fract_x
_atom_site_fract_y
_atom_site_fract_z
Si Si1 0.599468 0.562263 0.767022
Si Si2 0.943183 0.228929 0.559366
Si Si3 0.421909 0.689860 0.821483
Si Si4 0.077822 0.094800 0.803481
Si Si5 0.864290 0.794884 0.655865
Si Si6 0.587856 0.846491 0.972487
Si Si7 0.558978 0.071839 0.662138
Si Si8 0.542487 0.245793 0.742617
O O1 0.294020 0.656950 0.610604
O O2 0.590988 0.551881 0.860912
O O3 0.778227 0.693977 0.739002
O O4 0.648900 0.370450 0.798198
O O5 0.916371 0.251238 0.634135
O O6 0.225461 0.277350 0.624981
O O7 0.941673 0.000900 0.626428
O O8 0.541596 0.695727 0.945458
O O9 0.119873 0.674468 0.738661
O O10 0.415469 0.909024 0.707152
O O11 0.866198 0.967702 0.796406
O O12 0.323669 0.953081 0.892720
O O13 0.193476 0.204066 0.871365
O O14 0.607620 0.847742 0.496914
O O15 0.659079 0.023648 0.885722
O O16 0.588945 0.248100 0.666922
#
# Coordination Sequence:
#
# PCOD9089301 Si02
#       8
#     2   2   2   2   2   2   2   2
#     4  12  24  37  62  95 134 162 197 259 328 369
#     4  11  19  39  61  91 124 164 206 257 311 365
#     4  11  22  37  63  95 124 166 208 256 308 370
#     4  10  19  37  67  96 114 162 221 267 292 355
#     4  12  21  38  61  98 127 161 213 254 307 376
#     4   9  21  41  65  90 124 162 218 261 297 370
#     4  11  20  37  65  91 125 163 211 258 307 372
#     4  10  23  39  56  94 129 165 201 257 321 367
#
# _framework density 25.942613000000001
#
# number of rings (size 3 to 8) (size 9 to 14) (size 15 to 20)
#    0.000    1.250    6.250    2.625    0.000    2.500 
#    4.500    0.000    0.000   13.500    0.000    0.000 
#    0.000    0.000    0.000    0.000    0.000    0.000 
#
# Total GULP energy -89390.883047 kJ/mol
# GULP energy per Si atom -5586.930190 kJ/mol
# Density = 2.588357 g / cm^3
# Si number density = 25.942613 Si / 1000 Ang^3
#
#
#
# Elastic Constant Matrix: (Units=GPa)
#
#
# Indices 1 2 3 4 5 6 
#
# 1 136.4612 23.1245 44.9383 37.0093 -1.6844 -7.3602
# 2 23.1245 137.7108 28.6740 34.1660 -15.6634 -19.8933
# 3 44.9383 28.6740 107.2185 42.6174 -5.7891 -5.7821
# 4 37.0093 34.1660 42.6174 40.2119 -8.3470 -9.8993
# 5 -1.6844 -15.6634 -5.7891 -8.3470 30.2370 21.4421
# 6 -7.3602 -19.8933 -5.7821 -9.8993 21.4421 19.8773
#
#
#
# Elastic Compliance Matrix: (Units=1/GPa)
#
#
# Indices 1 2 3 4 5 6 
#
# 1 0.010175 0.000959 -0.001053 -0.008637 -0.006837 0.007494
# 2 0.000959 0.010250 0.000429 -0.007999 -0.006605 0.013879
# 3 -0.001053 0.000429 0.016776 -0.018565 0.005610 -0.010378
# 4 -0.008637 -0.007999 -0.018565 0.063277 -0.005462 0.020801
# 5 -0.006837 -0.006605 0.005610 -0.005462 0.153551 -0.175870
# 6 0.007494 0.013879 -0.010378 0.020801 -0.175870 0.264028
#
#
# Mechanical properties :
#
#
# Convention : Reuss Voigt Hill
#
# Bulk Modulus (GPa) = 26.40667 63.87378 45.14023
# Shear Modulus (GPa) = 9.43377 37.04215 23.23796
#
# Velocity S-wave (km/s) = 1.90900 3.78279 2.99615
# Velocity P-wave (km/s) = 3.88073 6.61468 5.42282
#
# Compressibility (1/GPa) = 0.03786921
#
# Stress axis : x y z
#
# Youngs Moduli (GPa) = 98.28340 97.56397 59.60955
#
# Poissons Ratio (x) = -0.09352 0.06275
# Poissons Ratio (y) = -0.09421 -0.02555
# Poissons Ratio (z) = 0.10345 -0.04181
#
# Static dielectric constant tensor:
#      x y z
#    x 2.346140 -0.036550 -0.062470 
#    y -0.036550 2.116630 -0.023720 
#    z -0.062470 -0.023720 2.003140 
# 
# From -- ./inp_files/557144.got.cif
#   From: 2010.05.17/outbox.cif.g08.bks.cpg/sg2_279_cif.got.tgz:557144.got - 2010.06.03 11:33:40.
