data_PCOD9089529
_publ_section_title
;
Structure prediction by ZEFSAII (Michael W. Deem and Ramdas Pophale) SiO2 
 PCOD9089529
Probable space group: P -1
;
_chemical_formula_sum "Si O2"
_cell_formula_units_Z 16
_cell_length_a 8.298550
_cell_length_b 12.393492
_cell_length_c 9.775641
_cell_angle_alpha 124.449289
_cell_angle_beta 113.708239
_cell_angle_gamma 69.076983
_cell_volume 747.835576
_symmetry_space_group_name_H-M "P -1"
_symmetry_group_IT_number 2
_symmetry_cell_setting 'triclinic'
loop_
_space_group_symop_operation_xyz
x,y,z
-x,-y,-z
loop_
_atom_site_type_symbol
_atom_site_label
_atom_site_fract_x
_atom_site_fract_y
_atom_site_fract_z
Si Si1 0.032229 0.620582 0.005989
Si Si2 0.071800 0.815755 0.365856
Si Si3 0.771736 0.930421 0.742386
Si Si4 0.296584 0.167201 0.062792
Si Si5 0.419556 0.793638 0.020143
Si Si6 0.341901 0.514675 0.843438
Si Si7 0.892486 0.051597 0.282186
Si Si8 0.698795 0.773686 0.352172
O O1 0.852452 0.713846 0.961685
O O2 0.150830 0.562698 0.880441
O O3 0.143999 0.703415 0.201811
O O4 0.000000 0.500000 0.000000
O O5 0.891761 0.777499 0.347408
O O6 0.187974 0.842656 0.554921
O O7 0.024305 0.944780 0.344989
O O8 0.717309 0.845176 0.788629
O O9 0.677219 0.888753 0.542232
O O10 0.981763 0.898017 0.751419
O O11 0.727593 0.083983 0.887543
O O12 0.483045 0.175291 0.062640
O O13 0.238683 0.034307 0.888504
O O14 0.563606 0.788098 0.188925
O O15 0.369960 0.648727 0.871914
O O16 0.326946 0.365332 0.684127
O O17 0.500000 0.500000 0.000000
#
# Coordination Sequence:
#
# PCOD9089529 Si02
#       8
#     2   2   2   2   2   2   2   2
#     4  11  18  35  63  84 111 148 195 234 289 338
#     4   9  16  31  56  87 106 143 184 248 271 333
#     4  11  23  36  59  85 119 153 190 242 292 337
#     4  11  22  38  57  85 117 153 190 237 290 347
#     4  11  20  38  59  83 115 159 195 232 285 344
#     4  10  21  36  58  88 113 147 190 245 284 337
#     4   9  18  33  55  79 115 141 190 231 288 329
#     4  10  19  38  58  87 116 146 199 240 282 337
#
# _framework density 21.395078000000002
#
# number of rings (size 3 to 8) (size 9 to 14) (size 15 to 20)
#    0.000    1.750    3.750    3.375    0.000    0.000 
#    4.500    1.250    2.750    0.000    0.000    0.000 
#    0.000    0.000    0.000    0.000    0.000    0.000 
#
# Total GULP energy -89177.705105 kJ/mol
# GULP energy per Si atom -5573.606569 kJ/mol
# Density = 2.134638 g / cm^3
# Si number density = 21.395078 Si / 1000 Ang^3
#
#
#
# Elastic Constant Matrix: (Units=GPa)
#
#
# Indices 1 2 3 4 5 6 
#
# 1 32.5678 26.0174 -6.8331 -7.5706 -4.9586 15.8284
# 2 26.0174 86.8626 28.9412 0.1800 -2.6889 11.7986
# 3 -6.8331 28.9412 43.8880 1.2608 -2.9638 13.1845
# 4 -7.5706 0.1800 1.2608 28.9684 6.9784 -5.8851
# 5 -4.9586 -2.6889 -2.9638 6.9784 21.1667 -0.5005
# 6 15.8284 11.7986 13.1845 -5.8851 -0.5005 39.1054
#
#
#
# Elastic Compliance Matrix: (Units=1/GPa)
#
#
# Indices 1 2 3 4 5 6 
#
# 1 0.118424 -0.050463 0.069431 0.010939 0.026167 -0.054135
# 2 -0.050463 0.036324 -0.038917 -0.004757 -0.010574 0.021736
# 3 0.069431 -0.038917 0.072620 0.002283 0.019785 -0.040248
# 4 0.010939 -0.004757 0.002283 0.040399 -0.010989 0.002177
# 5 0.026167 -0.010574 0.019785 -0.010989 0.058070 -0.014982
# 6 -0.054135 0.021736 -0.040248 0.002177 -0.014982 0.054631
#
#
# Mechanical properties :
#
#
# Convention : Reuss Voigt Hill
#
# Bulk Modulus (GPa) = 5.33424 28.84104 17.08764
# Shear Modulus (GPa) = 10.35503 25.52764 17.94133
#
# Velocity S-wave (km/s) = 2.20237 3.45795 2.89895
# Velocity P-wave (km/s) = 2.99430 5.42704 4.38284
#
# Compressibility (1/GPa) = 0.18746828
#
# Stress axis : x y z
#
# Youngs Moduli (GPa) = 8.44427 27.52994 13.77027
#
# Poissons Ratio (x) = 1.38925 -0.95608
# Poissons Ratio (y) = 0.42613 0.53590
# Poissons Ratio (z) = -0.58629 1.07139
#
# Static dielectric constant tensor:
#      x y z
#    x 1.803340 0.023510 0.023920 
#    y 0.023510 1.676780 0.032710 
#    z 0.023920 0.032710 1.826660 
# 
# From -- ./inp_files/182681.got.cif
#   From: 2010.05.17/outbox.cif.g08.bks.cpg/sg2_92_cif.got.tgz:182681.got - 2010.06.03 11:33:40.
