data_PCOD9089838
_publ_section_title
;
Structure prediction by ZEFSAII (Michael W. Deem and Ramdas Pophale) SiO2 
 PCOD9089838
Probable space group: P -1
;
_chemical_formula_sum "Si O2"
_cell_formula_units_Z 14
_cell_length_a 13.394337
_cell_length_b 13.365844
_cell_length_c 7.761998
_cell_angle_alpha 85.806868
_cell_angle_beta 75.675150
_cell_angle_gamma 148.334403
_cell_volume 586.646257
_symmetry_space_group_name_H-M "P -1"
_symmetry_group_IT_number 2
_symmetry_cell_setting 'triclinic'
loop_
_space_group_symop_operation_xyz
x,y,z
-x,-y,-z
loop_
_atom_site_type_symbol
_atom_site_label
_atom_site_fract_x
_atom_site_fract_y
_atom_site_fract_z
Si Si1 0.156981 0.014021 0.568516
Si Si2 0.861315 0.569365 0.669972
Si Si3 0.367102 0.133006 0.839922
Si Si4 0.972923 0.324387 0.904998
Si Si5 0.785042 0.261611 0.345391
Si Si6 0.355758 0.538464 0.886050
Si Si7 0.828491 0.842837 0.930890
O O1 0.239293 0.039076 0.719041
O O2 0.387626 0.228528 0.331081
O O3 0.985735 0.785659 0.577071
O O4 0.010761 0.985981 0.679795
O O5 0.644252 0.360818 0.663030
O O6 0.074280 0.677255 0.576318
O O7 0.722082 0.455626 0.927337
O O8 0.330628 0.199902 0.965281
O O9 0.253990 0.940591 0.016211
O O10 0.103259 0.529589 0.729428
O O11 0.167342 0.408148 0.839891
O O12 0.872661 0.287258 0.127280
O O13 0.500000 0.000000 0.500000
O O14 0.311840 0.384447 0.972412
O O15 0.000000 0.000000 0.000000
#
# Coordination Sequence:
#
# PCOD9089838 Si02
#       7
#     2   2   2   2   2   2   2
#     4  10  20  39  60  85 122 160 197 234 284 345
#     4  10  22  41  59  87 120 155 190 248 293 340
#     4  11  21  40  60  87 125 150 194 246 288 343
#     4  10  20  36  61  86 112 155 192 240 296 344
#     4  10  20  39  64  82 112 153 195 239 297 352
#     4  10  19  38  62  83 120 161 196 234 288 346
#     4   9  18  36  57  87 120 158 193 237 286 338
#
# _framework density 23.864467000000001
#
# number of rings (size 3 to 8) (size 9 to 14) (size 15 to 20)
#    0.000    2.000    5.714    0.857    0.000    5.143 
#    2.571    2.143    0.000    0.000    0.000    0.000 
#    0.000    0.000    0.000    0.000    0.000    0.000 
#
# Total GULP energy -78149.052862 kJ/mol
# GULP energy per Si atom -5582.075204 kJ/mol
# Density = 2.381015 g / cm^3
# Si number density = 23.864467 Si / 1000 Ang^3
#
#
#
# Elastic Constant Matrix: (Units=GPa)
#
#
# Indices 1 2 3 4 5 6 
#
# 1 122.9624 47.8851 34.8441 -17.9377 -23.0901 -5.3261
# 2 47.8851 92.1675 35.3823 -36.5197 1.4861 -2.6005
# 3 34.8441 35.3823 146.6543 -22.2903 -28.0769 -7.2140
# 4 -17.9377 -36.5197 -22.2903 37.2637 12.0572 -9.5405
# 5 -23.0901 1.4861 -28.0769 12.0572 29.3089 -9.0124
# 6 -5.3261 -2.6005 -7.2140 -9.5405 -9.0124 39.9226
#
#
#
# Elastic Compliance Matrix: (Units=1/GPa)
#
#
# Indices 1 2 3 4 5 6 
#
# 1 0.014636 -0.011905 0.001813 -0.008602 0.018526 0.003631
# 2 -0.011905 0.032681 -0.005778 0.032636 -0.029823 0.000563
# 3 0.001813 -0.005778 0.010339 -0.001940 0.013770 0.004379
# 4 -0.008602 0.032636 -0.001940 0.067152 -0.035233 0.008722
# 5 0.018526 -0.029823 0.013770 -0.035233 0.081938 0.013095
# 6 0.003631 0.000563 0.004379 0.008722 0.013095 0.031401
#
#
# Mechanical properties :
#
#
# Convention : Reuss Voigt Hill
#
# Bulk Modulus (GPa) = 38.58567 66.44524 52.51545
# Shear Modulus (GPa) = 17.95167 37.54388 27.74777
#
# Velocity S-wave (km/s) = 2.74566 3.97068 3.41357
# Velocity P-wave (km/s) = 5.12400 6.99463 6.13108
#
# Compressibility (1/GPa) = 0.02591636
#
# Stress axis : x y z
#
# Youngs Moduli (GPa) = 68.32367 30.59889 96.72317
#
# Poissons Ratio (x) = 0.36427 -0.17533
# Poissons Ratio (y) = 0.81337 0.55885
# Poissons Ratio (z) = -0.12385 0.17680
#
# Static dielectric constant tensor:
#      x y z
#    x 1.975660 0.075990 0.088090 
#    y 0.075990 1.982570 0.082560 
#    z 0.088090 0.082560 2.045320 
# 
# From -- ./inp_files/315073.got.cif
#   From: 2010.05.17/outbox.cif.g08.bks.cpg/sg2_158_cif.got.tgz:315073.got - 2010.06.03 11:33:40.
