data_PCOD9089330
_publ_section_title
;
Structure prediction by ZEFSAII (Michael W. Deem and Ramdas Pophale) SiO2 
 PCOD9089330
Probable space group: P -1
;
_chemical_formula_sum "Si O2"
_cell_formula_units_Z 16
_cell_length_a 7.977664
_cell_length_b 22.703771
_cell_length_c 8.490939
_cell_angle_alpha 64.537415
_cell_angle_beta 75.599381
_cell_angle_gamma 34.694616
_cell_volume 773.748344
_symmetry_space_group_name_H-M "P -1"
_symmetry_group_IT_number 2
_symmetry_cell_setting 'triclinic'
loop_
_space_group_symop_operation_xyz
x,y,z
-x,-y,-z
loop_
_atom_site_type_symbol
_atom_site_label
_atom_site_fract_x
_atom_site_fract_y
_atom_site_fract_z
Si Si1 0.330729 0.683755 0.514125
Si Si2 0.417305 0.589054 0.310348
Si Si3 0.892896 0.417074 0.753230
Si Si4 0.603355 0.742324 0.441314
Si Si5 0.766927 0.593664 0.079401
Si Si6 0.847542 0.904353 0.508980
Si Si7 0.319489 0.815047 0.745082
Si Si8 0.001918 0.979965 0.203040
O O1 0.232875 0.691287 0.355241
O O2 0.602684 0.553777 0.653908
O O3 0.476621 0.710248 0.458166
O O4 0.034275 0.780734 0.576168
O O5 0.500000 0.500000 0.500000
O O6 0.251267 0.610820 0.171626
O O7 0.691401 0.551975 0.244227
O O8 0.094271 0.347089 0.627629
O O9 0.100023 0.388166 0.867644
O O10 0.577595 0.751999 0.626162
O O11 0.351653 0.871975 0.298372
O O12 0.462196 0.714087 0.932900
O O13 0.000000 0.500000 0.000000
O O14 0.028406 0.882491 0.635064
O O15 0.889194 0.941581 0.310730
O O16 0.500000 0.000000 0.500000
O O17 0.207019 0.908474 0.772319
O O18 0.000000 0.000000 0.000000
#
# Coordination Sequence:
#
# PCOD9089330 Si02
#       8
#     2   2   2   2   2   2   2   2
#     4   9  19  37  65  92 129 163 225 261 318 400
#     4  10  24  39  64  99 130 171 230 264 317 407
#     4  11  22  40  70  96 132 178 218 262 337 392
#     4  10  19  37  68  90 125 179 212 266 331 390
#     4  12  25  43  66  96 142 175 212 277 338 381
#     4  10  22  43  66  91 130 176 212 278 331 377
#     4  10  23  40  65  97 129 169 227 265 325 403
#     4  10  21  40  64  94 125 166 229 264 314 404
#
# _framework density 20.678557999999999
#
# number of rings (size 3 to 8) (size 9 to 14) (size 15 to 20)
#    0.000    2.000    1.250    4.125    7.000    2.500 
#    6.750    0.625    0.000    0.000    0.000    0.000 
#    0.000    0.000    0.000    0.000    0.000    0.000 
#
# Total GULP energy -89119.862702 kJ/mol
# GULP energy per Si atom -5569.991419 kJ/mol
# Density = 2.063149 g / cm^3
# Si number density = 20.678558 Si / 1000 Ang^3
#
#
#
# Elastic Constant Matrix: (Units=GPa)
#
#
# Indices 1 2 3 4 5 6 
#
# 1 56.0220 5.4999 7.6419 12.2230 19.4192 6.7763
# 2 5.4999 139.6887 14.8363 5.5519 3.9769 1.6569
# 3 7.6419 14.8363 79.8349 0.0580 5.2054 3.1905
# 4 12.2230 5.5519 0.0580 32.1718 7.9311 9.9952
# 5 19.4192 3.9769 5.2054 7.9311 17.1543 -0.6298
# 6 6.7763 1.6569 3.1905 9.9952 -0.6298 38.5697
#
#
#
# Elastic Compliance Matrix: (Units=1/GPa)
#
#
# Indices 1 2 3 4 5 6 
#
# 1 0.030767 -0.000061 -0.000485 -0.001542 -0.034157 -0.005521
# 2 -0.000061 0.007364 -0.001317 -0.001087 -0.000734 0.000073
# 3 -0.000485 -0.001317 0.013139 0.001847 -0.004041 -0.001490
# 4 -0.001542 -0.001087 0.001847 0.039264 -0.017094 -0.010289
# 5 -0.034157 -0.000734 -0.004041 -0.017094 0.106721 0.012539
# 6 -0.005521 0.000073 -0.001490 -0.010289 0.012539 0.029888
#
#
# Mechanical properties :
#
#
# Convention : Reuss Voigt Hill
#
# Bulk Modulus (GPa) = 21.03299 36.83355 28.93327
# Shear Modulus (GPa) = 20.26617 34.08367 27.17492
#
# Velocity S-wave (km/s) = 3.13398 4.06428 3.62907
# Velocity P-wave (km/s) = 4.82590 6.31472 5.61983
#
# Compressibility (1/GPa) = 0.04754436
#
# Stress axis : x y z
#
# Youngs Moduli (GPa) = 32.50286 135.79066 76.11103
#
# Poissons Ratio (x) = 0.00823 0.03691
# Poissons Ratio (y) = 0.00197 0.10024
# Poissons Ratio (z) = 0.01576 0.17884
#
# Static dielectric constant tensor:
#      x y z
#    x 1.814550 -0.013510 0.025070 
#    y -0.013510 1.802300 0.004320 
#    z 0.025070 0.004320 1.794990 
# 
# From -- ./inp_files/226312.got.cif
#   From: 2010.05.17/outbox.cif.g08.bks.cpg/sg2_114_cif.got.tgz:226312.got - 2010.06.03 11:33:40.
