data_PCOD9089774
_publ_section_title
;
Structure prediction by ZEFSAII (Michael W. Deem and Ramdas Pophale) SiO2 
 PCOD9089774
Probable space group: P -1
;
_chemical_formula_sum "Si O2"
_cell_formula_units_Z 16
_cell_length_a 7.509798
_cell_length_b 17.722882
_cell_length_c 11.374144
_cell_angle_alpha 101.005808
_cell_angle_beta 123.544495
_cell_angle_gamma 122.016769
_cell_volume 779.694588
_symmetry_space_group_name_H-M "P -1"
_symmetry_group_IT_number 2
_symmetry_cell_setting 'triclinic'
loop_
_space_group_symop_operation_xyz
x,y,z
-x,-y,-z
loop_
_atom_site_type_symbol
_atom_site_label
_atom_site_fract_x
_atom_site_fract_y
_atom_site_fract_z
Si Si1 0.756848 0.369854 0.669359
Si Si2 0.519631 0.093445 0.560605
Si Si3 0.205732 0.055262 0.726424
Si Si4 0.254775 0.761641 0.544201
Si Si5 0.969448 0.165209 0.368529
Si Si6 0.133080 0.706177 0.093210
Si Si7 0.562793 0.179814 0.121408
Si Si8 0.832115 0.569834 0.715293
O O1 0.888048 0.355300 0.602846
O O2 0.344861 0.251351 0.486448
O O3 0.871224 0.362903 0.832210
O O4 0.849678 0.484354 0.723090
O O5 0.552393 0.146610 0.466189
O O6 0.834924 0.208084 0.790564
O O7 0.500000 0.000000 0.500000
O O8 0.165521 0.020131 0.466295
O O9 0.511290 0.187990 0.817267
O O10 0.254068 0.088293 0.892906
O O11 0.208601 0.962963 0.692811
O O12 0.485958 0.810764 0.757674
O O13 0.006727 0.760070 0.501743
O O14 0.740160 0.145016 0.183066
O O15 0.855957 0.619231 0.865164
O O16 0.848685 0.314878 0.211761
O O17 0.500000 0.500000 0.500000
#
# Coordination Sequence:
#
# PCOD9089774 Si02
#       8
#     2   2   2   2   2   2   2   2
#     4  11  21  40  66  85 122 168 203 258 306 357
#     4  11  22  37  58  92 128 160 202 250 304 379
#     4  11  20  37  62  90 126 165 196 252 317 366
#     4   9  21  37  57  90 121 155 209 244 301 370
#     4  10  19  38  61  89 124 162 197 254 307 365
#     4  10  23  38  62  92 119 164 206 247 311 369
#     4   9  22  37  58  94 122 159 206 253 309 365
#     4  11  21  42  65  88 118 162 216 255 305 361
#
# _framework density 20.520854
#
# number of rings (size 3 to 8) (size 9 to 14) (size 15 to 20)
#    0.750    1.000    3.750    1.875    1.750    1.000 
#    2.250    0.000    2.750    6.750    0.000    0.000 
#    0.000    0.000    0.000    0.000    0.000    0.000 
#
# Total GULP energy -89118.869586 kJ/mol
# GULP energy per Si atom -5569.929349 kJ/mol
# Density = 2.047415 g / cm^3
# Si number density = 20.520854 Si / 1000 Ang^3
#
#
#
# Elastic Constant Matrix: (Units=GPa)
#
#
# Indices 1 2 3 4 5 6 
#
# 1 67.7678 16.6900 19.3640 6.9239 -26.7484 -16.2677
# 2 16.6900 115.6259 32.5900 5.8140 -25.8040 -24.8985
# 3 19.3640 32.5900 132.9408 -8.4160 -33.1529 -9.4639
# 4 6.9239 5.8140 -8.4160 21.0982 5.9354 -9.9769
# 5 -26.7484 -25.8040 -33.1529 5.9354 33.1762 -1.8545
# 6 -16.2677 -24.8985 -9.4639 -9.9769 -1.8545 26.5728
#
#
#
# Elastic Compliance Matrix: (Units=1/GPa)
#
#
# Indices 1 2 3 4 5 6 
#
# 1 0.042699 0.013980 0.006574 -0.011608 0.056247 0.041148
# 2 0.013980 0.019046 0.002799 -0.004271 0.031210 0.027976
# 3 0.006574 0.002799 0.011872 0.002524 0.019627 0.013193
# 4 -0.011608 -0.004271 0.002524 0.065430 -0.021145 0.012881
# 5 0.056247 0.031210 0.019627 -0.021145 0.127165 0.071603
# 6 0.041148 0.027976 0.013193 0.012881 0.071603 0.103568
#
#
# Mechanical properties :
#
#
# Convention : Reuss Voigt Hill
#
# Bulk Modulus (GPa) = 8.31084 50.40252 29.35668
# Shear Modulus (GPa) = 13.76725 32.68214 23.22470
#
# Velocity S-wave (km/s) = 2.59297 3.99511 3.36781
# Velocity P-wave (km/s) = 3.60879 6.77467 5.42768
#
# Compressibility (1/GPa) = 0.12032472
#
# Stress axis : x y z
#
# Youngs Moduli (GPa) = 23.41965 52.50520 84.23196
#
# Poissons Ratio (x) = -0.73404 -0.55378
# Poissons Ratio (y) = -0.32742 -0.23577
# Poissons Ratio (z) = -0.15397 -0.14696
#
# Static dielectric constant tensor:
#      x y z
#    x 1.838240 -0.029380 -0.076200 
#    y -0.029380 1.769980 -0.012690 
#    z -0.076200 -0.012690 1.776790 
# 
# From -- ./inp_files/402089.got.cif
#   From: 2010.05.17/outbox.cif.g08.bks.cpg/sg2_202_cif.got.tgz:402089.got - 2010.06.03 11:33:40.
