data_PCOD9089006
_publ_section_title
;
Structure prediction by ZEFSAII (Michael W. Deem and Ramdas Pophale) SiO2 
 PCOD9089006
Probable space group: P -1
;
_chemical_formula_sum "Si O2"
_cell_formula_units_Z 14
_cell_length_a 14.938341
_cell_length_b 7.536110
_cell_length_c 14.765022
_cell_angle_alpha 79.483209
_cell_angle_beta 28.903357
_cell_angle_gamma 61.585701
_cell_volume 589.876391
_symmetry_space_group_name_H-M "P -1"
_symmetry_group_IT_number 2
_symmetry_cell_setting 'triclinic'
loop_
_space_group_symop_operation_xyz
x,y,z
-x,-y,-z
loop_
_atom_site_type_symbol
_atom_site_label
_atom_site_fract_x
_atom_site_fract_y
_atom_site_fract_z
Si Si1 0.907285 0.145626 0.161673
Si Si2 0.756903 0.296460 0.842843
Si Si3 0.709667 0.889254 0.064017
Si Si4 0.250608 0.120851 0.342017
Si Si5 0.549479 0.412252 0.751852
Si Si6 0.071290 0.227075 0.298946
Si Si7 0.553251 0.659891 0.344108
O O1 0.753201 0.428830 0.249967
O O2 0.705889 0.152428 0.390942
O O3 0.134878 0.056216 0.031031
O O4 0.000000 0.000000 0.000000
O O5 0.982704 0.273267 0.610733
O O6 0.838642 0.037786 0.775578
O O7 0.500000 0.500000 0.000000
O O8 0.687138 0.382805 0.999507
O O9 0.652610 0.778212 0.201092
O O10 0.447771 0.103440 0.227791
O O11 0.871406 0.711831 0.851781
O O12 0.214138 0.203153 0.263167
O O13 0.361046 0.845186 0.271922
O O14 0.500147 0.431817 0.687091
O O15 0.783207 0.391282 0.561143
#
# Coordination Sequence:
#
# PCOD9089006 Si02
#       7
#     2   2   2   2   2   2   2
#     4  11  25  47  73  95 126 167 220 278 333 393
#     4  11  19  35  64  93 133 180 223 261 311 379
#     4  11  24  43  67  99 137 170 214 274 331 389
#     4  10  21  37  60  93 135 177 214 260 316 381
#     4  10  19  37  64  92 127 175 217 262 316 380
#     4  11  20  37  62  95 135 175 214 260 319 383
#     4  10  24  45  70  96 127 171 219 266 339 391
#
# _framework density 23.733784
#
# number of rings (size 3 to 8) (size 9 to 14) (size 15 to 20)
#    0.000    1.429    4.286    1.714    2.000    0.571 
#    0.000   10.714    0.000    0.000    0.000    0.000 
#    0.000    0.000    0.000    0.000    0.000    0.000 
#
# Total GULP energy -78396.396936 kJ/mol
# GULP energy per Si atom -5599.742638 kJ/mol
# Density = 2.367977 g / cm^3
# Si number density = 23.733784 Si / 1000 Ang^3
#
#
#
# Elastic Constant Matrix: (Units=GPa)
#
#
# Indices 1 2 3 4 5 6 
#
# 1 135.4093 22.2683 73.1403 -0.9652 -7.6276 -13.2154
# 2 22.2683 82.4813 35.0588 -5.9863 6.3248 3.5774
# 3 73.1403 35.0588 187.2646 -18.0904 17.8195 18.0725
# 4 -0.9652 -5.9863 -18.0904 31.0308 -0.4474 14.9954
# 5 -7.6276 6.3248 17.8195 -0.4474 49.6004 -9.8087
# 6 -13.2154 3.5774 18.0725 14.9954 -9.8087 9.1061
#
#
#
# Elastic Compliance Matrix: (Units=1/GPa)
#
#
# Indices 1 2 3 4 5 6 
#
# 1 0.004116 0.000144 0.001905 0.011426 -0.004149 -0.021148
# 2 0.000144 0.013055 -0.003250 -0.001925 0.000556 0.005299
# 3 0.001905 -0.003250 0.001720 -0.010040 0.004311 0.021806
# 4 0.011426 -0.001925 -0.010040 0.002807 0.015363 0.049191
# 5 -0.004149 0.000556 0.004311 0.015363 0.012851 -0.026252
# 6 -0.021148 0.005299 0.021806 0.049191 -0.026252 -0.075517
#
#
# Mechanical properties :
#
#
# Convention : Reuss Voigt Hill
#
# Bulk Modulus (GPa) = 60.65333 74.00998 67.33166
# Shear Modulus (GPa) = -151.19806 36.25997 -57.46905
#
# Velocity S-wave (km/s) = -7.99025 3.91292 -4.92611
# Velocity P-wave (km/s) = 7.71455 7.18788 1.98099
#
# Compressibility (1/GPa) = 0.01648714
#
# Stress axis : x y z
#
# Youngs Moduli (GPa) = 242.93999 76.60131 581.40686
#
# Poissons Ratio (x) = -0.01100 -1.10755
# Poissons Ratio (y) = -0.03489 1.88981
# Poissons Ratio (z) = -0.46279 0.24899
#
# Static dielectric constant tensor:
#      x y z
#    x 1.905990 -0.009100 -0.000890 
#    y -0.009100 1.942200 -0.009110 
#    z -0.000890 -0.009110 1.899280 
# 
# From -- ./inp_files/529720.got.cif
#   From: 2010.05.17/outbox.cif.g08.bks.cpg/sg2_265_cif.got.tgz:529720.got - 2010.06.03 11:33:40.
