data_PCOD9089078
_publ_section_title
;
Structure prediction by ZEFSAII (Michael W. Deem and Ramdas Pophale) SiO2 
 PCOD9089078
Probable space group: P -1
;
_chemical_formula_sum "Si O2"
_cell_formula_units_Z 16
_cell_length_a 14.822085
_cell_length_b 8.289277
_cell_length_c 12.095576
_cell_angle_alpha 69.398748
_cell_angle_beta 40.547659
_cell_angle_gamma 52.738792
_cell_volume 751.897629
_symmetry_space_group_name_H-M "P -1"
_symmetry_group_IT_number 2
_symmetry_cell_setting 'triclinic'
loop_
_space_group_symop_operation_xyz
x,y,z
-x,-y,-z
loop_
_atom_site_type_symbol
_atom_site_label
_atom_site_fract_x
_atom_site_fract_y
_atom_site_fract_z
Si Si1 0.871742 0.022478 0.454512
Si Si2 0.409073 0.583133 0.448892
Si Si3 0.217455 0.885259 0.234570
Si Si4 0.546754 0.791207 0.863460
Si Si5 0.182837 0.310846 0.183632
Si Si6 0.831645 0.673533 0.483861
Si Si7 0.353730 0.240570 0.581447
Si Si8 0.638324 0.739473 0.170880
O O1 0.780370 0.218365 0.410894
O O2 0.802436 0.135049 0.611233
O O3 0.816698 0.868442 0.511023
O O4 0.071745 0.886689 0.305892
O O5 0.500000 0.500000 0.500000
O O6 0.410612 0.389383 0.448570
O O7 0.512272 0.669360 0.279388
O O8 0.164158 0.122555 0.222572
O O9 0.402233 0.757297 0.041662
O O10 0.648959 0.775022 0.881828
O O11 0.697193 0.641448 0.676022
O O12 0.452931 0.018400 0.837733
O O13 0.020652 0.481515 0.358445
O O14 0.207165 0.385569 0.025585
O O15 0.783873 0.723341 0.387252
O O16 0.313141 0.288920 0.738115
O O17 0.500000 0.000000 0.500000
#
# Coordination Sequence:
#
# PCOD9089078 Si02
#       8
#     2   2   2   2   2   2   2   2
#     4  11  21  40  61  94 127 163 207 256 308 366
#     4  10  19  37  65  87 122 161 206 252 309 365
#     4  10  22  38  66  88 125 171 206 248 310 376
#     4  11  20  39  66  89 124 165 207 249 312 370
#     4  11  22  38  64  93 123 165 207 258 309 362
#     4  12  23  38  61  92 131 158 210 260 304 363
#     4  11  22  39  64  92 118 164 208 255 309 370
#     4  10  20  40  64  90 123 166 212 248 307 376
#
# _framework density 21.279492000000001
#
# number of rings (size 3 to 8) (size 9 to 14) (size 15 to 20)
#    0.000    1.250    3.750    4.125    0.000    0.500 
#    2.250    1.875    0.000    6.750    0.000    0.000 
#    0.000    0.000    0.000    0.000    0.000    0.000 
#
# Total GULP energy -89273.271531 kJ/mol
# GULP energy per Si atom -5579.579471 kJ/mol
# Density = 2.123106 g / cm^3
# Si number density = 21.279492 Si / 1000 Ang^3
#
#
#
# Elastic Constant Matrix: (Units=GPa)
#
#
# Indices 1 2 3 4 5 6 
#
# 1 123.5373 11.8446 39.8998 -3.5935 -4.8762 -14.7608
# 2 11.8446 55.4225 14.6925 11.1637 -3.7985 -7.3282
# 3 39.8998 14.6925 137.6431 13.0892 -4.4456 -14.7650
# 4 -3.5935 11.1637 13.0892 27.1800 -5.3876 0.8004
# 5 -4.8762 -3.7985 -4.4456 -5.3876 33.1928 1.7476
# 6 -14.7608 -7.3282 -14.7650 0.8004 1.7476 25.6371
#
#
#
# Elastic Compliance Matrix: (Units=1/GPa)
#
#
# Indices 1 2 3 4 5 6 
#
# 1 0.009611 -0.001495 -0.002523 0.003245 0.001247 0.003467
# 2 -0.001495 0.020923 -0.000413 -0.008655 0.000445 0.005122
# 3 -0.002523 -0.000413 0.008866 -0.004575 -0.000167 0.003690
# 4 0.003245 -0.008655 -0.004575 0.044386 0.006344 -0.005059
# 5 0.001247 0.000445 -0.000167 0.006344 0.031452 -0.001593
# 6 0.003467 0.005122 0.003690 -0.005059 -0.001593 0.044858
#
#
# Mechanical properties :
#
#
# Convention : Reuss Voigt Hill
#
# Bulk Modulus (GPa) = 32.74551 49.94187 41.34369
# Shear Modulus (GPa) = 27.91158 33.87970 30.89564
#
# Velocity S-wave (km/s) = 3.62562 3.99448 3.81451
# Velocity P-wave (km/s) = 5.74008 6.69290 6.23472
#
# Compressibility (1/GPa) = 0.03053854
#
# Stress axis : x y z
#
# Youngs Moduli (GPa) = 104.05083 47.79334 112.78968
#
# Poissons Ratio (x) = 0.07144 0.28454
# Poissons Ratio (y) = 0.15554 0.04661
# Poissons Ratio (z) = 0.26249 0.01975
#
# Static dielectric constant tensor:
#      x y z
#    x 1.810860 -0.012090 0.008340 
#    y -0.012090 1.786640 -0.002410 
#    z 0.008340 -0.002410 1.828820 
# 
# From -- ./inp_files/379885.got.cif
#   From: 2010.05.17/outbox.cif.g08.bks.cpg/sg2_190_cif.got.tgz:379885.got - 2010.06.03 11:33:40.
