data_PCOD9089040
_publ_section_title
;
Structure prediction by ZEFSAII (Michael W. Deem and Ramdas Pophale) SiO2 
 PCOD9089040
Probable space group: P -1
;
_chemical_formula_sum "Si O2"
_cell_formula_units_Z 16
_cell_length_a 11.775251
_cell_length_b 12.221452
_cell_length_c 11.625852
_cell_angle_alpha 125.269638
_cell_angle_beta 121.355115
_cell_angle_gamma 35.222817
_cell_volume 783.625762
_symmetry_space_group_name_H-M "P -1"
_symmetry_group_IT_number 2
_symmetry_cell_setting 'triclinic'
loop_
_space_group_symop_operation_xyz
x,y,z
-x,-y,-z
loop_
_atom_site_type_symbol
_atom_site_label
_atom_site_fract_x
_atom_site_fract_y
_atom_site_fract_z
Si Si1 0.035804 0.187001 0.591223
Si Si2 0.991272 0.351900 0.435898
Si Si3 0.641867 0.484953 0.189174
Si Si4 0.974493 0.167919 0.986285
Si Si5 0.228623 0.939193 0.203139
Si Si6 0.950184 0.381146 0.900626
Si Si7 0.687236 0.232612 0.467184
Si Si8 0.479824 0.418152 0.247241
O O1 0.992527 0.327249 0.557281
O O2 0.046263 0.244574 0.755947
O O3 0.861873 0.206325 0.511354
O O4 0.232525 0.954439 0.535684
O O5 0.791280 0.445714 0.330973
O O6 0.000000 0.500000 0.500000
O O7 0.167215 0.124960 0.342062
O O8 0.777955 0.351121 0.068827
O O9 0.451314 0.719255 0.202192
O O10 0.575877 0.398949 0.168693
O O11 0.914150 0.074851 0.833858
O O12 0.019226 0.251616 0.972069
O O13 0.150606 0.012453 0.075147
O O14 0.717950 0.515717 0.846173
O O15 0.000000 0.500000 0.000000
O O16 0.598626 0.253604 0.310641
O O17 0.559970 0.414377 0.599700
#
# Coordination Sequence:
#
# PCOD9089040 Si02
#       8
#     2   2   2   2   2   2   2   2
#     4  10  21  38  63  88 125 161 205 259 319 371
#     4  11  25  41  64  96 129 164 208 269 334 371
#     4  11  21  40  69  94 128 164 220 266 309 376
#     4  10  23  40  64  97 125 170 217 260 311 371
#     4  10  22  40  66  96 124 166 219 265 310 378
#     4  11  25  41  61  86 134 170 201 253 323 385
#     4   9  19  35  63  97 116 154 210 264 308 374
#     4  10  19  37  64  96 123 159 213 259 313 371
#
# _framework density 20.417909000000002
#
# number of rings (size 3 to 8) (size 9 to 14) (size 15 to 20)
#    0.000    1.750    2.500    1.125    7.000    1.500 
#    0.000    1.875    0.000    0.000    0.000    0.000 
#    0.000    0.000    0.000    0.000    0.000    0.000 
#
# Total GULP energy -89319.869215 kJ/mol
# GULP energy per Si atom -5582.491826 kJ/mol
# Density = 2.037144 g / cm^3
# Si number density = 20.417909 Si / 1000 Ang^3
#
#
#
# Elastic Constant Matrix: (Units=GPa)
#
#
# Indices 1 2 3 4 5 6 
#
# 1 85.7584 42.0364 46.8683 7.2160 1.0789 34.2509
# 2 42.0364 129.4900 34.6952 -3.8531 -6.1247 12.8787
# 3 46.8683 34.6952 56.5198 -1.2091 -5.1907 4.2488
# 4 7.2160 -3.8531 -1.2091 26.5226 4.7306 -1.8582
# 5 1.0789 -6.1247 -5.1907 4.7306 30.5590 0.1463
# 6 34.2509 12.8787 4.2488 -1.8582 0.1463 37.4670
#
#
#
# Elastic Compliance Matrix: (Units=1/GPa)
#
#
# Indices 1 2 3 4 5 6 
#
# 1 0.058057 -0.003334 -0.043544 -0.020428 -0.006722 -0.047977
# 2 -0.003334 0.009728 -0.003062 0.001969 0.001242 0.000144
# 3 -0.043544 -0.003062 0.054036 0.014991 0.007612 0.035445
# 4 -0.020428 0.001969 0.014991 0.046172 -0.003574 0.018601
# 5 -0.006722 0.001242 0.007612 -0.003574 0.035034 0.004541
# 6 -0.047977 0.000144 0.035445 0.018601 0.004541 0.067385
#
#
# Mechanical properties :
#
#
# Convention : Reuss Voigt Hill
#
# Bulk Modulus (GPa) = 45.57582 57.66310 51.61946
# Shear Modulus (GPa) = 13.24129 28.78761 21.01445
#
# Velocity S-wave (km/s) = 2.54936 3.75896 3.21162
# Velocity P-wave (km/s) = 5.57096 6.86604 6.25212
#
# Compressibility (1/GPa) = 0.02194146
#
# Stress axis : x y z
#
# Youngs Moduli (GPa) = 17.22432 102.79266 18.50615
#
# Poissons Ratio (x) = 0.34273 0.80584
# Poissons Ratio (y) = 0.05743 0.05666
# Poissons Ratio (z) = 0.75002 0.31471
#
# Static dielectric constant tensor:
#      x y z
#    x 1.710350 -0.017170 -0.037080 
#    y -0.017170 1.802470 0.008590 
#    z -0.037080 0.008590 1.760150 
# 
# From -- ./inp_files/426718.got.cif
#   From: 2010.05.17/outbox.cif.g08.bks.cpg/sg2_214_cif.got.tgz:426718.got - 2010.06.03 11:33:40.
