data_PCOD9089463
_publ_section_title
;
Structure prediction by ZEFSAII (Michael W. Deem and Ramdas Pophale) SiO2 
 PCOD9089463
Probable space group: P -1
;
_chemical_formula_sum "Si O2"
_cell_formula_units_Z 16
_cell_length_a 8.010959
_cell_length_b 14.835904
_cell_length_c 13.803176
_cell_angle_alpha 40.552081
_cell_angle_beta 59.748331
_cell_angle_gamma 85.267941
_cell_volume 778.539503
_symmetry_space_group_name_H-M "P -1"
_symmetry_group_IT_number 2
_symmetry_cell_setting 'triclinic'
loop_
_space_group_symop_operation_xyz
x,y,z
-x,-y,-z
loop_
_atom_site_type_symbol
_atom_site_label
_atom_site_fract_x
_atom_site_fract_y
_atom_site_fract_z
Si Si1 0.373887 0.156462 0.496664
Si Si2 0.799640 0.393464 0.067208
Si Si3 0.268259 0.871634 0.476485
Si Si4 0.107622 0.653484 0.271052
Si Si5 0.994701 0.825261 0.314678
Si Si6 0.650025 0.865655 0.920566
Si Si7 0.007371 0.423881 0.324350
Si Si8 0.027989 0.833646 0.764755
O O1 0.559043 0.317227 0.253572
O O2 0.520527 0.085509 0.552736
O O3 0.237130 0.177084 0.605876
O O4 0.180702 0.026261 0.587616
O O5 0.856320 0.253333 0.145571
O O6 0.000000 0.500000 0.000000
O O7 0.814336 0.483911 0.890101
O O8 0.214123 0.714767 0.556202
O O9 0.056849 0.819877 0.652983
O O10 0.320294 0.019874 0.272516
O O11 0.041774 0.775061 0.238126
O O12 0.000000 0.500000 0.500000
O O13 0.008596 0.566944 0.267390
O O14 0.382476 0.745950 0.116019
O O15 0.959009 0.688273 0.517131
O O16 0.207432 0.002526 0.143122
O O17 0.779119 0.774048 0.927076
#
# Coordination Sequence:
#
# PCOD9089463 Si02
#       8
#     2   2   2   2   2   2   2   2
#     4  10  21  36  60  85 121 152 188 240 286 341
#     4  11  20  35  58  85 129 152 179 234 297 343
#     4  10  19  38  56  88 123 148 187 233 288 350
#     4  10  22  40  60  84 114 150 199 245 282 334
#     4   9  21  42  60  82 113 152 203 239 279 336
#     4  10  21  37  65  82 109 155 196 239 287 338
#     4  10  21  37  57  85 118 156 190 230 289 344
#     4  10  21  36  57  88 119 151 191 229 289 350
#
# _framework density 20.551300000000001
#
# number of rings (size 3 to 8) (size 9 to 14) (size 15 to 20)
#    0.000    2.000    2.500    2.250    3.500    2.500 
#    0.000    1.250    5.500    0.000    0.000    0.000 
#    0.000    0.000    0.000    0.000    0.000    0.000 
#
# Total GULP energy -89169.000448 kJ/mol
# GULP energy per Si atom -5573.062528 kJ/mol
# Density = 2.050452 g / cm^3
# Si number density = 20.551300 Si / 1000 Ang^3
#
#
#
# Elastic Constant Matrix: (Units=GPa)
#
#
# Indices 1 2 3 4 5 6 
#
# 1 21.7415 21.0622 8.9011 4.7888 -8.6235 -4.7986
# 2 21.0622 135.2475 32.6370 9.4044 -27.5526 0.6275
# 3 8.9011 32.6370 69.0336 -1.8012 -33.7354 -8.9038
# 4 4.7888 9.4044 -1.8012 19.4880 -9.0752 -7.0088
# 5 -8.6235 -27.5526 -33.7354 -9.0752 12.2048 6.5368
# 6 -4.7986 0.6275 -8.9038 -7.0088 6.5368 25.8841
#
#
#
# Elastic Compliance Matrix: (Units=1/GPa)
#
#
# Indices 1 2 3 4 5 6 
#
# 1 0.057919 -0.008100 -0.006017 -0.011111 -0.006235 0.007430
# 2 -0.008100 0.009867 -0.006595 -0.007181 -0.004427 -0.004836
# 3 -0.006017 -0.006595 -0.005250 -0.016735 -0.048786 0.005028
# 4 -0.011111 -0.007181 -0.016735 0.038103 -0.050211 0.015355
# 5 -0.006235 -0.004427 -0.048786 -0.050211 -0.101554 -0.005780
# 6 0.007430 -0.004836 0.005028 0.015355 -0.005780 0.047475
#
#
# Mechanical properties :
#
#
# Convention : Reuss Voigt Hill
#
# Bulk Modulus (GPa) = 47.36350 39.02483 43.19416
# Shear Modulus (GPa) = 52.61997 22.41021 37.51509
#
# Velocity S-wave (km/s) = 5.06555 3.30578 4.27715
# Velocity P-wave (km/s) = 7.57031 5.79665 6.74206
#
# Compressibility (1/GPa) = 0.02111330
#
# Stress axis : x y z
#
# Youngs Moduli (GPa) = 17.26538 101.35241 -190.48073
#
# Poissons Ratio (x) = 0.82094 -1.14613
# Poissons Ratio (y) = 0.13985 -1.25613
# Poissons Ratio (z) = 0.10389 0.66837
#
# Static dielectric constant tensor:
#      x y z
#    x 1.708040 -0.011760 0.012750 
#    y -0.011760 1.822990 -0.040610 
#    z 0.012750 -0.040610 1.751060 
# 
# From -- ./inp_files/170420.got.cif
#   From: 2010.05.17/outbox.cif.g08.bks.cpg/sg2_86_cif.got.tgz:170420.got - 2010.06.03 11:33:40.
