data_PCOD9089467
_publ_section_title
;
Structure prediction by ZEFSAII (Michael W. Deem and Ramdas Pophale) SiO2 
 PCOD9089467
Probable space group: P -1
;
_chemical_formula_sum "Si O2"
_cell_formula_units_Z 16
_cell_length_a 13.914719
_cell_length_b 8.872164
_cell_length_c 12.262571
_cell_angle_alpha 52.386622
_cell_angle_beta 41.654060
_cell_angle_gamma 44.157815
_cell_volume 691.845599
_symmetry_space_group_name_H-M "P -1"
_symmetry_group_IT_number 2
_symmetry_cell_setting 'triclinic'
loop_
_space_group_symop_operation_xyz
x,y,z
-x,-y,-z
loop_
_atom_site_type_symbol
_atom_site_label
_atom_site_fract_x
_atom_site_fract_y
_atom_site_fract_z
Si Si1 0.576082 0.421196 0.090985
Si Si2 0.485915 0.214198 0.860041
Si Si3 0.939286 0.160109 0.343576
Si Si4 0.933587 0.337998 0.486908
Si Si5 0.381776 0.758607 0.491792
Si Si6 0.524963 0.042419 0.273249
Si Si7 0.828085 0.710723 0.017086
Si Si8 0.219263 0.446618 0.250613
O O1 0.485896 0.626301 0.156285
O O2 0.564088 0.211211 0.230196
O O3 0.500000 0.500000 0.000000
O O4 0.755996 0.394242 0.923173
O O5 0.603292 0.169026 0.676476
O O6 0.293642 0.342925 0.926141
O O7 0.500000 0.000000 0.000000
O O8 0.866211 0.348307 0.416846
O O9 0.799988 0.208932 0.349224
O O10 0.107617 0.149432 0.165952
O O11 0.983582 0.919924 0.449244
O O12 0.819349 0.458980 0.634706
O O13 0.073971 0.408408 0.344758
O O14 0.500000 0.500000 0.500000
O O15 0.441497 0.900971 0.449291
O O16 0.387199 0.212231 0.228157
O O17 0.699797 0.864837 0.150406
O O18 0.000000 0.500000 0.000000
#
# Coordination Sequence:
#
# PCOD9089467 Si02
#       8
#     2   2   2   2   2   2   2   2
#     4  10  20  34  64  96 136 162 221 276 334 380
#     4  11  24  41  72 103 129 174 235 278 324 402
#     4  11  22  36  61  92 128 163 219 262 335 381
#     4  10  22  33  60  96 133 158 204 275 333 386
#     4  11  24  43  65  91 134 177 225 274 335 401
#     4  10  21  40  64  89 123 179 222 257 326 399
#     4  11  24  43  67  93 133 177 223 279 335 400
#     4  10  19  38  56  96 133 166 200 268 342 386
#
# _framework density 23.126546000000001
#
# number of rings (size 3 to 8) (size 9 to 14) (size 15 to 20)
#    0.000    1.500    1.250    6.000    7.000    0.000 
#    0.000    1.250    2.750    0.000    0.000    0.000 
#    0.000    0.000    0.000    0.000    0.000    0.000 
#
# Total GULP energy -89205.790997 kJ/mol
# GULP energy per Si atom -5575.361937 kJ/mol
# Density = 2.307391 g / cm^3
# Si number density = 23.126546 Si / 1000 Ang^3
#
#
#
# Elastic Constant Matrix: (Units=GPa)
#
#
# Indices 1 2 3 4 5 6 
#
# 1 59.5985 45.9723 29.9667 -7.0724 -18.4158 21.0413
# 2 45.9723 107.4093 8.5485 -9.2469 -8.3714 21.1613
# 3 29.9667 8.5485 81.2818 -5.1322 -19.0209 16.3550
# 4 -7.0724 -9.2469 -5.1322 41.4371 5.0967 -14.3849
# 5 -18.4158 -8.3714 -19.0209 5.0967 33.3545 -2.7948
# 6 21.0413 21.1613 16.3550 -14.3849 -2.7948 42.4301
#
#
#
# Elastic Compliance Matrix: (Units=1/GPa)
#
#
# Indices 1 2 3 4 5 6 
#
# 1 0.037415 -0.012815 -0.007826 -0.002125 0.012546 -0.009041
# 2 -0.012815 0.014896 0.003212 0.001038 -0.001838 -0.002081
# 3 -0.007826 0.003212 0.017031 -0.000673 0.005955 -0.004122
# 4 -0.002125 0.001038 -0.000673 0.027959 -0.004734 0.009962
# 5 0.012546 -0.001838 0.005955 -0.004734 0.040015 -0.006569
# 6 -0.009041 -0.002081 -0.004122 0.009962 -0.006569 0.033623
#
#
# Mechanical properties :
#
#
# Convention : Reuss Voigt Hill
#
# Bulk Modulus (GPa) = 28.99864 46.36273 37.68069
# Shear Modulus (GPa) = 23.01063 34.36447 28.68755
#
# Velocity S-wave (km/s) = 3.15776 3.85896 3.52584
# Velocity P-wave (km/s) = 5.08543 6.32031 5.73620
#
# Compressibility (1/GPa) = 0.03448437
#
# Stress axis : x y z
#
# Youngs Moduli (GPa) = 26.72704 67.13340 58.71810
#
# Poissons Ratio (x) = 0.86033 0.45950
# Poissons Ratio (y) = 0.34251 -0.18862
# Poissons Ratio (z) = 0.20915 -0.21565
#
# Static dielectric constant tensor:
#      x y z
#    x 1.996150 0.016000 -0.008190 
#    y 0.016000 1.873340 -0.019000 
#    z -0.008190 -0.019000 1.970970 
# 
# From -- ./inp_files/345967.got.cif
#   From: 2010.05.17/outbox.cif.g08.bks.cpg/sg2_173_cif.got.tgz:345967.got - 2010.06.03 11:33:40.
