data_PCOD9089576
_publ_section_title
;
Structure prediction by ZEFSAII (Michael W. Deem and Ramdas Pophale) SiO2 
 PCOD9089576
Probable space group: P -1
;
_chemical_formula_sum "Si O2"
_cell_formula_units_Z 16
_cell_length_a 25.943057
_cell_length_b 10.419789
_cell_length_c 12.418232
_cell_angle_alpha 46.097100
_cell_angle_beta 154.938239
_cell_angle_gamma 147.687598
_cell_volume 720.485223
_symmetry_space_group_name_H-M "P -1"
_symmetry_group_IT_number 2
_symmetry_cell_setting 'triclinic'
loop_
_space_group_symop_operation_xyz
x,y,z
-x,-y,-z
loop_
_atom_site_type_symbol
_atom_site_label
_atom_site_fract_x
_atom_site_fract_y
_atom_site_fract_z
Si Si1 0.645265 0.637566 0.580897
Si Si2 0.000600 0.619726 0.038403
Si Si3 0.376062 0.797780 0.473086
Si Si4 0.193107 0.978020 0.504272
Si Si5 0.802416 0.493508 0.110607
Si Si6 0.240340 0.684205 0.633266
Si Si7 0.555684 0.896553 0.952352
Si Si8 0.325292 0.116663 0.311106
O O1 0.456994 0.371478 0.341430
O O2 0.610634 0.773465 0.511355
O O3 0.783683 0.830280 0.640528
O O4 0.724986 0.578176 0.848824
O O5 0.086799 0.594603 0.313573
O O6 0.799233 0.451356 0.769287
O O7 0.118780 0.912407 0.059135
O O8 0.000000 0.500000 0.000000
O O9 0.473704 0.770360 0.755026
O O10 0.500000 0.000000 0.500000
O O11 0.345226 0.937847 0.410831
O O12 0.281124 0.907669 0.644894
O O13 0.004208 0.710635 0.332371
O O14 0.319292 0.129431 0.755578
O O15 0.797634 0.485732 0.237434
O O16 0.688261 0.205406 0.021496
O O17 0.395844 0.772112 0.803309
#
# Coordination Sequence:
#
# PCOD9089576 Si02
#       8
#     2   2   2   2   2   2   2   2
#     4  11  21  38  65  86 129 157 192 249 310 374
#     4  10  19  38  59  88 116 155 207 240 281 350
#     4  11  23  37  65  89 123 160 202 254 284 356
#     4  11  23  35  58  88 128 155 190 263 303 356
#     4  11  23  35  58  91 123 156 195 253 312 351
#     4  11  20  36  60  88 122 154 204 255 286 355
#     4  11  21  38  57  94 117 155 211 242 302 345
#     4  10  21  38  60  93 115 159 205 240 298 360
#
# _framework density 22.207257999999999
#
# number of rings (size 3 to 8) (size 9 to 14) (size 15 to 20)
#    0.000    1.250    5.000    3.375    8.750    0.000 
#    2.250    0.000    0.000    7.500    0.000    0.000 
#    0.000    0.000    0.000    0.000    0.000    0.000 
#
# Total GULP energy -89086.639315 kJ/mol
# GULP energy per Si atom -5567.914957 kJ/mol
# Density = 2.215671 g / cm^3
# Si number density = 22.207258 Si / 1000 Ang^3
#
#
#
# Elastic Constant Matrix: (Units=GPa)
#
#
# Indices 1 2 3 4 5 6 
#
# 1 37.0327 28.9745 25.8006 -6.9176 -7.1404 28.5599
# 2 28.9745 109.1890 42.0884 14.1901 -7.7366 39.4737
# 3 25.8006 42.0884 155.3769 12.5389 -21.3824 33.8801
# 4 -6.9176 14.1901 12.5389 43.7331 9.4286 0.8071
# 5 -7.1404 -7.7366 -21.3824 9.4286 27.0435 3.5243
# 6 28.5599 39.4737 33.8801 0.8071 3.5243 48.8946
#
#
#
# Elastic Compliance Matrix: (Units=1/GPa)
#
#
# Indices 1 2 3 4 5 6 
#
# 1 0.060567 -0.003743 -0.000079 0.007883 0.016492 -0.033620
# 2 -0.003743 0.015456 0.000510 -0.007231 0.007803 -0.011088
# 3 -0.000079 0.000510 0.009966 -0.005231 0.010867 -0.007968
# 4 0.007883 -0.007231 -0.005231 0.031250 -0.015732 0.005476
# 5 0.016492 0.007803 0.010867 -0.015732 0.061240 -0.027617
# 6 -0.033620 -0.011088 -0.007968 0.005476 -0.027617 0.056463
#
#
# Mechanical properties :
#
#
# Convention : Reuss Voigt Hill
#
# Bulk Modulus (GPa) = 12.60007 55.03616 33.81812
# Shear Modulus (GPa) = 18.65514 37.58326 28.11920
#
# Velocity S-wave (km/s) = 2.90150 4.11833 3.56225
# Velocity P-wave (km/s) = 4.11231 6.88846 5.67283
#
# Compressibility (1/GPa) = 0.07936464
#
# Stress axis : x y z
#
# Youngs Moduli (GPa) = 16.51052 64.69838 100.34056
#
# Poissons Ratio (x) = 0.24219 0.00793
# Poissons Ratio (y) = 0.06181 -0.05116
# Poissons Ratio (z) = 0.00130 -0.03299
#
# Static dielectric constant tensor:
#      x y z
#    x 1.882690 0.042370 0.043940 
#    y 0.042370 1.914820 -0.021770 
#    z 0.043940 -0.021770 1.969570 
# 
# From -- ./inp_files/476644.got.cif
#   From: 2010.05.17/outbox.cif.g08.bks.cpg/sg2_239_cif.got.tgz:476644.got - 2010.06.03 11:33:40.
