data_PCOD9089486
_publ_section_title
;
Structure prediction by ZEFSAII (Michael W. Deem and Ramdas Pophale) SiO2 
 PCOD9089486
Probable space group: P -1
;
_chemical_formula_sum "Si O2"
_cell_formula_units_Z 14
_cell_length_a 9.194162
_cell_length_b 14.332405
_cell_length_c 12.502747
_cell_angle_alpha 29.958883
_cell_angle_beta 108.219619
_cell_angle_gamma 126.005733
_cell_volume 581.380783
_symmetry_space_group_name_H-M "P -1"
_symmetry_group_IT_number 2
_symmetry_cell_setting 'triclinic'
loop_
_space_group_symop_operation_xyz
x,y,z
-x,-y,-z
loop_
_atom_site_type_symbol
_atom_site_label
_atom_site_fract_x
_atom_site_fract_y
_atom_site_fract_z
Si Si1 0.067287 0.752616 0.315747
Si Si2 0.574885 0.412983 0.968658
Si Si3 0.495538 0.720530 0.153599
Si Si4 0.365300 0.570669 0.492925
Si Si5 0.023206 0.794492 0.718173
Si Si6 0.531392 0.815395 0.505570
Si Si7 0.226527 0.860388 0.482954
O O1 0.097575 0.765833 0.437436
O O2 0.000000 0.500000 0.500000
O O3 0.863317 0.699666 0.290558
O O4 0.275849 0.009279 0.063976
O O5 0.587122 0.327754 0.937748
O O6 0.536539 0.602789 0.754442
O O7 0.792168 0.549301 0.939692
O O8 0.373309 0.162115 0.224478
O O9 0.388429 0.698369 0.259833
O O10 0.489711 0.491019 0.398206
O O11 0.423027 0.740485 0.439725
O O12 0.080974 0.750629 0.660846
O O13 0.229655 0.928468 0.700461
O O14 0.000000 0.000000 0.500000
O O15 0.390945 0.827483 0.537935
#
# Coordination Sequence:
#
# PCOD9089486 Si02
#       7
#     2   2   2   2   2   2   2
#     4  11  21  36  58  88 119 153 193 238 299 355
#     4   9  21  41  62  87 119 157 200 244 299 354
#     4   9  20  36  61  85 114 159 193 242 297 351
#     4  10  19  38  57  84 123 151 196 244 290 354
#     4  10  22  41  64  87 118 157 203 246 297 355
#     4  10  21  39  60  89 121 155 201 245 293 357
#     4  11  22  41  62  88 121 157 197 251 298 347
#
# _framework density 24.080601999999999
#
# number of rings (size 3 to 8) (size 9 to 14) (size 15 to 20)
#    0.000    2.000    1.429    1.714    0.000    4.571 
#    2.571    4.286    0.000    0.000    0.000    0.000 
#    0.000    0.000    0.000    0.000    0.000    0.000 
#
# Total GULP energy -78216.545061 kJ/mol
# GULP energy per Si atom -5586.896076 kJ/mol
# Density = 2.402579 g / cm^3
# Si number density = 24.080602 Si / 1000 Ang^3
#
#
#
# Elastic Constant Matrix: (Units=GPa)
#
#
# Indices 1 2 3 4 5 6 
#
# 1 96.2251 25.1541 6.3247 -7.1283 6.8304 3.5819
# 2 25.1541 111.9326 14.9927 -27.6657 -13.0999 -0.4465
# 3 6.3247 14.9927 58.6561 -16.9128 -7.8919 -1.6533
# 4 -7.1283 -27.6657 -16.9128 33.4697 6.8584 -9.7204
# 5 6.8304 -13.0999 -7.8919 6.8584 35.7711 -15.5375
# 6 3.5819 -0.4465 -1.6533 -9.7204 -15.5375 32.8372
#
#
#
# Elastic Compliance Matrix: (Units=1/GPa)
#
#
# Indices 1 2 3 4 5 6 
#
# 1 0.011863 -0.003434 -0.001649 -0.001294 -0.005568 -0.004441
# 2 -0.003434 0.013208 0.001467 0.011657 0.006738 0.007267
# 3 -0.001649 0.001467 0.021704 0.012851 0.006785 0.008307
# 4 -0.001294 0.011657 0.012851 0.049905 0.005804 0.018466
# 5 -0.005568 0.006738 0.006785 0.005804 0.041623 0.022453
# 6 -0.004441 0.007267 0.008307 0.018466 0.022453 0.047545
#
#
# Mechanical properties :
#
#
# Convention : Reuss Voigt Hill
#
# Bulk Modulus (GPa) = 25.28938 39.97295 32.63116
# Shear Modulus (GPa) = 24.24113 35.10508 29.67310
#
# Velocity S-wave (km/s) = 3.17624 3.82228 3.51414
# Velocity P-wave (km/s) = 4.89654 6.00961 5.48140
#
# Compressibility (1/GPa) = 0.03954229
#
# Stress axis : x y z
#
# Youngs Moduli (GPa) = 84.29505 75.71157 46.07505
#
# Poissons Ratio (x) = 0.26002 0.07597
# Poissons Ratio (y) = 0.28950 -0.06759
# Poissons Ratio (z) = 0.13899 -0.11106
#
# Static dielectric constant tensor:
#      x y z
#    x 2.041410 -0.028470 0.026730 
#    y -0.028470 1.962010 0.016290 
#    z 0.026730 0.016290 1.904190 
# 
# From -- ./inp_files/276228.got.cif
#   From: 2010.05.17/outbox.cif.g08.bks.cpg/sg2_139_cif.got.tgz:276228.got - 2010.06.03 11:33:40.
