data_PCOD9089025
_publ_section_title
;
Structure prediction by ZEFSAII (Michael W. Deem and Ramdas Pophale) SiO2 
 PCOD9089025
Probable space group: P -1
;
_chemical_formula_sum "Si O2"
_cell_formula_units_Z 16
_cell_length_a 22.485939
_cell_length_b 11.499947
_cell_length_c 16.692805
_cell_angle_alpha 147.950995
_cell_angle_beta 157.774492
_cell_angle_gamma 43.958976
_cell_volume 820.038588
_symmetry_space_group_name_H-M "P -1"
_symmetry_group_IT_number 2
_symmetry_cell_setting 'triclinic'
loop_
_space_group_symop_operation_xyz
x,y,z
-x,-y,-z
loop_
_atom_site_type_symbol
_atom_site_label
_atom_site_fract_x
_atom_site_fract_y
_atom_site_fract_z
Si Si1 0.601342 0.847180 0.894464
Si Si2 0.626597 0.325535 0.274221
Si Si3 0.005453 0.628120 0.253534
Si Si4 0.333589 0.778278 0.403582
Si Si5 0.588891 0.683775 0.151799
Si Si6 0.914490 0.041221 0.300922
Si Si7 0.370805 0.496081 0.149381
Si Si8 0.111379 0.367929 0.606394
O O1 0.427004 0.712536 0.558141
O O2 0.688123 0.698388 0.967577
O O3 0.586001 0.047512 0.051603
O O4 0.718913 0.949163 0.024181
O O5 0.529074 0.431619 0.277331
O O6 0.823545 0.417067 0.581322
O O7 0.550357 0.373730 0.124290
O O8 0.029929 0.749631 0.442566
O O9 0.980646 0.828993 0.282561
O O10 0.855508 0.389005 0.926239
O O11 0.405132 0.726709 0.378013
O O12 0.367295 0.049973 0.612174
O O13 0.760610 0.668961 0.320932
O O14 0.500000 0.500000 0.000000
O O15 0.983979 0.144896 0.362243
O O16 0.239743 0.482121 0.906859
O O17 0.000000 0.500000 0.500000
#
# Coordination Sequence:
#
# PCOD9089025 Si02
#       8
#     2   2   2   2   2   2   2   2
#     4  10  20  36  65  95 133 169 195 254 328 374
#     4   9  21  37  63  89 127 170 207 251 312 380
#     4  10  19  37  65  97 127 161 199 260 319 368
#     4  11  22  39  67  96 127 162 209 263 318 371
#     4  10  25  46  62  86 125 173 213 257 319 375
#     4  10  19  37  64  94 128 163 207 248 315 383
#     4  11  20  40  62  97 127 162 214 255 311 376
#     4  11  24  41  68  91 121 170 223 255 298 380
#
# _framework density 19.511275999999999
#
# number of rings (size 3 to 8) (size 9 to 14) (size 15 to 20)
#    0.000    1.750    2.500    2.250    5.250    2.000 
#    2.250    6.250    0.000    0.000    0.000    0.000 
#    0.000    0.000    0.000    0.000    0.000    0.000 
#
# Total GULP energy -89130.947123 kJ/mol
# GULP energy per Si atom -5570.684195 kJ/mol
# Density = 1.946687 g / cm^3
# Si number density = 19.511276 Si / 1000 Ang^3
#
#
#
# Elastic Constant Matrix: (Units=GPa)
#
#
# Indices 1 2 3 4 5 6 
#
# 1 119.8414 67.4124 43.6761 3.1001 16.7038 -9.0978
# 2 67.4124 113.7007 36.6001 -16.3701 7.9345 -1.2572
# 3 43.6761 36.6001 108.9493 -13.8710 5.0312 -9.2323
# 4 3.1001 -16.3701 -13.8710 27.0174 -1.0425 11.2394
# 5 16.7038 7.9345 5.0312 -1.0425 28.9113 2.9214
# 6 -9.0978 -1.2572 -9.2323 11.2394 2.9214 32.7737
#
#
#
# Elastic Compliance Matrix: (Units=1/GPa)
#
#
# Indices 1 2 3 4 5 6 
#
# 1 0.018451 -0.011025 -0.004459 -0.015340 -0.008367 0.009450
# 2 -0.011025 0.017284 -0.000286 0.014988 0.003013 -0.007886
# 3 -0.004459 -0.000286 0.011836 0.006546 0.000855 -0.000236
# 4 -0.015340 0.014988 0.006546 0.061355 0.008209 -0.023612
# 5 -0.008367 0.003013 0.000855 0.008209 0.039583 -0.008310
# 6 0.009450 -0.007886 -0.000236 -0.023612 -0.008310 0.041605
#
#
# Mechanical properties :
#
#
# Convention : Reuss Voigt Hill
#
# Bulk Modulus (GPa) = 62.37555 70.87429 66.62492
# Shear Modulus (GPa) = 22.02667 30.72732 26.37699
#
# Velocity S-wave (km/s) = 3.36359 3.97274 3.68079
# Velocity P-wave (km/s) = 6.86464 7.57939 7.23086
#
# Compressibility (1/GPa) = 0.01603192
#
# Stress axis : x y z
#
# Youngs Moduli (GPa) = 54.19645 57.85750 84.48582
#
# Poissons Ratio (x) = 0.63785 0.37675
# Poissons Ratio (y) = 0.59749 0.02416
# Poissons Ratio (z) = 0.24168 0.01655
#
# Static dielectric constant tensor:
#      x y z
#    x 1.741820 -0.009830 0.029360 
#    y -0.009830 1.711770 -0.000390 
#    z 0.029360 -0.000390 1.715490 
# 
# From -- ./inp_files/579269.got.cif
#   From: 2010.05.17/outbox.cif.g08.bks.cpg/sg2_290_cif.got.tgz:579269.got - 2010.06.03 11:33:40.
