data_PCOD9089221
_publ_section_title
;
Structure prediction by ZEFSAII (Michael W. Deem and Ramdas Pophale) SiO2 
 PCOD9089221
Probable space group: P -1
;
_chemical_formula_sum "Si O2"
_cell_formula_units_Z 16
_cell_length_a 15.629854
_cell_length_b 8.243537
_cell_length_c 14.698366
_cell_angle_alpha 63.487149
_cell_angle_beta 32.880584
_cell_angle_gamma 41.310620
_cell_volume 581.961444
_symmetry_space_group_name_H-M "P -1"
_symmetry_group_IT_number 2
_symmetry_cell_setting 'triclinic'
loop_
_space_group_symop_operation_xyz
x,y,z
-x,-y,-z
loop_
_atom_site_type_symbol
_atom_site_label
_atom_site_fract_x
_atom_site_fract_y
_atom_site_fract_z
Si Si1 0.632503 0.610167 0.700482
Si Si2 0.783656 0.812755 0.315798
Si Si3 0.466081 0.702046 0.059436
Si Si4 0.555283 0.351079 0.336454
Si Si5 0.814739 0.328926 0.241401
Si Si6 0.867012 0.945883 0.581942
Si Si7 0.040664 0.171528 0.675549
Si Si8 0.206462 0.177267 0.025674
O O1 0.567061 0.487609 0.852048
O O2 0.578419 0.577578 0.656142
O O3 0.923387 0.390945 0.505599
O O4 0.472683 0.921169 0.801973
O O5 0.804256 0.831156 0.400093
O O6 0.031360 0.482638 0.151734
O O7 0.500000 0.000000 0.500000
O O8 0.781942 0.007652 0.219073
O O9 0.390247 0.851303 0.188418
O O10 0.263561 0.977949 0.105054
O O11 0.755051 0.486334 0.839874
O O12 0.675047 0.431736 0.244990
O O13 0.378861 0.466772 0.552987
O O14 0.026936 0.283621 0.075740
O O15 0.952205 0.020090 0.224285
O O16 0.846865 0.982097 0.483614
O O17 0.000000 0.000000 0.500000
#
# Coordination Sequence:
#
# PCOD9089221 Si02
#       8
#     2   2   2   2   2   2   2   2
#     4  11  21  38  66 102 136 163 221 284 335 388
#     4  11  26  46  66  90 135 190 220 267 329 401
#     4  11  22  40  69 102 132 166 217 283 340 387
#     4  10  22  40  64  96 129 173 230 268 330 397
#     4  10  19  37  66  93 124 171 223 276 322 384
#     4  10  21  36  65 103 133 163 209 277 337 389
#     4  11  22  44  68 101 134 171 227 272 335 396
#     4  12  22  40  68  92 134 179 215 270 336 392
#
# _framework density 27.493228999999999
#
# number of rings (size 3 to 8) (size 9 to 14) (size 15 to 20)
#    0.000    1.250    3.750    4.125    0.000    1.500 
#    0.000    1.875    0.000    0.000    0.000    0.000 
#    0.000    0.000    0.000    0.000    0.000    0.000 
#
# Total GULP energy -89379.127421 kJ/mol
# GULP energy per Si atom -5586.195464 kJ/mol
# Density = 2.743065 g / cm^3
# Si number density = 27.493229 Si / 1000 Ang^3
#
#
#
# Elastic Constant Matrix: (Units=GPa)
#
#
# Indices 1 2 3 4 5 6 
#
# 1 174.6218 30.5563 41.2715 11.4983 21.4034 -28.7811
# 2 30.5563 101.6572 30.9889 29.4951 -6.0095 -19.6376
# 3 41.2715 30.9889 143.8572 37.0342 3.7667 -1.2973
# 4 11.4983 29.4951 37.0342 48.9480 -7.3642 2.4275
# 5 21.4034 -6.0095 3.7667 -7.3642 39.8219 8.5042
# 6 -28.7811 -19.6376 -1.2973 2.4275 8.5042 27.8525
#
#
#
# Elastic Compliance Matrix: (Units=1/GPa)
#
#
# Indices 1 2 3 4 5 6 
#
# 1 0.009294 0.000590 -0.001668 -0.003113 -0.008029 0.012665
# 2 0.000590 0.014990 -0.000743 -0.009614 -0.002483 0.012740
# 3 -0.001668 -0.000743 0.009215 -0.006241 -0.001037 -0.000957
# 4 -0.003113 -0.009614 -0.006241 0.034096 0.010643 -0.016508
# 5 -0.008029 -0.002483 -0.001037 0.010643 0.035808 -0.021957
# 6 0.012665 0.012740 -0.000957 -0.016508 -0.021957 0.066071
#
#
# Mechanical properties :
#
#
# Convention : Reuss Voigt Hill
#
# Bulk Modulus (GPa) = 33.49290 69.52997 51.51143
# Shear Modulus (GPa) = 27.31205 44.47911 35.89558
#
# Velocity S-wave (km/s) = 3.15526 4.02658 3.61725
# Velocity P-wave (km/s) = 5.04806 6.85292 6.01853
#
# Compressibility (1/GPa) = 0.02985708
#
# Stress axis : x y z
#
# Youngs Moduli (GPa) = 107.59475 66.71123 108.51752
#
# Poissons Ratio (x) = -0.03935 0.18097
# Poissons Ratio (y) = -0.06346 0.08066
# Poissons Ratio (z) = 0.17943 0.04959
#
# Static dielectric constant tensor:
#      x y z
#    x 2.205950 0.061980 0.024240 
#    y 0.061980 2.294700 -0.042220 
#    z 0.024240 -0.042220 2.270440 
# 
# From -- ./inp_files/529773.got.cif
#   From: 2010.05.17/outbox.cif.g08.bks.cpg/sg2_265_cif.got.tgz:529773.got - 2010.06.03 11:33:40.
