data_PCOD9089531
_publ_section_title
;
Structure prediction by ZEFSAII (Michael W. Deem and Ramdas Pophale) SiO2 
 PCOD9089531
Probable space group: P -1
;
_chemical_formula_sum "Si O2"
_cell_formula_units_Z 16
_cell_length_a 9.375211
_cell_length_b 9.153645
_cell_length_c 12.238779
_cell_angle_alpha 96.736990
_cell_angle_beta 80.285601
_cell_angle_gamma 133.727951
_cell_volume 748.094788
_symmetry_space_group_name_H-M "P -1"
_symmetry_group_IT_number 2
_symmetry_cell_setting 'triclinic'
loop_
_space_group_symop_operation_xyz
x,y,z
-x,-y,-z
loop_
_atom_site_type_symbol
_atom_site_label
_atom_site_fract_x
_atom_site_fract_y
_atom_site_fract_z
Si Si1 0.571737 0.551341 0.211191
Si Si2 0.441554 0.658267 0.613787
Si Si3 0.823664 0.987776 0.123810
Si Si4 0.418513 0.982722 0.674207
Si Si5 0.912923 0.163349 0.445733
Si Si6 0.705786 0.418875 0.621137
Si Si7 0.116717 0.006264 0.354149
Si Si8 0.766698 0.865696 0.884390
O O1 0.655241 0.518318 0.300777
O O2 0.732771 0.765532 0.151281
O O3 0.407442 0.546056 0.283224
O O4 0.446971 0.356738 0.131284
O O5 0.424083 0.813382 0.670627
O O6 0.366384 0.600226 0.495099
O O7 0.677758 0.789052 0.600724
O O8 0.714007 0.031091 0.216501
O O9 0.773329 0.967367 0.000863
O O10 0.060844 0.138078 0.121825
O O11 0.305083 0.945555 0.573224
O O12 0.631262 0.209761 0.655168
O O13 0.061748 0.385711 0.394912
O O14 0.943465 0.163757 0.570645
O O15 0.965919 0.038404 0.380326
O O16 0.170662 0.007623 0.223638
#
# Coordination Sequence:
#
# PCOD9089531 Si02
#       8
#     2   2   2   2   2   2   2   2
#     4  10  21  36  57  87 112 146 197 234 274 341
#     4  11  22  37  56  86 126 147 185 239 288 338
#     4  10  21  36  65  81 108 157 190 234 286 334
#     4  11  23  40  54  88 123 149 186 237 290 338
#     4  11  21  36  59  83 119 151 189 232 283 338
#     4  11  21  35  60  82 115 159 188 222 284 348
#     4  10  21  36  58  86 118 146 187 247 272 333
#     4  10  19  38  58  88 111 140 203 240 271 330
#
# _framework density 21.387664000000001
#
# number of rings (size 3 to 8) (size 9 to 14) (size 15 to 20)
#    0.000    1.500    5.000    1.125    1.750    0.500 
#    0.000    2.500    0.000    3.000    0.000    0.000 
#    0.000    0.000    0.000    0.000    0.000    0.000 
#
# Total GULP energy -89449.661403 kJ/mol
# GULP energy per Si atom -5590.603838 kJ/mol
# Density = 2.133898 g / cm^3
# Si number density = 21.387664 Si / 1000 Ang^3
#
#
#
# Elastic Constant Matrix: (Units=GPa)
#
#
# Indices 1 2 3 4 5 6 
#
# 1 55.4404 17.0281 1.3718 -0.2109 -5.5437 -8.9492
# 2 17.0281 55.9420 4.0008 -11.0331 -3.3338 5.7226
# 3 1.3718 4.0008 100.0080 6.1454 0.6574 -2.9612
# 4 -0.2109 -11.0331 6.1454 30.1886 1.1791 1.9279
# 5 -5.5437 -3.3338 0.6574 1.1791 18.2137 2.6915
# 6 -8.9492 5.7226 -2.9612 1.9279 2.6915 26.5042
#
#
#
# Elastic Compliance Matrix: (Units=1/GPa)
#
#
# Indices 1 2 3 4 5 6 
#
# 1 0.022483 -0.008320 0.000502 -0.003742 0.004171 0.009292
# 2 -0.008320 0.023439 -0.001680 0.009325 0.002544 -0.008994
# 3 0.000502 -0.001680 0.010294 -0.002806 -0.000633 0.001951
# 4 -0.003742 0.009325 -0.002806 0.037509 -0.000838 -0.006234
# 5 0.004171 0.002544 -0.000633 -0.000838 0.057453 -0.004985
# 6 0.009292 -0.008994 0.001951 -0.006234 -0.004985 0.043987
#
#
# Mechanical properties :
#
#
# Convention : Reuss Voigt Hill
#
# Bulk Modulus (GPa) = 26.86597 28.46575 27.66586
# Shear Modulus (GPa) = 22.06864 27.58062 24.82463
#
# Velocity S-wave (km/s) = 3.21571 3.59494 3.41060
# Velocity P-wave (km/s) = 5.13580 5.52899 5.33602
#
# Compressibility (1/GPa) = 0.03722181
#
# Stress axis : x y z
#
# Youngs Moduli (GPa) = 44.47780 42.66402 97.14563
#
# Poissons Ratio (x) = 0.35495 -0.04878
# Poissons Ratio (y) = 0.37003 0.16317
# Poissons Ratio (z) = -0.02233 0.07166
#
# Static dielectric constant tensor:
#      x y z
#    x 1.766900 0.016600 0.005330 
#    y 0.016600 1.815820 -0.005730 
#    z 0.005330 -0.005730 1.796200 
# 
# From -- ./inp_files/207893.got.cif
#   From: 2010.05.17/outbox.cif.g08.bks.cpg/sg2_104_cif.got.tgz:207893.got - 2010.06.03 11:33:40.
