data_PCOD9089366
_publ_section_title
;
Structure prediction by ZEFSAII (Michael W. Deem and Ramdas Pophale) SiO2 
 PCOD9089366
Probable space group: P -1
;
_chemical_formula_sum "Si O2"
_cell_formula_units_Z 14
_cell_length_a 7.684595
_cell_length_b 12.874663
_cell_length_c 13.200233
_cell_angle_alpha 35.799324
_cell_angle_beta 76.575467
_cell_angle_gamma 54.740071
_cell_volume 542.278633
_symmetry_space_group_name_H-M "P -1"
_symmetry_group_IT_number 2
_symmetry_cell_setting 'triclinic'
loop_
_space_group_symop_operation_xyz
x,y,z
-x,-y,-z
loop_
_atom_site_type_symbol
_atom_site_label
_atom_site_fract_x
_atom_site_fract_y
_atom_site_fract_z
Si Si1 0.299292 0.478225 0.030041
Si Si2 0.210292 0.985544 0.320741
Si Si3 0.345648 0.533814 0.590490
Si Si4 0.197214 0.765121 0.093427
Si Si5 0.701294 0.024096 0.230735
Si Si6 0.597344 0.847326 0.209160
Si Si7 0.686359 0.696674 0.615615
O O1 0.417233 0.273635 0.089962
O O2 0.290329 0.364012 0.222166
O O3 0.500000 0.500000 0.000000
O O4 0.035174 0.741942 0.837827
O O5 0.173842 0.801434 0.447418
O O6 0.364202 0.947347 0.231297
O O7 0.406332 0.865489 0.480520
O O8 0.500000 0.500000 0.500000
O O9 0.543079 0.367356 0.783977
O O10 0.246542 0.423048 0.640858
O O11 0.178820 0.564712 0.248499
O O12 0.183202 0.865486 0.905646
O O13 0.000000 0.000000 0.000000
O O14 0.736013 0.883432 0.236685
O O15 0.757793 0.846326 0.453427
O O16 0.500000 0.000000 0.000000
#
# Coordination Sequence:
#
# PCOD9089366 Si02
#       7
#     2   2   2   2   2   2   2
#     4  12  25  46  72  98 140 185 236 285 346 411
#     4   9  23  43  70 101 134 181 228 283 345 408
#     4   9  19  38  64  97 131 171 226 274 339 412
#     4  11  23  41  70 100 143 179 225 292 344 412
#     4  11  24  44  66 102 140 179 236 285 338 421
#     4  10  19  37  68  99 135 175 223 286 341 406
#     4  10  24  46  69 101 138 180 231 288 345 408
#
# _framework density 25.816986
#
# number of rings (size 3 to 8) (size 9 to 14) (size 15 to 20)
#    0.000    1.714    2.857    1.286    4.000    3.429 
#    0.000    8.571    0.000    0.000    0.000    0.000 
#    0.000    0.000    0.000    0.000    0.000    0.000 
#
# Total GULP energy -78287.163736 kJ/mol
# GULP energy per Si atom -5591.940267 kJ/mol
# Density = 2.575823 g / cm^3
# Si number density = 25.816986 Si / 1000 Ang^3
#
#
#
# Elastic Constant Matrix: (Units=GPa)
#
#
# Indices 1 2 3 4 5 6 
#
# 1 70.6370 10.4934 43.8489 -13.3030 -12.8346 -6.6237
# 2 10.4934 100.6258 58.1215 -31.8832 5.4432 -1.2822
# 3 43.8489 58.1215 188.6250 -17.7636 2.4936 -17.9607
# 4 -13.3030 -31.8832 -17.7636 54.3946 -0.6384 3.0277
# 5 -12.8346 5.4432 2.4936 -0.6384 52.3269 -0.5013
# 6 -6.6237 -1.2822 -17.9607 3.0277 -0.5013 35.7094
#
#
#
# Elastic Compliance Matrix: (Units=1/GPa)
#
#
# Indices 1 2 3 4 5 6 
#
# 1 0.018292 0.001639 -0.004346 0.004014 0.004582 0.000990
# 2 0.001639 0.014770 -0.004387 0.007729 -0.000851 -0.002040
# 3 -0.004346 -0.004387 0.007851 -0.001253 -0.000969 0.003078
# 4 0.004014 0.007729 -0.001253 0.023582 0.000513 -0.001600
# 5 0.004582 -0.000851 -0.000969 0.000513 0.020381 0.000574
# 6 0.000990 -0.002040 0.003078 -0.001600 0.000574 0.029806
#
#
# Mechanical properties :
#
#
# Convention : Reuss Voigt Hill
#
# Bulk Modulus (GPa) = 37.41663 64.97950 51.19807
# Shear Modulus (GPa) = 36.28998 44.98110 40.63554
#
# Velocity S-wave (km/s) = 3.75328 4.17862 3.97165
# Velocity P-wave (km/s) = 5.77125 6.96456 6.39580
#
# Compressibility (1/GPa) = 0.02672608
#
# Stress axis : x y z
#
# Youngs Moduli (GPa) = 54.66779 67.70540 127.36426
#
# Poissons Ratio (x) = -0.11097 0.55348
# Poissons Ratio (y) = -0.08961 0.55877
# Poissons Ratio (z) = 0.23757 0.29704
#
# Static dielectric constant tensor:
#      x y z
#    x 2.237070 0.003560 -0.024160 
#    y 0.003560 1.939910 -0.022730 
#    z -0.024160 -0.022730 2.066470 
# 
# From -- ./inp_files/504937.got.cif
#   From: 2010.05.17/outbox.cif.g08.bks.cpg/sg2_253_cif.got.tgz:504937.got - 2010.06.03 11:33:40.
