data_PCOD9089012
_publ_section_title
;
Structure prediction by ZEFSAII (Michael W. Deem and Ramdas Pophale) SiO2 
 PCOD9089012
Probable space group: P -1
;
_chemical_formula_sum "Si O2"
_cell_formula_units_Z 12
_cell_length_a 8.483557
_cell_length_b 6.335507
_cell_length_c 10.241108
_cell_angle_alpha 97.037958
_cell_angle_beta 75.165711
_cell_angle_gamma 127.238386
_cell_volume 423.233973
_symmetry_space_group_name_H-M "P -1"
_symmetry_group_IT_number 2
_symmetry_cell_setting 'triclinic'
loop_
_space_group_symop_operation_xyz
x,y,z
-x,-y,-z
loop_
_atom_site_type_symbol
_atom_site_label
_atom_site_fract_x
_atom_site_fract_y
_atom_site_fract_z
Si Si1 0.879795 0.279850 0.899592
Si Si2 0.111414 0.494992 0.598423
Si Si3 0.839211 0.877589 0.191223
Si Si4 0.152153 0.219592 0.354679
Si Si5 0.542268 0.327614 0.882671
Si Si6 0.523079 0.343058 0.368908
O O1 0.663174 0.231814 0.922869
O O2 0.984380 0.403255 0.747722
O O3 0.957642 0.094932 0.896089
O O4 0.000000 0.500000 0.000000
O O5 0.120258 0.266566 0.513986
O O6 0.343384 0.737436 0.600586
O O7 0.000000 0.500000 0.500000
O O8 0.683686 0.901459 0.142712
O O9 0.680778 0.572021 0.249935
O O10 0.946659 0.078842 0.304141
O O11 0.312010 0.489499 0.255810
O O12 0.305920 0.135496 0.332337
O O13 0.500000 0.500000 0.000000
O O14 0.500000 0.500000 0.500000
#
# Coordination Sequence:
#
# PCOD9089012 Si02
#       6
#     2   2   2   2   2   2
#     4  11  22  41  65  92 129 171 211 258 319 384
#     4  10  19  37  64  93 125 164 210 260 316 378
#     4  10  22  40  64  97 124 163 217 266 312 377
#     4  10  21  41  65  95 124 163 215 268 317 373
#     4  11  22  42  66  89 131 172 210 259 324 380
#     4   8  18  34  60  84 124 162 194 251 325 364
#
# _framework density 28.353110999999998
#
# number of rings (size 3 to 8) (size 9 to 14) (size 15 to 20)
#    0.000    2.000    3.333    0.000    0.000    6.667 
#    3.000    1.667    0.000    0.000    0.000    0.000 
#    0.000    0.000    0.000    0.000    0.000    0.000 
#
# Total GULP energy -66869.804520 kJ/mol
# GULP energy per Si atom -5572.483710 kJ/mol
# Density = 2.828858 g / cm^3
# Si number density = 28.353111 Si / 1000 Ang^3
#
#
#
# Elastic Constant Matrix: (Units=GPa)
#
#
# Indices 1 2 3 4 5 6 
#
# 1 333.5971 45.3893 40.7163 18.4261 37.6242 74.8706
# 2 45.3893 71.9545 37.1355 -9.5052 17.8555 39.2725
# 3 40.7163 37.1355 159.7743 -3.1207 -1.7596 26.5458
# 4 18.4261 -9.5052 -3.1207 34.6758 11.9808 6.1913
# 5 37.6242 17.8555 -1.7596 11.9808 52.7369 19.8751
# 6 74.8706 39.2725 26.5458 6.1913 19.8751 55.0940
#
#
#
# Elastic Compliance Matrix: (Units=1/GPa)
#
#
# Indices 1 2 3 4 5 6 
#
# 1 0.004427 0.000797 -0.000348 -0.000747 -0.001023 -0.005963
# 2 0.000797 0.028908 -0.003552 0.012727 -0.006131 -0.019197
# 3 -0.000348 -0.003552 0.007408 -0.000699 0.002361 -0.001337
# 4 -0.000747 0.012727 -0.000699 0.037322 -0.009014 -0.008663
# 5 -0.001023 -0.006131 0.002361 -0.009014 0.025196 -0.003454
# 6 -0.005963 -0.019197 -0.001337 -0.008663 -0.003454 0.042802
#
#
# Mechanical properties :
#
#
# Convention : Reuss Voigt Hill
#
# Bulk Modulus (GPa) = 28.95467 90.20092 59.57780
# Shear Modulus (GPa) = 30.52868 57.97366 44.25117
#
# Velocity S-wave (km/s) = 3.28492 4.52674 3.95488
# Velocity P-wave (km/s) = 4.96205 7.69444 6.47404
#
# Compressibility (1/GPa) = 0.03453675
#
# Stress axis : x y z
#
# Youngs Moduli (GPa) = 225.90647 34.59236 134.99611
#
# Poissons Ratio (x) = -0.02758 0.04704
# Poissons Ratio (y) = -0.18010 0.47945
# Poissons Ratio (z) = 0.07872 0.12286
#
# Static dielectric constant tensor:
#      x y z
#    x 2.590240 -0.218210 -0.177870 
#    y -0.218210 2.700170 0.380570 
#    z -0.177870 0.380570 2.574140 
# 
# From -- ./inp_files/59159.got.cif
#   From: 2010.05.17/outbox.cif.g08.bks.cpg/sg2_30_cif.got.tgz:59159.got - 2010.06.03 11:33:40.
