data_PCOD9089895
_publ_section_title
;
Structure prediction by ZEFSAII (Michael W. Deem and Ramdas Pophale) SiO2 
 PCOD9089895
Probable space group: P -1
;
_chemical_formula_sum "Si O2"
_cell_formula_units_Z 16
_cell_length_a 7.899983
_cell_length_b 7.610036
_cell_length_c 14.521233
_cell_angle_alpha 86.836015
_cell_angle_beta 111.671110
_cell_angle_gamma 126.749412
_cell_volume 633.752026
_symmetry_space_group_name_H-M "P -1"
_symmetry_group_IT_number 2
_symmetry_cell_setting 'triclinic'
loop_
_space_group_symop_operation_xyz
x,y,z
-x,-y,-z
loop_
_atom_site_type_symbol
_atom_site_label
_atom_site_fract_x
_atom_site_fract_y
_atom_site_fract_z
Si Si1 0.222623 0.489339 0.659717
Si Si2 0.359469 0.449363 0.198356
Si Si3 0.955531 0.743116 0.702965
Si Si4 0.118514 0.956759 0.105847
Si Si5 0.797581 0.475387 0.017198
Si Si6 0.384389 0.843894 0.844306
Si Si7 0.147063 0.994568 0.447790
Si Si8 0.372473 0.615234 0.484967
O O1 0.385877 0.416071 0.713802
O O2 0.279988 0.643477 0.754246
O O3 0.324339 0.627266 0.581202
O O4 0.969882 0.258719 0.595919
O O5 0.189690 0.436196 0.238132
O O6 0.236659 0.181478 0.181895
O O7 0.351890 0.519456 0.092336
O O8 0.880916 0.889581 0.647642
O O9 0.876010 0.570117 0.607312
O O10 0.220128 0.908740 0.786293
O O11 0.342199 0.976726 0.120335
O O12 0.919332 0.698697 0.098907
O O13 0.000000 0.000000 0.000000
O O14 0.660586 0.261857 0.061184
O O15 0.000000 0.500000 0.000000
O O16 0.420885 0.140811 0.521109
O O17 0.000000 0.000000 0.500000
O O18 0.500000 0.500000 0.500000
#
# Coordination Sequence:
#
# PCOD9089895 Si02
#       8
#     2   2   2   2   2   2   2   2
#     4  11  22  39  64  93 121 165 215 253 308 375
#     4  10  20  41  64  87 125 168 204 262 308 361
#     4  11  21  40  63  91 130 163 203 262 314 361
#     4   9  23  43  63  89 124 162 211 259 312 363
#     4  11  23  43  64  91 129 162 211 262 314 371
#     4  11  26  42  62  96 129 166 207 260 322 368
#     4  11  20  38  67  92 116 168 218 245 303 380
#     4  10  19  38  62  88 131 157 204 263 301 368
#
# _framework density 25.246469999999999
#
# number of rings (size 3 to 8) (size 9 to 14) (size 15 to 20)
#    0.000    1.500    6.250    0.000    1.750    6.500 
#    4.500    0.625    0.000    0.000    0.000    0.000 
#    0.000    0.000    0.000    0.000    0.000    0.000 
#
# Total GULP energy -89364.115003 kJ/mol
# GULP energy per Si atom -5585.257188 kJ/mol
# Density = 2.518901 g / cm^3
# Si number density = 25.246470 Si / 1000 Ang^3
#
#
#
# Elastic Constant Matrix: (Units=GPa)
#
#
# Indices 1 2 3 4 5 6 
#
# 1 20.5733 -1.8996 9.5015 -8.6547 10.8670 3.8204
# 2 -1.8996 85.3274 27.3950 13.5012 -3.6910 4.3506
# 3 9.5015 27.3950 102.8883 -15.6295 -1.2598 13.5398
# 4 -8.6547 13.5012 -15.6295 36.7547 3.5206 -2.6059
# 5 10.8670 -3.6910 -1.2598 3.5206 54.7854 7.1270
# 6 3.8204 4.3506 13.5398 -2.6059 7.1270 32.7158
#
#
#
# Elastic Compliance Matrix: (Units=1/GPa)
#
#
# Indices 1 2 3 4 5 6 
#
# 1 0.063899 -0.000292 -0.003491 0.014829 -0.013486 -0.001859
# 2 -0.000292 0.014623 -0.004914 -0.007736 0.001535 -0.000827
# 3 -0.003491 -0.004914 0.012798 0.006073 0.000775 -0.003921
# 4 0.014829 -0.007736 0.006073 0.036749 -0.005812 0.000977
# 5 -0.013486 0.001535 0.000775 -0.005812 0.021969 -0.004199
# 6 -0.001859 -0.000827 -0.003921 0.000977 -0.004199 0.033509
#
#
# Mechanical properties :
#
#
# Convention : Reuss Voigt Hill
#
# Bulk Modulus (GPa) = 13.52696 30.97588 22.25142
# Shear Modulus (GPa) = 22.16487 36.43733 29.30110
#
# Velocity S-wave (km/s) = 2.96622 3.80315 3.41046
# Velocity P-wave (km/s) = 4.13532 5.61973 4.93367
#
# Compressibility (1/GPa) = 0.07392646
#
# Stress axis : x y z
#
# Youngs Moduli (GPa) = 15.64981 68.38382 78.13673
#
# Poissons Ratio (x) = 0.01993 0.27279
# Poissons Ratio (y) = 0.00456 0.38397
# Poissons Ratio (z) = 0.05464 0.33605
#
# Static dielectric constant tensor:
#      x y z
#    x 2.232930 -0.032090 -0.012010 
#    y -0.032090 2.018040 0.032280 
#    z -0.012010 0.032280 1.975250 
# 
# From -- ./inp_files/296809.got.cif
#   From: 2010.05.17/outbox.cif.g08.bks.cpg/sg2_149_cif.got.tgz:296809.got - 2010.06.03 11:33:40.
