data_PCOD9089413
_publ_section_title
;
Structure prediction by ZEFSAII (Michael W. Deem and Ramdas Pophale) SiO2 
 PCOD9089413
Probable space group: P -1
;
_chemical_formula_sum "Si O2"
_cell_formula_units_Z 16
_cell_length_a 15.208019
_cell_length_b 15.086388
_cell_length_c 9.702854
_cell_angle_alpha 47.922017
_cell_angle_beta 29.027954
_cell_angle_gamma 43.360140
_cell_volume 737.688200
_symmetry_space_group_name_H-M "P -1"
_symmetry_group_IT_number 2
_symmetry_cell_setting 'triclinic'
loop_
_space_group_symop_operation_xyz
x,y,z
-x,-y,-z
loop_
_atom_site_type_symbol
_atom_site_label
_atom_site_fract_x
_atom_site_fract_y
_atom_site_fract_z
Si Si1 0.619823 0.808412 0.748027
Si Si2 0.025304 0.369318 0.684358
Si Si3 0.851397 0.057829 0.773655
Si Si4 0.192194 0.674067 0.385681
Si Si5 0.403665 0.482363 0.509233
Si Si6 0.796537 0.010293 0.201745
Si Si7 0.154741 0.412097 0.105090
Si Si8 0.307418 0.699461 0.919759
O O1 0.742605 0.719258 0.543202
O O2 0.709607 0.703991 0.858207
O O3 0.692344 0.926995 0.508563
O O4 0.382952 0.869156 0.016730
O O5 0.000000 0.500000 0.500000
O O6 0.912022 0.439366 0.903169
O O7 0.908149 0.293736 0.844615
O O8 0.913778 0.171368 0.627461
O O9 0.842073 0.977661 0.008921
O O10 0.000000 0.000000 0.500000
O O11 0.294114 0.620718 0.444940
O O12 0.041517 0.609337 0.628541
O O13 0.337961 0.642146 0.090713
O O14 0.500000 0.500000 0.500000
O O15 0.551918 0.395251 0.284364
O O16 0.263727 0.409667 0.816994
O O17 0.671592 0.164019 0.234773
O O18 0.000000 0.000000 0.000000
#
# Coordination Sequence:
#
# PCOD9089413 Si02
#       8
#     2   2   2   2   2   2   2   2
#     4  11  22  44  70  95 134 183 222 276 340 398
#     4  10  19  37  71  97 132 172 221 264 336 400
#     4  11  27  45  67 101 134 175 229 287 341 396
#     4  11  24  44  66  95 138 178 224 279 328 414
#     4  12  25  39  65 103 139 174 219 276 349 393
#     4  11  23  44  70  98 132 180 233 274 324 413
#     4  11  23  42  67 103 136 174 225 279 339 397
#     4  11  22  42  67 100 132 177 227 270 327 408
#
# _framework density 21.68938
#
# number of rings (size 3 to 8) (size 9 to 14) (size 15 to 20)
#    0.000    1.000    5.000    2.625    1.750    6.000 
#    0.000    1.875    0.000    0.000    0.000    0.000 
#    0.000    0.000    0.000    0.000    0.000    0.000 
#
# Total GULP energy -89174.700535 kJ/mol
# GULP energy per Si atom -5573.418783 kJ/mol
# Density = 2.164001 g / cm^3
# Si number density = 21.689380 Si / 1000 Ang^3
#
#
#
# Elastic Constant Matrix: (Units=GPa)
#
#
# Indices 1 2 3 4 5 6 
#
# 1 75.3746 21.2297 20.4234 1.1642 17.2706 -8.1445
# 2 21.2297 73.2657 45.7071 -5.5351 -4.5734 4.8087
# 3 20.4234 45.7071 114.1820 -2.2541 9.2045 -0.7885
# 4 1.1642 -5.5351 -2.2541 35.5853 5.5141 -3.0690
# 5 17.2706 -4.5734 9.2045 5.5141 32.5158 0.0034
# 6 -8.1445 4.8087 -0.7885 -3.0690 0.0034 34.0325
#
#
#
# Elastic Compliance Matrix: (Units=1/GPa)
#
#
# Indices 1 2 3 4 5 6 
#
# 1 0.017968 -0.006300 0.000208 0.000537 -0.010580 0.005245
# 2 -0.006300 0.021501 -0.008167 0.001324 0.008458 -0.004616
# 3 0.000208 -0.008167 0.012398 0.000389 -0.004835 0.001527
# 4 0.000537 0.001324 0.000389 0.029342 -0.005185 0.002597
# 5 -0.010580 0.008458 -0.004835 -0.005185 0.039812 -0.004311
# 6 0.005245 -0.004616 0.001527 0.002597 -0.004311 0.031561
#
#
# Mechanical properties :
#
#
# Convention : Reuss Voigt Hill
#
# Bulk Modulus (GPa) = 42.83158 48.61587 45.72372
# Shear Modulus (GPa) = 26.47125 32.12419 29.29772
#
# Velocity S-wave (km/s) = 3.49731 3.85268 3.67929
# Velocity P-wave (km/s) = 6.00823 6.50032 6.25911
#
# Compressibility (1/GPa) = 0.02334726
#
# Stress axis : x y z
#
# Youngs Moduli (GPa) = 55.65488 46.50979 80.65683
#
# Poissons Ratio (x) = 0.29302 -0.01676
# Poissons Ratio (y) = 0.35063 0.65876
# Poissons Ratio (z) = -0.01157 0.37987
#
# Static dielectric constant tensor:
#      x y z
#    x 1.864800 -0.004630 -0.015020 
#    y -0.004630 1.841490 0.018080 
#    z -0.015020 0.018080 1.868290 
# 
# From -- ./inp_files/314557.got.cif
#   From: 2010.05.17/outbox.cif.g08.bks.cpg/sg2_158_cif.got.tgz:314557.got - 2010.06.03 11:33:40.
