data_PCOD9089474
_publ_section_title
;
Structure prediction by ZEFSAII (Michael W. Deem and Ramdas Pophale) SiO2 
 PCOD9089474
Probable space group: P -1
;
_chemical_formula_sum "Si O2"
_cell_formula_units_Z 14
_cell_length_a 15.503944
_cell_length_b 7.441757
_cell_length_c 6.895604
_cell_angle_alpha 123.343692
_cell_angle_beta 101.109682
_cell_angle_gamma 112.033557
_cell_volume 528.060354
_symmetry_space_group_name_H-M "P -1"
_symmetry_group_IT_number 2
_symmetry_cell_setting 'triclinic'
loop_
_space_group_symop_operation_xyz
x,y,z
-x,-y,-z
loop_
_atom_site_type_symbol
_atom_site_label
_atom_site_fract_x
_atom_site_fract_y
_atom_site_fract_z
Si Si1 0.548657 0.556294 0.336567
Si Si2 0.664236 0.312239 0.284875
Si Si3 0.736763 0.042617 0.908826
Si Si4 0.888825 0.065073 0.268066
Si Si5 0.837808 0.566662 0.078474
Si Si6 0.599282 0.300545 0.694701
Si Si7 0.103243 0.422560 0.331963
O O1 0.500000 0.500000 0.500000
O O2 0.585472 0.371722 0.187514
O O3 0.452105 0.542003 0.181519
O O4 0.662904 0.850319 0.587429
O O5 0.661193 0.077399 0.040088
O O6 0.631521 0.293286 0.482361
O O7 0.794429 0.535232 0.484995
O O8 0.786300 0.922963 0.990746
O O9 0.838475 0.339888 0.058247
O O10 0.888164 0.305922 0.491110
O O11 0.995540 0.195830 0.260550
O O12 0.880118 0.870245 0.313501
O O13 0.708005 0.409022 0.921258
O O14 0.886336 0.607614 0.908772
O O15 0.500000 0.000000 0.500000
#
# Coordination Sequence:
#
# PCOD9089474 Si02
#       7
#     2   2   2   2   2   2   2
#     4  10  20  36  58  79 114 154 192 235 290 334
#     4   9  21  38  60  81 115 155 188 241 292 339
#     4  11  22  38  59  89 117 148 201 242 278 352
#     4  10  21  40  62  87 117 154 194 235 299 344
#     4  11  22  38  61  86 119 152 195 243 287 347
#     4  10  19  38  57  81 118 153 189 239 290 339
#     4   9  20  40  62  83 121 154 185 244 294 347
#
# _framework density 26.512121
#
# number of rings (size 3 to 8) (size 9 to 14) (size 15 to 20)
#    0.000    2.000    1.429    3.000    0.000    4.000 
#    2.571    8.571    0.000    0.000    0.000    0.000 
#    0.000    0.000    0.000    0.000    0.000    0.000 
#
# Total GULP energy -78256.073084 kJ/mol
# GULP energy per Si atom -5589.719506 kJ/mol
# Density = 2.645178 g / cm^3
# Si number density = 26.512121 Si / 1000 Ang^3
#
#
#
# Elastic Constant Matrix: (Units=GPa)
#
#
# Indices 1 2 3 4 5 6 
#
# 1 137.7101 15.1039 19.7482 8.0974 14.3215 13.2997
# 2 15.1039 106.6886 -0.5040 22.8685 3.8399 2.5543
# 3 19.7482 -0.5040 45.4048 16.4568 2.5270 0.4019
# 4 8.0974 22.8685 16.4568 40.6455 -6.6349 1.9954
# 5 14.3215 3.8399 2.5270 -6.6349 36.1140 -5.0222
# 6 13.2997 2.5543 0.4019 1.9954 -5.0222 39.3505
#
#
#
# Elastic Compliance Matrix: (Units=1/GPa)
#
#
# Indices 1 2 3 4 5 6 
#
# 1 0.008553 -0.000986 -0.003444 -0.000172 -0.003527 -0.003233
# 2 -0.000986 0.011363 0.003629 -0.008074 -0.002605 -0.000365
# 3 -0.003444 0.003629 0.028656 -0.013556 -0.003392 0.000890
# 4 -0.000172 -0.008074 -0.013556 0.036056 0.008496 -0.000023
# 5 -0.003527 -0.002605 -0.003392 0.008496 0.031864 0.005032
# 6 -0.003233 -0.000365 0.000890 -0.000023 0.005032 0.027163
#
#
# Mechanical properties :
#
#
# Convention : Reuss Voigt Hill
#
# Bulk Modulus (GPa) = 21.28941 39.83329 30.56135
# Shear Modulus (GPa) = 31.07272 40.25235 35.66254
#
# Velocity S-wave (km/s) = 3.42719 3.90072 3.67160
# Velocity P-wave (km/s) = 4.86912 5.94513 5.43383
#
# Compressibility (1/GPa) = 0.04697171
#
# Stress axis : x y z
#
# Youngs Moduli (GPa) = 116.92157 88.00635 34.89631
#
# Poissons Ratio (x) = 0.08676 0.12017
# Poissons Ratio (y) = 0.11527 -0.12665
# Poissons Ratio (z) = 0.40263 -0.31941
#
# Static dielectric constant tensor:
#      x y z
#    x 2.051250 -0.089540 0.009180 
#    y -0.089540 2.146460 -0.005340 
#    z 0.009180 -0.005340 2.162840 
# 
# From -- ./inp_files/197678.got.cif
#   From: 2010.05.17/outbox.cif.g08.bks.cpg/sg2_99_cif.got.tgz:197678.got - 2010.06.03 11:33:40.
