data_PCOD9089401
_publ_section_title
;
Structure prediction by ZEFSAII (Michael W. Deem and Ramdas Pophale) SiO2 
 PCOD9089401
Probable space group: P -1
;
_chemical_formula_sum "Si O2"
_cell_formula_units_Z 16
_cell_length_a 5.820655
_cell_length_b 6.101892
_cell_length_c 20.987046
_cell_angle_alpha 115.034473
_cell_angle_beta 112.013527
_cell_angle_gamma 75.473023
_cell_volume 622.346881
_symmetry_space_group_name_H-M "P -1"
_symmetry_group_IT_number 2
_symmetry_cell_setting 'triclinic'
loop_
_space_group_symop_operation_xyz
x,y,z
-x,-y,-z
loop_
_atom_site_type_symbol
_atom_site_label
_atom_site_fract_x
_atom_site_fract_y
_atom_site_fract_z
Si Si1 0.573160 0.499043 0.243806
Si Si2 0.072982 0.868697 0.237445
Si Si3 0.011419 0.756206 0.358705
Si Si4 0.591989 0.604298 0.589194
Si Si5 0.132167 0.745240 0.018171
Si Si6 0.753770 0.883398 0.823640
Si Si7 0.957190 0.261269 0.425041
Si Si8 0.789950 0.478670 0.124046
O O1 0.337829 0.702175 0.249458
O O2 0.636983 0.475744 0.172385
O O3 0.791883 0.585160 0.320681
O O4 0.500693 0.234442 0.221290
O O5 0.964545 0.855860 0.294593
O O6 0.136895 0.098466 0.233371
O O7 0.877551 0.744049 0.157458
O O8 0.275147 0.604891 0.378012
O O9 0.007600 0.996208 0.429740
O O10 0.500000 0.500000 0.500000
O O11 0.343078 0.723184 0.612218
O O12 0.823687 0.743898 0.606471
O O13 0.302063 0.635458 0.963634
O O14 0.253728 0.865710 0.106675
O O15 0.000000 0.500000 0.000000
O O16 0.000000 0.000000 0.000000
O O17 0.949315 0.686588 0.854378
O O18 0.000000 0.500000 0.500000
#
# Coordination Sequence:
#
# PCOD9089401 Si02
#       8
#     2   2   2   2   2   2   2   2
#     4  10  24  41  61  99 139 186 245 304 378 459
#     4  10  22  41  62  96 137 190 235 302 374 456
#     4  11  26  45  72 102 150 192 246 308 387 463
#     4  10  25  47  76 112 150 191 247 309 384 461
#     4  10  19  37  70  97 137 195 255 316 391 458
#     4  10  21  40  67  91 141 185 247 309 377 451
#     4  10  25  46  76 113 147 192 245 306 385 458
#     4   9  20  40  61  93 134 183 243 307 375 439
#
# _framework density 25.709133000000001
#
# number of rings (size 3 to 8) (size 9 to 14) (size 15 to 20)
#    0.000    2.000    1.250    0.000    3.500   10.500 
#    0.000    0.625    0.000    0.000    0.000    0.000 
#    0.000    0.000    0.000    0.000    0.000    0.000 
#
# Total GULP energy -89229.254460 kJ/mol
# GULP energy per Si atom -5576.828404 kJ/mol
# Density = 2.565062 g / cm^3
# Si number density = 25.709133 Si / 1000 Ang^3
#
#
#
# Elastic Constant Matrix: (Units=GPa)
#
#
# Indices 1 2 3 4 5 6 
#
# 1 139.9088 42.1386 25.6052 7.6475 3.6027 17.7153
# 2 42.1386 100.1080 27.8711 15.4679 17.0414 18.1046
# 3 25.6052 27.8711 78.5748 6.6298 -9.0361 20.9468
# 4 7.6475 15.4679 6.6298 37.5652 4.2875 5.6955
# 5 3.6027 17.0414 -9.0361 4.2875 35.8193 -8.7287
# 6 17.7153 18.1046 20.9468 5.6955 -8.7287 51.6108
#
#
#
# Elastic Compliance Matrix: (Units=1/GPa)
#
#
# Indices 1 2 3 4 5 6 
#
# 1 0.008449 -0.002897 -0.001379 -0.000065 -0.000139 -0.001341
# 2 -0.002897 0.014928 -0.004057 -0.003340 -0.008320 -0.003634
# 3 -0.001379 -0.004057 0.016305 -0.000982 0.005398 -0.003700
# 4 -0.000065 -0.003340 -0.000982 0.028784 -0.002590 -0.002022
# 5 -0.000139 -0.008320 0.005398 -0.002590 0.035274 0.007027
# 6 -0.001341 -0.003634 -0.003700 -0.002022 0.007027 0.024024
#
#
# Mechanical properties :
#
#
# Convention : Reuss Voigt Hill
#
# Bulk Modulus (GPa) = 43.44699 56.64681 50.04690
# Shear Modulus (GPa) = 32.87263 39.86419 36.36841
#
# Velocity S-wave (km/s) = 3.57968 3.94202 3.76521
# Velocity P-wave (km/s) = 5.83281 6.54224 6.19768
#
# Compressibility (1/GPa) = 0.02301655
#
# Stress axis : x y z
#
# Youngs Moduli (GPa) = 118.35512 66.98966 61.33038
#
# Poissons Ratio (x) = 0.19404 0.08457
# Poissons Ratio (y) = 0.34282 0.24883
# Poissons Ratio (z) = 0.16321 0.27179
#
# Static dielectric constant tensor:
#      x y z
#    x 2.023070 0.000460 -0.020410 
#    y 0.000460 2.003540 -0.016930 
#    z -0.020410 -0.016930 2.042240 
# 
# From -- ./inp_files/603387.got.cif
#   From: 2010.05.17/outbox.cif.g08.bks.cpg/sg2_302_cif.got.tgz:603387.got - 2010.06.03 11:33:40.
