data_PCOD9089967
_publ_section_title
;
Structure prediction by ZEFSAII (Michael W. Deem and Ramdas Pophale) SiO2 
 PCOD9089967
Probable space group: P -1
;
_chemical_formula_sum "Si O2"
_cell_formula_units_Z 16
_cell_length_a 8.277417
_cell_length_b 11.202197
_cell_length_c 10.011205
_cell_angle_alpha 105.604775
_cell_angle_beta 98.927521
_cell_angle_gamma 53.720332
_cell_volume 720.738484
_symmetry_space_group_name_H-M "P -1"
_symmetry_group_IT_number 2
_symmetry_cell_setting 'triclinic'
loop_
_space_group_symop_operation_xyz
x,y,z
-x,-y,-z
loop_
_atom_site_type_symbol
_atom_site_label
_atom_site_fract_x
_atom_site_fract_y
_atom_site_fract_z
Si Si1 0.672587 0.817697 0.369718
Si Si2 0.298439 0.327549 0.211014
Si Si3 0.561910 0.114372 0.380165
Si Si4 0.274450 0.907250 0.190750
Si Si5 0.834392 0.167726 0.580658
Si Si6 0.985327 0.275400 0.230230
Si Si7 0.422591 0.640140 0.930179
Si Si8 0.921001 0.399526 0.559057
O O1 0.606278 0.857768 0.528181
O O2 0.487522 0.853763 0.268205
O O3 0.873117 0.651406 0.354681
O O4 0.720466 0.933739 0.356726
O O5 0.483147 0.163523 0.236772
O O6 0.112076 0.315009 0.163455
O O7 0.387029 0.385952 0.134262
O O8 0.241021 0.429833 0.367908
O O9 0.643351 0.202566 0.483265
O O10 0.185841 0.852441 0.272736
O O11 0.125242 0.089795 0.207552
O O12 0.325254 0.802834 0.038316
O O13 0.861189 0.296531 0.586289
O O14 0.000000 0.000000 0.500000
O O15 0.762411 0.336958 0.171025
O O16 0.957438 0.352455 0.395024
O O17 0.500000 0.500000 0.000000
#
# Coordination Sequence:
#
# PCOD9089967 Si02
#       8
#     2   2   2   2   2   2   2   2
#     4  10  19  38  69 100 143 169 221 286 348 413
#     4  12  27  45  71 106 141 186 236 285 362 413
#     4  10  19  38  63 102 139 171 221 288 350 410
#     4  11  24  47  70 102 142 187 233 286 344 421
#     4  11  20  36  69 103 141 174 223 287 354 413
#     4  12  25  48  76 103 140 180 240 296 350 415
#     4  12  31  52  67  98 145 196 240 288 340 421
#     4  12  23  41  70 114 138 179 224 297 362 411
#
# _framework density 22.199453999999999
#
# number of rings (size 3 to 8) (size 9 to 14) (size 15 to 20)
#    0.000    0.750    5.000    3.000    1.750    4.000 
#    2.250    0.000    0.000    0.000    0.000    0.000 
#    0.000    0.000    0.000    0.000    0.000    0.000 
#
# Total GULP energy -89266.965329 kJ/mol
# GULP energy per Si atom -5579.185333 kJ/mol
# Density = 2.214893 g / cm^3
# Si number density = 22.199454 Si / 1000 Ang^3
#
#
#
# Elastic Constant Matrix: (Units=GPa)
#
#
# Indices 1 2 3 4 5 6 
#
# 1 128.1275 34.6971 43.6679 -20.2335 -15.4272 16.8425
# 2 34.6971 87.2743 20.3001 -9.5621 -5.5126 7.6502
# 3 43.6679 20.3001 61.2537 1.2858 -7.0572 1.1961
# 4 -20.2335 -9.5621 1.2858 37.6314 1.6401 -3.2090
# 5 -15.4272 -5.5126 -7.0572 1.6401 33.5142 -12.7689
# 6 16.8425 7.6502 1.1961 -3.2090 -12.7689 37.0574
#
#
#
# Elastic Compliance Matrix: (Units=1/GPa)
#
#
# Indices 1 2 3 4 5 6 
#
# 1 0.012986 -0.002039 -0.008400 0.006324 0.002058 -0.003953
# 2 -0.002039 0.013346 -0.002995 0.002267 -0.000081 -0.001563
# 3 -0.008400 -0.002995 0.023631 -0.005850 0.002428 0.004004
# 4 0.006324 0.002267 -0.005850 0.030702 0.000416 -0.000352
# 5 0.002058 -0.000081 0.002428 0.000416 0.035566 0.011294
# 6 -0.003953 -0.001563 0.004004 -0.000352 0.011294 0.032837
#
#
# Mechanical properties :
#
#
# Convention : Reuss Voigt Hill
#
# Bulk Modulus (GPa) = 43.30358 52.66508 47.98433
# Shear Modulus (GPa) = 27.22773 33.50663 30.36718
#
# Velocity S-wave (km/s) = 3.50595 3.88924 3.70256
# Velocity P-wave (km/s) = 5.99482 6.62898 6.31986
#
# Compressibility (1/GPa) = 0.02309278
#
# Stress axis : x y z
#
# Youngs Moduli (GPa) = 77.00494 74.92886 42.31669
#
# Poissons Ratio (x) = 0.15281 0.35548
# Poissons Ratio (y) = 0.15705 0.12676
# Poissons Ratio (z) = 0.64688 0.22445
#
# Static dielectric constant tensor:
#      x y z
#    x 1.933770 -0.003150 -0.046380 
#    y -0.003150 1.812710 -0.024550 
#    z -0.046380 -0.024550 1.933540 
# 
# From -- ./inp_files/187610.got.cif
#   From: 2010.05.17/outbox.cif.g08.bks.cpg/sg2_94_cif.got.tgz:187610.got - 2010.06.03 11:33:40.
