data_PCOD9089331
_publ_section_title
;
Structure prediction by ZEFSAII (Michael W. Deem and Ramdas Pophale) SiO2 
 PCOD9089331
Probable space group: P -1
;
_chemical_formula_sum "Si O2"
_cell_formula_units_Z 16
_cell_length_a 8.361538
_cell_length_b 18.853637
_cell_length_c 13.974859
_cell_angle_alpha 19.518629
_cell_angle_beta 82.750378
_cell_angle_gamma 89.956604
_cell_volume 682.194364
_symmetry_space_group_name_H-M "P -1"
_symmetry_group_IT_number 2
_symmetry_cell_setting 'triclinic'
loop_
_space_group_symop_operation_xyz
x,y,z
-x,-y,-z
loop_
_atom_site_type_symbol
_atom_site_label
_atom_site_fract_x
_atom_site_fract_y
_atom_site_fract_z
Si Si1 0.750903 0.995448 0.664817
Si Si2 0.667907 0.174577 0.714156
Si Si3 0.123688 0.734424 0.232828
Si Si4 0.796532 0.464182 0.170726
Si Si5 0.370467 0.958978 0.758301
Si Si6 0.823124 0.245672 0.158931
Si Si7 0.927561 0.989978 0.827250
Si Si8 0.730529 0.633292 0.762942
O O1 0.814430 0.252742 0.377209
O O2 0.795626 0.033801 0.501815
O O3 0.846193 0.870305 0.884313
O O4 0.545950 0.911323 0.795469
O O5 0.800568 0.293656 0.636280
O O6 0.657971 0.353767 0.406306
O O7 0.766536 0.036132 0.825774
O O8 0.500000 0.000000 0.000000
O O9 0.000000 0.500000 0.500000
O O10 0.281201 0.853033 0.998387
O O11 0.001508 0.880339 0.045351
O O12 0.758989 0.610352 0.902991
O O13 0.977775 0.596764 0.040727
O O14 0.241302 0.842115 0.829852
O O15 0.399821 0.228657 0.412450
O O16 0.708414 0.393370 0.018839
O O17 0.097197 0.195063 0.518972
#
# Coordination Sequence:
#
# PCOD9089331 Si02
#       8
#     2   2   2   2   2   2   2   2
#     4  10  19  39  62  94 131 161 198 270 329 367
#     4  11  22  40  65  94 127 167 211 257 315 368
#     4  11  24  42  62  91 124 168 220 257 300 383
#     4  10  19  37  68  90 127 163 215 253 311 392
#     4  11  25  38  63  97 134 159 209 273 322 370
#     4  11  19  38  66  93 128 167 207 256 320 391
#     4  10  20  41  72  86 122 169 213 258 321 375
#     4  10  20  40  67  97 122 168 209 261 325 377
#
# _framework density 23.453724999999999
#
# number of rings (size 3 to 8) (size 9 to 14) (size 15 to 20)
#    0.000    1.500    3.750    3.750    0.000    2.500 
#    2.250    2.500    2.750    0.000    0.000    0.000 
#    0.000    0.000    0.000    0.000    0.000    0.000 
#
# Total GULP energy -89318.729502 kJ/mol
# GULP energy per Si atom -5582.420594 kJ/mol
# Density = 2.340034 g / cm^3
# Si number density = 23.453725 Si / 1000 Ang^3
#
#
#
# Elastic Constant Matrix: (Units=GPa)
#
#
# Indices 1 2 3 4 5 6 
#
# 1 62.5072 12.5926 22.7398 5.8175 -15.7681 3.0449
# 2 12.5926 101.8834 31.0290 17.5110 22.5804 20.2903
# 3 22.7398 31.0290 59.7205 15.4201 4.9637 -4.4135
# 4 5.8175 17.5110 15.4201 31.7281 3.1268 -7.3144
# 5 -15.7681 22.5804 4.9637 3.1268 22.3572 8.4348
# 6 3.0449 20.2903 -4.4135 -7.3144 8.4348 37.9153
#
#
#
# Elastic Compliance Matrix: (Units=1/GPa)
#
#
# Indices 1 2 3 4 5 6 
#
# 1 0.030176 -0.005438 -0.011469 -0.002174 0.032861 -0.008578
# 2 -0.005438 0.018563 -0.004883 -0.006842 -0.017735 -0.007440
# 3 -0.011469 -0.004883 0.026513 -0.005076 -0.011420 0.008182
# 4 -0.002174 -0.006842 -0.005076 0.041319 -0.003827 0.012068
# 5 0.032861 -0.017735 -0.011420 -0.003827 0.095061 -0.016363
# 6 -0.008578 -0.007440 0.008182 0.012068 -0.016363 0.037966
#
#
# Mechanical properties :
#
#
# Convention : Reuss Voigt Hill
#
# Bulk Modulus (GPa) = 31.57332 39.64822 35.61077
# Shear Modulus (GPa) = 16.46177 28.91675 22.68926
#
# Velocity S-wave (km/s) = 2.65218 3.51512 3.11369
# Velocity P-wave (km/s) = 4.78225 5.78068 5.30501
#
# Compressibility (1/GPa) = 0.03167231
#
# Stress axis : x y z
#
# Youngs Moduli (GPa) = 33.13936 53.87118 37.71706
#
# Poissons Ratio (x) = 0.29295 0.43256
# Poissons Ratio (y) = 0.18021 0.18418
# Poissons Ratio (z) = 0.38006 0.26307
#
# Static dielectric constant tensor:
#      x y z
#    x 1.828220 0.020350 0.010050 
#    y 0.020350 1.955540 0.102500 
#    z 0.010050 0.102500 2.041360 
# 
# From -- ./inp_files/186099.got.cif
#   From: 2010.05.17/outbox.cif.g08.bks.cpg/sg2_94_cif.got.tgz:186099.got - 2010.06.03 11:33:40.
