data_PCOD9089886
_publ_section_title
;
Structure prediction by ZEFSAII (Michael W. Deem and Ramdas Pophale) SiO2 
 PCOD9089886
Probable space group: P -1
;
_chemical_formula_sum "Si O2"
_cell_formula_units_Z 12
_cell_length_a 9.070157
_cell_length_b 12.441214
_cell_length_c 16.902316
_cell_angle_alpha 41.179120
_cell_angle_beta 32.191977
_cell_angle_gamma 38.193296
_cell_volume 605.700242
_symmetry_space_group_name_H-M "P -1"
_symmetry_group_IT_number 2
_symmetry_cell_setting 'triclinic'
loop_
_space_group_symop_operation_xyz
x,y,z
-x,-y,-z
loop_
_atom_site_type_symbol
_atom_site_label
_atom_site_fract_x
_atom_site_fract_y
_atom_site_fract_z
Si Si1 0.418194 0.416547 0.201379
Si Si2 0.596620 0.598421 0.331181
Si Si3 0.633520 0.132859 0.401406
Si Si4 0.793503 0.549483 0.489248
Si Si5 0.301933 0.343837 0.123239
Si Si6 0.191713 0.996359 0.334961
O O1 0.584882 0.277704 0.273308
O O2 0.465104 0.322496 0.146448
O O3 0.051452 0.503173 0.331642
O O4 0.531442 0.573432 0.057124
O O5 0.500000 0.500000 0.500000
O O6 0.395048 0.569809 0.368111
O O7 0.950706 0.492696 0.208369
O O8 0.474142 0.804132 0.299303
O O9 0.441237 0.245629 0.502245
O O10 0.969297 0.029763 0.341695
O O11 0.500000 0.000000 0.500000
O O12 0.000000 0.500000 0.500000
O O13 0.290801 0.158986 0.206283
O O14 0.000000 0.000000 0.500000
#
# Coordination Sequence:
#
# PCOD9089886 Si02
#       6
#     2   2   2   2   2   2
#     4  10  23  42  62  90 132 165 199 262 319 355
#     4  12  21  39  66  90 120 164 213 253 305 370
#     4  11  22  39  65  94 124 161 213 257 306 374
#     4  10  19  38  62  88 120 162 201 253 305 364
#     4  11  23  43  63  93 130 164 205 258 311 369
#     4  12  22  38  66  93 120 165 215 254 302 375
#
# _framework density 19.811779000000001
#
# number of rings (size 3 to 8) (size 9 to 14) (size 15 to 20)
#    0.000    1.000    5.000    3.000    0.000    0.667 
#    3.000    2.500    0.000    0.000    0.000    0.000 
#    0.000    0.000    0.000    0.000    0.000    0.000 
#
# Total GULP energy -66976.285713 kJ/mol
# GULP energy per Si atom -5581.357143 kJ/mol
# Density = 1.976669 g / cm^3
# Si number density = 19.811779 Si / 1000 Ang^3
#
#
#
# Elastic Constant Matrix: (Units=GPa)
#
#
# Indices 1 2 3 4 5 6 
#
# 1 94.2977 15.0250 22.7154 -24.4857 -5.1346 -2.2210
# 2 15.0250 129.5839 22.9864 -24.7242 -6.2272 4.9174
# 3 22.7154 22.9864 85.9757 -28.4725 -5.2236 -2.3277
# 4 -24.4857 -24.7242 -28.4725 35.1110 4.0927 -11.5214
# 5 -5.1346 -6.2272 -5.2236 4.0927 28.8542 -5.6067
# 6 -2.2210 4.9174 -2.3277 -11.5214 -5.6067 34.7640
#
#
#
# Elastic Compliance Matrix: (Units=1/GPa)
#
#
# Indices 1 2 3 4 5 6 
#
# 1 0.013666 0.000460 0.000336 0.011531 0.001921 0.004962
# 2 0.000460 0.009000 -0.000183 0.006752 0.001264 0.001186
# 3 0.000336 -0.000183 0.017240 0.016090 0.002198 0.006889
# 4 0.011531 0.006752 0.016090 0.061134 0.001915 0.021429
# 5 0.001921 0.001264 0.002198 0.001915 0.036689 0.006643
# 6 0.004962 0.001186 0.006889 0.021429 0.006643 0.037549
#
#
# Mechanical properties :
#
#
# Convention : Reuss Voigt Hill
#
# Bulk Modulus (GPa) = 24.31161 47.92346 36.11753
# Shear Modulus (GPa) = 26.62943 36.35453 31.49198
#
# Velocity S-wave (km/s) = 3.67020 4.28833 3.99125
# Velocity P-wave (km/s) = 5.50077 6.98295 6.28570
#
# Compressibility (1/GPa) = 0.04113261
#
# Stress axis : x y z
#
# Youngs Moduli (GPa) = 73.17329 111.11011 58.00500
#
# Poissons Ratio (x) = -0.05111 -0.01950
# Poissons Ratio (y) = -0.03366 0.01061
# Poissons Ratio (z) = -0.02460 0.02033
#
# Static dielectric constant tensor:
#      x y z
#    x 1.784590 0.027070 0.016060 
#    y 0.027070 1.779430 0.019540 
#    z 0.016060 0.019540 1.693040 
# 
# From -- ./inp_files/146823.got.cif
#   From: 2010.05.17/outbox.cif.g08.bks.cpg/sg2_74_cif.got.tgz:146823.got - 2010.06.03 11:33:40.
