data_PCOD9089664
_publ_section_title
;
Structure prediction by ZEFSAII (Michael W. Deem and Ramdas Pophale) SiO2 
 PCOD9089664
Probable space group: P -1
;
_chemical_formula_sum "Si O2"
_cell_formula_units_Z 16
_cell_length_a 18.001959
_cell_length_b 12.566862
_cell_length_c 7.753153
_cell_angle_alpha 117.515299
_cell_angle_beta 84.001333
_cell_angle_gamma 44.578914
_cell_volume 783.464253
_symmetry_space_group_name_H-M "P -1"
_symmetry_group_IT_number 2
_symmetry_cell_setting 'triclinic'
loop_
_space_group_symop_operation_xyz
x,y,z
-x,-y,-z
loop_
_atom_site_type_symbol
_atom_site_label
_atom_site_fract_x
_atom_site_fract_y
_atom_site_fract_z
Si Si1 0.432451 0.911497 0.535271
Si Si2 0.825222 0.810342 0.389207
Si Si3 0.701994 0.448715 0.625499
Si Si4 0.375104 0.228767 0.894852
Si Si5 0.426552 0.681501 0.000777
Si Si6 0.684896 0.388909 0.192399
Si Si7 0.902281 0.444204 0.041330
Si Si8 0.985487 0.068934 0.858728
O O1 0.489969 0.895192 0.332780
O O2 0.551881 0.646130 0.336150
O O3 0.271097 0.080225 0.678571
O O4 0.427976 0.020533 0.762311
O O5 0.969205 0.687600 0.217320
O O6 0.709495 0.046214 0.705229
O O7 0.865707 0.616934 0.287318
O O8 0.698332 0.424023 0.406097
O O9 0.680390 0.614863 0.817096
O O10 0.562801 0.571235 0.824042
O O11 0.859936 0.180892 0.452491
O O12 0.241004 0.397686 0.916077
O O13 0.500000 0.500000 0.000000
O O14 0.361322 0.684199 0.872002
O O15 0.840205 0.203002 0.923867
O O16 0.956113 0.252227 0.988155
O O17 0.000000 0.000000 0.000000
#
# Coordination Sequence:
#
# PCOD9089664 Si02
#       8
#     2   2   2   2   2   2   2   2
#     4  10  19  38  60  88 117 151 196 249 294 352
#     4  10  21  37  62  93 120 150 198 249 298 350
#     4  11  24  39  56  86 118 157 199 244 298 354
#     4  10  20  36  63  87 115 152 203 244 292 355
#     4  12  22  38  62  89 119 155 199 249 295 356
#     4  11  23  39  58  84 123 159 193 246 301 349
#     4  10  21  38  63  90 119 156 196 249 299 348
#     4  10  23  40  59  84 120 160 198 244 296 356
#
# _framework density 20.422118999999999
#
# number of rings (size 3 to 8) (size 9 to 14) (size 15 to 20)
#    0.000    1.500    3.750    1.125    1.750    1.000 
#    0.000    1.250    0.000    3.000    0.000    0.000 
#    0.000    0.000    0.000    0.000    0.000    0.000 
#
# Total GULP energy -89186.677632 kJ/mol
# GULP energy per Si atom -5574.167352 kJ/mol
# Density = 2.037564 g / cm^3
# Si number density = 20.422119 Si / 1000 Ang^3
#
#
#
# Elastic Constant Matrix: (Units=GPa)
#
#
# Indices 1 2 3 4 5 6 
#
# 1 109.1852 12.7547 56.9531 9.7581 8.3176 0.3566
# 2 12.7547 16.9768 11.1537 7.1972 3.4271 -0.5442
# 3 56.9531 11.1537 138.0469 22.1668 11.3676 -1.5646
# 4 9.7581 7.1972 22.1668 29.7505 -5.7776 2.6675
# 5 8.3176 3.4271 11.3676 -5.7776 51.4080 2.4480
# 6 0.3566 -0.5442 -1.5646 2.6675 2.4480 18.0489
#
#
#
# Elastic Compliance Matrix: (Units=1/GPa)
#
#
# Indices 1 2 3 4 5 6 
#
# 1 0.012314 -0.006578 -0.004704 0.001076 -0.000347 -0.000961
# 2 -0.006578 0.072399 0.000179 -0.017165 -0.006001 0.005679
# 3 -0.004704 0.000179 0.010533 -0.007046 -0.002486 0.002390
# 4 0.001076 -0.017165 -0.007046 0.045015 0.008011 -0.008889
# 5 -0.000347 -0.006001 -0.002486 0.008011 0.021573 -0.004499
# 6 -0.000961 0.005679 0.002390 -0.008889 -0.004499 0.057727
#
#
# Mechanical properties :
#
#
# Convention : Reuss Voigt Hill
#
# Bulk Modulus (GPa) = 13.69107 47.32579 30.50843
# Shear Modulus (GPa) = 18.78898 32.06464 25.42681
#
# Velocity S-wave (km/s) = 3.03649 3.96674 3.53237
# Velocity P-wave (km/s) = 4.36031 6.64862 5.62212
#
# Compressibility (1/GPa) = 0.07304033
#
# Stress axis : x y z
#
# Youngs Moduli (GPa) = 81.20626 13.81237 94.93708
#
# Poissons Ratio (x) = 0.09086 0.44659
# Poissons Ratio (y) = 0.53419 -0.01701
# Poissons Ratio (z) = 0.38200 -0.00247
#
# Static dielectric constant tensor:
#      x y z
#    x 1.755830 0.006660 0.005680 
#    y 0.006660 1.820150 -0.039210 
#    z 0.005680 -0.039210 1.805760 
# 
# From -- ./inp_files/306452.got.cif
#   From: 2010.05.17/outbox.cif.g08.bks.cpg/sg2_154_cif.got.tgz:306452.got - 2010.06.03 11:33:40.
