data_PCOD9089735
_publ_section_title
;
Structure prediction by ZEFSAII (Michael W. Deem and Ramdas Pophale) SiO2 
 PCOD9089735
Probable space group: P -1
;
_chemical_formula_sum "Si O2"
_cell_formula_units_Z 16
_cell_length_a 16.172231
_cell_length_b 14.518672
_cell_length_c 9.595613
_cell_angle_alpha 132.193726
_cell_angle_beta 150.783761
_cell_angle_gamma 46.088312
_cell_volume 778.034566
_symmetry_space_group_name_H-M "P -1"
_symmetry_group_IT_number 2
_symmetry_cell_setting 'triclinic'
loop_
_space_group_symop_operation_xyz
x,y,z
-x,-y,-z
loop_
_atom_site_type_symbol
_atom_site_label
_atom_site_fract_x
_atom_site_fract_y
_atom_site_fract_z
Si Si1 0.912802 0.387782 0.813978
Si Si2 0.504661 0.072107 0.934432
Si Si3 0.733284 0.806781 0.903188
Si Si4 0.789669 0.383502 0.221697
Si Si5 0.571986 0.321690 0.200525
Si Si6 0.588836 0.649742 0.304046
Si Si7 0.159012 0.250277 0.678535
Si Si8 0.230251 0.511520 0.994514
O O1 0.745753 0.363592 0.462904
O O2 0.832803 0.425375 0.887125
O O3 0.000000 0.500000 0.000000
O O4 0.062625 0.249094 0.898344
O O5 0.293451 0.140710 0.671135
O O6 0.624318 0.958638 0.897678
O O7 0.591806 0.190537 0.184284
O O8 0.500000 0.000000 0.000000
O O9 0.639054 0.736121 0.583961
O O10 0.752593 0.760937 0.048340
O O11 0.757946 0.523525 0.393716
O O12 0.950795 0.265433 0.397547
O O13 0.589939 0.375611 0.928627
O O14 0.828372 0.395027 0.127307
O O15 0.439449 0.441542 0.209667
O O16 0.474402 0.298103 0.891094
O O17 0.155201 0.388654 0.751151
#
# Coordination Sequence:
#
# PCOD9089735 Si02
#       8
#     2   2   2   2   2   2   2   2
#     4  12  24  37  66  98 128 158 209 262 320 378
#     4   9  22  42  65  88 122 168 217 260 310 364
#     4  11  23  38  61  89 124 166 211 260 305 368
#     4  10  21  36  59  91 131 164 203 259 320 382
#     4  10  23  43  63  92 129 171 207 254 317 379
#     4  10  23  36  60  95 130 163 204 262 322 369
#     4  10  19  38  61  86 121 166 211 253 312 367
#     4  10  21  35  61  93 129 159 204 256 322 380
#
# _framework density 20.564639
#
# number of rings (size 3 to 8) (size 9 to 14) (size 15 to 20)
#    0.000    1.750    1.250    2.250    5.250    6.000 
#    0.000    0.625    0.000    0.000    0.000    0.000 
#    0.000    0.000    0.000    0.000    0.000    0.000 
#
# Total GULP energy -89102.929693 kJ/mol
# GULP energy per Si atom -5568.933106 kJ/mol
# Density = 2.051783 g / cm^3
# Si number density = 20.564639 Si / 1000 Ang^3
#
#
#
# Elastic Constant Matrix: (Units=GPa)
#
#
# Indices 1 2 3 4 5 6 
#
# 1 116.4843 43.8555 37.3211 -6.5544 -4.7486 -11.4880
# 2 43.8555 100.7829 39.4151 -15.5739 2.7886 -34.7067
# 3 37.3211 39.4151 102.6275 -15.2463 2.0909 -16.6003
# 4 -6.5544 -15.5739 -15.2463 17.9737 -7.2759 8.4188
# 5 -4.7486 2.7886 2.0909 -7.2759 30.5885 -7.0133
# 6 -11.4880 -34.7067 -16.6003 8.4188 -7.0133 49.3183
#
#
#
# Elastic Compliance Matrix: (Units=1/GPa)
#
#
# Indices 1 2 3 4 5 6 
#
# 1 0.010970 -0.004208 -0.002665 -0.000714 0.001890 -0.000913
# 2 -0.004208 0.016958 -0.002419 0.007595 0.001861 0.009108
# 3 -0.002665 -0.002419 0.012931 0.007920 0.000994 0.000819
# 4 -0.000714 0.007595 0.007920 0.076607 0.016206 -0.002929
# 5 0.001890 0.001861 0.000994 0.016206 0.037675 0.004675
# 6 -0.000913 0.009108 0.000819 -0.002929 0.004675 0.027914
#
#
# Mechanical properties :
#
#
# Convention : Reuss Voigt Hill
#
# Bulk Modulus (GPa) = 44.89536 62.34200 53.61868
# Shear Modulus (GPa) = 23.91608 32.86296 28.38952
#
# Velocity S-wave (km/s) = 3.41394 4.00188 3.71954
# Velocity P-wave (km/s) = 6.11708 7.19266 6.67656
#
# Compressibility (1/GPa) = 0.02227402
#
# Stress axis : x y z
#
# Youngs Moduli (GPa) = 91.15780 58.96909 77.33306
#
# Poissons Ratio (x) = 0.24815 0.20612
# Poissons Ratio (y) = 0.38360 0.18707
# Poissons Ratio (z) = 0.24297 0.14265
#
# Static dielectric constant tensor:
#      x y z
#    x 1.812820 -0.004100 0.011060 
#    y -0.004100 1.760040 -0.027340 
#    z 0.011060 -0.027340 1.820020 
# 
# From -- ./inp_files/315996.got.cif
#   From: 2010.05.17/outbox.cif.g08.bks.cpg/sg2_158_cif.got.tgz:315996.got - 2010.06.03 11:33:40.
