data_PCOD9089869
_publ_section_title
;
Structure prediction by ZEFSAII (Michael W. Deem and Ramdas Pophale) SiO2 
 PCOD9089869
Probable space group: P -1
;
_chemical_formula_sum "Si O2"
_cell_formula_units_Z 16
_cell_length_a 10.349618
_cell_length_b 8.697207
_cell_length_c 18.150988
_cell_angle_alpha 37.364221
_cell_angle_beta 64.504658
_cell_angle_gamma 88.775134
_cell_volume 725.525660
_symmetry_space_group_name_H-M "P -1"
_symmetry_group_IT_number 2
_symmetry_cell_setting 'triclinic'
loop_
_space_group_symop_operation_xyz
x,y,z
-x,-y,-z
loop_
_atom_site_type_symbol
_atom_site_label
_atom_site_fract_x
_atom_site_fract_y
_atom_site_fract_z
Si Si1 0.841080 0.801741 0.386028
Si Si2 0.740648 0.543133 0.765782
Si Si3 0.047492 0.610880 0.765196
Si Si4 0.914924 0.186246 0.093063
Si Si5 0.235752 0.827276 0.491322
Si Si6 0.500431 0.164597 0.679127
Si Si7 0.109844 0.584812 0.361371
Si Si8 0.437131 0.199132 0.080346
O O1 0.634882 0.533564 0.521207
O O2 0.902240 0.627406 0.487416
O O3 0.870041 0.081226 0.322091
O O4 0.938855 0.964076 0.222618
O O5 0.773098 0.437303 0.721508
O O6 0.879497 0.564980 0.781857
O O7 0.770223 0.873508 0.621814
O O8 0.547341 0.316908 0.933723
O O9 0.184078 0.680140 0.641029
O O10 0.989935 0.317159 0.943213
O O11 0.704188 0.993498 0.217054
O O12 0.000000 0.500000 0.000000
O O13 0.414692 0.899767 0.386175
O O14 0.078856 0.587698 0.565727
O O15 0.515749 0.997304 0.809101
O O16 0.229235 0.951273 0.213050
O O17 0.500000 0.500000 0.000000
#
# Coordination Sequence:
#
# PCOD9089869 Si02
#       8
#     2   2   2   2   2   2   2   2
#     4  10  20  37  62  86 113 158 202 237 281 358
#     4  11  18  36  60  85 126 154 195 236 286 368
#     4  10  19  38  62  87 114 160 198 233 294 345
#     4  10  22  41  64  82 111 156 208 242 281 352
#     4  11  21  37  61  92 126 147 189 250 298 356
#     4  11  23  38  59  90 117 151 195 249 298 335
#     4  10  21  36  58  91 118 163 192 230 298 355
#     4  11  22  34  55  90 128 151 188 246 295 350
#
# _framework density 22.052976000000001
#
# number of rings (size 3 to 8) (size 9 to 14) (size 15 to 20)
#    0.000    1.500    5.000    1.500    0.000    3.000 
#    0.000    3.125    0.000    0.000    0.000    0.000 
#    0.000    0.000    0.000    0.000    0.000    0.000 
#
# Total GULP energy -89408.460466 kJ/mol
# GULP energy per Si atom -5588.028779 kJ/mol
# Density = 2.200278 g / cm^3
# Si number density = 22.052976 Si / 1000 Ang^3
#
#
#
# Elastic Constant Matrix: (Units=GPa)
#
#
# Indices 1 2 3 4 5 6 
#
# 1 65.9486 14.6222 38.5332 3.4713 5.4811 15.2989
# 2 14.6222 89.9123 53.7537 11.5612 5.7265 10.4361
# 3 38.5332 53.7537 174.7298 15.2124 18.2773 15.7981
# 4 3.4713 11.5612 15.2124 60.2559 9.3012 -1.8305
# 5 5.4811 5.7265 18.2773 9.3012 32.5193 6.8668
# 6 15.2989 10.4361 15.7981 -1.8305 6.8668 22.9286
#
#
#
# Elastic Compliance Matrix: (Units=1/GPa)
#
#
# Indices 1 2 3 4 5 6 
#
# 1 0.019689 0.000191 -0.003433 -0.000832 0.001198 -0.011284
# 2 0.000191 0.014144 -0.003946 -0.002047 0.001203 -0.004370
# 3 -0.003433 -0.003946 0.008122 -0.000659 -0.002960 -0.000676
# 4 -0.000832 -0.002047 -0.000659 0.018187 -0.005388 0.005007
# 5 0.001198 0.001203 -0.002960 -0.005388 0.035747 -0.010443
# 6 -0.011284 -0.004370 -0.000676 0.005007 -0.010443 0.057125
#
#
# Mechanical properties :
#
#
# Convention : Reuss Voigt Hill
#
# Bulk Modulus (GPa) = 36.26000 60.48987 48.37494
# Shear Modulus (GPa) = 28.31529 38.05286 33.18408
#
# Velocity S-wave (km/s) = 3.58714 4.15844 3.88331
# Velocity P-wave (km/s) = 5.79954 7.10956 6.48770
#
# Compressibility (1/GPa) = 0.02757860
#
# Stress axis : x y z
#
# Youngs Moduli (GPa) = 50.78983 70.70302 123.11744
#
# Poissons Ratio (x) = -0.01351 0.42272
# Poissons Ratio (y) = -0.00971 0.48580
# Poissons Ratio (z) = 0.17439 0.27898
#
# Static dielectric constant tensor:
#      x y z
#    x 1.826080 -0.025020 0.006830 
#    y -0.025020 1.846260 0.013240 
#    z 0.006830 0.013240 1.822920 
# 
# From -- ./inp_files/185859.got.cif
#   From: 2010.05.17/outbox.cif.g08.bks.cpg/sg2_93_cif.got.tgz:185859.got - 2010.06.03 11:33:40.
