data_PCOD9089430
_publ_section_title
;
Structure prediction by ZEFSAII (Michael W. Deem and Ramdas Pophale) SiO2 
 PCOD9089430
Probable space group: P -1
;
_chemical_formula_sum "Si O2"
_cell_formula_units_Z 14
_cell_length_a 5.589969
_cell_length_b 17.372910
_cell_length_c 11.932984
_cell_angle_alpha 38.087233
_cell_angle_beta 110.581949
_cell_angle_gamma 120.779710
_cell_volume 611.285380
_symmetry_space_group_name_H-M "P -1"
_symmetry_group_IT_number 2
_symmetry_cell_setting 'triclinic'
loop_
_space_group_symop_operation_xyz
x,y,z
-x,-y,-z
loop_
_atom_site_type_symbol
_atom_site_label
_atom_site_fract_x
_atom_site_fract_y
_atom_site_fract_z
Si Si1 0.899520 0.250121 0.481935
Si Si2 0.650667 0.665464 0.356644
Si Si3 0.449844 0.043494 0.314736
Si Si4 0.832305 0.624444 0.840918
Si Si5 0.067377 0.647619 0.283237
Si Si6 0.768592 0.496963 0.194352
Si Si7 0.063288 0.130627 0.279936
O O1 0.192594 0.293879 0.545123
O O2 0.953614 0.287765 0.316827
O O3 0.703026 0.091237 0.631141
O O4 0.771974 0.352198 0.392849
O O5 0.500000 0.500000 0.500000
O O6 0.402085 0.715997 0.250350
O O7 0.902927 0.717081 0.249213
O O8 0.500000 0.000000 0.500000
O O9 0.755059 0.128519 0.215840
O O10 0.238824 0.115795 0.220717
O O11 0.549547 0.525228 0.848521
O O12 0.760522 0.734903 0.774326
O O13 0.915790 0.544953 0.042726
O O14 0.000000 0.500000 0.500000
O O15 0.926569 0.607595 0.185300
O O16 0.000000 0.000000 0.500000
#
# Coordination Sequence:
#
# PCOD9089430 Si02
#       7
#     2   2   2   2   2   2   2
#     4  12  21  34  60  84 121 146 186 246 287 340
#     4  10  20  34  57  79 110 145 191 236 274 329
#     4  10  20  34  57  79 110 145 191 236 274 329
#     4  11  23  35  54  85 122 156 183 229 298 359
#     4  10  19  38  53  76 114 146 194 230 265 341
#     4  11  23  35  54  85 122 156 183 229 298 359
#     4  10  19  38  53  76 114 146 194 230 265 341
#
# _framework density 22.902560000000001
#
# number of rings (size 3 to 8) (size 9 to 14) (size 15 to 20)
#    0.000    1.429    5.714    3.857    0.000    0.000 
#    0.000    0.000    0.000    0.000    0.000    6.000 
#    0.000    0.000    0.000    0.000    0.000    0.000 
#
# Total GULP energy -78183.449733 kJ/mol
# GULP energy per Si atom -5584.532124 kJ/mol
# Density = 2.285043 g / cm^3
# Si number density = 22.902560 Si / 1000 Ang^3
#
#
#
# Elastic Constant Matrix: (Units=GPa)
#
#
# Indices 1 2 3 4 5 6 
#
# 1 180.9657 28.2624 16.9794 5.0524 5.2913 -4.3643
# 2 28.2624 101.6662 30.7499 7.5606 6.2023 12.8986
# 3 16.9794 30.7499 31.2641 6.4576 1.8574 6.9071
# 4 5.0524 7.5606 6.4576 29.4123 -3.6633 1.3842
# 5 5.2913 6.2023 1.8574 -3.6633 17.2843 1.9088
# 6 -4.3643 12.8986 6.9071 1.3842 1.9088 36.8243
#
#
#
# Elastic Compliance Matrix: (Units=1/GPa)
#
#
# Indices 1 2 3 4 5 6 
#
# 1 0.006009 -0.001011 -0.002434 -0.000501 -0.001500 0.001619
# 2 -0.001011 0.014621 -0.012823 -0.001082 -0.003500 -0.002614
# 3 -0.002434 -0.012823 0.048380 -0.006790 -0.000786 -0.004576
# 4 -0.000501 -0.001082 -0.006790 0.037006 0.009145 -0.000272
# 5 -0.001500 -0.003500 -0.000786 0.009145 0.061854 -0.002354
# 6 0.001619 -0.002614 -0.004576 -0.000272 -0.002354 0.029254
#
#
# Mechanical properties :
#
#
# Convention : Reuss Voigt Hill
#
# Bulk Modulus (GPa) = 27.41692 51.76437 39.59065
# Shear Modulus (GPa) = 20.67671 32.56446 26.62059
#
# Velocity S-wave (km/s) = 3.00794 3.77486 3.41301
# Velocity P-wave (km/s) = 4.90517 6.45372 5.73198
#
# Compressibility (1/GPa) = 0.03647383
#
# Stress axis : x y z
#
# Youngs Moduli (GPa) = 166.41413 68.39423 20.66988
#
# Poissons Ratio (x) = 0.06914 0.05032
# Poissons Ratio (y) = 0.16822 0.26504
# Poissons Ratio (z) = 0.40513 0.87700
#
# Static dielectric constant tensor:
#      x y z
#    x 1.830060 -0.108730 -0.005040 
#    y -0.108730 1.748760 -0.054770 
#    z -0.005040 -0.054770 1.824350 
# 
# From -- ./inp_files/71909.got.cif
#   From: 2010.05.17/outbox.cif.g08.bks.cpg/sg2_36_cif.got.tgz:71909.got - 2010.06.03 11:33:40.
