data_PCOD9089340
_publ_section_title
;
Structure prediction by ZEFSAII (Michael W. Deem and Ramdas Pophale) SiO2 
 PCOD9089340
Probable space group: P -1
;
_chemical_formula_sum "Si O2"
_cell_formula_units_Z 16
_cell_length_a 6.561810
_cell_length_b 18.801293
_cell_length_c 5.459329
_cell_angle_alpha 86.577473
_cell_angle_beta 76.342903
_cell_angle_gamma 86.270184
_cell_volume 652.407853
_symmetry_space_group_name_H-M "P -1"
_symmetry_group_IT_number 2
_symmetry_cell_setting 'triclinic'
loop_
_space_group_symop_operation_xyz
x,y,z
-x,-y,-z
loop_
_atom_site_type_symbol
_atom_site_label
_atom_site_fract_x
_atom_site_fract_y
_atom_site_fract_z
Si Si1 0.444772 0.827667 0.158924
Si Si2 0.237544 0.236528 0.613261
Si Si3 0.674927 0.571481 0.689606
Si Si4 0.951594 0.348131 0.420627
Si Si5 0.844013 0.874407 0.709808
Si Si6 0.627768 0.016407 0.711811
Si Si7 0.121815 0.760475 0.910516
Si Si8 0.445176 0.593279 0.243026
O O1 0.527698 0.773532 0.358111
O O2 0.338430 0.899779 0.289183
O O3 0.646514 0.850883 0.938156
O O4 0.298102 0.786111 0.032779
O O5 0.149061 0.291765 0.426748
O O6 0.192097 0.158259 0.540570
O O7 0.085076 0.255821 0.874836
O O8 0.922983 0.580805 0.659857
O O9 0.592976 0.600662 0.440784
O O10 0.617715 0.489131 0.723746
O O11 0.560540 0.606593 0.953077
O O12 0.833395 0.310224 0.244325
O O13 0.773844 0.361762 0.670504
O O14 0.048369 0.831395 0.762543
O O15 0.825127 0.959369 0.684534
O O16 0.500000 0.000000 0.500000
O O17 0.500000 0.000000 0.000000
#
# Coordination Sequence:
#
# PCOD9089340 Si02
#       8
#     2   2   2   2   2   2   2   2
#     4  10  21  40  65  87 131 173 223 281 342 396
#     4  10  22  40  59  90 133 172 219 279 329 411
#     4  10  24  46  73 107 140 181 226 294 338 402
#     4  11  25  43  67  99 142 184 230 279 349 409
#     4   9  20  40  60  87 128 166 223 280 342 397
#     4  10  19  37  68  93 119 172 226 275 347 404
#     4  10  24  40  58  97 131 175 225 277 335 415
#     4  10  24  45  75 107 139 177 238 280 344 410
#
# _framework density 24.524532000000001
#
# number of rings (size 3 to 8) (size 9 to 14) (size 15 to 20)
#    0.000    2.000    1.250    0.375    3.500    6.500 
#    0.000    4.375    0.000    0.000    0.000    0.000 
#    0.000    0.000    0.000    0.000    0.000    0.000 
#
# Total GULP energy -89426.451512 kJ/mol
# GULP energy per Si atom -5589.153219 kJ/mol
# Density = 2.446871 g / cm^3
# Si number density = 24.524532 Si / 1000 Ang^3
#
#
#
# Elastic Constant Matrix: (Units=GPa)
#
#
# Indices 1 2 3 4 5 6 
#
# 1 93.2776 35.6692 33.9397 9.8999 32.6892 9.9608
# 2 35.6692 64.4408 37.2729 12.5008 7.8864 6.2977
# 3 33.9397 37.2729 137.4534 20.8302 11.4281 9.2226
# 4 9.8999 12.5008 20.8302 38.6120 0.4319 0.1286
# 5 32.6892 7.8864 11.4281 0.4319 49.3378 -1.8018
# 6 9.9608 6.2977 9.2226 0.1286 -1.8018 34.5788
#
#
#
# Elastic Compliance Matrix: (Units=1/GPa)
#
#
# Indices 1 2 3 4 5 6 
#
# 1 0.018426 -0.007523 -0.001084 -0.001568 -0.010895 -0.004210
# 2 -0.007523 0.022327 -0.003847 -0.003248 0.002308 -0.000741
# 3 -0.001084 -0.003847 0.009282 -0.003470 -0.000841 -0.001494
# 4 -0.001568 -0.003248 -0.003470 0.029193 0.002178 0.001974
# 5 -0.010895 0.002308 -0.000841 0.002178 0.027453 0.004365
# 6 -0.004210 -0.000741 -0.001494 0.001974 0.004365 0.030886
#
#
# Mechanical properties :
#
#
# Convention : Reuss Voigt Hill
#
# Bulk Modulus (GPa) = 39.79683 56.54838 48.17261
# Shear Modulus (GPa) = 29.26527 37.05838 33.16183
#
# Velocity S-wave (km/s) = 3.45817 3.89147 3.68120
# Velocity P-wave (km/s) = 5.67520 6.58022 6.14440
#
# Compressibility (1/GPa) = 0.02512763
#
# Stress axis : x y z
#
# Youngs Moduli (GPa) = 54.27099 44.78793 107.73683
#
# Poissons Ratio (x) = 0.33696 0.11675
# Poissons Ratio (y) = 0.40830 0.41445
# Poissons Ratio (z) = 0.05881 0.17229
#
# Static dielectric constant tensor:
#      x y z
#    x 1.964190 0.005870 -0.013150 
#    y 0.005870 2.045730 -0.150120 
#    z -0.013150 -0.150120 2.172200 
# 
# From -- ./inp_files/11282.got.cif
#   From: 2010.05.17/outbox.cif.g08.bks.cpg/sg2_6_cif.got.tgz:11282.got - 2010.06.03 11:33:40.
