data_PCOD9089507
_publ_section_title
;
Structure prediction by ZEFSAII (Michael W. Deem and Ramdas Pophale) SiO2 
 PCOD9089507
Probable space group: P -1
;
_chemical_formula_sum "Si O2"
_cell_formula_units_Z 14
_cell_length_a 10.584432
_cell_length_b 7.624728
_cell_length_c 14.283427
_cell_angle_alpha 122.332904
_cell_angle_beta 49.009113
_cell_angle_gamma 138.084351
_cell_volume 578.749499
_symmetry_space_group_name_H-M "P -1"
_symmetry_group_IT_number 2
_symmetry_cell_setting 'triclinic'
loop_
_space_group_symop_operation_xyz
x,y,z
-x,-y,-z
loop_
_atom_site_type_symbol
_atom_site_label
_atom_site_fract_x
_atom_site_fract_y
_atom_site_fract_z
Si Si1 0.735242 0.918974 0.449568
Si Si2 0.822787 0.617276 0.861207
Si Si3 0.582128 0.314172 0.157843
Si Si4 0.399783 0.125969 0.000795
Si Si5 0.727509 0.387025 0.639230
Si Si6 0.318052 0.381560 0.445402
Si Si7 0.765081 0.878365 0.207859
O O1 0.481361 0.673769 0.493925
O O2 0.811513 0.821880 0.466165
O O3 0.812557 0.932226 0.311294
O O4 0.764805 0.179390 0.535116
O O5 0.650035 0.340840 0.915804
O O6 0.827627 0.528751 0.728726
O O7 0.720735 0.770355 0.953042
O O8 0.059138 0.844700 0.846845
O O9 0.467110 0.318606 0.306576
O O10 0.745668 0.615831 0.128384
O O11 0.675000 0.155729 0.076776
O O12 0.400882 0.151653 0.119585
O O13 0.790139 0.584433 0.578881
O O14 0.472411 0.224987 0.726763
#
# Coordination Sequence:
#
# PCOD9089507 Si02
#       7
#     2   2   2   2   2   2   2
#     4   9  18  33  60  81 115 150 184 226 293 330
#     4  11  22  36  59  85 114 144 197 231 285 334
#     4   9  18  37  60  76 114 149 188 230 289 328
#     4  10  20  37  59  80 109 158 182 236 289 330
#     4  10  19  38  58  81 117 155 177 238 284 339
#     4   9  16  32  58  84 105 150 188 228 274 352
#     4  10  21  37  58  87 113 145 191 239 268 351
#
# _framework density 24.190085
#
# number of rings (size 3 to 8) (size 9 to 14) (size 15 to 20)
#    0.000    2.571    2.857    2.571    0.000    1.714 
#    0.000    0.714   31.429    0.000    0.000    0.000 
#    0.000    0.000    0.000    0.000    0.000    0.000 
#
# Total GULP energy -78244.850679 kJ/mol
# GULP energy per Si atom -5588.917906 kJ/mol
# Density = 2.413503 g / cm^3
# Si number density = 24.190085 Si / 1000 Ang^3
#
#
#
# Elastic Constant Matrix: (Units=GPa)
#
#
# Indices 1 2 3 4 5 6 
#
# 1 28.0514 15.7189 19.3954 9.8939 3.7442 -2.5189
# 2 15.7189 103.7381 46.9067 22.8225 -12.3626 3.5427
# 3 19.3954 46.9067 83.7513 38.0763 6.6535 -0.2808
# 4 9.8939 22.8225 38.0763 42.9211 -7.4505 -7.2977
# 5 3.7442 -12.3626 6.6535 -7.4505 28.1988 4.0398
# 6 -2.5189 3.5427 -0.2808 -7.2977 4.0398 29.2353
#
#
#
# Elastic Compliance Matrix: (Units=1/GPa)
#
#
# Indices 1 2 3 4 5 6 
#
# 1 0.044853 -0.004705 -0.005360 -0.003758 -0.008406 0.004607
# 2 -0.004705 0.015584 -0.009839 0.002894 0.011000 -0.003186
# 3 -0.005360 -0.009839 0.031287 -0.024732 -0.017120 -0.002777
# 4 -0.003758 0.002894 -0.024732 0.049422 0.019408 0.008743
# 5 -0.008406 0.011000 -0.017120 0.019408 0.051206 -0.004453
# 6 0.004607 -0.003186 -0.002777 0.008743 -0.004453 0.037759
#
#
# Mechanical properties :
#
#
# Convention : Reuss Voigt Hill
#
# Bulk Modulus (GPa) = 19.26192 42.17586 30.71889
# Shear Modulus (GPa) = 17.40799 28.97236 23.19017
#
# Velocity S-wave (km/s) = 2.68551 3.46453 3.09959
# Velocity P-wave (km/s) = 4.19475 5.78593 5.05336
#
# Compressibility (1/GPa) = 0.05191590
#
# Stress axis : x y z
#
# Youngs Moduli (GPa) = 22.29516 64.16672 31.96251
#
# Poissons Ratio (x) = 0.30190 0.17132
# Poissons Ratio (y) = 0.10490 0.31448
# Poissons Ratio (z) = 0.11950 0.63133
#
# Static dielectric constant tensor:
#      x y z
#    x 1.943980 0.000630 0.029470 
#    y 0.000630 1.951830 -0.052520 
#    z 0.029470 -0.052520 1.934980 
# 
# From -- ./inp_files/405568.got.cif
#   From: 2010.05.17/outbox.cif.g08.bks.cpg/sg2_203_cif.got.tgz:405568.got - 2010.06.03 11:33:40.
