data_PCOD9089191
_publ_section_title
;
Structure prediction by ZEFSAII (Michael W. Deem and Ramdas Pophale) SiO2 
 PCOD9089191
Probable space group: P -1
;
_chemical_formula_sum "Si O2"
_cell_formula_units_Z 10
_cell_length_a 7.843804
_cell_length_b 12.431949
_cell_length_c 7.587987
_cell_angle_alpha 50.161028
_cell_angle_beta 121.829842
_cell_angle_gamma 144.314336
_cell_volume 331.385960
_symmetry_space_group_name_H-M "P -1"
_symmetry_group_IT_number 2
_symmetry_cell_setting 'triclinic'
loop_
_space_group_symop_operation_xyz
x,y,z
-x,-y,-z
loop_
_atom_site_type_symbol
_atom_site_label
_atom_site_fract_x
_atom_site_fract_y
_atom_site_fract_z
Si Si1 0.690021 0.956523 0.492100
Si Si2 0.483004 0.232848 0.756731
Si Si3 0.046445 0.678502 0.528259
Si Si4 0.658252 0.699098 0.036523
Si Si5 0.037940 0.353494 0.953519
O O1 0.730675 0.926497 0.345909
O O2 0.360956 0.854291 0.415868
O O3 0.700591 0.836230 0.764290
O O4 0.915510 0.187688 0.438309
O O5 0.699007 0.461367 0.549298
O O6 0.699459 0.214594 0.955129
O O7 0.327245 0.216708 0.857931
O O8 0.118615 0.557238 0.761164
O O9 0.336823 0.463353 0.101119
O O10 0.911655 0.711235 0.130666
#
# Coordination Sequence:
#
# PCOD9089191 Si02
#       5
#     2   2   2   2   2
#     4  10  19  37  66  89 122 165 208 259 310 372
#     4  10  20  38  68  86 118 174 208 240 328 382
#     4   8  19  37  62  87 129 159 199 270 309 361
#     4  10  19  37  66  89 122 165 208 259 310 372
#     4   8  19  37  62  87 129 159 199 270 309 361
#
# _framework density 30.176292
#
# number of rings (size 3 to 8) (size 9 to 14) (size 15 to 20)
#    1.200    1.600    0.000    1.200    0.000    0.000 
#    0.000   22.000   13.200    9.600    0.000    0.000 
#    0.000    0.000    0.000    0.000    0.000    0.000 
#
# Total GULP energy -55825.205177 kJ/mol
# GULP energy per Si atom -5582.520518 kJ/mol
# Density = 3.010761 g / cm^3
# Si number density = 30.176292 Si / 1000 Ang^3
#
#
#
# Elastic Constant Matrix: (Units=GPa)
#
#
# Indices 1 2 3 4 5 6 
#
# 1 216.7564 70.6183 52.6514 9.4333 -16.3542 -9.1066
# 2 70.6183 114.6449 21.9916 -23.0029 5.7222 -5.9772
# 3 52.6514 21.9916 100.3726 -10.3671 -7.3384 12.5615
# 4 9.4333 -23.0029 -10.3671 41.8984 -1.3319 4.0668
# 5 -16.3542 5.7222 -7.3384 -1.3319 64.4664 14.4120
# 6 -9.1066 -5.9772 12.5615 4.0668 14.4120 75.1693
#
#
#
# Elastic Compliance Matrix: (Units=1/GPa)
#
#
# Indices 1 2 3 4 5 6 
#
# 1 0.007482 -0.005060 -0.003382 -0.005350 0.001617 0.001049
# 2 -0.005060 0.013640 0.000329 0.008594 -0.002370 0.000406
# 3 -0.003382 0.000329 0.012585 0.004386 0.001301 -0.002973
# 4 -0.005350 0.008594 0.004386 0.031083 -0.000467 -0.002290
# 5 0.001617 -0.002370 0.001301 -0.000467 0.017043 -0.003452
# 6 0.001049 0.000406 -0.002973 -0.002290 -0.003452 0.014745
#
#
# Mechanical properties :
#
#
# Convention : Reuss Voigt Hill
#
# Bulk Modulus (GPa) = 57.19995 80.25517 68.72756
# Shear Modulus (GPa) = 42.14785 55.40764 48.77775
#
# Velocity S-wave (km/s) = 3.74133 4.28966 4.02484
# Velocity P-wave (km/s) = 6.13676 7.15458 6.66513
#
# Compressibility (1/GPa) = 0.01748253
#
# Stress axis : x y z
#
# Youngs Moduli (GPa) = 133.65009 73.31438 79.45993
#
# Poissons Ratio (x) = 0.37094 0.26872
# Poissons Ratio (y) = 0.67621 -0.02615
# Poissons Ratio (z) = 0.45198 -0.02413
#
# Static dielectric constant tensor:
#      x y z
#    x 2.405600 0.056810 0.147940 
#    y 0.056810 2.283510 -0.000090 
#    z 0.147940 -0.000090 2.448600 
# 
# From -- ./inp_files/176549.got.cif
#   From: 2010.05.17/outbox.cif.g08.bks.cpg/sg2_89_cif.got.tgz:176549.got - 2010.06.03 11:33:40.
