data_PCOD9089297
_publ_section_title
;
Structure prediction by ZEFSAII (Michael W. Deem and Ramdas Pophale) SiO2 
 PCOD9089297
Probable space group: P -1
;
_chemical_formula_sum "Si O2"
_cell_formula_units_Z 16
_cell_length_a 9.749242
_cell_length_b 12.808750
_cell_length_c 10.926407
_cell_angle_alpha 70.037396
_cell_angle_beta 126.449701
_cell_angle_gamma 134.312168
_cell_volume 778.878535
_symmetry_space_group_name_H-M "P -1"
_symmetry_group_IT_number 2
_symmetry_cell_setting 'triclinic'
loop_
_space_group_symop_operation_xyz
x,y,z
-x,-y,-z
loop_
_atom_site_type_symbol
_atom_site_label
_atom_site_fract_x
_atom_site_fract_y
_atom_site_fract_z
Si Si1 0.224537 0.274071 0.828078
Si Si2 0.584566 0.934680 0.765710
Si Si3 0.975324 0.820118 0.967276
Si Si4 0.664332 0.341960 0.103613
Si Si5 0.828975 0.325295 0.962612
Si Si6 0.009280 0.595609 0.359229
Si Si7 0.155536 0.043935 0.326137
Si Si8 0.534742 0.167517 0.640933
O O1 0.134431 0.355177 0.701579
O O2 0.487736 0.353769 0.945355
O O3 0.084990 0.120789 0.740592
O O4 0.150891 0.241629 0.945469
O O5 0.433705 0.766608 0.788992
O O6 0.689311 0.967315 0.674219
O O7 0.487547 0.016142 0.693995
O O8 0.792841 0.019483 0.936889
O O9 0.856479 0.845467 0.795456
O O10 0.038069 0.728093 0.983745
O O11 0.883605 0.495330 0.211889
O O12 0.713101 0.270600 0.055473
O O13 0.641408 0.261055 0.784084
O O14 0.000000 0.500000 0.000000
O O15 0.000000 0.500000 0.500000
O O16 0.263512 0.733147 0.393436
O O17 0.298368 0.118213 0.494417
#
# Coordination Sequence:
#
# PCOD9089297 Si02
#       8
#     2   2   2   2   2   2   2   2
#     4  11  21  41  63  97 125 163 205 270 305 365
#     4  10  19  37  67  95 120 163 209 258 310 363
#     4  10  19  38  67  90 123 164 212 251 310 376
#     4  12  23  40  69  94 124 164 219 255 305 377
#     4  11  23  45  62  84 131 177 205 246 315 386
#     4  12  25  39  62  99 131 160 211 258 318 368
#     4  11  19  37  66  95 126 157 211 261 322 358
#     4  11  23  40  63  91 129 172 200 256 320 374
#
# _framework density 20.542355000000001
#
# number of rings (size 3 to 8) (size 9 to 14) (size 15 to 20)
#    0.000    1.000    7.500    2.250    1.750    2.000 
#    0.000    2.500    0.000    0.000    0.000    0.000 
#    0.000    0.000    0.000    0.000    0.000    0.000 
#
# Total GULP energy -89321.278335 kJ/mol
# GULP energy per Si atom -5582.579896 kJ/mol
# Density = 2.049560 g / cm^3
# Si number density = 20.542355 Si / 1000 Ang^3
#
#
#
# Elastic Constant Matrix: (Units=GPa)
#
#
# Indices 1 2 3 4 5 6 
#
# 1 42.0467 4.6595 13.4790 9.5356 0.2061 -12.7505
# 2 4.6595 62.2895 39.4759 0.9162 8.1374 -16.8162
# 3 13.4790 39.4759 148.5347 7.4284 10.4804 -13.3360
# 4 9.5356 0.9162 7.4284 37.4887 -1.6154 -5.9922
# 5 0.2061 8.1374 10.4804 -1.6154 18.6082 4.0265
# 6 -12.7505 -16.8162 -13.3360 -5.9922 4.0265 23.7178
#
#
#
# Elastic Compliance Matrix: (Units=1/GPa)
#
#
# Indices 1 2 3 4 5 6 
#
# 1 0.030553 0.004613 -0.001682 -0.004843 -0.005836 0.018517
# 2 0.004613 0.026011 -0.004603 0.001899 -0.013226 0.021059
# 3 -0.001682 -0.004603 0.008449 -0.001134 -0.003000 0.000806
# 4 -0.004843 0.001899 -0.001134 0.028972 0.001249 0.005213
# 5 -0.005836 -0.013226 -0.003000 0.001249 0.066846 -0.025234
# 6 0.018517 0.021059 0.000806 0.005213 -0.025234 0.073103
#
#
# Mechanical properties :
#
#
# Convention : Reuss Voigt Hill
#
# Bulk Modulus (GPa) = 16.21520 40.89995 28.55757
# Shear Modulus (GPa) = 19.39232 28.98005 24.18618
#
# Velocity S-wave (km/s) = 3.07582 3.76007 3.43502
# Velocity P-wave (km/s) = 4.53044 6.22929 5.44651
#
# Compressibility (1/GPa) = 0.06167052
#
# Stress axis : x y z
#
# Youngs Moduli (GPa) = 32.72971 38.44515 118.35605
#
# Poissons Ratio (x) = -0.17736 0.19909
# Poissons Ratio (y) = -0.15099 0.54474
# Poissons Ratio (z) = 0.05506 0.17695
#
# Static dielectric constant tensor:
#      x y z
#    x 1.779480 0.022560 -0.001270 
#    y 0.022560 1.768610 0.017500 
#    z -0.001270 0.017500 1.755140 
# 
# From -- ./inp_files/226356.got.cif
#   From: 2010.05.17/outbox.cif.g08.bks.cpg/sg2_114_cif.got.tgz:226356.got - 2010.06.03 11:33:40.
