data_PCOD9089620
_publ_section_title
;
Structure prediction by ZEFSAII (Michael W. Deem and Ramdas Pophale) SiO2 
 PCOD9089620
Probable space group: P -1
;
_chemical_formula_sum "Si O2"
_cell_formula_units_Z 14
_cell_length_a 17.978166
_cell_length_b 7.610201
_cell_length_c 14.652678
_cell_angle_alpha 56.953945
_cell_angle_beta 21.936219
_cell_angle_gamma 49.759397
_cell_volume 561.368465
_symmetry_space_group_name_H-M "P -1"
_symmetry_group_IT_number 2
_symmetry_cell_setting 'triclinic'
loop_
_space_group_symop_operation_xyz
x,y,z
-x,-y,-z
loop_
_atom_site_type_symbol
_atom_site_label
_atom_site_fract_x
_atom_site_fract_y
_atom_site_fract_z
Si Si1 0.356113 0.692384 0.379964
Si Si2 0.802751 0.355715 0.606228
Si Si3 0.962262 0.776641 0.131032
Si Si4 0.349739 0.275409 0.615989
Si Si5 0.827144 0.475009 0.861476
Si Si6 0.689282 0.198231 0.958518
Si Si7 0.538708 0.090661 0.634096
O O1 0.174363 0.744787 0.493880
O O2 0.400241 0.443738 0.444417
O O3 0.334139 0.850094 0.447031
O O4 0.575419 0.674953 0.084115
O O5 0.562675 0.586664 0.815533
O O6 0.991989 0.435189 0.391949
O O7 0.784266 0.190355 0.752108
O O8 0.899625 0.681112 0.138127
O O9 0.142207 0.602423 0.045011
O O10 0.738068 0.872067 0.419984
O O11 0.000000 0.000000 0.000000
O O12 0.419616 0.288262 0.636575
O O13 0.500000 0.000000 0.500000
O O14 0.828965 0.270575 0.851859
O O15 0.647926 0.980466 0.097244
#
# Coordination Sequence:
#
# PCOD9089620 Si02
#       7
#     2   2   2   2   2   2   2
#     4  11  23  39  60  88 128 154 186 246 302 353
#     4  10  20  40  62  88 115 160 204 238 288 347
#     4  11  20  36  62  89 112 154 206 241 283 354
#     4  10  19  38  60  81 118 155 197 236 287 349
#     4  11  19  39  61  89 113 155 208 240 283 345
#     4  10  21  38  64  87 117 156 203 246 282 347
#     4  11  22  40  57  89 127 154 187 247 308 342
#
# _framework density 24.939057999999999
#
# number of rings (size 3 to 8) (size 9 to 14) (size 15 to 20)
#    0.000    1.429    2.857    6.000    0.000    0.571 
#    5.143    2.143    0.000    0.000    0.000    0.000 
#    0.000    0.000    0.000    0.000    0.000    0.000 
#
# Total GULP energy -78316.848393 kJ/mol
# GULP energy per Si atom -5594.060599 kJ/mol
# Density = 2.488230 g / cm^3
# Si number density = 24.939058 Si / 1000 Ang^3
#
#
#
# Elastic Constant Matrix: (Units=GPa)
#
#
# Indices 1 2 3 4 5 6 
#
# 1 143.9483 49.1748 41.9371 -22.7774 -1.5258 14.8803
# 2 49.1748 49.0632 34.3325 -12.4911 0.1832 4.6982
# 3 41.9371 34.3325 124.8204 -40.8851 -16.7382 -8.0642
# 4 -22.7774 -12.4911 -40.8851 34.6311 -4.2528 -3.7272
# 5 -1.5258 0.1832 -16.7382 -4.2528 45.3275 -7.1856
# 6 14.8803 4.6982 -8.0642 -3.7272 -7.1856 44.2022
#
#
#
# Elastic Compliance Matrix: (Units=1/GPa)
#
#
# Indices 1 2 3 4 5 6 
#
# 1 0.011205 -0.010188 0.000168 0.003706 0.000468 -0.002270
# 2 -0.010188 0.035915 -0.009115 -0.005464 -0.004891 -0.003306
# 3 0.000168 -0.009115 0.019731 0.022308 0.010711 0.008134
# 4 0.003706 -0.005464 0.022308 0.058771 0.015626 0.010899
# 5 0.000468 -0.004891 0.010711 0.015626 0.028838 0.008322
# 6 -0.002270 -0.003306 0.008134 0.010899 0.008322 0.027495
#
#
# Mechanical properties :
#
#
# Convention : Reuss Voigt Hill
#
# Bulk Modulus (GPa) = 34.98904 63.19119 49.09011
# Shear Modulus (GPa) = 21.76265 37.65798 29.71031
#
# Velocity S-wave (km/s) = 2.95724 3.89009 3.45529
# Velocity P-wave (km/s) = 5.07155 6.75058 5.97038
#
# Compressibility (1/GPa) = 0.02858038
#
# Stress axis : x y z
#
# Youngs Moduli (GPa) = 89.24967 27.84322 50.68179
#
# Poissons Ratio (x) = 0.28368 -0.00851
# Poissons Ratio (y) = 0.90931 0.46195
# Poissons Ratio (z) = -0.01499 0.25378
#
# Static dielectric constant tensor:
#      x y z
#    x 2.040680 0.023210 -0.036350 
#    y 0.023210 2.008800 0.091980 
#    z -0.036350 0.091980 2.006880 
# 
# From -- ./inp_files/201028.got.cif
#   From: 2010.05.17/outbox.cif.g08.bks.cpg/sg2_101_cif.got.tgz:201028.got - 2010.06.03 11:33:40.
