data_PCOD9089067
_publ_section_title
;
Structure prediction by ZEFSAII (Michael W. Deem and Ramdas Pophale) SiO2 
 PCOD9089067
Probable space group: P -1
;
_chemical_formula_sum "Si O2"
_cell_formula_units_Z 16
_cell_length_a 9.736438
_cell_length_b 15.374059
_cell_length_c 9.263792
_cell_angle_alpha 126.015945
_cell_angle_beta 128.636959
_cell_angle_gamma 39.407169
_cell_volume 671.855402
_symmetry_space_group_name_H-M "P -1"
_symmetry_group_IT_number 2
_symmetry_cell_setting 'triclinic'
loop_
_space_group_symop_operation_xyz
x,y,z
-x,-y,-z
loop_
_atom_site_type_symbol
_atom_site_label
_atom_site_fract_x
_atom_site_fract_y
_atom_site_fract_z
Si Si1 0.351706 0.390634 0.892489
Si Si2 0.240426 0.883350 0.964045
Si Si3 0.706175 0.923802 0.671265
Si Si4 0.021456 0.697291 0.111841
Si Si5 0.872299 0.984619 0.279523
Si Si6 0.986668 0.689185 0.419561
Si Si7 0.380656 0.193338 0.246814
Si Si8 0.746522 0.552990 0.434560
O O1 0.592369 0.271529 0.012602
O O2 0.200357 0.337687 0.734852
O O3 0.377171 0.418022 0.769882
O O4 0.209725 0.539645 0.024677
O O5 0.355552 0.950175 0.150520
O O6 0.192659 0.911240 0.791860
O O7 0.000000 0.000000 0.000000
O O8 0.909833 0.822967 0.593317
O O9 0.738551 0.819789 0.710402
O O10 0.500000 0.000000 0.500000
O O11 0.016732 0.822225 0.172655
O O12 0.030830 0.698840 0.292150
O O13 0.781531 0.744519 0.937801
O O14 0.625447 0.044221 0.235309
O O15 0.000000 0.000000 0.500000
O O16 0.196792 0.561879 0.527242
O O17 0.399986 0.304721 0.430918
O O18 0.000000 0.500000 0.500000
#
# Coordination Sequence:
#
# PCOD9089067 Si02
#       8
#     2   2   2   2   2   2   2   2
#     4  11  22  43  69 105 139 177 231 288 350 407
#     4  12  29  48  70 101 144 186 231 285 350 424
#     4  12  22  40  72 102 134 183 238 283 340 407
#     4  12  24  43  73 103 138 177 238 293 342 411
#     4  12  31  48  67 100 146 191 230 286 354 410
#     4  11  21  35  69 110 138 170 225 295 345 397
#     4  12  22  43  72 102 138 181 235 291 342 407
#     4  10  19  37  65 106 142 166 218 295 352 393
#
# _framework density 23.814647999999998
#
# number of rings (size 3 to 8) (size 9 to 14) (size 15 to 20)
#    0.000    0.500    7.500    2.250    7.000    0.000 
#    0.000    2.500    0.000    0.000    0.000    0.000 
#    0.000    0.000    0.000    0.000    0.000    0.000 
#
# Total GULP energy -89382.566527 kJ/mol
# GULP energy per Si atom -5586.410408 kJ/mol
# Density = 2.376044 g / cm^3
# Si number density = 23.814648 Si / 1000 Ang^3
#
#
#
# Elastic Constant Matrix: (Units=GPa)
#
#
# Indices 1 2 3 4 5 6 
#
# 1 36.5678 19.9069 29.2292 -13.8038 -16.4660 3.3102
# 2 19.9069 190.3760 74.1830 -6.8874 -14.9247 8.5014
# 3 29.2292 74.1830 140.6992 -24.2742 -39.3066 7.7651
# 4 -13.8038 -6.8874 -24.2742 51.7927 10.1740 -13.6987
# 5 -16.4660 -14.9247 -39.3066 10.1740 30.3926 -8.7119
# 6 3.3102 8.5014 7.7651 -13.6987 -8.7119 23.2008
#
#
#
# Elastic Compliance Matrix: (Units=1/GPa)
#
#
# Indices 1 2 3 4 5 6 
#
# 1 0.040306 -0.002469 -0.000733 0.008302 0.019032 0.007447
# 2 -0.002469 0.007008 -0.004428 -0.001911 -0.003942 -0.003342
# 3 -0.000733 -0.004428 0.014647 0.004309 0.016527 0.005575
# 4 0.008302 -0.001911 0.004309 0.026449 0.004708 0.015459
# 5 0.019032 -0.003942 0.016527 0.004708 0.067151 0.021193
# 6 0.007447 -0.003342 0.005575 0.015459 0.021193 0.058484
#
#
# Mechanical properties :
#
#
# Convention : Reuss Voigt Hill
#
# Bulk Modulus (GPa) = 21.41368 68.25348 44.83358
# Shear Modulus (GPa) = 20.41878 37.36546 28.89212
#
# Velocity S-wave (km/s) = 2.93132 3.96537 3.48689
# Velocity P-wave (km/s) = 4.52418 7.04898 5.92268
#
# Compressibility (1/GPa) = 0.04669913
#
# Stress axis : x y z
#
# Youngs Moduli (GPa) = 24.81021 142.70288 68.27218
#
# Poissons Ratio (x) = 0.35235 0.05008
# Poissons Ratio (y) = 0.06126 0.30233
# Poissons Ratio (z) = 0.01820 0.63193
#
# Static dielectric constant tensor:
#      x y z
#    x 2.066470 -0.058830 0.122340 
#    y -0.058830 1.904440 -0.035800 
#    z 0.122340 -0.035800 1.935140 
# 
# From -- ./inp_files/243328.got.cif
#   From: 2010.05.17/outbox.cif.g08.bks.cpg/sg2_122_cif.got.tgz:243328.got - 2010.06.03 11:33:40.
