data_PCOD9089732
_publ_section_title
;
Structure prediction by ZEFSAII (Michael W. Deem and Ramdas Pophale) SiO2 
 PCOD9089732
Probable space group: P -1
;
_chemical_formula_sum "Si O2"
_cell_formula_units_Z 14
_cell_length_a 7.156247
_cell_length_b 21.219417
_cell_length_c 10.446105
_cell_angle_alpha 38.443020
_cell_angle_beta 92.489078
_cell_angle_gamma 119.554187
_cell_volume 663.450921
_symmetry_space_group_name_H-M "P -1"
_symmetry_group_IT_number 2
_symmetry_cell_setting 'triclinic'
loop_
_space_group_symop_operation_xyz
x,y,z
-x,-y,-z
loop_
_atom_site_type_symbol
_atom_site_label
_atom_site_fract_x
_atom_site_fract_y
_atom_site_fract_z
Si Si1 0.056590 0.630232 0.404641
Si Si2 0.054417 0.639261 0.666046
Si Si3 0.769654 0.646896 0.852245
Si Si4 0.458611 0.714772 0.724825
Si Si5 0.464628 0.709066 0.126798
Si Si6 0.719834 0.954834 0.555885
Si Si7 0.091400 0.279574 0.975328
O O1 0.051183 0.684445 0.453602
O O2 0.349949 0.691791 0.290581
O O3 0.815083 0.449174 0.691577
O O4 0.980948 0.670202 0.217610
O O5 0.345230 0.701067 0.605483
O O6 0.009476 0.696816 0.692300
O O7 0.802433 0.456226 0.957945
O O8 0.726888 0.750156 0.680033
O O9 0.783213 0.626238 0.036806
O O10 0.500000 0.500000 0.000000
O O11 0.536359 0.839647 0.617031
O O12 0.559118 0.852212 0.839022
O O13 0.695121 0.716180 0.090379
O O14 0.000000 0.000000 0.500000
O O15 0.824414 0.109661 0.288163
#
# Coordination Sequence:
#
# PCOD9089732 Si02
#       7
#     2   2   2   2   2   2   2
#     4  11  23  38  60  95 123 156 199 254 307 353
#     4  10  22  36  61  90 123 155 200 250 303 353
#     4  10  20  35  60  91 117 155 205 251 294 352
#     4  10  19  38  61  86 119 159 206 247 291 357
#     4  10  21  37  62  87 123 154 206 246 299 348
#     4  10  19  39  64  89 120 159 208 247 296 360
#     4  11  23  38  64  93 119 157 204 255 300 355
#
# _framework density 21.101787999999999
#
# number of rings (size 3 to 8) (size 9 to 14) (size 15 to 20)
#    0.000    1.714    4.286    1.286    2.000    5.143 
#    0.000    0.714    0.000    2.571    0.000    0.000 
#    0.000    0.000    0.000    0.000    0.000    0.000 
#
# Total GULP energy -77982.902431 kJ/mol
# GULP energy per Si atom -5570.207316 kJ/mol
# Density = 2.105376 g / cm^3
# Si number density = 21.101788 Si / 1000 Ang^3
#
#
#
# Elastic Constant Matrix: (Units=GPa)
#
#
# Indices 1 2 3 4 5 6 
#
# 1 76.8878 37.5000 22.5256 22.9418 -7.1849 6.7443
# 2 37.5000 108.9749 6.5580 21.7821 0.1530 14.5287
# 3 22.5256 6.5580 38.1915 3.0474 -13.0403 21.1832
# 4 22.9418 21.7821 3.0474 36.9892 1.1929 5.8104
# 5 -7.1849 0.1530 -13.0403 1.1929 24.7861 7.0846
# 6 6.7443 14.5287 21.1832 5.8104 7.0846 20.8630
#
#
#
# Elastic Compliance Matrix: (Units=1/GPa)
#
#
# Indices 1 2 3 4 5 6 
#
# 1 0.010467 0.002108 0.037417 -0.003422 0.038590 -0.054994
# 2 0.002108 0.007190 -0.029418 -0.007772 -0.024439 0.034645
# 3 0.037417 -0.029418 -0.172621 -0.024700 -0.147367 0.240583
# 4 -0.003422 -0.007772 -0.024700 0.031678 -0.024336 0.031039
# 5 0.038590 -0.024439 -0.147367 -0.024336 -0.078280 0.187533
# 6 -0.054994 0.034645 0.240583 0.031039 0.187533 -0.275018
#
#
# Mechanical properties :
#
#
# Convention : Reuss Voigt Hill
#
# Bulk Modulus (GPa) = -7.42109 39.69129 16.13510
# Shear Modulus (GPa) = -9.22996 27.02571 8.89787
#
# Velocity S-wave (km/s) = -2.09368 3.58261 2.05567
# Velocity P-wave (km/s) = 3.06090 5.99698 3.64655
#
# Compressibility (1/GPa) = -0.13475113
#
# Stress axis : x y z
#
# Youngs Moduli (GPa) = 95.53951 139.07681 -5.79304
#
# Poissons Ratio (x) = -0.29319 0.21676
# Poissons Ratio (y) = -0.20141 -0.17042
# Poissons Ratio (z) = -3.57476 4.09140
#
# Static dielectric constant tensor:
#      x y z
#    x 1.873480 0.008680 -0.007870 
#    y 0.008680 1.497230 -0.058860 
#    z -0.007870 -0.058860 1.755620 
# 
# From -- ./inp_files/221846.got.cif
#   From: 2010.05.17/outbox.cif.g08.bks.cpg/sg2_111_cif.got.tgz:221846.got - 2010.06.03 11:33:40.
