data_PCOD9089747
_publ_section_title
;
Structure prediction by ZEFSAII (Michael W. Deem and Ramdas Pophale) SiO2 
 PCOD9089747
Probable space group: P -1
;
_chemical_formula_sum "Si O2"
_cell_formula_units_Z 16
_cell_length_a 11.577816
_cell_length_b 10.863400
_cell_length_c 10.014906
_cell_angle_alpha 97.702468
_cell_angle_beta 59.947075
_cell_angle_gamma 127.509963
_cell_volume 837.640231
_symmetry_space_group_name_H-M "P -1"
_symmetry_group_IT_number 2
_symmetry_cell_setting 'triclinic'
loop_
_space_group_symop_operation_xyz
x,y,z
-x,-y,-z
loop_
_atom_site_type_symbol
_atom_site_label
_atom_site_fract_x
_atom_site_fract_y
_atom_site_fract_z
Si Si1 0.696066 0.153091 0.930814
Si Si2 0.881478 0.287494 0.385372
Si Si3 0.629705 0.487908 0.585831
Si Si4 0.493802 0.320213 0.363186
Si Si5 0.017537 0.186126 0.641010
Si Si6 0.856557 0.004034 0.436103
Si Si7 0.752393 0.379627 0.708017
Si Si8 0.185173 0.648806 0.858946
O O1 0.845755 0.149033 0.790312
O O2 0.709459 0.288375 0.857895
O O3 0.740919 0.201387 0.066095
O O4 0.500000 0.000000 0.000000
O O5 0.776911 0.283494 0.570518
O O6 0.829564 0.320799 0.281930
O O7 0.073540 0.442029 0.336404
O O8 0.859430 0.126700 0.359641
O O9 0.519126 0.365088 0.512183
O O10 0.561135 0.585855 0.663500
O O11 0.631515 0.405257 0.704064
O O12 0.824353 0.623757 0.434870
O O13 0.336285 0.132037 0.417438
O O14 0.673806 0.376145 0.215796
O O15 0.078991 0.094233 0.663796
O O16 0.977021 0.118320 0.504622
O O17 0.000000 0.500000 0.000000
#
# Coordination Sequence:
#
# PCOD9089747 Si02
#       8
#     2   2   2   2   2   2   2   2
#     4  12  25  40  59  90 129 162 194 246 313 366
#     4  11  21  38  65  92 116 157 213 250 288 360
#     4  10  19  38  65  88 120 153 205 255 293 350
#     4  10  22  36  58  97 122 152 197 256 305 341
#     4  10  19  38  61  87 119 161 195 246 306 352
#     4  10  20  35  64  92 114 147 212 259 285 341
#     4  11  20  39  64  91 116 159 212 244 295 358
#     4  12  24  40  59  89 129 163 195 240 312 372
#
# _framework density 19.101279999999999
#
# number of rings (size 3 to 8) (size 9 to 14) (size 15 to 20)
#    0.000    1.250    5.000    2.250    0.000    1.500 
#    0.000    2.500    0.000    0.000    0.000    0.000 
#    0.000    0.000    0.000    0.000    0.000    0.000 
#
# Total GULP energy -89246.711272 kJ/mol
# GULP energy per Si atom -5577.919455 kJ/mol
# Density = 1.905780 g / cm^3
# Si number density = 19.101280 Si / 1000 Ang^3
#
#
#
# Elastic Constant Matrix: (Units=GPa)
#
#
# Indices 1 2 3 4 5 6 
#
# 1 112.1610 24.5475 26.9040 -10.1069 -10.5293 -10.9219
# 2 24.5475 62.8868 -0.2111 -5.8891 1.2441 -3.1504
# 3 26.9040 -0.2111 35.9737 2.7243 -5.0679 -6.0432
# 4 -10.1069 -5.8891 2.7243 23.2530 9.7832 5.3361
# 5 -10.5293 1.2441 -5.0679 9.7832 35.8437 2.4048
# 6 -10.9219 -3.1504 -6.0432 5.3361 2.4048 34.0498
#
#
#
# Elastic Compliance Matrix: (Units=1/GPa)
#
#
# Indices 1 2 3 4 5 6 
#
# 1 0.012897 -0.004582 -0.009675 0.004813 0.001188 0.001158
# 2 -0.004582 0.018065 0.003020 0.003160 -0.002436 0.000415
# 3 -0.009675 0.003020 0.037484 -0.011154 0.005047 0.005220
# 4 0.004813 0.003160 -0.011154 0.055220 -0.014825 -0.007750
# 5 0.001188 -0.002436 0.005047 -0.014825 0.033022 0.001042
# 6 0.001158 0.000415 0.005220 -0.007750 0.001042 0.031846
#
#
# Mechanical properties :
#
#
# Convention : Reuss Voigt Hill
#
# Bulk Modulus (GPa) = 21.75222 34.83359 28.29291
# Shear Modulus (GPa) = 22.09132 29.28136 25.68634
#
# Velocity S-wave (km/s) = 3.40448 3.91954 3.67105
# Velocity P-wave (km/s) = 5.18329 6.22572 5.72827
#
# Compressibility (1/GPa) = 0.04597232
#
# Stress axis : x y z
#
# Youngs Moduli (GPa) = 77.53571 55.35562 26.67788
#
# Poissons Ratio (x) = 0.25362 0.25811
# Poissons Ratio (y) = 0.35524 -0.08056
# Poissons Ratio (z) = 0.75017 -0.16716
#
# Static dielectric constant tensor:
#      x y z
#    x 1.730060 -0.032540 -0.023900 
#    y -0.032540 1.676910 0.009600 
#    z -0.023900 0.009600 1.655750 
# 
# From -- ./inp_files/262678.got.cif
#   From: 2010.05.17/outbox.cif.g08.bks.cpg/sg2_132_cif.got.tgz:262678.got - 2010.06.03 11:33:40.
