data_PCOD9089590
_publ_section_title
;
Structure prediction by ZEFSAII (Michael W. Deem and Ramdas Pophale) SiO2 
 PCOD9089590
Probable space group: P -1
;
_chemical_formula_sum "Si O2"
_cell_formula_units_Z 16
_cell_length_a 7.890472
_cell_length_b 9.176411
_cell_length_c 17.930451
_cell_angle_alpha 39.571839
_cell_angle_beta 61.208465
_cell_angle_gamma 83.827152
_cell_volume 638.854497
_symmetry_space_group_name_H-M "P -1"
_symmetry_group_IT_number 2
_symmetry_cell_setting 'triclinic'
loop_
_space_group_symop_operation_xyz
x,y,z
-x,-y,-z
loop_
_atom_site_type_symbol
_atom_site_label
_atom_site_fract_x
_atom_site_fract_y
_atom_site_fract_z
Si Si1 0.062462 0.915416 0.836237
Si Si2 0.762496 0.242605 0.663097
Si Si3 0.344306 0.337018 0.498662
Si Si4 0.300643 0.535853 0.124966
Si Si5 0.652884 0.372789 0.091711
Si Si6 0.867396 0.035666 0.444905
Si Si7 0.855461 0.212801 0.818073
Si Si8 0.720607 0.241143 0.511838
O O1 0.860436 0.652999 0.953834
O O2 0.142899 0.151166 0.667707
O O3 0.258257 0.835436 0.828649
O O4 0.970041 0.027220 0.879005
O O5 0.603335 0.370791 0.640998
O O6 0.740492 0.125641 0.795477
O O7 0.726251 0.110486 0.641286
O O8 0.000000 0.500000 0.500000
O O9 0.547430 0.342226 0.496140
O O10 0.256737 0.195004 0.494573
O O11 0.382468 0.653841 0.979373
O O12 0.285058 0.737380 0.107702
O O13 0.051028 0.298040 0.263740
O O14 0.461045 0.411422 0.158957
O O15 0.682564 0.070247 0.514432
O O16 0.000000 0.000000 0.500000
O O17 0.044687 0.507813 0.647644
#
# Coordination Sequence:
#
# PCOD9089590 Si02
#       8
#     2   2   2   2   2   2   2   2
#     4  11  23  41  67  91 124 176 216 271 317 369
#     4  10  19  38  59  89 131 168 204 258 322 395
#     4  12  21  38  60  94 134 168 211 261 324 389
#     4  10  22  45  65  92 130 168 217 274 313 380
#     4  10  24  45  66  92 125 171 229 264 313 380
#     4  11  23  38  63  95 127 169 209 262 323 391
#     4  10  22  42  66  96 133 168 213 269 324 385
#     4  10  22  36  59  93 135 166 208 255 325 395
#
# _framework density 25.044827999999999
#
# number of rings (size 3 to 8) (size 9 to 14) (size 15 to 20)
#    0.000    1.500    3.750    3.000    1.750    1.000 
#    4.500    0.000    0.000    0.000    0.000    0.000 
#    0.000    0.000    0.000    0.000    0.000    0.000 
#
# Total GULP energy -89256.886990 kJ/mol
# GULP energy per Si atom -5578.555437 kJ/mol
# Density = 2.498782 g / cm^3
# Si number density = 25.044828 Si / 1000 Ang^3
#
#
#
# Elastic Constant Matrix: (Units=GPa)
#
#
# Indices 1 2 3 4 5 6 
#
# 1 59.8128 39.6677 -0.7765 4.9919 2.4011 -8.7936
# 2 39.6677 196.5171 16.4218 13.1066 1.4343 -21.6703
# 3 -0.7765 16.4218 52.8428 2.8793 1.7740 -6.3786
# 4 4.9919 13.1066 2.8793 33.9343 -4.1098 1.0909
# 5 2.4011 1.4343 1.7740 -4.1098 28.1721 -10.2311
# 6 -8.7936 -21.6703 -6.3786 1.0909 -10.2311 50.1076
#
#
#
# Elastic Compliance Matrix: (Units=1/GPa)
#
#
# Indices 1 2 3 4 5 6 
#
# 1 0.019735 -0.003805 0.001833 -0.001793 -0.001195 0.001846
# 2 -0.003805 0.006332 -0.001706 -0.001735 0.000587 0.002011
# 3 0.001833 -0.001706 0.019826 -0.001455 -0.000813 0.001973
# 4 -0.001793 -0.001735 -0.001455 0.031104 0.004504 -0.001008
# 5 -0.001195 0.000587 -0.000813 0.004504 0.039120 0.007830
# 6 0.001846 0.002011 0.001973 -0.001008 0.007830 0.023023
#
#
# Mechanical properties :
#
#
# Convention : Reuss Voigt Hill
#
# Bulk Modulus (GPa) = 25.94872 46.64429 36.29650
# Shear Modulus (GPa) = 31.37905 39.36679 35.37292
#
# Velocity S-wave (km/s) = 3.54349 3.96896 3.76225
# Velocity P-wave (km/s) = 5.20819 6.29828 5.77899
#
# Compressibility (1/GPa) = 0.03853755
#
# Stress axis : x y z
#
# Youngs Moduli (GPa) = 50.67124 157.91722 50.43884
#
# Poissons Ratio (x) = 0.60085 -0.09246
# Poissons Ratio (y) = 0.19280 0.08606
# Poissons Ratio (z) = -0.09289 0.26944
#
# Static dielectric constant tensor:
#      x y z
#    x 2.066240 -0.130730 -0.017110 
#    y -0.130730 2.155920 -0.032610 
#    z -0.017110 -0.032610 2.017840 
# 
# From -- ./inp_files/556748.got.cif
#   From: 2010.05.17/outbox.cif.g08.bks.cpg/sg2_279_cif.got.tgz:556748.got - 2010.06.03 11:33:40.
