data_PCOD9089674
_publ_section_title
;
Structure prediction by ZEFSAII (Michael W. Deem and Ramdas Pophale) SiO2 
 PCOD9089674
Probable space group: P -1
;
_chemical_formula_sum "Si O2"
_cell_formula_units_Z 16
_cell_length_a 8.696424
_cell_length_b 13.653106
_cell_length_c 12.764469
_cell_angle_alpha 49.994058
_cell_angle_beta 40.760075
_cell_angle_gamma 42.917876
_cell_volume 660.419881
_symmetry_space_group_name_H-M "P -1"
_symmetry_group_IT_number 2
_symmetry_cell_setting 'triclinic'
loop_
_space_group_symop_operation_xyz
x,y,z
-x,-y,-z
loop_
_atom_site_type_symbol
_atom_site_label
_atom_site_fract_x
_atom_site_fract_y
_atom_site_fract_z
Si Si1 0.250332 0.609299 0.812180
Si Si2 0.274384 0.528917 0.179751
Si Si3 0.180962 0.909898 0.564243
Si Si4 0.972327 0.396555 0.494501
Si Si5 0.864969 0.040025 0.858096
Si Si6 0.158996 0.238178 0.886060
Si Si7 0.315923 0.084680 0.635924
Si Si8 0.493057 0.345988 0.742821
O O1 0.548185 0.511517 0.778601
O O2 0.244115 0.743019 0.659358
O O3 0.242382 0.490184 0.822416
O O4 0.035659 0.682102 0.966730
O O5 0.157163 0.418315 0.298843
O O6 0.025619 0.688721 0.171071
O O7 0.500000 0.500000 0.000000
O O8 0.462943 0.911541 0.406279
O O9 0.000000 0.000000 0.500000
O O10 0.011087 0.987668 0.704599
O O11 0.122221 0.241925 0.579072
O O12 0.000000 0.500000 0.500000
O O13 0.714410 0.398497 0.572072
O O14 0.630040 0.207508 0.848353
O O15 0.116341 0.022687 0.811131
O O16 0.759251 0.930819 0.025090
O O17 0.391825 0.282366 0.745301
O O18 0.500000 0.000000 0.500000
#
# Coordination Sequence:
#
# PCOD9089674 Si02
#       8
#     2   2   2   2   2   2   2   2
#     4  10  20  41  63  85 123 165 202 251 304 369
#     4  10  21  39  64  89 122 165 205 240 305 371
#     4  10  19  38  60  89 119 160 204 253 305 366
#     4  11  20  38  66  89 120 163 198 255 308 356
#     4   9  21  39  60  84 125 166 197 250 309 360
#     4  10  22  40  62  87 124 166 206 246 305 365
#     4   9  18  35  61  86 118 161 205 239 307 368
#     4  11  21  39  63  90 122 158 204 258 312 348
#
# _framework density 24.227014
#
# number of rings (size 3 to 8) (size 9 to 14) (size 15 to 20)
#    0.000    2.000    2.500    0.750    1.750    0.500 
#   11.250    3.125    0.000    0.000    0.000    0.000 
#    0.000    0.000    0.000    0.000    0.000    0.000 
#
# Total GULP energy -89301.008487 kJ/mol
# GULP energy per Si atom -5581.313030 kJ/mol
# Density = 2.417187 g / cm^3
# Si number density = 24.227014 Si / 1000 Ang^3
#
#
#
# Elastic Constant Matrix: (Units=GPa)
#
#
# Indices 1 2 3 4 5 6 
#
# 1 101.6872 37.2920 52.4870 -20.5331 -14.3454 -13.4129
# 2 37.2920 95.5289 14.5203 -24.2956 -2.9829 11.4830
# 3 52.4870 14.5203 124.7820 -13.4563 -19.7191 9.7407
# 4 -20.5331 -24.2956 -13.4563 33.1510 -2.0954 -2.2944
# 5 -14.3454 -2.9829 -19.7191 -2.0954 35.3414 -6.7555
# 6 -13.4129 11.4830 9.7407 -2.2944 -6.7555 36.0863
#
#
#
# Elastic Compliance Matrix: (Units=1/GPa)
#
#
# Indices 1 2 3 4 5 6 
#
# 1 0.019416 -0.006376 -0.006778 0.005876 0.006324 0.012632
# 2 -0.006376 0.015456 0.002127 0.007648 -0.001092 -0.007580
# 3 -0.006778 0.002127 0.011744 0.001925 0.003009 -0.005680
# 4 0.005876 0.007648 0.001925 0.040861 0.007132 0.003164
# 5 0.006324 -0.001092 0.003009 0.007132 0.034556 0.008808
# 6 0.012632 -0.007580 -0.005680 0.003164 0.008808 0.038202
#
#
# Mechanical properties :
#
#
# Convention : Reuss Voigt Hill
#
# Bulk Modulus (GPa) = 40.71249 58.95518 49.83383
# Shear Modulus (GPa) = 26.25018 35.42900 30.83959
#
# Velocity S-wave (km/s) = 3.29524 3.82825 3.57170
# Velocity P-wave (km/s) = 5.59636 6.62782 6.13381
#
# Compressibility (1/GPa) = 0.02456249
#
# Stress axis : x y z
#
# Youngs Moduli (GPa) = 51.50462 64.70046 85.14965
#
# Poissons Ratio (x) = 0.41252 0.57714
# Poissons Ratio (y) = 0.32838 -0.18113
# Poissons Ratio (z) = 0.34910 -0.13763
#
# Static dielectric constant tensor:
#      x y z
#    x 2.027050 0.077100 0.017250 
#    y 0.077100 1.974990 0.088930 
#    z 0.017250 0.088930 2.112850 
# 
# From -- ./inp_files/337645.got.cif
#   From: 2010.05.17/outbox.cif.g08.bks.cpg/sg2_169_cif.got.tgz:337645.got - 2010.06.03 11:33:40.
