data_PCOD9089830
_publ_section_title
;
Structure prediction by ZEFSAII (Michael W. Deem and Ramdas Pophale) SiO2 
 PCOD9089830
Probable space group: P -1
;
_chemical_formula_sum "Si O2"
_cell_formula_units_Z 16
_cell_length_a 21.805922
_cell_length_b 5.439026
_cell_length_c 18.718911
_cell_angle_alpha 116.067784
_cell_angle_beta 151.711489
_cell_angle_gamma 52.497765
_cell_volume 806.641226
_symmetry_space_group_name_H-M "P -1"
_symmetry_group_IT_number 2
_symmetry_cell_setting 'triclinic'
loop_
_space_group_symop_operation_xyz
x,y,z
-x,-y,-z
loop_
_atom_site_type_symbol
_atom_site_label
_atom_site_fract_x
_atom_site_fract_y
_atom_site_fract_z
Si Si1 0.915265 0.209862 0.008446
Si Si2 0.938542 0.705381 0.694515
Si Si3 0.035444 0.885396 0.320800
Si Si4 0.430918 0.632512 0.106729
Si Si5 0.271214 0.222339 0.905784
Si Si6 0.787023 0.942064 0.955229
Si Si7 0.651803 0.333579 0.181613
Si Si8 0.926457 0.285212 0.403101
O O1 0.816257 0.586271 0.934814
O O2 0.034158 0.188861 0.187313
O O3 0.823376 0.074158 0.938420
O O4 0.000000 0.000000 0.000000
O O5 0.872041 0.479519 0.605671
O O6 0.105842 0.468356 0.800131
O O7 0.865600 0.997163 0.602643
O O8 0.910793 0.913844 0.138373
O O9 0.950314 0.111393 0.329444
O O10 0.599320 0.413111 0.219525
O O11 0.357770 0.408236 0.001247
O O12 0.354158 0.944526 0.015241
O O13 0.378517 0.800926 0.151360
O O14 0.267572 0.035972 0.808038
O O15 0.753701 0.470008 0.275834
O O16 0.500000 0.500000 0.000000
O O17 0.000000 0.500000 0.500000
O O18 0.000000 0.000000 0.500000
#
# Coordination Sequence:
#
# PCOD9089830 Si02
#       8
#     2   2   2   2   2   2   2   2
#     4  10  18  27  42  68 101 136 165 203 267 335
#     4  10  16  28  50  64  96 130 177 205 256 310
#     4  10  17  32  49  64  90 137 176 201 250 322
#     4  11  18  30  46  73  96 127 175 225 250 294
#     4  11  17  30  48  72  98 125 179 225 253 285
#     4  10  17  30  48  68  97 133 174 213 261 311
#     4  10  23  36  57  79 101 142 197 231 249 321
#     4  12  26  39  53  76 112 145 180 237 286 298
#
# _framework density 19.835336999999999
#
# number of rings (size 3 to 8) (size 9 to 14) (size 15 to 20)
#    0.000    1.500    6.250    2.250    0.000    2.000 
#    0.000    0.000    0.000    0.000    0.000    0.000 
#    0.000    0.000    0.000   90.000    0.000    0.000 
#
# Total GULP energy -89249.850632 kJ/mol
# GULP energy per Si atom -5578.115664 kJ/mol
# Density = 1.979019 g / cm^3
# Si number density = 19.835337 Si / 1000 Ang^3
#
#
#
# Elastic Constant Matrix: (Units=GPa)
#
#
# Indices 1 2 3 4 5 6 
#
# 1 180.4808 93.5135 25.5560 16.7756 5.7359 3.1257
# 2 93.5135 123.9976 16.3684 23.4925 5.9132 8.9710
# 3 25.5560 16.3684 34.8336 6.2562 9.5627 4.9680
# 4 16.7756 23.4925 6.2562 11.4945 5.3302 0.8444
# 5 5.7359 5.9132 9.5627 5.3302 21.4451 8.3913
# 6 3.1257 8.9710 4.9680 0.8444 8.3913 62.7356
#
#
#
# Elastic Compliance Matrix: (Units=1/GPa)
#
#
# Indices 1 2 3 4 5 6 
#
# 1 0.009674 -0.007395 -0.004395 0.003191 0.000289 0.000842
# 2 -0.007395 0.019480 0.000949 -0.031721 0.005145 -0.002754
# 3 -0.004395 0.000949 0.036851 -0.009601 -0.012740 -0.001002
# 4 0.003191 -0.031721 -0.009601 0.166747 -0.032082 0.007184
# 5 0.000289 0.005145 -0.012740 -0.032082 0.061752 -0.007569
# 6 0.000842 -0.002754 -0.001002 0.007184 -0.007569 0.017287
#
#
# Mechanical properties :
#
#
# Convention : Reuss Voigt Hill
#
# Bulk Modulus (GPa) = 22.56146 67.79865 45.18005
# Shear Modulus (GPa) = 14.35756 32.72663 23.54209
#
# Velocity S-wave (km/s) = 2.69334 4.06632 3.44884
# Velocity P-wave (km/s) = 4.59034 7.50344 6.21984
#
# Compressibility (1/GPa) = 0.04432337
#
# Stress axis : x y z
#
# Youngs Moduli (GPa) = 103.36554 51.33415 27.13610
#
# Poissons Ratio (x) = 0.37962 0.11927
# Poissons Ratio (y) = 0.76440 -0.02576
# Poissons Ratio (z) = 0.45432 -0.04872
#
# Static dielectric constant tensor:
#      x y z
#    x 1.749410 0.044920 0.008290 
#    y 0.044920 1.776380 -0.017060 
#    z 0.008290 -0.017060 1.727570 
# 
# From -- ./inp_files/576839.got.cif
#   From: 2010.05.17/outbox.cif.g08.bks.cpg/sg2_289_cif.got.tgz:576839.got - 2010.06.03 11:33:40.
