data_PCOD9089250
_publ_section_title
;
Structure prediction by ZEFSAII (Michael W. Deem and Ramdas Pophale) SiO2 
 PCOD9089250
Probable space group: P -1
;
_chemical_formula_sum "Si O2"
_cell_formula_units_Z 12
_cell_length_a 23.661566
_cell_length_b 20.428042
_cell_length_c 5.088749
_cell_angle_alpha 82.591329
_cell_angle_beta 96.501442
_cell_angle_gamma 168.922564
_cell_volume 467.503582
_symmetry_space_group_name_H-M "P -1"
_symmetry_group_IT_number 2
_symmetry_cell_setting 'triclinic'
loop_
_space_group_symop_operation_xyz
x,y,z
-x,-y,-z
loop_
_atom_site_type_symbol
_atom_site_label
_atom_site_fract_x
_atom_site_fract_y
_atom_site_fract_z
Si Si1 0.435879 0.775386 0.678581
Si Si2 0.580120 0.746396 0.240134
Si Si3 0.613205 0.169811 0.721702
Si Si4 0.085032 0.251314 0.593523
Si Si5 0.248872 0.248868 0.319230
Si Si6 0.077834 0.738332 0.018113
O O1 0.487773 0.870515 0.378841
O O2 0.260733 0.507204 0.706642
O O3 0.209874 0.564806 0.822522
O O4 0.738336 0.107499 0.815414
O O5 0.330765 0.496138 0.417288
O O6 0.417288 0.500422 0.132539
O O7 0.840456 0.010673 0.414853
O O8 0.725173 0.971639 0.046830
O O9 0.500000 0.000000 0.500000
O O10 0.956788 0.574051 0.761599
O O11 0.500000 0.000000 0.000000
O O12 0.915285 0.998432 0.784289
O O13 0.500000 0.500000 0.500000
O O14 0.000000 0.000000 0.500000
#
# Coordination Sequence:
#
# PCOD9089250 Si02
#       6
#     2   2   2   2   2   2
#     4  12  27  47  74 109 148 191 246 303 370 443
#     4  10  19  37  66  97 141 191 244 299 359 430
#     4  12  28  54  80 113 150 193 244 312 376 450
#     4  10  19  37  66  97 141 191 244 299 359 430
#     4   8  16  30  56  96 134 185 241 295 353 419
#     4  12  27  47  74 109 148 191 246 303 370 443
#
# _framework density 25.668253
#
# number of rings (size 3 to 8) (size 9 to 14) (size 15 to 20)
#    0.000    1.333    3.333    2.000    0.000    1.333 
#    0.000    1.667    0.000    0.000    0.000    0.000 
#    0.000    0.000    0.000    0.000    0.000    0.000 
#
# Total GULP energy -67100.821555 kJ/mol
# GULP energy per Si atom -5591.735130 kJ/mol
# Density = 2.560983 g / cm^3
# Si number density = 25.668253 Si / 1000 Ang^3
#
#
#
# Elastic Constant Matrix: (Units=GPa)
#
#
# Indices 1 2 3 4 5 6 
#
# 1 289.0217 -78.4972 69.6539 -11.5462 71.9986 25.3239
# 2 -78.4972 340.7126 43.2960 36.5635 -46.0175 -22.2731
# 3 69.6539 43.2960 108.6953 20.8980 25.2920 8.4695
# 4 -11.5462 36.5635 20.8980 52.3349 10.4484 8.0827
# 5 71.9986 -46.0175 25.2920 10.4484 62.4664 7.6543
# 6 25.3239 -22.2731 8.4695 8.0827 7.6543 105.6535
#
#
#
# Elastic Compliance Matrix: (Units=1/GPa)
#
#
# Indices 1 2 3 4 5 6 
#
# 1 0.006091 0.000644 -0.003461 0.003540 -0.005626 -0.000910
# 2 0.000644 0.004264 -0.002536 -0.002713 0.003771 0.000882
# 3 -0.003461 -0.002536 0.013856 -0.003918 -0.002796 -0.000314
# 4 0.003540 -0.002713 -0.003918 0.025411 -0.008444 -0.002439
# 5 -0.005626 0.003771 -0.002796 -0.008444 0.027692 0.001007
# 6 -0.000910 0.000882 -0.000314 -0.002439 0.001007 0.010008
#
#
# Mechanical properties :
#
#
# Convention : Reuss Voigt Hill
#
# Bulk Modulus (GPa) = 74.03683 89.70387 81.87035
# Shear Modulus (GPa) = 48.76665 91.02275 69.89470
#
# Velocity S-wave (km/s) = 4.36349 5.96139 5.22390
# Velocity P-wave (km/s) = 7.36839 9.07786 8.26743
#
# Compressibility (1/GPa) = 0.01350679
#
# Stress axis : x y z
#
# Youngs Moduli (GPa) = 164.16346 234.53173 72.17159
#
# Poissons Ratio (x) = -0.15103 0.24975
# Poissons Ratio (y) = -0.10571 0.18300
# Poissons Ratio (z) = 0.56810 0.59468
#
# Static dielectric constant tensor:
#      x y z
#    x 2.051290 -0.041040 -0.041210 
#    y -0.041040 2.016530 -0.055240 
#    z -0.041210 -0.055240 2.048940 
# 
# From -- ./inp_files/12752.got.cif
#   From: 2010.05.17/outbox.cif.g08.bks.cpg/sg2_7_cif.got.tgz:12752.got - 2010.06.03 11:33:40.
