data_PCOD9089837
_publ_section_title
;
Structure prediction by ZEFSAII (Michael W. Deem and Ramdas Pophale) SiO2 
 PCOD9089837
Probable space group: P -1
;
_chemical_formula_sum "Si O2"
_cell_formula_units_Z 16
_cell_length_a 11.167474
_cell_length_b 21.524363
_cell_length_c 12.057153
_cell_angle_alpha 150.434856
_cell_angle_beta 36.709148
_cell_angle_gamma 149.719617
_cell_volume 706.017239
_symmetry_space_group_name_H-M "P -1"
_symmetry_group_IT_number 2
_symmetry_cell_setting 'triclinic'
loop_
_space_group_symop_operation_xyz
x,y,z
-x,-y,-z
loop_
_atom_site_type_symbol
_atom_site_label
_atom_site_fract_x
_atom_site_fract_y
_atom_site_fract_z
Si Si1 0.840409 0.233897 0.480127
Si Si2 0.207545 0.169569 0.148651
Si Si3 0.990738 0.607775 0.082173
Si Si4 0.470391 0.649229 0.017698
Si Si5 0.372502 0.318635 0.813143
Si Si6 0.819022 0.324397 0.398625
Si Si7 0.862733 0.217006 0.967582
Si Si8 0.553406 0.091528 0.818142
O O1 0.732652 0.321490 0.748118
O O2 0.917751 0.290032 0.382384
O O3 0.062256 0.246419 0.399215
O O4 0.612867 0.058710 0.363006
O O5 0.384821 0.260438 0.056347
O O6 0.384478 0.152306 0.069283
O O7 0.000000 0.000000 0.000000
O O8 0.080784 0.641656 0.936756
O O9 0.702704 0.531264 0.162892
O O10 0.200844 0.781213 0.231204
O O11 0.000000 0.500000 0.000000
O O12 0.648614 0.710687 0.084993
O O13 0.564038 0.293105 0.576905
O O14 0.500000 0.500000 0.000000
O O15 0.114131 0.231600 0.812038
O O16 0.794512 0.231282 0.163395
O O17 0.000000 0.500000 0.500000
O O18 0.656906 0.073077 0.827079
#
# Coordination Sequence:
#
# PCOD9089837 Si02
#       8
#     2   2   2   2   2   2   2   2
#     4  10  23  39  63  89 116 158 200 245 297 354
#     4  10  21  39  61  88 118 156 198 242 299 354
#     4  10  19  38  62  83 120 161 189 246 302 344
#     4  11  20  38  63  87 118 152 204 243 289 357
#     4  11  19  34  60  89 112 160 193 239 302 343
#     4  11  21  36  59  92 119 148 203 247 287 355
#     4  10  20  37  57  83 123 149 193 246 295 341
#     4   9  21  40  59  85 123 157 194 242 303 348
#
# _framework density 22.662336
#
# number of rings (size 3 to 8) (size 9 to 14) (size 15 to 20)
#    0.750    1.000    3.750    1.500    0.000    2.500 
#    0.000    8.125    0.000    0.000    0.000    0.000 
#    0.000    0.000    0.000    0.000    0.000    0.000 
#
# Total GULP energy -89104.474164 kJ/mol
# GULP energy per Si atom -5569.029635 kJ/mol
# Density = 2.261076 g / cm^3
# Si number density = 22.662336 Si / 1000 Ang^3
#
#
#
# Elastic Constant Matrix: (Units=GPa)
#
#
# Indices 1 2 3 4 5 6 
#
# 1 99.8545 14.4661 9.7654 -13.5741 -14.0722 23.9543
# 2 14.4661 110.4273 5.1517 -4.0080 4.2487 6.9409
# 3 9.7654 5.1517 57.4358 -18.9063 -12.7861 5.2233
# 4 -13.5741 -4.0080 -18.9063 25.7213 0.9496 -8.5876
# 5 -14.0722 4.2487 -12.7861 0.9496 28.6960 -12.2863
# 6 23.9543 6.9409 5.2233 -8.5876 -12.2863 35.9995
#
#
#
# Elastic Compliance Matrix: (Units=1/GPa)
#
#
# Indices 1 2 3 4 5 6 
#
# 1 0.012801 -0.001354 0.001220 0.005397 0.004431 -0.005634
# 2 -0.001354 0.009551 -0.001570 -0.000981 -0.003690 -0.002206
# 3 0.001220 -0.001570 0.027290 0.021842 0.014739 0.005772
# 4 0.005397 -0.000981 0.021842 0.061600 0.016353 0.013705
# 5 0.004431 -0.003690 0.014739 0.016353 0.050816 0.016869
# 6 -0.005634 -0.002206 0.005772 0.013705 0.016869 0.040141
#
#
# Mechanical properties :
#
#
# Convention : Reuss Voigt Hill
#
# Bulk Modulus (GPa) = 21.62902 36.27598 28.95250
# Shear Modulus (GPa) = 22.62246 33.97233 28.29739
#
# Velocity S-wave (km/s) = 3.16292 3.87598 3.53746
# Velocity P-wave (km/s) = 4.78576 6.00607 5.43030
#
# Compressibility (1/GPa) = 0.04623419
#
# Stress axis : x y z
#
# Youngs Moduli (GPa) = 78.11820 104.69649 36.64344
#
# Poissons Ratio (x) = 0.14179 -0.04471
# Poissons Ratio (y) = 0.10580 0.05753
# Poissons Ratio (z) = -0.09532 0.16438
#
# Static dielectric constant tensor:
#      x y z
#    x 1.976960 0.014990 -0.029350 
#    y 0.014990 1.874790 0.076300 
#    z -0.029350 0.076300 1.928330 
# 
# From -- ./inp_files/524401.got.cif
#   From: 2010.05.17/outbox.cif.g08.bks.cpg/sg2_263_cif.got.tgz:524401.got - 2010.06.03 11:33:40.
