data_PCOD9089350
_publ_section_title
;
Structure prediction by ZEFSAII (Michael W. Deem and Ramdas Pophale) SiO2 
 PCOD9089350
Probable space group: P -1
;
_chemical_formula_sum "Si O2"
_cell_formula_units_Z 16
_cell_length_a 7.386233
_cell_length_b 9.809849
_cell_length_c 11.331344
_cell_angle_alpha 80.813256
_cell_angle_beta 79.053425
_cell_angle_gamma 61.536423
_cell_volume 706.385690
_symmetry_space_group_name_H-M "P -1"
_symmetry_group_IT_number 2
_symmetry_cell_setting 'triclinic'
loop_
_space_group_symop_operation_xyz
x,y,z
-x,-y,-z
loop_
_atom_site_type_symbol
_atom_site_label
_atom_site_fract_x
_atom_site_fract_y
_atom_site_fract_z
Si Si1 0.349924 0.423928 0.257548
Si Si2 0.668172 0.847559 0.567268
Si Si3 0.489282 0.405401 0.628045
Si Si4 0.195232 0.067780 0.138898
Si Si5 0.847363 0.048176 0.623812
Si Si6 0.316163 0.114937 0.883318
Si Si7 0.804729 0.640202 0.948129
Si Si8 0.882226 0.674404 0.336589
O O1 0.411068 0.263552 0.343739
O O2 0.484605 0.506405 0.273343
O O3 0.105625 0.252439 0.140522
O O4 0.328247 0.397616 0.125431
O O5 0.837477 0.745982 0.462707
O O6 0.500000 0.000000 0.500000
O O7 0.761110 0.923398 0.635557
O O8 0.500000 0.500000 0.500000
O O9 0.672493 0.227196 0.617965
O O10 0.273851 0.398887 0.652961
O O11 0.085709 0.989453 0.242173
O O12 0.442436 0.998314 0.147186
O O13 0.205469 0.048095 0.997396
O O14 0.000000 0.000000 0.500000
O O15 0.192785 0.187967 0.769714
O O16 0.320916 0.254971 0.940543
O O17 0.883835 0.453615 0.691687
O O18 0.000000 0.500000 0.000000
#
# Coordination Sequence:
#
# PCOD9089350 Si02
#       8
#     2   2   2   2   2   2   2   2
#     4  12  24  42  67  98 138 180 224 281 348 402
#     4  12  22  41  66  95 127 182 233 269 335 412
#     4  12  26  43  61 100 145 176 219 281 345 409
#     4   9  18  37  63  92 123 171 226 268 335 394
#     4  12  24  40  64  98 133 171 221 281 336 401
#     4   9  18  37  65  93 121 175 225 275 326 398
#     4  10  19  37  68  96 122 171 229 276 325 404
#     4  12  23  40  69  96 138 178 226 276 347 406
#
# _framework density 22.650514000000001
#
# number of rings (size 3 to 8) (size 9 to 14) (size 15 to 20)
#    0.750    0.250    6.250    1.125    1.750    0.000 
#    0.000    0.625    0.000    6.750    0.000    0.000 
#    0.000    0.000    0.000    0.000    0.000    0.000 
#
# Total GULP energy -89266.245239 kJ/mol
# GULP energy per Si atom -5579.140327 kJ/mol
# Density = 2.259896 g / cm^3
# Si number density = 22.650514 Si / 1000 Ang^3
#
#
#
# Elastic Constant Matrix: (Units=GPa)
#
#
# Indices 1 2 3 4 5 6 
#
# 1 42.6932 28.8090 7.0180 -2.1959 5.8851 8.6495
# 2 28.8090 118.5113 24.8005 -9.6172 9.7313 -6.2557
# 3 7.0180 24.8005 113.5282 -9.4951 10.6839 8.8180
# 4 -2.1959 -9.6172 -9.4951 53.1445 0.8212 12.3816
# 5 5.8851 9.7313 10.6839 0.8212 29.1341 2.1190
# 6 8.6495 -6.2557 8.8180 12.3816 2.1190 31.6205
#
#
#
# Elastic Compliance Matrix: (Units=1/GPa)
#
#
# Indices 1 2 3 4 5 6 
#
# 1 0.031567 -0.008032 0.001245 0.002790 -0.003397 -0.011436
# 2 -0.008032 0.011270 -0.002186 0.000158 -0.001715 0.005090
# 3 0.001245 -0.002186 0.010035 0.002509 -0.002955 -0.004356
# 4 0.002790 0.000158 0.002509 0.021724 -0.001433 -0.009842
# 5 -0.003397 -0.001715 -0.002955 -0.001433 0.036742 -0.000487
# 6 -0.011436 0.005090 -0.004356 -0.009842 -0.000487 0.040861
#
#
# Mechanical properties :
#
#
# Convention : Reuss Voigt Hill
#
# Bulk Modulus (GPa) = 28.63303 43.99862 36.31582
# Shear Modulus (GPa) = 27.50418 37.05352 32.27885
#
# Velocity S-wave (km/s) = 3.48844 4.04899 3.77912
# Velocity P-wave (km/s) = 5.37534 6.42855 5.92539
#
# Compressibility (1/GPa) = 0.03492470
#
# Stress axis : x y z
#
# Youngs Moduli (GPa) = 31.67846 88.72788 99.64769
#
# Poissons Ratio (x) = 0.71270 -0.12402
# Poissons Ratio (y) = 0.25446 0.21786
# Poissons Ratio (z) = -0.03943 0.19398
#
# Static dielectric constant tensor:
#      x y z
#    x 1.963970 0.038600 0.182810 
#    y 0.038600 1.898360 -0.018850 
#    z 0.182810 -0.018850 2.146010 
# 
# From -- ./inp_files/379073.got.cif
#   From: 2010.05.17/outbox.cif.g08.bks.cpg/sg2_190_cif.got.tgz:379073.got - 2010.06.03 11:33:40.
