data_PCOD9089338
_publ_section_title
;
Structure prediction by ZEFSAII (Michael W. Deem and Ramdas Pophale) SiO2 
 PCOD9089338
Probable space group: P -1
;
_chemical_formula_sum "Si O2"
_cell_formula_units_Z 16
_cell_length_a 5.307892
_cell_length_b 17.519217
_cell_length_c 20.607832
_cell_angle_alpha 160.640246
_cell_angle_beta 98.305674
_cell_angle_gamma 84.738390
_cell_volume 622.762854
_symmetry_space_group_name_H-M "P -1"
_symmetry_group_IT_number 2
_symmetry_cell_setting 'triclinic'
loop_
_space_group_symop_operation_xyz
x,y,z
-x,-y,-z
loop_
_atom_site_type_symbol
_atom_site_label
_atom_site_fract_x
_atom_site_fract_y
_atom_site_fract_z
Si Si1 0.870449 0.229887 0.828683
Si Si2 0.058311 0.754543 0.779493
Si Si3 0.224007 0.839862 0.369850
Si Si4 0.505432 0.255976 0.576114
Si Si5 0.908412 0.902596 0.752741
Si Si6 0.475872 0.504660 0.425189
Si Si7 0.262496 0.663658 0.948643
Si Si8 0.736821 0.031523 0.302024
O O1 0.835086 0.312883 0.819960
O O2 0.829408 0.368391 0.004803
O O3 0.652036 0.002438 0.639450
O O4 0.128836 0.114064 0.754856
O O5 0.031060 0.790298 0.728947
O O6 0.824590 0.580301 0.661825
O O7 0.333960 0.672164 0.737021
O O8 0.000000 0.000000 0.000000
O O9 0.278279 0.708075 0.331436
O O10 0.500000 0.000000 0.500000
O O11 0.000000 0.000000 0.500000
O O12 0.646746 0.254959 0.512504
O O13 0.312940 0.434529 0.729996
O O14 0.624494 0.760064 0.621383
O O15 0.054066 0.884313 0.676424
O O16 0.899508 0.179112 0.975471
O O17 0.500000 0.500000 0.500000
O O18 0.529805 0.834327 0.104790
#
# Coordination Sequence:
#
# PCOD9089338 Si02
#       8
#     2   2   2   2   2   2   2   2
#     4   9  20  40  61  88 131 168 220 275 331 377
#     4  11  24  45  70 101 130 158 219 278 313 385
#     4  10  19  37  68  92 127 174 223 272 333 384
#     4  10  21  40  64  91 128 172 221 271 328 383
#     4  10  23  42  62  89 129 174 210 257 334 389
#     4  10  22  43  72  91 129 171 208 258 330 382
#     4  10  23  40  60  94 132 168 223 270 317 402
#     4  10  21  40  61  87 132 169 216 266 325 388
#
# _framework density 25.691965
#
# number of rings (size 3 to 8) (size 9 to 14) (size 15 to 20)
#    0.000    2.000    1.250    1.875    5.250    2.500 
#    9.000    0.625    0.000    0.000    0.000    0.000 
#    0.000    0.000    0.000    0.000    0.000    0.000 
#
# Total GULP energy -89437.764838 kJ/mol
# GULP energy per Si atom -5589.860302 kJ/mol
# Density = 2.563349 g / cm^3
# Si number density = 25.691965 Si / 1000 Ang^3
#
#
#
# Elastic Constant Matrix: (Units=GPa)
#
#
# Indices 1 2 3 4 5 6 
#
# 1 100.7348 3.7765 16.6211 -11.0796 -18.3084 11.7024
# 2 3.7765 74.7637 -7.8630 -7.9324 -4.0467 5.3131
# 3 16.6211 -7.8630 88.3999 -23.3705 -30.7530 12.2587
# 4 -11.0796 -7.9324 -23.3705 23.5015 -5.8689 -7.4504
# 5 -18.3084 -4.0467 -30.7530 -5.8689 51.3351 -1.3361
# 6 11.7024 5.3131 12.2587 -7.4504 -1.3361 44.7531
#
#
#
# Elastic Compliance Matrix: (Units=1/GPa)
#
#
# Indices 1 2 3 4 5 6 
#
# 1 0.012258 0.001698 0.004201 0.011867 0.008318 -0.002334
# 2 0.001698 0.016790 0.009395 0.017620 0.009525 -0.001793
# 3 0.004201 0.009395 0.032333 0.042910 0.026432 -0.003138
# 4 0.011867 0.017620 0.042910 0.108464 0.043790 0.002415
# 5 0.008318 0.009525 0.026432 0.043790 0.043988 -0.001943
# 6 -0.002334 -0.001793 -0.003138 0.002415 -0.001943 0.024372
#
#
# Mechanical properties :
#
#
# Convention : Reuss Voigt Hill
#
# Bulk Modulus (GPa) = 10.87335 32.10751 21.49043
# Shear Modulus (GPa) = 20.98432 40.67552 30.82992
#
# Velocity S-wave (km/s) = 2.86101 3.98326 3.46784
# Velocity P-wave (km/s) = 3.89297 5.80339 4.94139
#
# Compressibility (1/GPa) = 0.09196800
#
# Stress axis : x y z
#
# Youngs Moduli (GPa) = 81.57616 59.55873 30.92861
#
# Poissons Ratio (x) = -0.10112 -0.12993
# Poissons Ratio (y) = -0.13850 -0.29056
# Poissons Ratio (z) = -0.34270 -0.55953
#
# Static dielectric constant tensor:
#      x y z
#    x 1.985370 -0.057410 -0.037420 
#    y -0.057410 2.087860 0.021980 
#    z -0.037420 0.021980 2.054270 
# 
# From -- ./inp_files/55396.got.cif
#   From: 2010.05.17/outbox.cif.g08.bks.cpg/sg2_28_cif.got.tgz:55396.got - 2010.06.03 11:33:40.
