data_PCOD9089310
_publ_section_title
;
Structure prediction by ZEFSAII (Michael W. Deem and Ramdas Pophale) SiO2 
 PCOD9089310
Probable space group: P -1
;
_chemical_formula_sum "Si O2"
_cell_formula_units_Z 16
_cell_length_a 22.578062
_cell_length_b 11.931236
_cell_length_c 21.948158
_cell_angle_alpha 28.605479
_cell_angle_beta 19.458918
_cell_angle_gamma 19.863918
_cell_volume 667.210027
_symmetry_space_group_name_H-M "P -1"
_symmetry_group_IT_number 2
_symmetry_cell_setting 'triclinic'
loop_
_space_group_symop_operation_xyz
x,y,z
-x,-y,-z
loop_
_atom_site_type_symbol
_atom_site_label
_atom_site_fract_x
_atom_site_fract_y
_atom_site_fract_z
Si Si1 0.018227 0.290754 0.389955
Si Si2 0.149149 0.745965 0.687818
Si Si3 0.583758 0.213561 0.991106
Si Si4 0.433856 0.228501 0.009308
Si Si5 0.470068 0.252936 0.273614
Si Si6 0.424062 0.960461 0.348314
Si Si7 0.276148 0.850753 0.812058
Si Si8 0.282244 0.562316 0.504777
O O1 0.791034 0.460409 0.575084
O O2 0.905711 0.391634 0.382602
O O3 0.158006 0.402654 0.214280
O O4 0.215307 0.898077 0.395321
O O5 0.225581 0.943557 0.533118
O O6 0.310476 0.426702 0.727569
O O7 0.227065 0.605979 0.609440
O O8 0.853576 0.992866 0.864699
O O9 0.476470 0.567819 0.906414
O O10 0.620809 0.046298 0.970808
O O11 0.413588 0.194630 0.203000
O O12 0.426664 0.492225 0.864944
O O13 0.500000 0.000000 0.000000
O O14 0.679938 0.017095 0.235716
O O15 0.420622 0.078887 0.361573
O O16 0.435931 0.762844 0.638305
O O17 0.000000 0.000000 0.000000
#
# Coordination Sequence:
#
# PCOD9089310 Si02
#       8
#     2   2   2   2   2   2   2   2
#     4  10  19  37  67  97 127 167 218 272 327 388
#     4  11  24  45  67  96 130 178 225 271 328 391
#     4  11  23  43  68  95 132 173 227 269 324 391
#     4  11  21  36  64 100 124 167 221 264 329 391
#     4  10  23  44  66  97 135 173 221 272 328 391
#     4  11  26  45  64  96 134 175 227 270 331 388
#     4  10  23  40  62  99 136 166 208 273 337 394
#     4  10  19  39  65  92 131 167 211 276 326 392
#
# _framework density 23.980454000000002
#
# number of rings (size 3 to 8) (size 9 to 14) (size 15 to 20)
#    0.000    1.500    2.500    2.250    0.000    3.500 
#    9.000    2.500    0.000    0.000    0.000    0.000 
#    0.000    0.000    0.000    0.000    0.000    0.000 
#
# Total GULP energy -89395.670777 kJ/mol
# GULP energy per Si atom -5587.229424 kJ/mol
# Density = 2.392587 g / cm^3
# Si number density = 23.980454 Si / 1000 Ang^3
#
#
#
# Elastic Constant Matrix: (Units=GPa)
#
#
# Indices 1 2 3 4 5 6 
#
# 1 91.5366 19.6675 21.7442 -6.2759 -10.2193 32.7353
# 2 19.6675 43.9732 18.9543 -10.2336 5.1103 6.8022
# 3 21.7442 18.9543 96.1785 -10.1885 -8.3708 12.0052
# 4 -6.2759 -10.2336 -10.1885 34.1548 -0.7364 3.2931
# 5 -10.2193 5.1103 -8.3708 -0.7364 34.3454 -12.4445
# 6 32.7353 6.8022 12.0052 3.2931 -12.4445 32.0064
#
#
#
# Elastic Compliance Matrix: (Units=1/GPa)
#
#
# Indices 1 2 3 4 5 6 
#
# 1 0.018939 -0.004285 -0.000745 0.003775 -0.000647 -0.018821
# 2 -0.004285 0.029766 -0.004331 0.007070 -0.008133 -0.004209
# 3 -0.000745 -0.004331 0.012174 0.002457 0.002684 -0.002094
# 4 0.003775 0.007070 0.002457 0.033804 -0.002494 -0.010733
# 5 -0.000647 -0.008133 0.002684 -0.002494 0.036466 0.015818
# 6 -0.018821 -0.004209 -0.002094 -0.010733 0.015818 0.059427
#
#
# Mechanical properties :
#
#
# Convention : Reuss Voigt Hill
#
# Bulk Modulus (GPa) = 23.71981 39.15781 31.43881
# Shear Modulus (GPa) = 22.38633 31.52281 26.95457
#
# Velocity S-wave (km/s) = 3.05868 3.62957 3.35628
# Velocity P-wave (km/s) = 4.73147 5.82490 5.30642
#
# Compressibility (1/GPa) = 0.04215885
#
# Stress axis : x y z
#
# Youngs Moduli (GPa) = 52.80026 33.59556 82.13953
#
# Poissons Ratio (x) = 0.14395 0.06116
# Poissons Ratio (y) = 0.22624 0.35574
# Poissons Ratio (z) = 0.03932 0.14550
#
# Static dielectric constant tensor:
#      x y z
#    x 2.009550 0.032550 -0.000380 
#    y 0.032550 1.951880 -0.022980 
#    z -0.000380 -0.022980 1.934800 
# 
# From -- ./inp_files/614096.got.cif
#   From: 2010.05.17/outbox.cif.g08.bks.cpg/sg2_308_cif.got.tgz:614096.got - 2010.06.03 11:33:40.
