data_PCOD9089113
_publ_section_title
;
Structure prediction by ZEFSAII (Michael W. Deem and Ramdas Pophale) SiO2 
 PCOD9089113
Probable space group: P -1
;
_chemical_formula_sum "Si O2"
_cell_formula_units_Z 16
_cell_length_a 15.428412
_cell_length_b 11.180894
_cell_length_c 9.462619
_cell_angle_alpha 73.074457
_cell_angle_beta 43.292395
_cell_angle_gamma 50.271398
_cell_volume 812.598417
_symmetry_space_group_name_H-M "P -1"
_symmetry_group_IT_number 2
_symmetry_cell_setting 'triclinic'
loop_
_space_group_symop_operation_xyz
x,y,z
-x,-y,-z
loop_
_atom_site_type_symbol
_atom_site_label
_atom_site_fract_x
_atom_site_fract_y
_atom_site_fract_z
Si Si1 0.319888 0.178879 0.670837
Si Si2 0.040421 0.403817 0.312935
Si Si3 0.340634 0.641972 0.230532
Si Si4 0.043717 0.754949 0.347615
Si Si5 0.987458 0.309272 0.893885
Si Si6 0.616911 0.874122 0.066194
Si Si7 0.668698 0.069876 0.766092
Si Si8 0.199075 0.535815 0.646906
O O1 0.309653 0.196941 0.844478
O O2 0.288705 0.341778 0.599619
O O3 0.174523 0.184643 0.777949
O O4 0.500000 0.000000 0.500000
O O5 0.011135 0.558068 0.231664
O O6 0.947311 0.396193 0.555917
O O7 0.969936 0.364689 0.280089
O O8 0.235952 0.267940 0.161649
O O9 0.185065 0.735054 0.274233
O O10 0.360114 0.767625 0.225684
O O11 0.306978 0.569365 0.425817
O O12 0.500000 0.500000 0.000000
O O13 0.054197 0.755222 0.165055
O O14 0.861973 0.920418 0.554327
O O15 0.858568 0.395430 0.148409
O O16 0.446627 0.912202 0.227281
O O17 0.607359 0.026255 0.987600
#
# Coordination Sequence:
#
# PCOD9089113 Si02
#       8
#     2   2   2   2   2   2   2   2
#     4  11  21  34  61  95 131 156 201 257 314 361
#     4   9  17  35  62  91 124 159 197 255 301 361
#     4  11  26  44  63  87 122 169 215 254 300 373
#     4  10  22  39  62  92 120 166 207 247 309 365
#     4  11  19  37  62  94 126 160 204 250 312 372
#     4  10  19  37  65  92 119 159 201 259 307 351
#     4  10  23  41  63  89 125 160 210 253 307 361
#     4  10  21  40  61  90 124 168 203 249 319 365
#
# _framework density 19.689920999999998
#
# number of rings (size 3 to 8) (size 9 to 14) (size 15 to 20)
#    0.000    1.750    2.500    2.250    3.500    0.000 
#    4.500    3.125    0.000    0.000    0.000    0.000 
#    0.000    0.000    0.000    0.000    0.000    0.000 
#
# Total GULP energy -89123.066269 kJ/mol
# GULP energy per Si atom -5570.191642 kJ/mol
# Density = 1.964511 g / cm^3
# Si number density = 19.689921 Si / 1000 Ang^3
#
#
#
# Elastic Constant Matrix: (Units=GPa)
#
#
# Indices 1 2 3 4 5 6 
#
# 1 74.0509 31.8871 53.6324 -17.0206 9.2842 -8.2611
# 2 31.8871 89.3071 48.8081 -1.4214 -5.1906 1.1814
# 3 53.6324 48.8081 97.6144 2.1252 4.1162 7.7542
# 4 -17.0206 -1.4214 2.1252 31.1835 -6.4068 -1.6312
# 5 9.2842 -5.1906 4.1162 -6.4068 31.3137 1.9547
# 6 -8.2611 1.1814 7.7542 -1.6312 1.9547 28.8008
#
#
#
# Elastic Compliance Matrix: (Units=1/GPa)
#
#
# Indices 1 2 3 4 5 6 
#
# 1 0.037401 -0.001936 -0.021267 0.021630 -0.005320 0.018120
# 2 -0.001936 0.016112 -0.007241 0.001099 0.004390 0.000498
# 3 -0.021267 -0.007241 0.026993 -0.014620 -0.000569 -0.013860
# 4 0.021630 0.001099 -0.014620 0.046480 0.004425 0.012428
# 5 -0.005320 0.004390 -0.000569 0.004425 0.035452 -0.003708
# 6 0.018120 0.000498 -0.013860 0.012428 -0.003708 0.044585
#
#
# Mechanical properties :
#
#
# Convention : Reuss Voigt Hill
#
# Bulk Modulus (GPa) = 50.97402 58.84751 54.91076
# Shear Modulus (GPa) = 18.21812 26.70258 22.46035
#
# Velocity S-wave (km/s) = 3.04509 3.68660 3.38109
# Velocity P-wave (km/s) = 6.18935 6.93349 6.57196
#
# Compressibility (1/GPa) = 0.01961784
#
# Stress axis : x y z
#
# Youngs Moduli (GPa) = 26.73715 62.06539 37.04606
#
# Poissons Ratio (x) = 0.12013 0.78788
# Poissons Ratio (y) = 0.05175 0.26826
# Poissons Ratio (z) = 0.56863 0.44943
#
# Static dielectric constant tensor:
#      x y z
#    x 1.748180 0.030690 0.081250 
#    y 0.030690 1.760870 0.069210 
#    z 0.081250 0.069210 1.812700 
# 
# From -- ./inp_files/306887.got.cif
#   From: 2010.05.17/outbox.cif.g08.bks.cpg/sg2_154_cif.got.tgz:306887.got - 2010.06.03 11:33:40.
