data_PCOD9089464
_publ_section_title
;
Structure prediction by ZEFSAII (Michael W. Deem and Ramdas Pophale) SiO2 
 PCOD9089464
Probable space group: P -1
;
_chemical_formula_sum "Si O2"
_cell_formula_units_Z 16
_cell_length_a 17.018457
_cell_length_b 11.851661
_cell_length_c 13.675401
_cell_angle_alpha 150.262544
_cell_angle_beta 145.235826
_cell_angle_gamma 49.768563
_cell_volume 757.634049
_symmetry_space_group_name_H-M "P -1"
_symmetry_group_IT_number 2
_symmetry_cell_setting 'triclinic'
loop_
_space_group_symop_operation_xyz
x,y,z
-x,-y,-z
loop_
_atom_site_type_symbol
_atom_site_label
_atom_site_fract_x
_atom_site_fract_y
_atom_site_fract_z
Si Si1 0.853630 0.904302 0.878170
Si Si2 0.151685 0.062909 0.651740
Si Si3 0.408890 0.439664 0.562951
Si Si4 0.021566 0.199190 0.438513
Si Si5 0.301437 0.607670 0.226808
Si Si6 0.108612 0.715459 0.948359
Si Si7 0.730334 0.155265 0.228016
Si Si8 0.529591 0.196552 0.267374
O O1 0.719983 0.779058 0.711409
O O2 0.816925 0.062623 0.873086
O O3 0.944690 0.727780 0.799806
O O4 0.970021 0.072536 0.191067
O O5 0.117803 0.074693 0.511629
O O6 0.223566 0.871251 0.630600
O O7 0.234780 0.328086 0.965256
O O8 0.000000 0.000000 0.500000
O O9 0.560974 0.384540 0.695963
O O10 0.355371 0.643780 0.720933
O O11 0.439650 0.562950 0.580718
O O12 0.875341 0.193260 0.344505
O O13 0.105142 0.465635 0.708688
O O14 0.184566 0.703840 0.120716
O O15 0.355408 0.753758 0.490164
O O16 0.619000 0.910204 0.908598
O O17 0.500000 0.000000 0.000000
#
# Coordination Sequence:
#
# PCOD9089464 Si02
#       8
#     2   2   2   2   2   2   2   2
#     4  11  23  41  68  87 116 169 210 259 313 356
#     4   9  20  33  58  91 130 160 194 246 306 370
#     4  11  22  36  63  92 122 166 206 242 309 368
#     4  10  20  39  65  89 122 161 209 256 309 360
#     4  11  22  40  62  90 127 163 201 255 309 363
#     4  10  24  45  61  90 124 155 216 263 303 369
#     4  10  19  38  56  90 131 160 198 250 299 378
#     4  10  22  36  58  87 127 159 197 245 302 369
#
# _framework density 21.118373999999999
#
# number of rings (size 3 to 8) (size 9 to 14) (size 15 to 20)
#    0.000    1.750    2.500    1.500    3.500    2.500 
#    2.250    1.250    0.000    3.750    0.000    0.000 
#    0.000    0.000    0.000    0.000    0.000    0.000 
#
# Total GULP energy -89081.299418 kJ/mol
# GULP energy per Si atom -5567.581214 kJ/mol
# Density = 2.107031 g / cm^3
# Si number density = 21.118374 Si / 1000 Ang^3
#
#
#
# Elastic Constant Matrix: (Units=GPa)
#
#
# Indices 1 2 3 4 5 6 
#
# 1 57.2130 8.4617 17.7459 11.1343 16.2626 -1.1367
# 2 8.4617 73.4266 15.4538 10.0874 6.5586 6.5537
# 3 17.7459 15.4538 102.6105 1.8109 10.6289 10.1685
# 4 11.1343 10.0874 1.8109 19.1150 -0.8956 2.5960
# 5 16.2626 6.5586 10.6289 -0.8956 40.3562 -2.2872
# 6 -1.1367 6.5537 10.1685 2.5960 -2.2872 26.6425
#
#
#
# Elastic Compliance Matrix: (Units=1/GPa)
#
#
# Indices 1 2 3 4 5 6 
#
# 1 0.023900 0.000511 -0.003296 -0.014683 -0.009013 0.002809
# 2 0.000511 0.015500 -0.001759 -0.008085 -0.002586 -0.002554
# 3 -0.003296 -0.001759 0.011123 0.002309 -0.001508 -0.004308
# 4 -0.014683 -0.008085 0.002309 0.065997 0.007788 -0.005281
# 5 -0.009013 -0.002586 -0.001508 0.007788 0.029549 0.002605
# 6 0.002809 -0.002554 -0.004308 -0.005281 0.002605 0.040664
#
#
# Mechanical properties :
#
#
# Convention : Reuss Voigt Hill
#
# Bulk Modulus (GPa) = 24.13433 35.17480 29.65456
# Shear Modulus (GPa) = 23.85103 29.99533 26.92318
#
# Velocity S-wave (km/s) = 3.36430 3.77283 3.57441
# Velocity P-wave (km/s) = 5.15211 5.97254 5.57743
#
# Compressibility (1/GPa) = 0.04143476
#
# Stress axis : x y z
#
# Youngs Moduli (GPa) = 41.84023 64.51608 89.90450
#
# Poissons Ratio (x) = -0.03296 0.29633
# Poissons Ratio (y) = -0.02137 0.15816
# Poissons Ratio (z) = 0.13791 0.11349
#
# Static dielectric constant tensor:
#      x y z
#    x 1.857870 -0.074880 -0.023950 
#    y -0.074880 1.815160 0.018060 
#    z -0.023950 0.018060 1.775240 
# 
# From -- ./inp_files/541193.got.cif
#   From: 2010.05.17/outbox.cif.g08.bks.cpg/sg2_271_cif.got.tgz:541193.got - 2010.06.03 11:33:40.
