data_PCOD9089166
_publ_section_title
;
Structure prediction by ZEFSAII (Michael W. Deem and Ramdas Pophale) SiO2 
 PCOD9089166
Probable space group: P -1
;
_chemical_formula_sum "Si O2"
_cell_formula_units_Z 14
_cell_length_a 8.939843
_cell_length_b 5.180600
_cell_length_c 11.704753
_cell_angle_alpha 111.167052
_cell_angle_beta 86.060387
_cell_angle_gamma 88.252591
_cell_volume 503.430664
_symmetry_space_group_name_H-M "P -1"
_symmetry_group_IT_number 2
_symmetry_cell_setting 'triclinic'
loop_
_space_group_symop_operation_xyz
x,y,z
-x,-y,-z
loop_
_atom_site_type_symbol
_atom_site_label
_atom_site_fract_x
_atom_site_fract_y
_atom_site_fract_z
Si Si1 0.613532 0.731037 0.068603
Si Si2 0.181378 0.135333 0.124761
Si Si3 0.016499 0.751666 0.367629
Si Si4 0.873328 0.353171 0.101460
Si Si5 0.656808 0.252652 0.570358
Si Si6 0.162619 0.793251 0.675790
Si Si7 0.413517 0.143615 0.302676
O O1 0.757455 0.594768 0.105776
O O2 0.524698 0.946538 0.190468
O O3 0.500000 0.500000 0.000000
O O4 0.679254 0.834171 0.962604
O O5 0.045347 0.364303 0.140460
O O6 0.252713 0.122192 0.243379
O O7 0.115149 0.851759 0.039891
O O8 0.924671 0.493372 0.375858
O O9 0.193646 0.686719 0.354022
O O10 0.939238 0.923540 0.294389
O O11 0.000000 0.000000 0.500000
O O12 0.796350 0.221488 0.195424
O O13 0.712891 0.213905 0.431126
O O14 0.599135 0.982784 0.590658
O O15 0.554770 0.533202 0.640367
#
# Coordination Sequence:
#
# PCOD9089166 Si02
#       7
#     2   2   2   2   2   2   2
#     4  12  26  48  73 104 145 194 248 302 364 437
#     4  11  25  47  73 107 141 184 249 310 366 425
#     4  10  19  37  65  98 143 187 236 291 349 418
#     4  11  26  45  74 107 144 189 238 308 376 430
#     4  11  22  40  66 104 142 187 239 286 350 436
#     4  11  23  41  67 105 148 189 233 298 367 431
#     4  12  25  43  75 103 143 190 242 293 353 431
#
# _framework density 27.809191999999999
#
# number of rings (size 3 to 8) (size 9 to 14) (size 15 to 20)
#    0.000    0.857    1.429    7.714    4.000    0.000 
#    0.000    1.429    0.000    0.000    0.000    0.000 
#    0.000    0.000    0.000    0.000    0.000    0.000 
#
# Total GULP energy -78487.595846 kJ/mol
# GULP energy per Si atom -5606.256846 kJ/mol
# Density = 2.774590 g / cm^3
# Si number density = 27.809192 Si / 1000 Ang^3
#
#
#
# Elastic Constant Matrix: (Units=GPa)
#
#
# Indices 1 2 3 4 5 6 
#
# 1 109.7314 30.9665 13.0290 0.4126 2.2225 -11.6709
# 2 30.9665 168.2736 49.6707 -4.6768 -15.7358 -33.0012
# 3 13.0290 49.6707 141.3730 -22.0045 -5.3289 -13.5504
# 4 0.4126 -4.6768 -22.0045 57.9330 -9.7692 -9.9427
# 5 2.2225 -15.7358 -5.3289 -9.7692 61.3050 -4.6668
# 6 -11.6709 -33.0012 -13.5504 -9.9427 -4.6668 56.2776
#
#
#
# Elastic Compliance Matrix: (Units=1/GPa)
#
#
# Indices 1 2 3 4 5 6 
#
# 1 0.009714 -0.001599 -0.000325 -0.000300 -0.000772 0.000881
# 2 -0.001599 0.007897 -0.001974 0.001024 0.002397 0.004203
# 3 -0.000325 -0.001974 0.008522 0.003495 0.000918 0.001520
# 4 -0.000300 0.001024 0.003495 0.020297 0.004217 0.005316
# 5 -0.000772 0.002397 0.000918 0.004217 0.017989 0.003703
# 6 0.000881 0.004203 0.001520 0.005316 0.003703 0.022029
#
#
# Mechanical properties :
#
#
# Convention : Reuss Voigt Hill
#
# Bulk Modulus (GPa) = 54.54078 67.41225 60.97651
# Shear Modulus (GPa) = 49.82303 56.81723 53.32013
#
# Velocity S-wave (km/s) = 4.23732 4.52498 4.38351
# Velocity P-wave (km/s) = 6.60265 7.18291 6.89888
#
# Compressibility (1/GPa) = 0.01833491
#
# Stress axis : x y z
#
# Youngs Moduli (GPa) = 102.94893 126.63441 117.35003
#
# Poissons Ratio (x) = 0.20254 0.03810
# Poissons Ratio (y) = 0.16465 0.23170
# Poissons Ratio (z) = 0.03342 0.25003
#
# Static dielectric constant tensor:
#      x y z
#    x 2.249280 -0.003400 0.059600 
#    y -0.003400 2.179920 0.035280 
#    z 0.059600 0.035280 2.169000 
# 
# From -- ./inp_files/373134.got.cif
#   From: 2010.05.17/outbox.cif.g08.bks.cpg/sg2_187_cif.got.tgz:373134.got - 2010.06.03 11:33:40.
