data_PCOD9089795
_publ_section_title
;
Structure prediction by ZEFSAII (Michael W. Deem and Ramdas Pophale) SiO2 
 PCOD9089795
Probable space group: P -1
;
_chemical_formula_sum "Si O2"
_cell_formula_units_Z 16
_cell_length_a 21.286437
_cell_length_b 26.848789
_cell_length_c 9.364377
_cell_angle_alpha 151.137928
_cell_angle_beta 37.360231
_cell_angle_gamma 161.904332
_cell_volume 776.720141
_symmetry_space_group_name_H-M "P -1"
_symmetry_group_IT_number 2
_symmetry_cell_setting 'triclinic'
loop_
_space_group_symop_operation_xyz
x,y,z
-x,-y,-z
loop_
_atom_site_type_symbol
_atom_site_label
_atom_site_fract_x
_atom_site_fract_y
_atom_site_fract_z
Si Si1 0.060774 0.235264 0.694283
Si Si2 0.247679 0.321883 0.842865
Si Si3 0.107491 0.887038 0.854684
Si Si4 0.932323 0.839701 0.802466
Si Si5 0.861815 0.466439 0.245046
Si Si6 0.672914 0.756534 0.257000
Si Si7 0.988527 0.392506 0.353603
Si Si8 0.428220 0.034692 0.812114
O O1 0.210774 0.294642 0.672184
O O2 0.116414 0.279518 0.537836
O O3 0.829046 0.984423 0.508016
O O4 0.069268 0.358012 0.046811
O O5 0.302749 0.261987 0.670814
O O6 0.433015 0.560189 0.152977
O O7 0.029990 0.171402 0.926852
O O8 0.113294 0.956788 0.874577
O O9 0.964858 0.664473 0.516076
O O10 0.317884 0.025278 0.888887
O O11 0.749672 0.722365 0.940904
O O12 0.000000 0.000000 0.000000
O O13 0.888917 0.480195 0.400902
O O14 0.625598 0.250559 0.079557
O O15 0.000000 0.500000 0.000000
O O16 0.000000 0.500000 0.500000
O O17 0.752171 0.162447 0.251993
O O18 0.500000 0.000000 0.500000
#
# Coordination Sequence:
#
# PCOD9089795 Si02
#       8
#     2   2   2   2   2   2   2   2
#     4  11  21  38  62  87 127 166 203 260 326 375
#     4  10  19  38  61  91 122 157 209 266 316 379
#     4  10  21  39  64  94 125 166 216 262 323 385
#     4   9  21  41  62  90 129 167 211 263 323 390
#     4  11  22  42  68  91 128 165 219 274 313 394
#     4   9  21  38  62  89 121 162 213 260 319 381
#     4  11  26  42  62  98 135 168 217 272 327 381
#     4  11  22  42  69  94 123 174 224 267 328 386
#
# _framework density 20.599439
#
# number of rings (size 3 to 8) (size 9 to 14) (size 15 to 20)
#    0.000    1.750    5.000    0.375    3.500    1.000 
#    0.000    5.000    0.000    0.000    0.000    0.000 
#    0.000    0.000    0.000    0.000    0.000    0.000 
#
# Total GULP energy -89345.629693 kJ/mol
# GULP energy per Si atom -5584.101856 kJ/mol
# Density = 2.055255 g / cm^3
# Si number density = 20.599439 Si / 1000 Ang^3
#
#
#
# Elastic Constant Matrix: (Units=GPa)
#
#
# Indices 1 2 3 4 5 6 
#
# 1 163.2449 51.6054 49.1963 9.2774 15.6706 5.2577
# 2 51.6054 61.9658 30.2938 10.8805 20.1750 23.1669
# 3 49.1963 30.2938 110.6125 6.2739 23.3702 7.4576
# 4 9.2774 10.8805 6.2739 41.6326 2.5125 10.1571
# 5 15.6706 20.1750 23.3702 2.5125 28.3235 10.1977
# 6 5.2577 23.1669 7.4576 10.1571 10.1977 29.7784
#
#
#
# Elastic Compliance Matrix: (Units=1/GPa)
#
#
# Indices 1 2 3 4 5 6 
#
# 1 0.009482 -0.009237 -0.002281 -0.000887 0.001135 0.005997
# 2 -0.009237 0.037176 -0.002068 -0.001178 -0.011480 -0.022440
# 3 -0.002281 -0.002068 0.012221 -0.000788 -0.007982 0.001953
# 4 -0.000887 -0.001178 -0.000788 0.026613 0.002772 -0.008756
# 5 0.001135 -0.011480 -0.007982 0.002772 0.052096 -0.008056
# 6 0.005997 -0.022440 0.001953 -0.008756 -0.008056 0.055237
#
#
# Mechanical properties :
#
#
# Convention : Reuss Voigt Hill
#
# Bulk Modulus (GPa) = 31.54020 66.44602 48.99311
# Shear Modulus (GPa) = 21.68591 33.59543 27.64067
#
# Velocity S-wave (km/s) = 3.24812 4.04281 3.66706
# Velocity P-wave (km/s) = 5.42323 7.35654 6.46259
#
# Compressibility (1/GPa) = 0.03170557
#
# Stress axis : x y z
#
# Youngs Moduli (GPa) = 105.46796 26.89931 81.82709
#
# Poissons Ratio (x) = 0.24847 0.18666
# Poissons Ratio (y) = 0.97423 0.16921
# Poissons Ratio (z) = 0.24059 0.05563
#
# Static dielectric constant tensor:
#      x y z
#    x 1.595880 -0.057940 -0.098440 
#    y -0.057940 1.733340 -0.031140 
#    z -0.098440 -0.031140 1.780590 
# 
# From -- ./inp_files/350263.got.cif
#   From: 2010.05.17/outbox.cif.g08.bks.cpg/sg2_176_cif.got.tgz:350263.got - 2010.06.03 11:33:40.
