data_PCOD9089929
_publ_section_title
;
Structure prediction by ZEFSAII (Michael W. Deem and Ramdas Pophale) SiO2 
 PCOD9089929
Probable space group: P -1
;
_chemical_formula_sum "Si O2"
_cell_formula_units_Z 14
_cell_length_a 6.573337
_cell_length_b 10.617639
_cell_length_c 10.912075
_cell_angle_alpha 74.289686
_cell_angle_beta 134.930352
_cell_angle_gamma 96.812828
_cell_volume 516.083544
_symmetry_space_group_name_H-M "P -1"
_symmetry_group_IT_number 2
_symmetry_cell_setting 'triclinic'
loop_
_space_group_symop_operation_xyz
x,y,z
-x,-y,-z
loop_
_atom_site_type_symbol
_atom_site_label
_atom_site_fract_x
_atom_site_fract_y
_atom_site_fract_z
Si Si1 0.911266 0.695434 0.693419
Si Si2 0.700787 0.364756 0.601196
Si Si3 0.031271 0.030444 0.302700
Si Si4 0.293625 0.963240 0.055711
Si Si5 0.699639 0.406250 0.321870
Si Si6 0.466259 0.873609 0.688326
Si Si7 0.762867 0.340107 0.907486
O O1 0.066847 0.596444 0.685808
O O2 0.568052 0.723760 0.511221
O O3 0.041902 0.832858 0.694484
O O4 0.019680 0.647990 0.888091
O O5 0.500000 0.500000 0.500000
O O6 0.841196 0.371992 0.525206
O O7 0.863912 0.341891 0.806089
O O8 0.273362 0.083024 0.298707
O O9 0.180370 0.919407 0.479798
O O10 0.797086 0.975940 0.130301
O O11 0.339692 0.806543 0.094260
O O12 0.516945 0.033033 0.211968
O O13 0.000000 0.000000 0.000000
O O14 0.517586 0.282808 0.245674
O O15 0.490205 0.541100 0.211060
#
# Coordination Sequence:
#
# PCOD9089929 Si02
#       7
#     2   2   2   2   2   2   2
#     4  11  22  44  65  93 135 170 212 268 324 380
#     4  10  23  42  63  94 129 172 212 258 320 385
#     4   9  19  36  63  86 127 171 206 261 325 372
#     4   9  19  35  61  91 118 170 212 250 318 382
#     4  11  24  40  68 101 126 169 219 266 323 381
#     4  10  19  38  62  92 125 164 216 265 309 381
#     4  10  23  43  65  93 135 170 208 267 330 375
#
# _framework density 27.127388
#
# number of rings (size 3 to 8) (size 9 to 14) (size 15 to 20)
#    0.000    2.000    1.429    1.286    4.000    5.143 
#    0.000    5.714    0.000    0.000    0.000    0.000 
#    0.000    0.000    0.000    0.000    0.000    0.000 
#
# Total GULP energy -78279.750118 kJ/mol
# GULP energy per Si atom -5591.410723 kJ/mol
# Density = 2.706564 g / cm^3
# Si number density = 27.127388 Si / 1000 Ang^3
#
#
#
# Elastic Constant Matrix: (Units=GPa)
#
#
# Indices 1 2 3 4 5 6 
#
# 1 111.4905 27.9631 59.6257 10.6401 -24.9016 -21.0200
# 2 27.9631 174.5244 55.3307 12.0399 -6.3979 -25.3505
# 3 59.6257 55.3307 188.6721 22.5353 -26.3603 -13.7605
# 4 10.6401 12.0399 22.5353 48.3774 -8.5856 -2.3187
# 5 -24.9016 -6.3979 -26.3603 -8.5856 45.5519 9.4257
# 6 -21.0200 -25.3505 -13.7605 -2.3187 9.4257 46.8049
#
#
#
# Elastic Compliance Matrix: (Units=1/GPa)
#
#
# Indices 1 2 3 4 5 6 
#
# 1 0.012240 -0.000347 -0.002879 -0.000353 0.004163 0.003606
# 2 -0.000347 0.006809 -0.001696 -0.000859 -0.001039 0.003200
# 3 -0.002879 -0.001696 0.007190 -0.001949 0.002109 -0.000619
# 4 -0.000353 -0.000859 -0.001949 0.022354 0.002912 -0.000676
# 5 0.004163 -0.001039 0.002109 0.002912 0.026529 -0.003271
# 6 0.003606 0.003200 -0.000619 -0.000676 -0.003271 0.025161
#
#
# Mechanical properties :
#
#
# Convention : Reuss Voigt Hill
#
# Bulk Modulus (GPa) = 61.00261 84.50289 72.75275
# Shear Modulus (GPa) = 43.25448 50.26467 46.75957
#
# Velocity S-wave (km/s) = 3.99744 4.30922 4.15625
# Velocity P-wave (km/s) = 6.62136 7.48179 7.06468
#
# Compressibility (1/GPa) = 0.01639274
#
# Stress axis : x y z
#
# Youngs Moduli (GPa) = 81.69988 146.85760 139.08242
#
# Poissons Ratio (x) = 0.05103 0.40048
# Poissons Ratio (y) = 0.02839 0.23593
# Poissons Ratio (z) = 0.23525 0.24912
#
# Static dielectric constant tensor:
#      x y z
#    x 2.365100 -0.039300 0.023060 
#    y -0.039300 2.182360 0.075470 
#    z 0.023060 0.075470 2.130660 
# 
# From -- ./inp_files/387451.got.cif
#   From: 2010.05.17/outbox.cif.g08.bks.cpg/sg2_194_cif.got.tgz:387451.got - 2010.06.03 11:33:40.
