data_PCOD9089498
_publ_section_title
;
Structure prediction by ZEFSAII (Michael W. Deem and Ramdas Pophale) SiO2 
 PCOD9089498
Probable space group: P -1
;
_chemical_formula_sum "Si O2"
_cell_formula_units_Z 16
_cell_length_a 5.624701
_cell_length_b 9.577819
_cell_length_c 13.809039
_cell_angle_alpha 55.555737
_cell_angle_beta 101.085546
_cell_angle_gamma 100.342533
_cell_volume 599.743969
_symmetry_space_group_name_H-M "P -1"
_symmetry_group_IT_number 2
_symmetry_cell_setting 'triclinic'
loop_
_space_group_symop_operation_xyz
x,y,z
-x,-y,-z
loop_
_atom_site_type_symbol
_atom_site_label
_atom_site_fract_x
_atom_site_fract_y
_atom_site_fract_z
Si Si1 0.560616 0.445767 0.634886
Si Si2 0.504631 0.909409 0.842903
Si Si3 0.624413 0.383840 0.186395
Si Si4 0.617917 0.790250 0.589401
Si Si5 0.190492 0.849756 0.116652
Si Si6 0.851959 0.807260 0.270111
Si Si7 0.117564 0.558045 0.088414
Si Si8 0.771039 0.055911 0.626615
O O1 0.500000 0.500000 0.500000
O O2 0.691062 0.612887 0.627058
O O3 0.704912 0.288305 0.744630
O O4 0.297191 0.374367 0.682708
O O5 0.639952 0.975725 0.924968
O O6 0.301886 0.040888 0.763728
O O7 0.712254 0.952502 0.760915
O O8 0.406603 0.722402 0.875556
O O9 0.581824 0.253706 0.323799
O O10 0.384587 0.487437 0.139220
O O11 0.889781 0.483348 0.167807
O O12 0.471070 0.871167 0.460910
O O13 0.824098 0.918208 0.603785
O O14 0.162856 0.753672 0.050546
O O15 0.943396 0.868109 0.147634
O O16 0.037067 0.797095 0.378861
O O17 0.000000 0.500000 0.000000
#
# Coordination Sequence:
#
# PCOD9089498 Si02
#       8
#     2   2   2   2   2   2   2   2
#     4  11  21  34  54  89 127 168 217 266 314 390
#     4   9  21  39  65  94 134 175 218 266 327 395
#     4  11  25  45  72  99 130 175 222 276 334 404
#     4  10  19  38  57  90 132 168 229 258 325 384
#     4  10  22  39  64  92 129 171 213 275 334 390
#     4  10  20  36  59  87 128 171 217 261 325 377
#     4  12  27  49  72 100 131 169 223 286 345 395
#     4   9  20  36  55  89 131 179 212 272 308 383
#
# _framework density 26.678048
#
# number of rings (size 3 to 8) (size 9 to 14) (size 15 to 20)
#    0.000    1.750    1.250    3.375    7.000    3.000 
#    2.250    5.000    0.000    0.000    0.000    0.000 
#    0.000    0.000    0.000    0.000    0.000    0.000 
#
# Total GULP energy -89315.997294 kJ/mol
# GULP energy per Si atom -5582.249831 kJ/mol
# Density = 2.661733 g / cm^3
# Si number density = 26.678048 Si / 1000 Ang^3
#
#
#
# Elastic Constant Matrix: (Units=GPa)
#
#
# Indices 1 2 3 4 5 6 
#
# 1 76.2915 36.8752 21.6852 9.2644 -0.0517 5.5322
# 2 36.8752 173.0617 16.0980 25.4945 13.4366 -0.4882
# 3 21.6852 16.0980 77.9631 25.2228 20.0386 3.2784
# 4 9.2644 25.4945 25.2228 46.5549 3.7179 0.7569
# 5 -0.0517 13.4366 20.0386 3.7179 38.3975 0.8738
# 6 5.5322 -0.4882 3.2784 0.7569 0.8738 37.4046
#
#
#
# Elastic Compliance Matrix: (Units=1/GPa)
#
#
# Indices 1 2 3 4 5 6 
#
# 1 0.016235 -0.003458 -0.005059 0.001134 0.003810 -0.002115
# 2 -0.003458 0.007168 0.001428 -0.003789 -0.002905 0.000624
# 3 -0.005059 0.001428 0.019579 -0.009593 -0.009784 -0.000527
# 4 0.001134 -0.003789 -0.009593 0.028240 0.003600 -0.000032
# 5 0.003810 -0.002905 -0.009784 0.003600 0.031835 -0.000560
# 6 -0.002115 0.000624 -0.000527 -0.000032 -0.000560 0.027115
#
#
# Mechanical properties :
#
#
# Convention : Reuss Voigt Hill
#
# Bulk Modulus (GPa) = 34.71618 52.95923 43.83770
# Shear Modulus (GPa) = 32.47788 41.31525 36.89657
#
# Velocity S-wave (km/s) = 3.49291 3.93957 3.72295
# Velocity P-wave (km/s) = 5.41373 6.37087 5.91170
#
# Compressibility (1/GPa) = 0.02880502
#
# Stress axis : x y z
#
# Youngs Moduli (GPa) = 61.59513 139.51541 51.07457
#
# Poissons Ratio (x) = 0.48238 0.25839
# Poissons Ratio (y) = 0.21297 -0.07294
# Poissons Ratio (z) = 0.31161 -0.19923
#
# Static dielectric constant tensor:
#      x y z
#    x 2.205810 -0.001630 -0.003360 
#    y -0.001630 2.110970 -0.005410 
#    z -0.003360 -0.005410 2.139140 
# 
# From -- ./inp_files/90707.got.cif
#   From: 2010.05.17/outbox.cif.g08.bks.cpg/sg2_46_cif.got.tgz:90707.got - 2010.06.03 11:33:40.
