data_PCOD9089778
_publ_section_title
;
Structure prediction by ZEFSAII (Michael W. Deem and Ramdas Pophale) SiO2 
 PCOD9089778
Probable space group: P -1
;
_chemical_formula_sum "Si O2"
_cell_formula_units_Z 16
_cell_length_a 5.319205
_cell_length_b 14.401531
_cell_length_c 8.860484
_cell_angle_alpha 90.579572
_cell_angle_beta 87.844603
_cell_angle_gamma 83.003039
_cell_volume 673.149178
_symmetry_space_group_name_H-M "P -1"
_symmetry_group_IT_number 2
_symmetry_cell_setting 'triclinic'
loop_
_space_group_symop_operation_xyz
x,y,z
-x,-y,-z
loop_
_atom_site_type_symbol
_atom_site_label
_atom_site_fract_x
_atom_site_fract_y
_atom_site_fract_z
Si Si1 0.081577 0.063077 0.133524
Si Si2 0.136321 0.767623 0.034057
Si Si3 0.741115 0.727086 0.263575
Si Si4 0.397994 0.904272 0.249429
Si Si5 0.945094 0.385855 0.166112
Si Si6 0.769644 0.136084 0.412198
Si Si7 0.669804 0.561112 0.094440
Si Si8 0.766427 0.740120 0.596572
O O1 0.876536 0.067334 0.273882
O O2 0.342962 0.009546 0.191847
O O3 0.072306 0.165673 0.062368
O O4 0.000000 0.000000 0.000000
O O5 0.005350 0.718527 0.172374
O O6 0.291159 0.840758 0.117936
O O7 0.227736 0.688699 0.905919
O O8 0.660929 0.839410 0.268182
O O9 0.571625 0.659782 0.175767
O O10 0.742294 0.694981 0.433314
O O11 0.274619 0.903894 0.420153
O O12 0.130261 0.336114 0.285369
O O13 0.789754 0.484879 0.213224
O O14 0.123571 0.411167 0.027111
O O15 0.504754 0.197164 0.370745
O O16 0.003453 0.196892 0.422829
O O17 0.500000 0.500000 0.000000
#
# Coordination Sequence:
#
# PCOD9089778 Si02
#       8
#     2   2   2   2   2   2   2   2
#     4  10  22  39  62  99 129 174 222 271 326 388
#     4  10  19  38  61  89 130 169 219 272 322 389
#     4  10  22  40  63  93 127 177 216 276 323 397
#     4  10  21  39  62  90 132 172 225 264 334 374
#     4  10  22  38  63  95 127 172 215 268 329 391
#     4  11  23  45  65  97 134 176 222 270 325 393
#     4  10  22  40  64  95 130 167 219 268 334 387
#     4  11  24  43  71  96 130 180 219 265 333 388
#
# _framework density 23.768877
#
# number of rings (size 3 to 8) (size 9 to 14) (size 15 to 20)
#    0.000    1.750    2.500    1.125    1.750    5.000 
#    4.500    2.500    0.000    0.000    0.000    0.000 
#    0.000    0.000    0.000    0.000    0.000    0.000 
#
# Total GULP energy -89185.020002 kJ/mol
# GULP energy per Si atom -5574.063750 kJ/mol
# Density = 2.371478 g / cm^3
# Si number density = 23.768877 Si / 1000 Ang^3
#
#
#
# Elastic Constant Matrix: (Units=GPa)
#
#
# Indices 1 2 3 4 5 6 
#
# 1 61.4056 2.6676 1.2567 3.9158 8.9507 -10.0037
# 2 2.6676 91.8954 29.8599 -5.5719 3.8013 -20.4433
# 3 1.2567 29.8599 90.2645 -8.7052 4.5566 -20.7111
# 4 3.9158 -5.5719 -8.7052 34.0046 -11.2474 7.4878
# 5 8.9507 3.8013 4.5566 -11.2474 24.9605 -2.2085
# 6 -10.0037 -20.4433 -20.7111 7.4878 -2.2085 29.5730
#
#
#
# Elastic Compliance Matrix: (Units=1/GPa)
#
#
# Indices 1 2 3 4 5 6 
#
# 1 0.019610 0.001054 0.001339 -0.007037 -0.009780 0.009351
# 2 0.001054 0.013493 -0.002663 -0.000879 -0.001642 0.007919
# 3 0.001339 -0.002663 0.013942 0.000667 -0.001603 0.008087
# 4 -0.007037 -0.000879 0.000667 0.038988 0.019134 -0.010963
# 5 -0.009780 -0.001642 -0.001603 0.019134 0.052159 -0.006516
# 6 0.009351 0.007919 0.008087 -0.010963 -0.006516 0.050405
#
#
# Mechanical properties :
#
#
# Convention : Reuss Voigt Hill
#
# Bulk Modulus (GPa) = 21.50360 34.57044 28.03702
# Shear Modulus (GPa) = 24.43345 31.69303 28.06324
#
# Velocity S-wave (km/s) = 3.20966 3.65551 3.43982
# Velocity P-wave (km/s) = 4.77519 5.69149 5.25336
#
# Compressibility (1/GPa) = 0.04650385
#
# Stress axis : x y z
#
# Youngs Moduli (GPa) = 50.99527 74.11277 71.72680
#
# Poissons Ratio (x) = -0.07810 -0.09605
# Poissons Ratio (y) = -0.05374 0.19102
# Poissons Ratio (z) = -0.06828 0.19737
#
# Static dielectric constant tensor:
#      x y z
#    x 1.963180 -0.029700 0.066810 
#    y -0.029700 1.988660 0.010100 
#    z 0.066810 0.010100 1.932260 
# 
# From -- ./inp_files/49043.got.cif
#   From: 2010.05.17/outbox.cif.g08.bks.cpg/sg2_25_cif.got.tgz:49043.got - 2010.06.03 11:33:40.
