data_PCOD9089201
_publ_section_title
;
Structure prediction by ZEFSAII (Michael W. Deem and Ramdas Pophale) SiO2 
 PCOD9089201
Probable space group: P -1
;
_chemical_formula_sum "Si O2"
_cell_formula_units_Z 16
_cell_length_a 8.614312
_cell_length_b 26.053003
_cell_length_c 17.572289
_cell_angle_alpha 163.617370
_cell_angle_beta 140.999808
_cell_angle_gamma 45.249130
_cell_volume 680.551080
_symmetry_space_group_name_H-M "P -1"
_symmetry_group_IT_number 2
_symmetry_cell_setting 'triclinic'
loop_
_space_group_symop_operation_xyz
x,y,z
-x,-y,-z
loop_
_atom_site_type_symbol
_atom_site_label
_atom_site_fract_x
_atom_site_fract_y
_atom_site_fract_z
Si Si1 0.417067 0.627508 0.214614
Si Si2 0.130773 0.323101 0.441579
Si Si3 0.233809 0.038745 0.483480
Si Si4 0.570325 0.301873 0.250265
Si Si5 0.615370 0.534990 0.874996
Si Si6 0.644360 0.046740 0.433755
Si Si7 0.354640 0.805797 0.706812
Si Si8 0.926047 0.983904 0.771834
O O1 0.950419 0.016087 0.736327
O O2 0.278650 0.508181 0.063524
O O3 0.271895 0.773111 0.331556
O O4 0.500000 0.500000 0.000000
O O5 0.314642 0.511095 0.745871
O O6 0.320474 0.260137 0.484725
O O7 0.870775 0.342404 0.405192
O O8 0.057359 0.171972 0.132841
O O9 0.183003 0.952996 0.425933
O O10 0.500000 0.000000 0.500000
O O11 0.272140 0.261105 0.822064
O O12 0.500000 0.500000 0.500000
O O13 0.539331 0.218948 0.205086
O O14 0.421555 0.146629 0.913351
O O15 0.630964 0.370359 0.589796
O O16 0.369164 0.065861 0.388562
O O17 0.066552 0.827882 0.631427
O O18 0.500000 0.000000 0.000000
#
# Coordination Sequence:
#
# PCOD9089201 Si02
#       8
#     2   2   2   2   2   2   2   2
#     4  10  19  37  66  91 122 159 204 257 306 363
#     4   9  21  41  66  95 118 165 221 247 307 381
#     4  10  21  39  61  92 127 166 206 257 313 368
#     4  11  23  41  63  92 130 168 201 262 315 369
#     4  10  22  39  63  97 122 158 214 259 301 378
#     4  10  20  38  61  90 124 165 207 244 314 381
#     4  12  22  40  64  97 128 157 215 266 313 357
#     4  10  20  38  64  92 123 167 205 260 309 364
#
# _framework density 23.510359000000001
#
# number of rings (size 3 to 8) (size 9 to 14) (size 15 to 20)
#    0.750    1.000    1.250    4.500    0.000    2.500 
#    4.500    5.000    0.000    2.250    0.000    0.000 
#    0.000    0.000    0.000    0.000    0.000    0.000 
#
# Total GULP energy -89501.782112 kJ/mol
# GULP energy per Si atom -5593.861382 kJ/mol
# Density = 2.345685 g / cm^3
# Si number density = 23.510359 Si / 1000 Ang^3
#
#
#
# Elastic Constant Matrix: (Units=GPa)
#
#
# Indices 1 2 3 4 5 6 
#
# 1 77.9151 27.7724 31.1625 5.0055 -4.8331 3.5882
# 2 27.7724 125.3840 40.5575 5.9193 -10.1234 18.6727
# 3 31.1625 40.5575 102.0037 10.0514 -20.2657 7.8275
# 4 5.0055 5.9193 10.0514 38.0881 -1.7569 -8.8354
# 5 -4.8331 -10.1234 -20.2657 -1.7569 28.7269 -10.6586
# 6 3.5882 18.6727 7.8275 -8.8354 -10.6586 18.7910
#
#
#
# Elastic Compliance Matrix: (Units=1/GPa)
#
#
# Indices 1 2 3 4 5 6 
#
# 1 0.015141 -0.002133 -0.003910 -0.000684 -0.001020 -0.000044
# 2 -0.002133 0.011399 -0.003218 -0.004000 -0.003938 -0.013694
# 3 -0.003910 -0.003218 0.014032 -0.001747 0.008854 0.002300
# 4 -0.000684 -0.004000 -0.001747 0.033813 0.008870 0.025763
# 5 -0.001020 -0.003938 0.008854 0.008870 0.052870 0.034579
# 6 -0.000044 -0.013694 0.002300 0.025763 0.034579 0.097603
#
#
# Mechanical properties :
#
#
# Convention : Reuss Voigt Hill
#
# Bulk Modulus (GPa) = 45.34831 56.03195 50.69013
# Shear Modulus (GPa) = 19.94181 30.84188 25.39184
#
# Velocity S-wave (km/s) = 2.91557 3.62587 3.28994
# Velocity P-wave (km/s) = 5.53756 6.43536 6.00327
#
# Compressibility (1/GPa) = 0.02205154
#
# Stress axis : x y z
#
# Youngs Moduli (GPa) = 66.04591 87.72585 71.26430
#
# Poissons Ratio (x) = 0.18709 0.27862
# Poissons Ratio (y) = 0.14085 0.22934
# Poissons Ratio (z) = 0.25822 0.28231
#
# Static dielectric constant tensor:
#      x y z
#    x 2.005260 -0.024830 0.030190 
#    y -0.024830 1.905320 0.000450 
#    z 0.030190 0.000450 1.849660 
# 
# From -- ./inp_files/180595.got.cif
#   From: 2010.05.17/outbox.cif.g08.bks.cpg/sg2_91_cif.got.tgz:180595.got - 2010.06.03 11:33:40.
