data_PCOD9089044
_publ_section_title
;
Structure prediction by ZEFSAII (Michael W. Deem and Ramdas Pophale) SiO2 
 PCOD9089044
Probable space group: P -1
;
_chemical_formula_sum "Si O2"
_cell_formula_units_Z 16
_cell_length_a 11.294593
_cell_length_b 8.691402
_cell_length_c 21.015422
_cell_angle_alpha 133.569958
_cell_angle_beta 29.204717
_cell_angle_gamma 136.753035
_cell_volume 680.803001
_symmetry_space_group_name_H-M "P -1"
_symmetry_group_IT_number 2
_symmetry_cell_setting 'triclinic'
loop_
_space_group_symop_operation_xyz
x,y,z
-x,-y,-z
loop_
_atom_site_type_symbol
_atom_site_label
_atom_site_fract_x
_atom_site_fract_y
_atom_site_fract_z
Si Si1 0.418876 0.809095 0.259149
Si Si2 0.405573 0.591491 0.786587
Si Si3 0.951772 0.119382 0.292908
Si Si4 0.277425 0.184802 0.402675
Si Si5 0.099606 0.502528 0.658192
Si Si6 0.432085 0.595964 0.914813
Si Si7 0.016383 0.347201 0.798167
Si Si8 0.269017 0.708172 0.439336
O O1 0.188085 0.655694 0.277190
O O2 0.612142 0.671083 0.132116
O O3 0.305685 0.816817 0.384466
O O4 0.490687 0.069250 0.281979
O O5 0.673989 0.767033 0.681231
O O6 0.337661 0.645154 0.903833
O O7 0.180549 0.539460 0.826053
O O8 0.487446 0.370918 0.690875
O O9 0.867053 0.236078 0.302717
O O10 0.257918 0.276531 0.197469
O O11 0.770754 0.164324 0.444585
O O12 0.958409 0.877641 0.245695
O O13 0.288169 0.411160 0.500017
O O14 0.000000 0.000000 0.500000
O O15 0.109227 0.426936 0.705355
O O16 0.283980 0.676864 0.061408
O O17 0.000000 0.500000 0.500000
#
# Coordination Sequence:
#
# PCOD9089044 Si02
#       8
#     2   2   2   2   2   2   2   2
#     4   9  19  33  66  94 113 165 215 271 305 358
#     4  11  23  41  67  91 130 165 209 272 324 377
#     4  11  22  41  69  93 123 176 216 263 314 375
#     4  10  19  37  64  97 118 153 215 270 316 371
#     4  10  21  39  62  93 134 156 207 271 322 379
#     4  10  23  44  65  89 123 178 229 251 294 393
#     4  12  27  42  58  97 142 171 203 260 329 382
#     4  11  16  38  66  92 120 157 220 265 308 371
#
# _framework density 23.501657999999999
#
# number of rings (size 3 to 8) (size 9 to 14) (size 15 to 20)
#    0.000    1.500    5.000    2.250    3.500    3.000 
#    6.750    0.625    0.000    0.000    0.000    0.000 
#    0.000    0.000    0.000    0.000    0.000    0.000 
#
# Total GULP energy -89076.694382 kJ/mol
# GULP energy per Si atom -5567.293399 kJ/mol
# Density = 2.344817 g / cm^3
# Si number density = 23.501658 Si / 1000 Ang^3
#
#
#
# Elastic Constant Matrix: (Units=GPa)
#
#
# Indices 1 2 3 4 5 6 
#
# 1 100.0190 37.0135 13.7765 -10.5364 2.9852 -24.4684
# 2 37.0135 99.6258 24.6443 7.4173 2.0658 -47.2245
# 3 13.7765 24.6443 55.7751 2.8690 17.0040 -14.1634
# 4 -10.5364 7.4173 2.8690 16.9437 -5.4346 -11.7229
# 5 2.9852 2.0658 17.0040 -5.4346 18.5374 -5.3548
# 6 -24.4684 -47.2245 -14.1634 -11.7229 -5.3548 42.5279
#
#
#
# Elastic Compliance Matrix: (Units=1/GPa)
#
#
# Indices 1 2 3 4 5 6 
#
# 1 0.019069 0.003792 -0.008684 0.036174 0.022320 0.025072
# 2 0.003792 0.029143 -0.013843 0.030783 0.030055 0.042202
# 3 -0.008684 -0.013843 0.036938 -0.038769 -0.049526 -0.024989
# 4 0.036174 0.030783 -0.038769 0.184189 0.111171 0.106853
# 5 0.022320 0.030055 -0.049526 0.111171 0.147837 0.078981
# 6 0.025072 0.042202 -0.024989 0.106853 0.078981 0.115879
#
#
# Mechanical properties :
#
#
# Convention : Reuss Voigt Hill
#
# Bulk Modulus (GPa) = 20.97330 45.14317 33.05824
# Shear Modulus (GPa) = 8.52636 27.60085 18.06361
#
# Velocity S-wave (km/s) = 1.90679 3.43070 2.77539
# Velocity P-wave (km/s) = 3.71367 5.91127 4.93632
#
# Compressibility (1/GPa) = 0.04767967
#
# Stress axis : x y z
#
# Youngs Moduli (GPa) = 52.44124 34.31394 27.07245
#
# Poissons Ratio (x) = -0.13012 0.23510
# Poissons Ratio (y) = -0.19886 0.37476
# Poissons Ratio (z) = 0.45541 0.47500
#
# Static dielectric constant tensor:
#      x y z
#    x 1.873040 0.075470 -0.091630 
#    y 0.075470 1.949590 0.060820 
#    z -0.091630 0.060820 1.844540 
# 
# From -- ./inp_files/243567.got.cif
#   From: 2010.05.17/outbox.cif.g08.bks.cpg/sg2_122_cif.got.tgz:243567.got - 2010.06.03 11:33:40.
