data_PCOD9089315
_publ_section_title
;
Structure prediction by ZEFSAII (Michael W. Deem and Ramdas Pophale) SiO2 
 PCOD9089315
Probable space group: P -1
;
_chemical_formula_sum "Si O2"
_cell_formula_units_Z 16
_cell_length_a 8.127760
_cell_length_b 13.488238
_cell_length_c 8.517042
_cell_angle_alpha 63.211249
_cell_angle_beta 120.229059
_cell_angle_gamma 82.486547
_cell_volume 638.048902
_symmetry_space_group_name_H-M "P -1"
_symmetry_group_IT_number 2
_symmetry_cell_setting 'triclinic'
loop_
_space_group_symop_operation_xyz
x,y,z
-x,-y,-z
loop_
_atom_site_type_symbol
_atom_site_label
_atom_site_fract_x
_atom_site_fract_y
_atom_site_fract_z
Si Si1 0.097480 0.662561 0.536293
Si Si2 0.582431 0.226926 0.299982
Si Si3 0.665314 0.863710 0.234203
Si Si4 0.061612 0.500486 0.209244
Si Si5 0.487010 0.426300 0.887995
Si Si6 0.118934 0.721744 0.058130
Si Si7 0.511221 0.292504 0.568801
Si Si8 0.153593 0.048633 0.454975
O O1 0.868412 0.772343 0.291094
O O2 0.025360 0.582920 0.679557
O O3 0.215934 0.739823 0.610700
O O4 0.284500 0.540427 0.626437
O O5 0.479331 0.264754 0.394162
O O6 0.652632 0.082205 0.413725
O O7 0.456074 0.313460 0.030540
O O8 0.529988 0.793523 0.266479
O O9 0.769623 0.882893 0.430581
O O10 0.500000 0.000000 0.000000
O O11 0.994430 0.644954 0.104108
O O12 0.318752 0.429272 0.405371
O O13 0.000000 0.500000 0.000000
O O14 0.696702 0.360420 0.925973
O O15 0.500000 0.500000 0.000000
O O16 0.250399 0.732338 0.261583
O O17 0.969348 0.854135 0.811666
O O18 0.000000 0.000000 0.500000
#
# Coordination Sequence:
#
# PCOD9089315 Si02
#       8
#     2   2   2   2   2   2   2   2
#     4  10  21  39  66  96 131 172 217 276 325 389
#     4  11  22  41  71 101 133 171 228 273 331 402
#     4  11  24  45  68  98 139 177 220 274 337 399
#     4  11  21  40  67  96 135 176 222 271 332 396
#     4  10  19  37  67  98 128 170 222 270 326 392
#     4  12  24  43  70  99 134 181 222 276 340 399
#     4  11  26  43  67 100 138 174 221 284 334 391
#     4  12  22  42  74  98 129 182 226 266 342 406
#
# _framework density 25.076447000000002
#
# number of rings (size 3 to 8) (size 9 to 14) (size 15 to 20)
#    0.000    1.000    2.500    7.125    0.000    1.000 
#    0.000    5.625    2.750    0.000    0.000    0.000 
#    0.000    0.000    0.000    0.000    0.000    0.000 
#
# Total GULP energy -89457.148375 kJ/mol
# GULP energy per Si atom -5591.071773 kJ/mol
# Density = 2.501937 g / cm^3
# Si number density = 25.076447 Si / 1000 Ang^3
#
#
#
# Elastic Constant Matrix: (Units=GPa)
#
#
# Indices 1 2 3 4 5 6 
#
# 1 60.4128 14.0281 16.4255 -16.4888 7.7369 1.2653
# 2 14.0281 105.9621 37.5683 -20.2616 1.9912 -14.5566
# 3 16.4255 37.5683 168.2638 -46.5282 -0.7318 2.0854
# 4 -16.4888 -20.2616 -46.5282 58.8161 5.5420 -1.6992
# 5 7.7369 1.9912 -0.7318 5.5420 30.6294 -1.0796
# 6 1.2653 -14.5566 2.0854 -1.6992 -1.0796 48.1486
#
#
#
# Elastic Compliance Matrix: (Units=1/GPa)
#
#
# Indices 1 2 3 4 5 6 
#
# 1 0.019120 -0.001507 -0.000081 0.005291 -0.005723 -0.000896
# 2 -0.001507 0.011192 -0.001797 0.002177 -0.000658 0.003563
# 3 -0.000081 -0.001797 0.007928 0.005678 -0.000725 -0.000700
# 4 0.005291 0.002177 0.005678 0.024293 -0.005702 0.001003
# 5 -0.005723 -0.000658 -0.000725 -0.005702 0.035171 0.000570
# 6 -0.000896 0.003563 -0.000700 0.001003 0.000570 0.021948
#
#
# Mechanical properties :
#
#
# Convention : Reuss Voigt Hill
#
# Bulk Modulus (GPa) = 31.77513 52.29804 42.03659
# Shear Modulus (GPa) = 36.51993 45.29327 40.90660
#
# Velocity S-wave (km/s) = 3.82035 4.25456 4.04329
# Velocity P-wave (km/s) = 5.67088 6.71087 6.21267
#
# Compressibility (1/GPa) = 0.03147115
#
# Stress axis : x y z
#
# Youngs Moduli (GPa) = 52.30063 89.35014 126.13989
#
# Poissons Ratio (x) = 0.13461 0.01021
# Poissons Ratio (y) = 0.07879 0.22666
# Poissons Ratio (z) = 0.00423 0.16055
#
# Static dielectric constant tensor:
#      x y z
#    x 2.052330 -0.035000 0.029850 
#    y -0.035000 2.034610 0.073940 
#    z 0.029850 0.073940 2.079840 
# 
# From -- ./inp_files/206057.got.cif
#   From: 2010.05.17/outbox.cif.g08.bks.cpg/sg2_104_cif.got.tgz:206057.got - 2010.06.03 11:33:40.
