data_PCOD9089804
_publ_section_title
;
Structure prediction by ZEFSAII (Michael W. Deem and Ramdas Pophale) SiO2 
 PCOD9089804
Probable space group: P -1
;
_chemical_formula_sum "Si O2"
_cell_formula_units_Z 16
_cell_length_a 9.255065
_cell_length_b 11.642291
_cell_length_c 14.503064
_cell_angle_alpha 45.209970
_cell_angle_beta 47.917263
_cell_angle_gamma 75.306962
_cell_volume 748.925713
_symmetry_space_group_name_H-M "P -1"
_symmetry_group_IT_number 2
_symmetry_cell_setting 'triclinic'
loop_
_space_group_symop_operation_xyz
x,y,z
-x,-y,-z
loop_
_atom_site_type_symbol
_atom_site_label
_atom_site_fract_x
_atom_site_fract_y
_atom_site_fract_z
Si Si1 0.329940 0.066615 0.077482
Si Si2 0.324080 0.816713 0.373917
Si Si3 0.127646 0.932799 0.555811
Si Si4 0.378141 0.648140 0.074910
Si Si5 0.942194 0.572507 0.250453
Si Si6 0.585087 0.695182 0.759577
Si Si7 0.802533 0.873374 0.093262
Si Si8 0.891130 0.549370 0.935065
O O1 0.236358 0.923868 0.280656
O O2 0.472764 0.254709 0.958492
O O3 0.185150 0.080267 0.047704
O O4 0.500000 0.000000 0.000000
O O5 0.275532 0.865931 0.468913
O O6 0.201969 0.605372 0.532678
O O7 0.576119 0.871249 0.222920
O O8 0.965398 0.761282 0.776559
O O9 0.280478 0.108478 0.445875
O O10 0.000000 0.000000 0.500000
O O11 0.293755 0.433829 0.227203
O O12 0.166450 0.686210 0.142465
O O13 0.520791 0.711794 0.884455
O O14 0.809942 0.683160 0.214472
O O15 0.028019 0.511847 0.156864
O O16 0.359624 0.572063 0.881125
O O17 0.000000 0.000000 0.000000
O O18 0.000000 0.500000 0.000000
#
# Coordination Sequence:
#
# PCOD9089804 Si02
#       8
#     2   2   2   2   2   2   2   2
#     4  10  21  38  64  89 119 163 213 261 303 374
#     4  10  21  40  62  90 122 161 215 259 304 382
#     4  11  21  38  66  92 122 168 215 260 315 376
#     4  10  19  38  61  92 120 164 214 255 313 374
#     4  10  21  39  63  85 124 164 204 261 320 369
#     4  10  20  36  64  89 126 170 209 262 312 371
#     4  11  24  40  62  91 122 167 205 256 329 374
#     4  10  24  38  59  94 131 166 207 263 324 378
#
# _framework density 21.363937
#
# number of rings (size 3 to 8) (size 9 to 14) (size 15 to 20)
#    0.000    1.750    1.250    4.875    3.500    0.500 
#    0.000    6.875    5.500    0.000    0.000    0.000 
#    0.000    0.000    0.000    0.000    0.000    0.000 
#
# Total GULP energy -89323.409793 kJ/mol
# GULP energy per Si atom -5582.713112 kJ/mol
# Density = 2.131531 g / cm^3
# Si number density = 21.363937 Si / 1000 Ang^3
#
#
#
# Elastic Constant Matrix: (Units=GPa)
#
#
# Indices 1 2 3 4 5 6 
#
# 1 161.4299 34.1800 69.1846 -14.4486 -0.7441 -0.2466
# 2 34.1800 65.0300 27.5772 -16.4031 -11.4596 -5.6781
# 3 69.1846 27.5772 112.1347 -36.1057 -12.8089 -2.2732
# 4 -14.4486 -16.4031 -36.1057 42.4845 -5.4822 -2.9288
# 5 -0.7441 -11.4596 -12.8089 -5.4822 25.0786 -0.1987
# 6 -0.2466 -5.6781 -2.2732 -2.9288 -0.1987 33.7475
#
#
#
# Elastic Compliance Matrix: (Units=1/GPa)
#
#
# Indices 1 2 3 4 5 6 
#
# 1 0.010018 -0.004981 -0.007858 -0.006276 -0.007379 -0.001882
# 2 -0.004981 0.022678 0.003075 0.011888 0.014425 0.005103
# 3 -0.007858 0.003075 0.020875 0.018556 0.015919 0.003570
# 4 -0.006276 0.011888 0.018556 0.045456 0.024718 0.007295
# 5 -0.007379 0.014425 0.015919 0.024718 0.059828 0.005943
# 6 -0.001882 0.005103 0.003570 0.007295 0.005943 0.031385
#
#
# Mechanical properties :
#
#
# Convention : Reuss Voigt Hill
#
# Bulk Modulus (GPa) = 29.37422 66.71981 48.04701
# Shear Modulus (GPa) = 22.61241 34.10565 28.35903
#
# Velocity S-wave (km/s) = 3.25689 3.99985 3.64734
# Velocity P-wave (km/s) = 5.28417 7.25463 6.34634
#
# Compressibility (1/GPa) = 0.03404346
#
# Stress axis : x y z
#
# Youngs Moduli (GPa) = 99.81573 44.09602 47.90319
#
# Poissons Ratio (x) = 0.21965 0.37643
# Poissons Ratio (y) = 0.49721 -0.14731
# Poissons Ratio (z) = 0.78436 -0.13561
#
# Static dielectric constant tensor:
#      x y z
#    x 1.234180 -0.073320 -0.156640 
#    y -0.073320 1.832750 -0.017970 
#    z -0.156640 -0.017970 1.775440 
# 
# From -- ./inp_files/499849.got.cif
#   From: 2010.05.17/outbox.cif.g08.bks.cpg/sg2_250_cif.got.tgz:499849.got - 2010.06.03 11:33:40.
