data_PCOD9089141
_publ_section_title
;
Structure prediction by ZEFSAII (Michael W. Deem and Ramdas Pophale) SiO2 
 PCOD9089141
Probable space group: P -1
;
_chemical_formula_sum "Si O2"
_cell_formula_units_Z 14
_cell_length_a 13.527781
_cell_length_b 12.986618
_cell_length_c 8.918721
_cell_angle_alpha 145.769723
_cell_angle_beta 43.758892
_cell_angle_gamma 139.517614
_cell_volume 553.174295
_symmetry_space_group_name_H-M "P -1"
_symmetry_group_IT_number 2
_symmetry_cell_setting 'triclinic'
loop_
_space_group_symop_operation_xyz
x,y,z
-x,-y,-z
loop_
_atom_site_type_symbol
_atom_site_label
_atom_site_fract_x
_atom_site_fract_y
_atom_site_fract_z
Si Si1 0.744117 0.731840 0.194033
Si Si2 0.671613 0.108265 0.013461
Si Si3 0.630875 0.020309 0.260418
Si Si4 0.023476 0.717350 0.680971
Si Si5 0.127813 0.827007 0.372123
Si Si6 0.451814 0.423327 0.287531
Si Si7 0.825038 0.784841 0.499866
O O1 0.563896 0.571875 0.219261
O O2 0.810768 0.697029 0.241893
O O3 0.744835 0.951746 0.453248
O O4 0.867537 0.737225 0.937677
O O5 0.786369 0.257614 0.943001
O O6 0.749525 0.947732 0.762246
O O7 0.500000 0.000000 0.000000
O O8 0.651616 0.170010 0.277246
O O9 0.500000 0.000000 0.500000
O O10 0.811572 0.104469 0.224274
O O11 0.552423 0.792192 0.007530
O O12 0.050513 0.714775 0.471128
O O13 0.000000 0.500000 0.500000
O O14 0.998510 0.871922 0.476732
O O15 0.500000 0.500000 0.500000
O O16 0.269029 0.367337 0.445491
#
# Coordination Sequence:
#
# PCOD9089141 Si02
#       7
#     2   2   2   2   2   2   2
#     4  10  19  37  65  95 128 171 225 282 338 408
#     4  10  20  37  65  99 133 176 224 274 337 407
#     4  11  22  41  64  95 139 181 218 279 347 404
#     4  12  26  43  62  95 139 185 230 288 351 410
#     4  11  22  42  68  96 132 184 234 283 340 410
#     4   9  19  37  65  96 127 169 221 274 329 403
#     4   9  19  39  66  96 130 174 225 276 333 410
#
# _framework density 25.308478999999998
#
# number of rings (size 3 to 8) (size 9 to 14) (size 15 to 20)
#    0.000    1.714    0.000    7.286    0.000    1.143 
#    0.000   15.714    0.000    0.000    0.000    0.000 
#    0.000    0.000    0.000    0.000    0.000    0.000 
#
# Total GULP energy -78046.233571 kJ/mol
# GULP energy per Si atom -5574.730969 kJ/mol
# Density = 2.525088 g / cm^3
# Si number density = 25.308479 Si / 1000 Ang^3
#
#
#
# Elastic Constant Matrix: (Units=GPa)
#
#
# Indices 1 2 3 4 5 6 
#
# 1 90.8254 25.7684 21.6095 -26.1322 7.0971 -6.2539
# 2 25.7684 156.4861 67.3865 -59.1647 0.9761 -8.4317
# 3 21.6095 67.3865 161.3742 -47.4387 10.8691 -14.9886
# 4 -26.1322 -59.1647 -47.4387 73.6261 -7.2130 7.0585
# 5 7.0971 0.9761 10.8691 -7.2130 31.2184 -16.3693
# 6 -6.2539 -8.4317 -14.9886 7.0585 -16.3693 41.1411
#
#
#
# Elastic Compliance Matrix: (Units=1/GPa)
#
#
# Indices 1 2 3 4 5 6 
#
# 1 0.012419 -0.000549 -0.000218 0.003623 -0.001681 0.000406
# 2 -0.000549 0.009952 -0.002247 0.006512 0.002668 0.001082
# 3 -0.000218 -0.002247 0.008334 0.003221 -0.001256 0.001490
# 4 0.003623 0.006512 0.003221 0.022451 0.003314 0.000526
# 5 -0.001681 0.002668 -0.001256 0.003314 0.041888 0.015932
# 6 0.000406 0.001082 0.001490 0.000526 0.015932 0.031382
#
#
# Mechanical properties :
#
#
# Convention : Reuss Voigt Hill
#
# Bulk Modulus (GPa) = 40.52293 70.91274 55.71783
# Shear Modulus (GPa) = 35.54157 48.79186 42.16672
#
# Velocity S-wave (km/s) = 3.75151 4.39553 4.08623
# Velocity P-wave (km/s) = 5.90012 7.33765 6.65780
#
# Compressibility (1/GPa) = 0.02467739
#
# Stress axis : x y z
#
# Youngs Moduli (GPa) = 80.51929 100.47923 119.98826
#
# Poissons Ratio (x) = 0.05518 0.02614
# Poissons Ratio (y) = 0.04422 0.26963
# Poissons Ratio (z) = 0.01754 0.22579
#
# Static dielectric constant tensor:
#      x y z
#    x 2.040750 -0.031580 0.062090 
#    y -0.031580 2.264260 -0.017970 
#    z 0.062090 -0.017970 2.133180 
# 
# From -- ./inp_files/316015.got.cif
#   From: 2010.05.17/outbox.cif.g08.bks.cpg/sg2_159_cif.got.tgz:316015.got - 2010.06.03 11:33:40.
