data_PCOD9089367
_publ_section_title
;
Structure prediction by ZEFSAII (Michael W. Deem and Ramdas Pophale) SiO2 
 PCOD9089367
Probable space group: P -1
;
_chemical_formula_sum "Si O2"
_cell_formula_units_Z 14
_cell_length_a 19.059958
_cell_length_b 9.243821
_cell_length_c 5.163534
_cell_angle_alpha 109.660846
_cell_angle_beta 72.884757
_cell_angle_gamma 133.986583
_cell_volume 613.931315
_symmetry_space_group_name_H-M "P -1"
_symmetry_group_IT_number 2
_symmetry_cell_setting 'triclinic'
loop_
_space_group_symop_operation_xyz
x,y,z
-x,-y,-z
loop_
_atom_site_type_symbol
_atom_site_label
_atom_site_fract_x
_atom_site_fract_y
_atom_site_fract_z
Si Si1 0.528616 0.405702 0.706838
Si Si2 0.032535 0.887046 0.523789
Si Si3 0.346958 0.181065 0.488048
Si Si4 0.722071 0.506511 0.572700
Si Si5 0.200120 0.210708 0.855060
Si Si6 0.150160 0.594343 0.535893
Si Si7 0.176917 0.833781 0.148126
O O1 0.428509 0.202027 0.570880
O O2 0.591872 0.589071 0.541249
O O3 0.608118 0.387250 0.683144
O O4 0.500000 0.500000 0.000000
O O5 0.115531 0.904691 0.292481
O O6 0.941081 0.647448 0.501418
O O7 0.088963 0.011871 0.799598
O O8 0.000000 0.000000 0.500000
O O9 0.264066 0.143226 0.733162
O O10 0.290123 0.025747 0.217293
O O11 0.761118 0.624912 0.323934
O O12 0.753195 0.374352 0.500357
O O13 0.780369 0.679129 0.833775
O O14 0.147468 0.676401 0.315585
O O15 0.150451 0.717493 0.839714
#
# Coordination Sequence:
#
# PCOD9089367 Si02
#       7
#     2   2   2   2   2   2   2
#     4  10  19  37  69 100 126 164 227 286 325 379
#     4  11  24  45  73 102 129 175 236 279 318 390
#     4   9  21  38  64  98 130 168 218 277 333 388
#     4  11  22  39  64  96 133 169 218 270 334 380
#     4  10  21  38  63  98 128 163 217 287 318 369
#     4  12  26  46  65  96 143 185 214 268 337 409
#     4  11  27  47  67  96 143 181 214 266 348 401
#
# _framework density 22.803851999999999
#
# number of rings (size 3 to 8) (size 9 to 14) (size 15 to 20)
#    0.000    1.429    2.857    1.714    2.000    5.143 
#    0.000    1.429    0.000    0.000    0.000    0.000 
#    0.000    0.000    0.000    0.000    0.000    0.000 
#
# Total GULP energy -78288.855380 kJ/mol
# GULP energy per Si atom -5592.061099 kJ/mol
# Density = 2.275195 g / cm^3
# Si number density = 22.803852 Si / 1000 Ang^3
#
#
#
# Elastic Constant Matrix: (Units=GPa)
#
#
# Indices 1 2 3 4 5 6 
#
# 1 155.3805 46.8771 28.5124 4.5874 -10.4375 16.2699
# 2 46.8771 85.3598 18.2289 9.1429 9.6845 2.3435
# 3 28.5124 18.2289 26.8270 -24.3334 1.4694 -5.7658
# 4 4.5874 9.1429 -24.3334 16.3573 0.8853 9.1515
# 5 -10.4375 9.6845 1.4694 0.8853 31.7410 3.8957
# 6 16.2699 2.3435 -5.7658 9.1515 3.8957 44.4266
#
#
#
# Elastic Compliance Matrix: (Units=1/GPa)
#
#
# Indices 1 2 3 4 5 6 
#
# 1 0.008245 -0.007086 0.004549 0.010783 0.004940 -0.004710
# 2 -0.007086 0.012034 0.013127 0.014439 -0.007174 0.001318
# 3 0.004549 0.013127 -0.038925 -0.070499 0.000390 0.007078
# 4 0.010783 0.014439 -0.070499 -0.053239 0.004290 -0.003270
# 5 0.004940 -0.007174 0.000390 0.004290 0.035844 -0.005407
# 6 -0.004710 0.001318 0.007078 -0.003270 -0.005407 0.026231
#
#
# Mechanical properties :
#
#
# Convention : Reuss Voigt Hill
#
# Bulk Modulus (GPa) = 394.44247 50.53381 222.48814
# Shear Modulus (GPa) = -165.87001 30.10158 -67.88422
#
# Velocity S-wave (km/s) = -8.53789 3.63715 -5.46199
# Velocity P-wave (km/s) = 8.72658 6.31243 7.61577
#
# Compressibility (1/GPa) = 0.00253522
#
# Stress axis : x y z
#
# Youngs Moduli (GPa) = 121.27885 83.09644 -25.69060
#
# Poissons Ratio (x) = 0.58880 0.11686
# Poissons Ratio (y) = 0.85935 0.33724
# Poissons Ratio (z) = -0.55168 -1.09080
#
# Static dielectric constant tensor:
#      x y z
#    x 1.944460 0.018050 0.029810 
#    y 0.018050 1.870600 -0.054380 
#    z 0.029810 -0.054380 1.894170 
# 
# From -- ./inp_files/39272.got.cif
#   From: 2010.05.17/outbox.cif.g08.bks.cpg/sg2_20_cif.got.tgz:39272.got - 2010.06.03 11:33:40.
