data_PCOD9089833
_publ_section_title
;
Structure prediction by ZEFSAII (Michael W. Deem and Ramdas Pophale) SiO2 
 PCOD9089833
Probable space group: P -1
;
_chemical_formula_sum "Si O2"
_cell_formula_units_Z 16
_cell_length_a 9.545498
_cell_length_b 19.353199
_cell_length_c 20.466760
_cell_angle_alpha 158.612571
_cell_angle_beta 142.926539
_cell_angle_gamma 48.107646
_cell_volume 781.075186
_symmetry_space_group_name_H-M "P -1"
_symmetry_group_IT_number 2
_symmetry_cell_setting 'triclinic'
loop_
_space_group_symop_operation_xyz
x,y,z
-x,-y,-z
loop_
_atom_site_type_symbol
_atom_site_label
_atom_site_fract_x
_atom_site_fract_y
_atom_site_fract_z
Si Si1 0.403487 0.068539 0.956760
Si Si2 0.060191 0.052982 0.248344
Si Si3 0.395734 0.464942 0.763767
Si Si4 0.627738 0.492544 0.665718
Si Si5 0.764775 0.913650 0.884343
Si Si6 0.647662 0.231702 0.748559
Si Si7 0.857400 0.582111 0.963945
Si Si8 0.842493 0.336773 0.046845
O O1 0.439000 0.303986 0.174974
O O2 0.108187 0.957244 0.758868
O O3 0.500000 0.000000 0.000000
O O4 0.553212 0.016630 0.907048
O O5 0.211352 0.284804 0.493390
O O6 0.212807 0.903496 0.182751
O O7 0.888752 0.944494 0.028717
O O8 0.509569 0.337464 0.742333
O O9 0.251686 0.580458 0.852606
O O10 0.627360 0.614992 0.943098
O O11 0.395641 0.312096 0.394480
O O12 0.865549 0.549366 0.756400
O O13 0.725885 0.447755 0.733768
O O14 0.000000 0.000000 0.000000
O O15 0.916304 0.244798 0.831983
O O16 0.500000 0.000000 0.500000
O O17 0.703639 0.357899 0.947641
O O18 0.000000 0.500000 0.000000
#
# Coordination Sequence:
#
# PCOD9089833 Si02
#       8
#     2   2   2   2   2   2   2   2
#     4   9  21  38  58  85 114 154 203 238 295 345
#     4  10  21  36  57  83 116 149 192 243 285 343
#     4  11  20  36  61  84 120 152 192 245 292 345
#     4  10  21  40  61  82 123 156 194 251 291 351
#     4  11  23  37  57  86 116 155 200 238 295 356
#     4  10  19  38  62  82 119 153 193 242 291 351
#     4   9  21  38  61  87 119 158 188 241 306 346
#     4  10  21  36  60  89 107 152 201 234 292 352
#
# _framework density 20.484582
#
# number of rings (size 3 to 8) (size 9 to 14) (size 15 to 20)
#    0.000    2.000    1.250    1.875    0.000    8.000 
#    0.000    0.625    2.750    0.000    0.000    0.000 
#    0.000    0.000    0.000    0.000    0.000    0.000 
#
# Total GULP energy -89115.844992 kJ/mol
# GULP energy per Si atom -5569.740312 kJ/mol
# Density = 2.043796 g / cm^3
# Si number density = 20.484582 Si / 1000 Ang^3
#
#
#
# Elastic Constant Matrix: (Units=GPa)
#
#
# Indices 1 2 3 4 5 6 
#
# 1 151.8180 15.6335 43.1283 9.9446 10.4609 -28.1346
# 2 15.6335 49.1495 14.1618 -5.5378 -10.8981 -5.2220
# 3 43.1283 14.1618 104.0855 -6.6583 14.1974 -8.2168
# 4 9.9446 -5.5378 -6.6583 22.3894 2.1822 -13.1710
# 5 10.4609 -10.8981 14.1974 2.1822 21.0623 -5.2455
# 6 -28.1346 -5.2220 -8.2168 -13.1710 -5.2455 29.5934
#
#
#
# Elastic Compliance Matrix: (Units=1/GPa)
#
#
# Indices 1 2 3 4 5 6 
#
# 1 0.008998 -0.001907 -0.002784 -0.001258 -0.001814 0.006563
# 2 -0.001907 0.029149 -0.004434 0.010991 0.020527 0.010630
# 3 -0.002784 -0.004434 0.013178 0.005588 -0.010144 0.000919
# 4 -0.001258 0.010991 0.005588 0.069060 0.003783 0.033702
# 5 -0.001814 0.020527 -0.010144 0.003783 0.068668 0.012936
# 6 0.006563 0.010630 0.000919 0.033702 0.012936 0.059455
#
#
# Mechanical properties :
#
#
# Convention : Reuss Voigt Hill
#
# Bulk Modulus (GPa) = 30.23255 50.10002 40.16629
# Shear Modulus (GPa) = 17.99980 30.08432 24.04206
#
# Velocity S-wave (km/s) = 2.96750 3.83643 3.42960
# Velocity P-wave (km/s) = 5.15094 6.64340 5.94420
#
# Compressibility (1/GPa) = 0.03307693
#
# Stress axis : x y z
#
# Youngs Moduli (GPa) = 111.14007 34.30621 75.88460
#
# Poissons Ratio (x) = 0.06540 0.21124
# Poissons Ratio (y) = 0.21189 0.33645
# Poissons Ratio (z) = 0.30939 0.15210
#
# Static dielectric constant tensor:
#      x y z
#    x 1.779100 0.011910 0.028200 
#    y 0.011910 1.784750 -0.020180 
#    z 0.028200 -0.020180 1.719010 
# 
# From -- ./inp_files/39964.got.cif
#   From: 2010.05.17/outbox.cif.g08.bks.cpg/sg2_20_cif.got.tgz:39964.got - 2010.06.03 11:33:40.
