data_PCOD9089426
_publ_section_title
;
Structure prediction by ZEFSAII (Michael W. Deem and Ramdas Pophale) SiO2 
 PCOD9089426
Probable space group: P -1
;
_chemical_formula_sum "Si O2"
_cell_formula_units_Z 14
_cell_length_a 21.988030
_cell_length_b 8.653208
_cell_length_c 10.367507
_cell_angle_alpha 75.151695
_cell_angle_beta 144.523446
_cell_angle_gamma 132.796175
_cell_volume 602.032155
_symmetry_space_group_name_H-M "P -1"
_symmetry_group_IT_number 2
_symmetry_cell_setting 'triclinic'
loop_
_space_group_symop_operation_xyz
x,y,z
-x,-y,-z
loop_
_atom_site_type_symbol
_atom_site_label
_atom_site_fract_x
_atom_site_fract_y
_atom_site_fract_z
Si Si1 0.888256 0.247833 0.961474
Si Si2 0.587036 0.970324 0.989402
Si Si3 0.347138 0.240623 0.686752
Si Si4 0.876009 0.236125 0.243725
Si Si5 0.187677 0.405641 0.743745
Si Si6 0.501701 0.375826 0.642936
Si Si7 0.162337 0.308674 0.428257
O O1 0.662492 0.961854 0.602789
O O2 0.907909 0.314870 0.132307
O O3 0.000000 0.500000 0.000000
O O4 0.978029 0.184430 0.111822
O O5 0.357079 0.658492 0.655484
O O6 0.675744 0.970357 0.256453
O O7 0.664392 0.995042 0.982978
O O8 0.674136 0.258727 0.097510
O O9 0.434942 0.353713 0.671992
O O10 0.175521 0.150511 0.420499
O O11 0.500000 0.500000 0.000000
O O12 0.000000 0.500000 0.500000
O O13 0.970900 0.185367 0.440430
O O14 0.185856 0.323338 0.619281
O O15 0.287014 0.425987 0.017812
O O16 0.500000 0.500000 0.500000
#
# Coordination Sequence:
#
# PCOD9089426 Si02
#       7
#     2   2   2   2   2   2   2
#     4  11  26  44  67 102 142 176 223 285 345 393
#     4  10  19  37  73  95 124 167 246 278 313 387
#     4  10  22  40  68  94 129 177 231 272 329 410
#     4   9  22  40  67  98 127 169 230 280 321 399
#     4  10  20  41  67  97 125 183 230 274 328 409
#     4  12  27  43  65 101 147 175 217 286 352 395
#     4  10  21  40  68  93 127 182 230 263 336 411
#
# _framework density 23.254570999999999
#
# number of rings (size 3 to 8) (size 9 to 14) (size 15 to 20)
#    0.000    1.714    2.857    1.286   10.000    1.714 
#    5.143    6.429    0.000    0.000    0.000    0.000 
#    0.000    0.000    0.000    0.000    0.000    0.000 
#
# Total GULP energy -78244.187434 kJ/mol
# GULP energy per Si atom -5588.870531 kJ/mol
# Density = 2.320164 g / cm^3
# Si number density = 23.254571 Si / 1000 Ang^3
#
#
#
# Elastic Constant Matrix: (Units=GPa)
#
#
# Indices 1 2 3 4 5 6 
#
# 1 120.4860 18.1428 21.5122 -19.2101 -17.1872 16.0040
# 2 18.1428 115.6218 16.7607 -19.8273 -18.6550 10.2889
# 3 21.5122 16.7607 79.7817 -13.7994 -12.5748 5.6872
# 4 -19.2101 -19.8273 -13.7994 47.4173 4.7466 -1.2682
# 5 -17.1872 -18.6550 -12.5748 4.7466 31.3377 -5.5855
# 6 16.0040 10.2889 5.6872 -1.2682 -5.5855 30.3151
#
#
#
# Elastic Compliance Matrix: (Units=1/GPa)
#
#
# Indices 1 2 3 4 5 6 
#
# 1 0.010160 0.000171 -0.001282 0.003310 0.003887 -0.004327
# 2 0.000171 0.010365 -0.000627 0.003653 0.005030 -0.002411
# 3 -0.001282 -0.000627 0.014217 0.002929 0.004022 -0.000914
# 4 0.003310 0.003653 0.002929 0.024646 0.001019 -0.002318
# 5 0.003887 0.005030 0.004022 0.001019 0.038979 0.002711
# 6 -0.004327 -0.002411 -0.000914 -0.002318 0.002711 0.036663
#
#
# Mechanical properties :
#
#
# Convention : Reuss Voigt Hill
#
# Bulk Modulus (GPa) = 31.98274 47.63565 39.80920
# Shear Modulus (GPa) = 33.57306 39.11228 36.34267
#
# Velocity S-wave (km/s) = 3.80375 4.10557 3.95754
# Velocity P-wave (km/s) = 5.75105 6.55768 6.16756
#
# Compressibility (1/GPa) = 0.03126686
#
# Stress axis : x y z
#
# Youngs Moduli (GPa) = 98.42825 96.47414 70.33688
#
# Poissons Ratio (x) = -0.01653 0.09016
# Poissons Ratio (y) = -0.01687 0.04412
# Poissons Ratio (z) = 0.12617 0.06052
#
# Static dielectric constant tensor:
#      x y z
#    x 1.949440 -0.007820 0.053500 
#    y -0.007820 1.997660 0.005200 
#    z 0.053500 0.005200 1.888810 
# 
# From -- ./inp_files/343584.got.cif
#   From: 2010.05.17/outbox.cif.g08.bks.cpg/sg2_172_cif.got.tgz:343584.got - 2010.06.03 11:33:40.
