data_PCOD9089528
_publ_section_title
;
Structure prediction by ZEFSAII (Michael W. Deem and Ramdas Pophale) SiO2 
 PCOD9089528
Probable space group: P -1
;
_chemical_formula_sum "Si O2"
_cell_formula_units_Z 14
_cell_length_a 12.864471
_cell_length_b 16.079731
_cell_length_c 11.266115
_cell_angle_alpha 45.430298
_cell_angle_beta 42.879641
_cell_angle_gamma 24.866569
_cell_volume 661.261539
_symmetry_space_group_name_H-M "P -1"
_symmetry_group_IT_number 2
_symmetry_cell_setting 'triclinic'
loop_
_space_group_symop_operation_xyz
x,y,z
-x,-y,-z
loop_
_atom_site_type_symbol
_atom_site_label
_atom_site_fract_x
_atom_site_fract_y
_atom_site_fract_z
Si Si1 0.313651 0.504277 0.173750
Si Si2 0.679986 0.924210 0.533346
Si Si3 0.745515 0.128671 0.333900
Si Si4 0.122861 0.104716 0.968729
Si Si5 0.618475 0.048214 0.706595
Si Si6 0.702257 0.671837 0.849792
Si Si7 0.129332 0.279021 0.009593
O O1 0.453515 0.351574 0.318241
O O2 0.317460 0.409972 0.156917
O O3 0.500000 0.500000 0.000000
O O4 0.022848 0.737451 0.175918
O O5 0.517512 0.058395 0.654986
O O6 0.830134 0.712679 0.652785
O O7 0.500000 0.000000 0.500000
O O8 0.816233 0.965514 0.365878
O O9 0.944427 0.105204 0.154735
O O10 0.743111 0.090348 0.512088
O O11 0.122259 0.188423 0.000026
O O12 0.409159 0.883246 0.920340
O O13 0.821686 0.827588 0.808036
O O14 0.386317 0.196227 0.846737
O O15 0.872754 0.514440 0.971632
#
# Coordination Sequence:
#
# PCOD9089528 Si02
#       7
#     2   2   2   2   2   2   2
#     4   9  19  35  55  84 114 151 190 229 291 339
#     4  10  19  38  58  87 115 147 195 238 289 337
#     4   9  19  36  58  83 117 148 191 240 288 332
#     4  10  20  37  59  85 117 152 191 236 289 346
#     4   9  20  40  58  85 115 151 197 241 279 342
#     4  11  20  37  58  84 116 155 189 237 287 345
#     4  10  21  39  61  83 115 155 197 234 287 337
#
# _framework density 21.171654
#
# number of rings (size 3 to 8) (size 9 to 14) (size 15 to 20)
#    0.857    1.429    2.857    0.000    0.000    3.429 
#    2.571    6.429    0.000    0.000    0.000    0.000 
#    0.000    0.000    0.000    0.000    0.000    0.000 
#
# Total GULP energy -77959.021839 kJ/mol
# GULP energy per Si atom -5568.501560 kJ/mol
# Density = 2.112347 g / cm^3
# Si number density = 21.171654 Si / 1000 Ang^3
#
#
#
# Elastic Constant Matrix: (Units=GPa)
#
#
# Indices 1 2 3 4 5 6 
#
# 1 38.3818 6.9247 9.6013 -5.6250 -8.9746 5.3600
# 2 6.9247 137.6468 44.2692 -28.5173 3.2153 -21.2882
# 3 9.6013 44.2692 93.5722 -35.8894 -0.9075 -6.3527
# 4 -5.6250 -28.5173 -35.8894 30.2781 -4.6150 7.5411
# 5 -8.9746 3.2153 -0.9075 -4.6150 39.8037 -11.4637
# 6 5.3600 -21.2882 -6.3527 7.5411 -11.4637 31.1880
#
#
#
# Elastic Compliance Matrix: (Units=1/GPa)
#
#
# Indices 1 2 3 4 5 6 
#
# 1 0.029350 -0.000980 -0.000487 0.006130 0.005923 -0.005117
# 2 -0.000980 0.009979 -0.002129 0.005464 0.001189 0.005662
# 3 -0.000487 -0.002129 0.020486 0.023041 0.002688 -0.001779
# 4 0.006130 0.005464 0.023041 0.069432 0.007609 -0.006622
# 5 0.005923 0.001189 0.002688 0.007609 0.030056 0.009549
# 6 -0.005117 0.005662 -0.001779 -0.006622 0.009549 0.041556
#
#
# Mechanical properties :
#
#
# Convention : Reuss Voigt Hill
#
# Bulk Modulus (GPa) = 19.00246 43.46569 31.23408
# Shear Modulus (GPa) = 22.16383 34.17435 28.16909
#
# Velocity S-wave (km/s) = 3.23904 4.02201 3.65157
# Velocity P-wave (km/s) = 4.79410 6.49180 5.70644
#
# Compressibility (1/GPa) = 0.05262476
#
# Stress axis : x y z
#
# Youngs Moduli (GPa) = 34.07104 100.21191 48.81290
#
# Poissons Ratio (x) = 0.09818 0.02377
# Poissons Ratio (y) = 0.03338 0.10391
# Poissons Ratio (z) = 0.01659 0.21332
#
# Static dielectric constant tensor:
#      x y z
#    x 1.799890 -0.006130 -0.009280 
#    y -0.006130 1.784180 -0.014360 
#    z -0.009280 -0.014360 1.859820 
# 
# From -- ./inp_files/95514.got.cif
#   From: 2010.05.17/outbox.cif.g08.bks.cpg/sg2_48_cif.got.tgz:95514.got - 2010.06.03 11:33:40.
