data_PCOD9089081
_publ_section_title
;
Structure prediction by ZEFSAII (Michael W. Deem and Ramdas Pophale) SiO2 
 PCOD9089081
Probable space group: P -1
;
_chemical_formula_sum "Si O2"
_cell_formula_units_Z 12
_cell_length_a 14.823824
_cell_length_b 5.429310
_cell_length_c 9.878747
_cell_angle_alpha 122.829677
_cell_angle_beta 48.219319
_cell_angle_gamma 104.779435
_cell_volume 490.997097
_symmetry_space_group_name_H-M "P -1"
_symmetry_group_IT_number 2
_symmetry_cell_setting 'triclinic'
loop_
_space_group_symop_operation_xyz
x,y,z
-x,-y,-z
loop_
_atom_site_type_symbol
_atom_site_label
_atom_site_fract_x
_atom_site_fract_y
_atom_site_fract_z
Si Si1 0.730463 0.745507 0.565808
Si Si2 0.460855 0.715210 0.735795
Si Si3 0.460592 0.328155 0.852511
Si Si4 0.946494 0.696849 0.984205
Si Si5 0.950917 0.700458 0.484369
Si Si6 0.729200 0.086245 0.408384
O O1 0.583981 0.790264 0.711879
O O2 0.802991 0.768011 0.637627
O O3 0.762148 0.388248 0.402804
O O4 0.772015 0.976765 0.485860
O O5 0.500000 0.500000 0.500000
O O6 0.397511 0.558168 0.871813
O O7 0.395163 0.045383 0.860952
O O8 0.583474 0.167946 0.599514
O O9 0.500000 0.500000 0.000000
O O10 0.799805 0.806714 0.174082
O O11 0.000000 0.500000 0.000000
O O12 0.991623 0.496585 0.755370
O O13 0.000000 0.000000 0.000000
O O14 0.000000 0.500000 0.500000
O O15 0.000000 0.000000 0.500000
#
# Coordination Sequence:
#
# PCOD9089081 Si02
#       6
#     2   2   2   2   2   2
#     4  10  20  38  64  86 130 161 206 258 315 365
#     4  10  21  39  70  92 124 162 212 262 320 380
#     4  10  21  38  68  93 129 164 204 264 332 371
#     4  12  21  38  67  88 123 176 211 254 316 372
#     4  12  24  38  62  93 131 166 213 260 312 372
#     4  10  19  37  65  88 119 165 218 241 319 376
#
# _framework density 24.440066000000002
#
# number of rings (size 3 to 8) (size 9 to 14) (size 15 to 20)
#    0.000    1.333    3.333    3.000    0.000    0.000 
#    0.000    0.000   88.000    0.000    0.000    0.000 
#    0.000    0.000    0.000    0.000    0.000    0.000 
#
# Total GULP energy -66881.848147 kJ/mol
# GULP energy per Si atom -5573.487346 kJ/mol
# Density = 2.438444 g / cm^3
# Si number density = 24.440066 Si / 1000 Ang^3
#
#
#
# Elastic Constant Matrix: (Units=GPa)
#
#
# Indices 1 2 3 4 5 6 
#
# 1 91.5549 29.7072 16.2704 -4.0501 9.2842 -11.1650
# 2 29.7072 220.9077 33.4608 13.9355 36.9782 -33.0531
# 3 16.2704 33.4608 112.8934 5.6513 12.4736 2.7299
# 4 -4.0501 13.9355 5.6513 36.1884 -8.3825 14.9864
# 5 9.2842 36.9782 12.4736 -8.3825 42.1561 -0.6984
# 6 -11.1650 -33.0531 2.7299 14.9864 -0.6984 40.1287
#
#
#
# Elastic Compliance Matrix: (Units=1/GPa)
#
#
# Indices 1 2 3 4 5 6 
#
# 1 0.011905 -0.000818 -0.001412 0.000513 -0.001343 0.002520
# 2 -0.000818 0.008292 -0.001194 -0.009169 -0.008399 0.009962
# 3 -0.001412 -0.001194 0.009691 -0.000892 -0.001715 -0.001732
# 4 0.000513 -0.009169 -0.000892 0.045152 0.016776 -0.023920
# 5 -0.001343 -0.008399 -0.001715 0.016776 0.035015 -0.012831
# 6 0.002520 0.009962 -0.001732 -0.023920 -0.012831 0.042654
#
#
# Mechanical properties :
#
#
# Convention : Reuss Voigt Hill
#
# Bulk Modulus (GPa) = 43.39836 64.91477 54.15657
# Shear Modulus (GPa) = 29.89771 46.75582 38.32677
#
# Velocity S-wave (km/s) = 3.50138 4.37862 3.96434
# Velocity P-wave (km/s) = 5.84310 7.22368 6.56975
#
# Compressibility (1/GPa) = 0.02304234
#
# Stress axis : x y z
#
# Youngs Moduli (GPa) = 84.00004 120.59126 103.18552
#
# Poissons Ratio (x) = 0.09859 0.14566
# Poissons Ratio (y) = 0.06868 0.12319
# Poissons Ratio (z) = 0.11858 0.14397
#
# Static dielectric constant tensor:
#      x y z
#    x 2.009880 0.048240 -0.038800 
#    y 0.048240 2.086900 -0.038400 
#    z -0.038800 -0.038400 1.977890 
# 
# From -- ./inp_files/88351.got.cif
#   From: 2010.05.17/outbox.cif.g08.bks.cpg/sg2_45_cif.got.tgz:88351.got - 2010.06.03 11:33:40.
