data_PCOD9089914
_publ_section_title
;
Structure prediction by ZEFSAII (Michael W. Deem and Ramdas Pophale) SiO2 
 PCOD9089914
Probable space group: P -1
;
_chemical_formula_sum "Si O2"
_cell_formula_units_Z 16
_cell_length_a 15.046395
_cell_length_b 8.884214
_cell_length_c 14.627047
_cell_angle_alpha 121.054288
_cell_angle_beta 28.768071
_cell_angle_gamma 109.134848
_cell_volume 768.576153
_symmetry_space_group_name_H-M "P -1"
_symmetry_group_IT_number 2
_symmetry_cell_setting 'triclinic'
loop_
_space_group_symop_operation_xyz
x,y,z
-x,-y,-z
loop_
_atom_site_type_symbol
_atom_site_label
_atom_site_fract_x
_atom_site_fract_y
_atom_site_fract_z
Si Si1 0.258652 0.237798 0.481114
Si Si2 0.194629 0.880334 0.334269
Si Si3 0.221130 0.899407 0.734652
Si Si4 0.566858 0.929742 0.555795
Si Si5 0.400117 0.890842 0.984855
Si Si6 0.710298 0.807094 0.969209
Si Si7 0.213153 0.525680 0.319789
Si Si8 0.881125 0.409583 0.377116
O O1 0.295408 0.224986 0.551262
O O2 0.097926 0.411524 0.638762
O O3 0.248653 0.040177 0.392410
O O4 0.453577 0.246143 0.257435
O O5 0.307976 0.793175 0.112605
O O6 0.193128 0.718650 0.352047
O O7 0.000000 0.000000 0.500000
O O8 0.390105 0.875877 0.650375
O O9 0.210718 0.707777 0.642876
O O10 0.298280 0.007931 0.618946
O O11 0.000000 0.000000 0.000000
O O12 0.452146 0.092907 0.779859
O O13 0.272102 0.046630 0.079498
O O14 0.500000 0.000000 0.000000
O O15 0.658429 0.645437 0.908768
O O16 0.911198 0.719627 0.814119
O O17 0.249395 0.528396 0.395148
O O18 0.000000 0.500000 0.500000
#
# Coordination Sequence:
#
# PCOD9089914 Si02
#       8
#     2   2   2   2   2   2   2   2
#     4  10  22  40  58  92 129 162 210 265 322 380
#     4  11  19  33  56  87 128 173 212 251 314 380
#     4  11  23  44  71  95 122 168 220 269 327 382
#     4  10  23  43  69  94 127 167 217 267 325 386
#     4   9  19  35  54  80 124 168 201 253 310 369
#     4  10  19  38  62  90 129 168 213 259 316 389
#     4  10  20  32  56  93 130 164 209 257 306 380
#     4  11  21  38  64  92 127 169 214 264 321 381
#
# _framework density 20.817715
#
# number of rings (size 3 to 8) (size 9 to 14) (size 15 to 20)
#    0.000    1.750    1.250    5.250    0.000    1.500 
#    0.000    7.500    0.000    0.000    0.000    0.000 
#    0.000    0.000    0.000    0.000    0.000    0.000 
#
# Total GULP energy -89193.179988 kJ/mol
# GULP energy per Si atom -5574.573749 kJ/mol
# Density = 2.077033 g / cm^3
# Si number density = 20.817715 Si / 1000 Ang^3
#
#
#
# Elastic Constant Matrix: (Units=GPa)
#
#
# Indices 1 2 3 4 5 6 
#
# 1 136.7266 63.5172 41.5782 3.8343 5.8717 -21.6448
# 2 63.5172 119.4037 23.8543 1.0299 2.2439 -19.7304
# 3 41.5782 23.8543 62.8507 -6.8812 3.4331 0.6834
# 4 3.8343 1.0299 -6.8812 27.1726 -2.6653 3.7812
# 5 5.8717 2.2439 3.4331 -2.6653 32.0401 11.1036
# 6 -21.6448 -19.7304 0.6834 3.7812 11.1036 46.6750
#
#
#
# Elastic Compliance Matrix: (Units=1/GPa)
#
#
# Indices 1 2 3 4 5 6 
#
# 1 0.012563 -0.004298 -0.007037 -0.004468 -0.003454 0.005295
# 2 -0.004298 0.011539 -0.001601 -0.000785 -0.001029 0.003216
# 3 -0.007037 -0.001601 0.021970 0.007489 0.001480 -0.005220
# 4 -0.004468 -0.000785 0.007489 0.040956 0.005993 -0.007257
# 5 -0.003454 -0.001029 0.001480 0.005993 0.036115 -0.011135
# 6 0.005295 0.003216 -0.005220 -0.007257 -0.011135 0.028553
#
#
# Mechanical properties :
#
#
# Convention : Reuss Voigt Hill
#
# Bulk Modulus (GPa) = 49.50881 64.09782 56.80332
# Shear Modulus (GPa) = 27.12965 33.84630 30.48798
#
# Velocity S-wave (km/s) = 3.61390 4.03655 3.83106
# Velocity P-wave (km/s) = 6.42242 7.25133 6.84942
#
# Compressibility (1/GPa) = 0.02019842
#
# Stress axis : x y z
#
# Youngs Moduli (GPa) = 79.60097 86.66444 45.51760
#
# Poissons Ratio (x) = 0.37252 0.32032
# Poissons Ratio (y) = 0.34216 0.07285
# Poissons Ratio (z) = 0.56018 0.13871
#
# Static dielectric constant tensor:
#      x y z
#    x 1.761660 0.004700 -0.012450 
#    y 0.004700 1.773130 -0.016170 
#    z -0.012450 -0.016170 1.862680 
# 
# From -- ./inp_files/314767.got.cif
#   From: 2010.05.17/outbox.cif.g08.bks.cpg/sg2_158_cif.got.tgz:314767.got - 2010.06.03 11:33:40.
