data_PCOD9089266
_publ_section_title
;
Structure prediction by ZEFSAII (Michael W. Deem and Ramdas Pophale) SiO2 
 PCOD9089266
Probable space group: P -1
;
_chemical_formula_sum "Si O2"
_cell_formula_units_Z 16
_cell_length_a 9.906379
_cell_length_b 11.583136
_cell_length_c 27.367214
_cell_angle_alpha 21.635315
_cell_angle_beta 43.941501
_cell_angle_gamma 45.684522
_cell_volume 798.158685
_symmetry_space_group_name_H-M "P -1"
_symmetry_group_IT_number 2
_symmetry_cell_setting 'triclinic'
loop_
_space_group_symop_operation_xyz
x,y,z
-x,-y,-z
loop_
_atom_site_type_symbol
_atom_site_label
_atom_site_fract_x
_atom_site_fract_y
_atom_site_fract_z
Si Si1 0.535461 0.514675 0.066021
Si Si2 0.956278 0.215838 0.746310
Si Si3 0.485991 0.154430 0.495978
Si Si4 0.843874 0.732722 0.783993
Si Si5 0.272903 0.791797 0.774495
Si Si6 0.673735 0.128863 0.763762
Si Si7 0.076439 0.044673 0.516277
Si Si8 0.984152 0.329968 0.986232
O O1 0.362001 0.364911 0.143412
O O2 0.559305 0.406979 0.158611
O O3 0.754007 0.396375 0.034973
O O4 0.517387 0.887477 0.913031
O O5 0.802030 0.141849 0.774184
O O6 0.935222 0.584793 0.615106
O O7 0.163538 0.071510 0.725966
O O8 0.938482 0.017987 0.878578
O O9 0.407326 0.519708 0.367918
O O10 0.500000 0.000000 0.500000
O O11 0.353447 0.955900 0.642111
O O12 0.702053 0.112920 0.477589
O O13 0.978131 0.435510 0.890029
O O14 0.798503 0.976206 0.745227
O O15 0.952760 0.886561 0.651652
O O16 0.114016 0.559146 0.891939
O O17 0.000000 0.000000 0.500000
#
# Coordination Sequence:
#
# PCOD9089266 Si02
#       8
#     2   2   2   2   2   2   2   2
#     4  10  20  39  64 102 126 154 203 271 323 363
#     4  11  21  41  70  96 123 164 210 267 313 371
#     4  12  26  40  61  93 131 169 212 259 307 371
#     4  11  23  41  70  94 127 167 209 259 315 378
#     4  11  20  39  67  96 126 159 211 263 313 375
#     4  11  21  41  69  99 123 158 216 265 314 368
#     4  12  28  47  59  89 137 176 207 255 316 374
#     4  10  19  37  67 103 123 151 211 271 316 364
#
# _framework density 20.046139
#
# number of rings (size 3 to 8) (size 9 to 14) (size 15 to 20)
#    0.000    1.000    5.000    4.500    0.000    4.000 
#    0.000   11.875    0.000    0.000    0.000    0.000 
#    0.000    0.000    0.000    0.000    0.000    0.000 
#
# Total GULP energy -89376.081724 kJ/mol
# GULP energy per Si atom -5586.005108 kJ/mol
# Density = 2.000051 g / cm^3
# Si number density = 20.046139 Si / 1000 Ang^3
#
#
#
# Elastic Constant Matrix: (Units=GPa)
#
#
# Indices 1 2 3 4 5 6 
#
# 1 127.4493 9.2733 41.9848 5.3834 13.0446 -2.3904
# 2 9.2733 29.9347 39.4056 6.8094 7.7935 -2.1507
# 3 41.9848 39.4056 164.8852 17.5578 26.1227 0.1064
# 4 5.3834 6.8094 17.5578 -42.7556 2.8779 -11.7218
# 5 13.0446 7.7935 26.1227 2.8779 40.0167 1.7539
# 6 -2.3904 -2.1507 0.1064 -11.7218 1.7539 16.4861
#
#
#
# Elastic Compliance Matrix: (Units=1/GPa)
#
#
# Indices 1 2 3 4 5 6 
#
# 1 0.008689 0.000617 -0.002083 -0.000161 -0.001643 0.001414
# 2 0.000617 0.049647 -0.011709 0.000922 -0.002625 0.007577
# 3 -0.002083 -0.011709 0.009769 0.001726 -0.003529 -0.000290
# 4 -0.000161 0.000922 0.001726 -0.018838 0.000687 -0.013382
# 5 -0.001643 -0.002625 -0.003529 0.000687 0.028426 -0.003093
# 6 0.001414 0.007577 -0.000290 -0.013382 -0.003093 0.052667
#
#
# Mechanical properties :
#
#
# Convention : Reuss Voigt Hill
#
# Bulk Modulus (GPa) = 23.95014 55.95518 39.95266
# Shear Modulus (GPa) = 29.30321 18.18980 23.74651
#
# Velocity S-wave (km/s) = 3.82748 3.01557 3.44553
# Velocity P-wave (km/s) = 5.61304 6.33235 5.98352
#
# Compressibility (1/GPa) = 0.04175341
#
# Stress axis : x y z
#
# Youngs Moduli (GPa) = 115.08559 20.14226 102.36296
#
# Poissons Ratio (x) = -0.01242 0.21326
# Poissons Ratio (y) = -0.07098 1.19860
# Poissons Ratio (z) = 0.23976 0.23585
#
# Static dielectric constant tensor:
#      x y z
#    x 1.699850 0.003700 0.028630 
#    y 0.003700 1.702510 0.016050 
#    z 0.028630 0.016050 1.729440 
# 
# From -- ./inp_files/227522.got.cif
#   From: 2010.05.17/outbox.cif.g08.bks.cpg/sg2_114_cif.got.tgz:227522.got - 2010.06.03 11:33:40.
