data_PCOD9089700
_publ_section_title
;
Structure prediction by ZEFSAII (Michael W. Deem and Ramdas Pophale) SiO2 
 PCOD9089700
Probable space group: P -1
;
_chemical_formula_sum "Si O2"
_cell_formula_units_Z 14
_cell_length_a 16.899850
_cell_length_b 18.233223
_cell_length_c 11.226350
_cell_angle_alpha 150.837828
_cell_angle_beta 149.938556
_cell_angle_gamma 22.136054
_cell_volume 604.221364
_symmetry_space_group_name_H-M "P -1"
_symmetry_group_IT_number 2
_symmetry_cell_setting 'triclinic'
loop_
_space_group_symop_operation_xyz
x,y,z
-x,-y,-z
loop_
_atom_site_type_symbol
_atom_site_label
_atom_site_fract_x
_atom_site_fract_y
_atom_site_fract_z
Si Si1 0.746174 0.316740 0.600345
Si Si2 0.709010 0.653777 0.607573
Si Si3 0.099106 0.990290 0.418562
Si Si4 0.389449 0.606110 0.131707
Si Si5 0.214085 0.362709 0.840608
Si Si6 0.774911 0.752493 0.068786
Si Si7 0.733653 0.649509 0.362363
O O1 0.500000 0.500000 0.500000
O O2 0.773363 0.184857 0.558588
O O3 0.832534 0.425723 0.905825
O O4 0.866044 0.168417 0.430362
O O5 0.572837 0.602969 0.410695
O O6 0.676411 0.796097 0.871199
O O7 0.648235 0.739691 0.513714
O O8 0.971452 0.446691 0.645477
O O9 0.156832 0.849713 0.180851
O O10 0.174344 0.107010 0.652111
O O11 0.500000 0.500000 0.000000
O O12 0.336850 0.477276 0.929877
O O13 0.329485 0.241202 0.694340
O O14 0.338849 0.232750 0.938931
O O15 0.000000 0.500000 0.000000
O O16 0.000000 0.500000 0.500000
#
# Coordination Sequence:
#
# PCOD9089700 Si02
#       7
#     2   2   2   2   2   2   2
#     4  11  24  40  65 102 143 183 231 301 347 418
#     4   9  19  35  60  94 131 179 226 276 350 406
#     4  11  23  42  68 100 144 186 238 280 371 413
#     4  10  21  38  64 101 128 178 243 279 343 426
#     4  10  19  38  60  97 137 175 225 295 340 404
#     4  10  20  37  63  98 141 173 227 288 346 410
#     4   9  18  35  63  89 126 186 227 275 347 409
#
# _framework density 23.170317000000001
#
# number of rings (size 3 to 8) (size 9 to 14) (size 15 to 20)
#    0.000    2.000    4.286    0.000    2.000    0.571 
#    0.000    0.000    0.000   36.000    0.000    0.000 
#    0.000    0.000    0.000    0.000    0.000    0.000 
#
# Total GULP energy -77947.562953 kJ/mol
# GULP energy per Si atom -5567.683068 kJ/mol
# Density = 2.311758 g / cm^3
# Si number density = 23.170317 Si / 1000 Ang^3
#
#
#
# Elastic Constant Matrix: (Units=GPa)
#
#
# Indices 1 2 3 4 5 6 
#
# 1 181.2985 39.1063 50.2846 15.1064 -19.7423 -7.9134
# 2 39.1063 88.9368 16.8543 8.1663 -3.3830 -5.7676
# 3 50.2846 16.8543 50.8691 10.0187 -11.9713 -2.2606
# 4 15.1064 8.1663 10.0187 27.7357 -13.2577 1.7616
# 5 -19.7423 -3.3830 -11.9713 -13.2577 55.2305 7.9022
# 6 -7.9134 -5.7676 -2.2606 1.7616 7.9022 40.8086
#
#
#
# Elastic Compliance Matrix: (Units=1/GPa)
#
#
# Indices 1 2 3 4 5 6 
#
# 1 0.008080 -0.002085 -0.006862 -0.000902 0.000950 0.000747
# 2 -0.002085 0.012822 -0.001882 -0.002660 -0.001244 0.001659
# 3 -0.006862 -0.001882 0.028592 -0.004816 0.002515 -0.000292
# 4 -0.000902 -0.002660 -0.004816 0.043991 0.009688 -0.004592
# 5 0.000950 -0.001244 0.002515 0.009688 0.021885 -0.004508
# 6 0.000747 0.001659 -0.000292 -0.004592 -0.004508 0.025939
#
#
# Mechanical properties :
#
#
# Convention : Reuss Voigt Hill
#
# Bulk Modulus (GPa) = 35.92512 59.28829 47.60670
# Shear Modulus (GPa) = 29.02823 39.07890 34.05356
#
# Velocity S-wave (km/s) = 3.54336 4.11127 3.83783
# Velocity P-wave (km/s) = 5.68146 6.94120 6.34268
#
# Compressibility (1/GPa) = 0.02783567
#
# Stress axis : x y z
#
# Youngs Moduli (GPa) = 123.76425 77.99119 34.97430
#
# Poissons Ratio (x) = 0.16261 0.23999
# Poissons Ratio (y) = 0.25805 0.06583
# Poissons Ratio (z) = 0.84926 0.14681
#
# Static dielectric constant tensor:
#      x y z
#    x 1.963640 -0.039570 -0.029880 
#    y -0.039570 1.905110 -0.039510 
#    z -0.029880 -0.039510 2.002680 
# 
# From -- ./inp_files/467191.got.cif
#   From: 2010.05.17/outbox.cif.g08.bks.cpg/sg2_234_cif.got.tgz:467191.got - 2010.06.03 11:33:40.
