data_PCOD9089422
_publ_section_title
;
Structure prediction by ZEFSAII (Michael W. Deem and Ramdas Pophale) SiO2 
 PCOD9089422
Probable space group: P -1
;
_chemical_formula_sum "Si O2"
_cell_formula_units_Z 16
_cell_length_a 17.035668
_cell_length_b 8.414717
_cell_length_c 11.704268
_cell_angle_alpha 57.902254
_cell_angle_beta 32.556979
_cell_angle_gamma 62.012493
_cell_volume 764.035658
_symmetry_space_group_name_H-M "P -1"
_symmetry_group_IT_number 2
_symmetry_cell_setting 'triclinic'
loop_
_space_group_symop_operation_xyz
x,y,z
-x,-y,-z
loop_
_atom_site_type_symbol
_atom_site_label
_atom_site_fract_x
_atom_site_fract_y
_atom_site_fract_z
Si Si1 0.024805 0.475599 0.613653
Si Si2 0.198580 0.084593 0.561028
Si Si3 0.361649 0.114287 0.572276
Si Si4 0.751701 0.474903 0.393182
Si Si5 0.126536 0.873373 0.332387
Si Si6 0.342269 0.919457 0.232062
Si Si7 0.910587 0.935447 0.920072
Si Si8 0.093573 0.466596 0.038293
O O1 0.121659 0.289104 0.589706
O O2 0.109402 0.660425 0.469865
O O3 0.000000 0.500000 0.500000
O O4 0.891082 0.488316 0.863669
O O5 0.329467 0.067818 0.497277
O O6 0.252196 0.054526 0.378021
O O7 0.065996 0.943696 0.788272
O O8 0.350875 0.340663 0.521269
O O9 0.500000 0.000000 0.500000
O O10 0.217645 0.052289 0.837888
O O11 0.686602 0.288443 0.599833
O O12 0.920720 0.520989 0.203898
O O13 0.784677 0.450324 0.225871
O O14 0.275869 0.931108 0.182490
O O15 0.109625 0.896728 0.209615
O O16 0.000000 0.000000 0.500000
O O17 0.500000 0.000000 0.000000
O O18 0.899434 0.752768 0.923078
#
# Coordination Sequence:
#
# PCOD9089422 Si02
#       8
#     2   2   2   2   2   2   2   2
#     4  12  21  36  65 109 137 162 218 295 345 393
#     4  12  23  42  65 102 130 171 233 282 335 402
#     4  11  26  44  65  98 140 178 222 283 347 396
#     4  10  20  44  69  92 128 182 228 271 340 408
#     4  12  20  42  66  96 135 172 230 271 334 409
#     4  12  26  44  69  95 137 183 225 276 343 416
#     4  11  22  40  71  94 135 179 221 283 334 405
#     4  10  19  37  72  99 129 172 228 279 333 399
#
# _framework density 20.941431000000001
#
# number of rings (size 3 to 8) (size 9 to 14) (size 15 to 20)
#    0.000    0.750    7.500    0.375    1.750    1.000 
#    2.250    1.875    0.000    0.000    0.000    0.000 
#    0.000    0.000    0.000    0.000    0.000    0.000 
#
# Total GULP energy -89243.211803 kJ/mol
# GULP energy per Si atom -5577.700738 kJ/mol
# Density = 2.089377 g / cm^3
# Si number density = 20.941431 Si / 1000 Ang^3
#
#
#
# Elastic Constant Matrix: (Units=GPa)
#
#
# Indices 1 2 3 4 5 6 
#
# 1 104.3757 6.3147 14.5372 -0.4423 0.7599 3.4443
# 2 6.3147 98.1616 14.7047 -4.8262 -7.9398 2.3053
# 3 14.5372 14.7047 67.8436 -8.1747 -8.4225 5.2784
# 4 -0.4423 -4.8262 -8.1747 27.5045 0.0903 6.4816
# 5 0.7599 -7.9398 -8.4225 0.0903 40.6602 4.0606
# 6 3.4443 2.3053 5.2784 6.4816 4.0606 22.4289
#
#
#
# Elastic Compliance Matrix: (Units=1/GPa)
#
#
# Indices 1 2 3 4 5 6 
#
# 1 0.009925 -0.000372 -0.002103 -0.000345 -0.000615 -0.000780
# 2 -0.000372 0.010737 -0.001689 0.001721 0.001899 -0.001490
# 3 -0.002103 -0.001689 0.017258 0.006215 0.003876 -0.006063
# 4 -0.000345 0.001721 0.006215 0.041841 0.002957 -0.014213
# 5 -0.000615 0.001899 0.003876 0.002957 0.026437 -0.006654
# 6 -0.000780 -0.001490 -0.006063 -0.014213 -0.006654 0.051597
#
#
# Mechanical properties :
#
#
# Convention : Reuss Voigt Hill
#
# Bulk Modulus (GPa) = 33.79139 37.94379 35.86759
# Shear Modulus (GPa) = 28.41105 33.77367 31.09236
#
# Velocity S-wave (km/s) = 3.68732 4.02029 3.85740
# Velocity P-wave (km/s) = 5.85659 6.30148 6.08310
#
# Compressibility (1/GPa) = 0.02959333
#
# Stress axis : x y z
#
# Youngs Moduli (GPa) = 100.75605 93.13277 57.94315
#
# Poissons Ratio (x) = 0.03463 0.12187
# Poissons Ratio (y) = 0.03746 0.09784
# Poissons Ratio (z) = 0.21192 0.15726
#
# Static dielectric constant tensor:
#      x y z
#    x 1.831100 -0.007230 0.036200 
#    y -0.007230 1.811920 -0.032370 
#    z 0.036200 -0.032370 1.754760 
# 
# From -- ./inp_files/461054.got.cif
#   From: 2010.05.17/outbox.cif.g08.bks.cpg/sg2_231_cif.got.tgz:461054.got - 2010.06.03 11:33:40.
