data_PCOD9089954
_publ_section_title
;
Structure prediction by ZEFSAII (Michael W. Deem and Ramdas Pophale) SiO2 
 PCOD9089954
Probable space group: P -1
;
_chemical_formula_sum "Si O2"
_cell_formula_units_Z 16
_cell_length_a 9.148793
_cell_length_b 17.703305
_cell_length_c 12.453213
_cell_angle_alpha 41.184462
_cell_angle_beta 94.604019
_cell_angle_gamma 125.352625
_cell_volume 812.518660
_symmetry_space_group_name_H-M "P -1"
_symmetry_group_IT_number 2
_symmetry_cell_setting 'triclinic'
loop_
_space_group_symop_operation_xyz
x,y,z
-x,-y,-z
loop_
_atom_site_type_symbol
_atom_site_label
_atom_site_fract_x
_atom_site_fract_y
_atom_site_fract_z
Si Si1 0.872628 0.168833 0.798703
Si Si2 0.023214 0.724669 0.550108
Si Si3 0.470431 0.086344 0.324978
Si Si4 0.632398 0.259691 0.759167
Si Si5 0.771814 0.559511 0.299766
Si Si6 0.888963 0.395143 0.854452
Si Si7 0.281823 0.199669 0.295524
Si Si8 0.464444 0.471478 0.196291
O O1 0.977230 0.231355 0.619143
O O2 0.775378 0.238751 0.740685
O O3 0.067262 0.265340 0.798317
O O4 0.642967 0.946141 0.031674
O O5 0.042871 0.599149 0.682165
O O6 0.774903 0.602621 0.722456
O O7 0.244115 0.918425 0.416040
O O8 0.414649 0.167508 0.299415
O O9 0.500000 0.000000 0.500000
O O10 0.703407 0.244974 0.095382
O O11 0.672252 0.394893 0.543730
O O12 0.738451 0.340473 0.798320
O O13 0.572980 0.503755 0.282176
O O14 0.945722 0.606838 0.172265
O O15 0.386666 0.312928 0.291965
O O16 0.344421 0.337029 0.065262
O O17 0.000000 0.000000 0.500000
#
# Coordination Sequence:
#
# PCOD9089954 Si02
#       8
#     2   2   2   2   2   2   2   2
#     4  10  20  36  65  93 135 169 209 264 322 378
#     4  12  22  44  65  94 130 175 206 267 334 373
#     4  12  28  42  70 102 121 166 229 277 315 381
#     4  10  19  38  62  96 132 173 205 265 330 370
#     4  11  23  39  64 103 127 172 220 257 314 396
#     4  11  22  41  66  92 137 166 216 274 321 372
#     4  11  25  49  64  88 135 176 213 267 337 378
#     4  11  27  43  68  92 132 181 212 261 327 394
#
# _framework density 19.691852999999998
#
# number of rings (size 3 to 8) (size 9 to 14) (size 15 to 20)
#    0.000    1.000    6.250    0.750    3.500    2.000 
#    0.000    0.625    0.000    0.000    0.000    0.000 
#    0.000    0.000    0.000    0.000    0.000    0.000 
#
# Total GULP energy -89476.406894 kJ/mol
# GULP energy per Si atom -5592.275431 kJ/mol
# Density = 1.964703 g / cm^3
# Si number density = 19.691853 Si / 1000 Ang^3
#
#
#
# Elastic Constant Matrix: (Units=GPa)
#
#
# Indices 1 2 3 4 5 6 
#
# 1 29.7932 13.4975 8.2072 3.0714 0.8936 -10.2006
# 2 13.4975 66.7271 7.5737 -6.5046 6.6589 -12.4290
# 3 8.2072 7.5737 102.0814 -3.0503 -14.6852 -6.2897
# 4 3.0714 -6.5046 -3.0503 33.4891 -5.0721 0.5634
# 5 0.8936 6.6589 -14.6852 -5.0721 23.8628 6.0450
# 6 -10.2006 -12.4290 -6.2897 0.5634 6.0450 26.7062
#
#
#
# Elastic Compliance Matrix: (Units=1/GPa)
#
#
# Indices 1 2 3 4 5 6 
#
# 1 0.042975 -0.005450 -0.003393 -0.006675 -0.007366 0.014887
# 2 -0.005450 0.018721 -0.001434 0.002765 -0.007313 0.007890
# 3 -0.003393 -0.001434 0.011369 0.002351 0.008333 -0.001221
# 4 -0.006675 0.002765 0.002351 0.032599 0.008707 -0.003368
# 5 -0.007366 -0.007313 0.008333 0.008707 0.055509 -0.017003
# 6 0.014887 0.007890 -0.001221 -0.003368 -0.017003 0.050435
#
#
# Mechanical properties :
#
#
# Convention : Reuss Voigt Hill
#
# Bulk Modulus (GPa) = 19.04397 28.57315 23.80856
# Shear Modulus (GPa) = 20.02686 28.09983 24.06335
#
# Velocity S-wave (km/s) = 3.19252 3.78163 3.49950
# Velocity P-wave (km/s) = 4.82510 5.79735 5.33343
#
# Compressibility (1/GPa) = 0.05251006
#
# Stress axis : x y z
#
# Youngs Moduli (GPa) = 23.26955 53.41672 87.95856
#
# Poissons Ratio (x) = 0.29115 0.29841
# Poissons Ratio (y) = 0.12683 0.12614
# Poissons Ratio (z) = 0.07894 0.07660
#
# Static dielectric constant tensor:
#      x y z
#    x 1.671160 -0.010130 -0.005530 
#    y -0.010130 1.681340 -0.003880 
#    z -0.005530 -0.003880 1.669710 
# 
# From -- ./inp_files/258822.got.cif
#   From: 2010.05.17/outbox.cif.g08.bks.cpg/sg2_130_cif.got.tgz:258822.got - 2010.06.03 11:33:40.
