data_PCOD9089668
_publ_section_title
;
Structure prediction by ZEFSAII (Michael W. Deem and Ramdas Pophale) SiO2 
 PCOD9089668
Probable space group: P -1
;
_chemical_formula_sum "Si O2"
_cell_formula_units_Z 16
_cell_length_a 7.196791
_cell_length_b 15.619791
_cell_length_c 20.512922
_cell_angle_alpha 23.026378
_cell_angle_beta 74.054735
_cell_angle_gamma 59.714033
_cell_volume 644.871071
_symmetry_space_group_name_H-M "P -1"
_symmetry_group_IT_number 2
_symmetry_cell_setting 'triclinic'
loop_
_space_group_symop_operation_xyz
x,y,z
-x,-y,-z
loop_
_atom_site_type_symbol
_atom_site_label
_atom_site_fract_x
_atom_site_fract_y
_atom_site_fract_z
Si Si1 0.228651 0.229524 0.902343
Si Si2 0.292659 0.952990 0.228606
Si Si3 0.199134 0.773670 0.045395
Si Si4 0.836756 0.420746 0.041964
Si Si5 0.750534 0.397678 0.616161
Si Si6 0.659181 0.705974 0.736187
Si Si7 0.977363 0.839546 0.670528
Si Si8 0.619930 0.436625 0.346561
O O1 0.166037 0.534613 0.687874
O O2 0.004851 0.238635 0.890927
O O3 0.500000 0.000000 0.000000
O O4 0.272152 0.117345 0.051074
O O5 0.586085 0.742501 0.376713
O O6 0.256280 0.737094 0.354758
O O7 0.055842 0.150091 0.163682
O O8 0.281007 0.553201 0.131608
O O9 0.445058 0.632650 0.164421
O O10 0.042036 0.116923 0.806887
O O11 0.791718 0.337905 0.174218
O O12 0.000000 0.500000 0.000000
O O13 0.601345 0.666825 0.844080
O O14 0.564024 0.435154 0.663223
O O15 0.500000 0.000000 0.500000
O O16 0.904251 0.673418 0.757111
O O17 0.736223 0.113020 0.544765
O O18 0.000000 0.000000 0.500000
#
# Coordination Sequence:
#
# PCOD9089668 Si02
#       8
#     2   2   2   2   2   2   2   2
#     4  11  22  38  62  95 127 164 213 265 316 391
#     4  10  19  38  60  88 129 165 213 262 328 387
#     4  11  22  40  66  89 134 167 212 269 329 384
#     4  10  21  38  62  91 122 174 219 260 328 395
#     4  10  20  35  62  93 121 169 210 258 324 392
#     4  11  21  42  64  89 126 173 216 265 333 383
#     4  11  24  40  66  96 126 166 229 273 321 392
#     4  12  22  39  66  95 127 170 219 263 325 397
#
# _framework density 24.811159
#
# number of rings (size 3 to 8) (size 9 to 14) (size 15 to 20)
#    0.000    1.250    7.500    1.125    1.750    0.000 
#    0.000    1.250    0.000    0.000    0.000    0.000 
#    0.000    0.000    0.000    0.000    0.000    0.000 
#
# Total GULP energy -89086.753535 kJ/mol
# GULP energy per Si atom -5567.922096 kJ/mol
# Density = 2.475469 g / cm^3
# Si number density = 24.811159 Si / 1000 Ang^3
#
#
#
# Elastic Constant Matrix: (Units=GPa)
#
#
# Indices 1 2 3 4 5 6 
#
# 1 64.7387 1.1984 -2.3765 5.8477 6.1328 3.1119
# 2 1.1984 105.0376 17.7175 13.7013 2.4571 8.5541
# 3 -2.3765 17.7175 123.6822 28.2362 24.7176 3.2643
# 4 5.8477 13.7013 28.2362 56.6857 6.9824 4.2260
# 5 6.1328 2.4571 24.7176 6.9824 29.5070 7.0580
# 6 3.1119 8.5541 3.2643 4.2260 7.0580 24.5711
#
#
#
# Elastic Compliance Matrix: (Units=1/GPa)
#
#
# Indices 1 2 3 4 5 6 
#
# 1 0.016093 -0.000048 0.001571 -0.001878 -0.004033 -0.000749
# 2 -0.000048 0.010214 -0.001266 -0.001754 0.001472 -0.003503
# 3 0.001571 -0.001266 0.011030 -0.004408 -0.008919 0.002096
# 4 -0.001878 -0.001754 -0.004408 0.020628 -0.000158 -0.002069
# 5 -0.004033 0.001472 -0.008919 -0.000158 0.044911 -0.011690
# 6 -0.000749 -0.003503 0.002096 -0.002069 -0.011690 0.045448
#
#
# Mechanical properties :
#
#
# Convention : Reuss Voigt Hill
#
# Bulk Modulus (GPa) = 26.41940 36.28192 31.35066
# Shear Modulus (GPa) = 31.16674 40.61404 35.89039
#
# Velocity S-wave (km/s) = 3.54808 4.05028 3.80747
# Velocity P-wave (km/s) = 5.23989 6.04384 5.65617
#
# Compressibility (1/GPa) = 0.03785097
#
# Stress axis : x y z
#
# Youngs Moduli (GPa) = 62.13900 97.90484 90.65988
#
# Poissons Ratio (x) = 0.00472 -0.14240
# Poissons Ratio (y) = 0.00300 0.11474
# Poissons Ratio (z) = -0.09760 0.12390
#
# Static dielectric constant tensor:
#      x y z
#    x 2.008220 -0.049240 -0.033860 
#    y -0.049240 2.041680 0.014660 
#    z -0.033860 0.014660 2.262750 
# 
# From -- ./inp_files/203603.got.cif
#   From: 2010.05.17/outbox.cif.g08.bks.cpg/sg2_102_cif.got.tgz:203603.got - 2010.06.03 11:33:40.
