data_PCOD9089345
_publ_section_title
;
Structure prediction by ZEFSAII (Michael W. Deem and Ramdas Pophale) SiO2 
 PCOD9089345
Probable space group: P -1
;
_chemical_formula_sum "Si O2"
_cell_formula_units_Z 16
_cell_length_a 19.140625
_cell_length_b 10.178278
_cell_length_c 9.386899
_cell_angle_alpha 85.218920
_cell_angle_beta 135.022167
_cell_angle_gamma 129.947676
_cell_volume 722.534909
_symmetry_space_group_name_H-M "P -1"
_symmetry_group_IT_number 2
_symmetry_cell_setting 'triclinic'
loop_
_space_group_symop_operation_xyz
x,y,z
-x,-y,-z
loop_
_atom_site_type_symbol
_atom_site_label
_atom_site_fract_x
_atom_site_fract_y
_atom_site_fract_z
Si Si1 0.201300 0.981025 0.215162
Si Si2 0.723791 0.249034 0.512529
Si Si3 0.968065 0.940623 0.789180
Si Si4 0.524452 0.757260 0.203576
Si Si5 0.409687 0.602275 0.740745
Si Si6 0.502889 0.359413 0.439553
Si Si7 0.804252 0.589968 0.034697
Si Si8 0.060373 0.484590 0.928667
O O1 0.328699 0.169600 0.511323
O O2 0.358079 0.105673 0.326930
O O3 0.052626 0.739848 0.111260
O O4 0.104353 0.971218 0.968741
O O5 0.637400 0.294272 0.356555
O O6 0.914599 0.435992 0.693749
O O7 0.600979 0.990835 0.313110
O O8 0.780515 0.301573 0.756254
O O9 0.775336 0.677989 0.500781
O O10 0.000000 0.000000 0.000000
O O11 0.032200 0.130515 0.765742
O O12 0.333936 0.542660 0.025304
O O13 0.507128 0.698223 0.021811
O O14 0.516430 0.665106 0.754260
O O15 0.500000 0.500000 0.500000
O O16 0.690755 0.504493 0.738236
O O17 0.871987 0.517643 0.110652
#
# Coordination Sequence:
#
# PCOD9089345 Si02
#       8
#     2   2   2   2   2   2   2   2
#     4  10  19  38  60  93 122 159 209 259 298 371
#     4  10  20  41  66  89 126 167 213 254 313 367
#     4  12  19  37  70  86 120 164 218 254 299 371
#     4  10  26  39  60  94 140 161 200 261 325 372
#     4  12  23  43  64  96 126 170 203 260 327 367
#     4  11  20  35  64  91 121 161 216 251 303 372
#     4  11  21  40  63  94 126 165 212 259 309 371
#     4  10  19  37  68  95 115 163 220 264 295 362
#
# _framework density 22.144258000000001
#
# number of rings (size 3 to 8) (size 9 to 14) (size 15 to 20)
#    0.000    1.250    6.250    0.375    0.000    1.000 
#    4.500    8.750    0.000    0.000    0.000    0.000 
#    0.000    0.000    0.000    0.000    0.000    0.000 
#
# Total GULP energy -89208.708649 kJ/mol
# GULP energy per Si atom -5575.544291 kJ/mol
# Density = 2.209386 g / cm^3
# Si number density = 22.144258 Si / 1000 Ang^3
#
#
#
# Elastic Constant Matrix: (Units=GPa)
#
#
# Indices 1 2 3 4 5 6 
#
# 1 91.5618 29.1069 28.0408 -3.5054 -14.1819 4.8386
# 2 29.1069 58.8285 41.6369 17.7463 -18.9794 11.9443
# 3 28.0408 41.6369 91.1772 9.8412 -24.2306 15.5652
# 4 -3.5054 17.7463 9.8412 31.1026 1.0288 0.2713
# 5 -14.1819 -18.9794 -24.2306 1.0288 32.6308 -7.9058
# 6 4.8386 11.9443 15.5652 0.2713 -7.9058 35.6197
#
#
#
# Elastic Compliance Matrix: (Units=1/GPa)
#
#
# Indices 1 2 3 4 5 6 
#
# 1 0.014223 -0.008140 -0.001510 0.006696 0.000481 0.001513
# 2 -0.008140 0.038080 -0.008778 -0.020203 0.011488 -0.005124
# 3 -0.001510 -0.008778 0.017895 -0.001021 0.006794 -0.003156
# 4 0.006696 -0.020203 -0.001021 0.045059 -0.010118 0.003722
# 5 0.000481 0.011488 0.006794 -0.010118 0.043596 0.002866
# 6 0.001513 -0.005124 -0.003156 0.003722 0.002866 0.031574
#
#
# Mechanical properties :
#
#
# Convention : Reuss Voigt Hill
#
# Bulk Modulus (GPa) = 29.99268 48.79296 39.39282
# Shear Modulus (GPa) = 20.97353 29.38949 25.18151
#
# Velocity S-wave (km/s) = 3.08089 3.64700 3.37583
# Velocity P-wave (km/s) = 5.12147 6.31001 5.74655
#
# Compressibility (1/GPa) = 0.03334147
#
# Stress axis : x y z
#
# Youngs Moduli (GPa) = 70.31021 26.26052 55.88176
#
# Poissons Ratio (x) = 0.21377 0.08438
# Poissons Ratio (y) = 0.57236 0.49051
# Poissons Ratio (z) = 0.10617 0.23051
#
# Static dielectric constant tensor:
#      x y z
#    x 1.952670 -0.125140 0.018540 
#    y -0.125140 1.928280 0.016560 
#    z 0.018540 0.016560 1.825680 
# 
# From -- ./inp_files/333400.got.cif
#   From: 2010.05.17/outbox.cif.g08.bks.cpg/sg2_167_cif.got.tgz:333400.got - 2010.06.03 11:33:40.
