data_PCOD9089656
_publ_section_title
;
Structure prediction by ZEFSAII (Michael W. Deem and Ramdas Pophale) SiO2 
 PCOD9089656
Probable space group: P -1
;
_chemical_formula_sum "Si O2"
_cell_formula_units_Z 16
_cell_length_a 19.529013
_cell_length_b 10.152689
_cell_length_c 12.797644
_cell_angle_alpha 124.735262
_cell_angle_beta 44.482438
_cell_angle_gamma 149.724075
_cell_volume 888.620802
_symmetry_space_group_name_H-M "P -1"
_symmetry_group_IT_number 2
_symmetry_cell_setting 'triclinic'
loop_
_space_group_symop_operation_xyz
x,y,z
-x,-y,-z
loop_
_atom_site_type_symbol
_atom_site_label
_atom_site_fract_x
_atom_site_fract_y
_atom_site_fract_z
Si Si1 0.900506 0.843223 0.931234
Si Si2 0.848074 0.299581 0.933320
Si Si3 0.038841 0.458387 0.610249
Si Si4 0.621682 0.260749 0.057436
Si Si5 0.554793 0.748841 0.585773
Si Si6 0.378908 0.964267 0.560377
Si Si7 0.181465 0.905080 0.911540
Si Si8 0.927998 0.181837 0.394043
O O1 0.025444 0.927516 0.752947
O O2 0.755137 0.530379 0.967453
O O3 0.832333 0.923193 0.003936
O O4 0.000000 0.000000 0.000000
O O5 0.904316 0.266087 0.758458
O O6 0.010022 0.607648 0.927300
O O7 0.715549 0.254116 0.022842
O O8 0.792968 0.125087 0.013171
O O9 0.022129 0.618239 0.655240
O O10 0.014990 0.321547 0.472116
O O11 0.214852 0.667940 0.562968
O O12 0.537467 0.281784 0.234143
O O13 0.500000 0.000000 0.000000
O O14 0.500000 0.500000 0.500000
O O15 0.547050 0.850008 0.536559
O O16 0.740242 0.969875 0.516447
O O17 0.500000 0.000000 0.500000
O O18 0.314728 0.009746 0.734978
#
# Coordination Sequence:
#
# PCOD9089656 Si02
#       8
#     2   2   2   2   2   2   2   2
#     4  12  21  40  64  89 119 160 209 248 302 366
#     4  10  19  38  60  87 119 152 205 248 299 355
#     4   9  18  36  60  85 112 156 202 244 287 364
#     4  12  24  37  63  95 124 156 203 256 311 361
#     4  11  23  37  59  91 123 152 197 259 305 351
#     4  10  20  37  59  83 115 156 196 238 303 361
#     4  10  21  36  62  88 113 159 204 250 290 367
#     4  10  20  36  63  85 117 155 201 242 299 357
#
# _framework density 18.005428999999999
#
# number of rings (size 3 to 8) (size 9 to 14) (size 15 to 20)
#    0.000    1.500    2.500    4.500    3.500    0.000 
#    0.000    1.250    2.750    0.000    0.000    0.000 
#    0.000    0.000    0.000    0.000    0.000    0.000 
#
# Total GULP energy -89327.393154 kJ/mol
# GULP energy per Si atom -5582.962072 kJ/mol
# Density = 1.796445 g / cm^3
# Si number density = 18.005429 Si / 1000 Ang^3
#
#
#
# Elastic Constant Matrix: (Units=GPa)
#
#
# Indices 1 2 3 4 5 6 
#
# 1 121.8399 27.9459 45.1433 10.6336 -13.3396 2.6783
# 2 27.9459 48.0031 3.8671 6.4789 -4.1774 0.8251
# 3 45.1433 3.8671 90.2614 8.2490 -15.2585 11.8422
# 4 10.6336 6.4789 8.2490 26.2780 -3.7477 2.0577
# 5 -13.3396 -4.1774 -15.2585 -3.7477 30.1839 2.3723
# 6 2.6783 0.8251 11.8422 2.0577 2.3723 18.5710
#
#
#
# Elastic Compliance Matrix: (Units=1/GPa)
#
#
# Indices 1 2 3 4 5 6 
#
# 1 0.011946 -0.006227 -0.005651 -0.001524 0.001201 0.002172
# 2 -0.006227 0.024971 0.002984 -0.004163 0.001844 -0.001889
# 3 -0.005651 0.002984 0.016478 -0.001824 0.006844 -0.010498
# 4 -0.001524 -0.004163 -0.001824 0.040989 0.003183 -0.003381
# 5 0.001201 0.001844 0.006844 0.003183 0.038549 -0.009897
# 6 0.002172 -0.001889 -0.010498 -0.003381 -0.009897 0.061951
#
#
# Mechanical properties :
#
#
# Convention : Reuss Voigt Hill
#
# Bulk Modulus (GPa) = 28.08205 46.00189 37.04197
# Shear Modulus (GPa) = 22.26772 27.21645 24.74208
#
# Velocity S-wave (km/s) = 3.52052 3.89211 3.71097
# Velocity P-wave (km/s) = 5.67060 6.76774 6.24332
#
# Compressibility (1/GPa) = 0.03560993
#
# Stress axis : x y z
#
# Youngs Moduli (GPa) = 83.70983 40.04595 60.68655
#
# Poissons Ratio (x) = 0.24935 0.34291
# Poissons Ratio (y) = 0.52122 -0.18111
# Poissons Ratio (z) = 0.47301 -0.11951
#
# Static dielectric constant tensor:
#      x y z
#    x 1.591870 0.019320 0.008020 
#    y 0.019320 1.689690 -0.011190 
#    z 0.008020 -0.011190 1.625680 
# 
# From -- ./inp_files/257442.got.cif
#   From: 2010.05.17/outbox.cif.g08.bks.cpg/sg2_129_cif.got.tgz:257442.got - 2010.06.03 11:33:40.
