data_PCOD9089112
_publ_section_title
;
Structure prediction by ZEFSAII (Michael W. Deem and Ramdas Pophale) SiO2 
 PCOD9089112
Probable space group: P -1
;
_chemical_formula_sum "Si O2"
_cell_formula_units_Z 14
_cell_length_a 7.044577
_cell_length_b 16.684654
_cell_length_c 9.416375
_cell_angle_alpha 138.123726
_cell_angle_beta 132.571662
_cell_angle_gamma 68.335480
_cell_volume 523.294254
_symmetry_space_group_name_H-M "P -1"
_symmetry_group_IT_number 2
_symmetry_cell_setting 'triclinic'
loop_
_space_group_symop_operation_xyz
x,y,z
-x,-y,-z
loop_
_atom_site_type_symbol
_atom_site_label
_atom_site_fract_x
_atom_site_fract_y
_atom_site_fract_z
Si Si1 0.293635 0.078939 0.701586
Si Si2 0.430862 0.512096 0.702369
Si Si3 0.491520 0.090626 0.247226
Si Si4 0.799106 0.309103 0.845973
Si Si5 0.746306 0.742845 0.320356
Si Si6 0.718010 0.746808 0.824121
Si Si7 0.013935 0.423114 0.627113
O O1 0.250241 0.132412 0.597503
O O2 0.494948 0.993345 0.718367
O O3 0.373720 0.190744 0.003210
O O4 0.000000 0.000000 0.500000
O O5 0.474657 0.388853 0.490404
O O6 0.260216 0.459205 0.686589
O O7 0.236681 0.565463 0.575309
O O8 0.670991 0.628867 0.018898
O O9 0.748584 0.211010 0.561784
O O10 0.268037 0.158041 0.174195
O O11 0.500000 0.000000 0.000000
O O12 0.509667 0.280921 0.736470
O O13 0.909168 0.456535 0.070482
O O14 0.000708 0.275944 0.018707
O O15 0.984020 0.710144 0.484706
#
# Coordination Sequence:
#
# PCOD9089112 Si02
#       7
#     2   2   2   2   2   2   2
#     4  11  24  44  57  81 124 169 206 246 291 351
#     4   9  18  36  62  96 120 147 195 246 308 363
#     4  10  21  38  63  83 113 166 205 239 297 349
#     4  10  19  37  65  92 118 152 196 248 305 361
#     4  11  22  37  62  93 123 155 199 250 298 356
#     4  10  20  39  66  82 119 160 195 249 305 356
#     4   9  18  35  62  94 126 150 182 251 314 360
#
# _framework density 26.753591
#
# number of rings (size 3 to 8) (size 9 to 14) (size 15 to 20)
#    0.000    2.000    1.429    4.286    0.000    1.143 
#    7.714    3.571    0.000    0.000    0.000    0.000 
#    0.000    0.000    0.000    0.000    0.000    0.000 
#
# Total GULP energy -78325.316588 kJ/mol
# GULP energy per Si atom -5594.665471 kJ/mol
# Density = 2.669270 g / cm^3
# Si number density = 26.753591 Si / 1000 Ang^3
#
#
#
# Elastic Constant Matrix: (Units=GPa)
#
#
# Indices 1 2 3 4 5 6 
#
# 1 55.9951 41.4002 16.2289 7.3087 -10.1834 3.9387
# 2 41.4002 284.5573 13.5997 -24.9090 2.9292 -24.0259
# 3 16.2289 13.5997 130.9023 4.1681 -4.2775 -3.0348
# 4 7.3087 -24.9090 4.1681 27.8266 -1.0102 6.4301
# 5 -10.1834 2.9292 -4.2775 -1.0102 22.7488 -2.9978
# 6 3.9387 -24.0259 -3.0348 6.4301 -2.9978 38.8316
#
#
#
# Elastic Compliance Matrix: (Units=1/GPa)
#
#
# Indices 1 2 3 4 5 6 
#
# 1 0.025474 -0.004834 -0.002077 -0.009548 0.010773 -0.003325
# 2 -0.004834 0.004895 -0.000084 0.005002 -0.002257 0.002510
# 3 -0.002077 -0.000084 0.007980 -0.000929 0.000670 0.000988
# 4 -0.009548 0.005002 -0.000929 0.043746 -0.003616 -0.003532
# 5 0.010773 -0.002257 0.000670 -0.003616 0.049296 0.001967
# 6 -0.003325 0.002510 0.000988 -0.003532 0.001967 0.028456
#
#
# Mechanical properties :
#
#
# Convention : Reuss Voigt Hill
#
# Bulk Modulus (GPa) = 41.05422 68.21247 54.63335
# Shear Modulus (GPa) = 27.47890 44.56312 36.02101
#
# Velocity S-wave (km/s) = 3.20833 4.08571 3.67331
# Velocity P-wave (km/s) = 5.39474 6.91443 6.20131
#
# Compressibility (1/GPa) = 0.02435803
#
# Stress axis : x y z
#
# Youngs Moduli (GPa) = 39.25521 204.30787 125.31476
#
# Poissons Ratio (x) = 0.98770 0.26028
# Poissons Ratio (y) = 0.18977 0.01053
# Poissons Ratio (z) = 0.08153 0.01716
#
# Static dielectric constant tensor:
#      x y z
#    x 2.147580 0.011760 -0.027140 
#    y 0.011760 2.110570 -0.014020 
#    z -0.027140 -0.014020 2.130880 
# 
# From -- ./inp_files/204591.got.cif
#   From: 2010.05.17/outbox.cif.g08.bks.cpg/sg2_103_cif.got.tgz:204591.got - 2010.06.03 11:33:40.
