data_PCOD9089818
_publ_section_title
;
Structure prediction by ZEFSAII (Michael W. Deem and Ramdas Pophale) SiO2 
 PCOD9089818
Probable space group: P -1
;
_chemical_formula_sum "Si O2"
_cell_formula_units_Z 16
_cell_length_a 18.535392
_cell_length_b 5.062977
_cell_length_c 14.618774
_cell_angle_alpha 77.836254
_cell_angle_beta 152.100045
_cell_angle_gamma 99.629934
_cell_volume 626.996643
_symmetry_space_group_name_H-M "P -1"
_symmetry_group_IT_number 2
_symmetry_cell_setting 'triclinic'
loop_
_space_group_symop_operation_xyz
x,y,z
-x,-y,-z
loop_
_atom_site_type_symbol
_atom_site_label
_atom_site_fract_x
_atom_site_fract_y
_atom_site_fract_z
Si Si1 0.020261 0.745110 0.268201
Si Si2 0.329526 0.133342 0.202418
Si Si3 0.275497 0.333322 0.594578
Si Si4 0.659166 0.602196 0.135361
Si Si5 0.477596 0.859616 0.761407
Si Si6 0.070963 0.173896 0.151901
Si Si7 0.080167 0.775849 0.545230
Si Si8 0.745777 0.433524 0.775217
O O1 0.102716 0.448419 0.368813
O O2 0.056700 0.822539 0.407794
O O3 0.103857 0.944383 0.278886
O O4 0.839225 0.796243 0.038358
O O5 0.318462 0.866350 0.273535
O O6 0.455190 0.090232 0.267475
O O7 0.349602 0.392884 0.269722
O O8 0.269092 0.276879 0.700808
O O9 0.380496 0.590335 0.675022
O O10 0.369545 0.093756 0.667471
O O11 0.748211 0.322815 0.229409
O O12 0.500000 0.500000 0.000000
O O13 0.624716 0.798343 0.998026
O O14 0.216625 0.356348 0.279383
O O15 0.926646 0.367700 0.008211
O O16 0.000000 0.000000 0.000000
O O17 0.000000 0.500000 0.500000
O O18 0.000000 0.000000 0.500000
#
# Coordination Sequence:
#
# PCOD9089818 Si02
#       8
#     2   2   2   2   2   2   2   2
#     4  10  23  40  65  95 120 164 203 260 307 357
#     4  11  22  37  63  92 123 156 205 250 311 365
#     4  10  23  40  58  88 122 157 206 257 301 357
#     4   9  21  39  62  84 118 166 212 247 293 364
#     4  11  22  40  61  86 120 168 204 245 302 375
#     4  10  19  38  61  95 124 155 205 259 306 359
#     4  11  25  42  59  93 136 160 198 255 315 360
#     4  10  20  36  57  93 122 150 196 262 297 359
#
# _framework density 25.518478999999999
#
# number of rings (size 3 to 8) (size 9 to 14) (size 15 to 20)
#    0.000    1.750    2.500    1.875    0.000   16.000 
#    0.000    0.000    0.000    4.500    0.000    0.000 
#    0.000    0.000    0.000    0.000    0.000    0.000 
#
# Total GULP energy -89516.751188 kJ/mol
# GULP energy per Si atom -5594.796949 kJ/mol
# Density = 2.546040 g / cm^3
# Si number density = 25.518479 Si / 1000 Ang^3
#
#
#
# Elastic Constant Matrix: (Units=GPa)
#
#
# Indices 1 2 3 4 5 6 
#
# 1 149.1895 47.5377 35.5786 -30.7639 2.6893 -7.8983
# 2 47.5377 140.2008 34.5466 -43.4186 7.1591 -18.6587
# 3 35.5786 34.5466 121.2476 -25.8539 1.3525 -20.5325
# 4 -30.7639 -43.4186 -25.8539 40.2563 -5.0935 10.3245
# 5 2.6893 7.1591 1.3525 -5.0935 51.2640 -14.6231
# 6 -7.8983 -18.6587 -20.5325 10.3245 -14.6231 49.9241
#
#
#
# Elastic Compliance Matrix: (Units=1/GPa)
#
#
# Indices 1 2 3 4 5 6 
#
# 1 0.008253 -0.001225 -0.001241 0.004334 0.000046 -0.000546
# 2 -0.001225 0.011054 -0.000294 0.010370 0.000039 0.001683
# 3 -0.001241 -0.000294 0.010225 0.004609 0.001238 0.003308
# 4 0.004334 0.010370 0.004609 0.043024 0.001944 -0.001871
# 5 0.000046 0.000039 0.001238 0.001944 0.021492 0.006424
# 6 -0.000546 0.001683 0.003308 -0.001871 0.006424 0.024202
#
#
# Mechanical properties :
#
#
# Convention : Reuss Voigt Hill
#
# Bulk Modulus (GPa) = 41.64808 71.77375 56.71091
# Shear Modulus (GPa) = 37.94310 47.82054 42.88182
#
# Velocity S-wave (km/s) = 3.86020 4.33362 4.10374
# Velocity P-wave (km/s) = 6.01867 7.29572 6.68775
#
# Compressibility (1/GPa) = 0.02401071
#
# Stress axis : x y z
#
# Youngs Moduli (GPa) = 121.16234 90.46313 97.80039
#
# Poissons Ratio (x) = 0.11084 0.12142
# Poissons Ratio (y) = 0.14846 0.02877
# Poissons Ratio (z) = 0.15042 0.02661
#
# Static dielectric constant tensor:
#      x y z
#    x 2.026450 0.030940 -0.012040 
#    y 0.030940 2.074180 0.078580 
#    z -0.012040 0.078580 2.088480 
# 
# From -- ./inp_files/536285.got.cif
#   From: 2010.05.17/outbox.cif.g08.bks.cpg/sg2_269_cif.got.tgz:536285.got - 2010.06.03 11:33:40.
