data_PCOD9089074
_publ_section_title
;
Structure prediction by ZEFSAII (Michael W. Deem and Ramdas Pophale) SiO2 
 PCOD9089074
Probable space group: P -1
;
_chemical_formula_sum "Si O2"
_cell_formula_units_Z 14
_cell_length_a 7.599264
_cell_length_b 11.584160
_cell_length_c 16.071187
_cell_angle_alpha 27.393001
_cell_angle_beta 91.148053
_cell_angle_gamma 104.715076
_cell_volume 558.424630
_symmetry_space_group_name_H-M "P -1"
_symmetry_group_IT_number 2
_symmetry_cell_setting 'triclinic'
loop_
_space_group_symop_operation_xyz
x,y,z
-x,-y,-z
loop_
_atom_site_type_symbol
_atom_site_label
_atom_site_fract_x
_atom_site_fract_y
_atom_site_fract_z
Si Si1 0.762112 0.864127 0.070892
Si Si2 0.899380 0.152899 0.224432
Si Si3 0.386424 0.447177 0.423748
Si Si4 0.170706 0.898997 0.563312
Si Si5 0.793266 0.381016 0.838753
Si Si6 0.673105 0.831703 0.772162
Si Si7 0.419201 0.988368 0.179011
O O1 0.606834 0.560981 0.309273
O O2 0.717797 0.079034 0.986390
O O3 0.708449 0.913264 0.945711
O O4 0.000000 0.000000 0.000000
O O5 0.767753 0.081842 0.353902
O O6 0.101300 0.125709 0.244796
O O7 0.738790 0.889174 0.331823
O O8 0.000000 0.500000 0.000000
O O9 0.256550 0.452292 0.339110
O O10 0.390511 0.681152 0.340548
O O11 0.029735 0.562528 0.748876
O O12 0.334383 0.077027 0.381077
O O13 0.000000 0.000000 0.500000
O O14 0.647219 0.277026 0.983929
O O15 0.651419 0.024878 0.719372
O O16 0.500000 0.500000 0.000000
#
# Coordination Sequence:
#
# PCOD9089074 Si02
#       7
#     2   2   2   2   2   2   2
#     4   9  19  34  61  97 130 161 206 267 329 380
#     4  11  24  42  62  92 134 176 210 265 328 381
#     4   9  18  38  64  90 123 174 214 255 323 377
#     4  10  19  37  65  85 122 165 217 255 315 381
#     4   9  16  36  64  88 115 169 206 258 317 380
#     4  11  23  39  66  98 124 167 223 268 311 386
#     4   9  19  35  65  96 123 158 221 267 313 385
#
# _framework density 25.070529000000001
#
# number of rings (size 3 to 8) (size 9 to 14) (size 15 to 20)
#    0.000    2.286    2.857    3.429    2.000    1.714 
#    2.571    0.714    0.000    3.429    0.000    0.000 
#    0.000    0.000    0.000    0.000    0.000    0.000 
#
# Total GULP energy -78157.986398 kJ/mol
# GULP energy per Si atom -5582.713314 kJ/mol
# Density = 2.501347 g / cm^3
# Si number density = 25.070529 Si / 1000 Ang^3
#
#
#
# Elastic Constant Matrix: (Units=GPa)
#
#
# Indices 1 2 3 4 5 6 
#
# 1 69.4607 12.7891 44.1062 0.6993 -22.6745 -2.2075
# 2 12.7891 142.9749 75.4363 10.2425 -3.8784 -12.7744
# 3 44.1062 75.4363 168.5630 -11.8718 -18.8163 -7.2989
# 4 0.6993 10.2425 -11.8718 44.3018 0.4371 -13.0341
# 5 -22.6745 -3.8784 -18.8163 0.4371 37.7636 -2.6701
# 6 -2.2075 -12.7744 -7.2989 -13.0341 -2.6701 25.6939
#
#
#
# Elastic Compliance Matrix: (Units=1/GPa)
#
#
# Indices 1 2 3 4 5 6 
#
# 1 0.020655 0.001233 -0.004882 -0.001662 0.010201 0.001218
# 2 0.001233 0.009862 -0.004919 -0.003016 -0.000520 0.002028
# 3 -0.004882 -0.004919 0.010034 0.004624 0.001687 0.002506
# 4 -0.001662 -0.003016 0.004624 0.028767 0.001684 0.014439
# 5 0.010201 -0.000520 0.001687 0.001684 0.033759 0.005460
# 6 0.001218 0.002028 0.002506 0.014439 0.005460 0.048637
#
#
# Mechanical properties :
#
#
# Convention : Reuss Voigt Hill
#
# Bulk Modulus (GPa) = 42.70713 71.74021 57.22367
# Shear Modulus (GPa) = 28.30380 38.12966 33.21673
#
# Velocity S-wave (km/s) = 3.36366 3.90410 3.64391
# Velocity P-wave (km/s) = 5.67074 7.00001 6.37014
#
# Compressibility (1/GPa) = 0.02341530
#
# Stress axis : x y z
#
# Youngs Moduli (GPa) = 48.41424 101.39526 99.66493
#
# Poissons Ratio (x) = -0.12499 0.48654
# Poissons Ratio (y) = -0.05968 0.49023
# Poissons Ratio (z) = 0.23635 0.49874
#
# Static dielectric constant tensor:
#      x y z
#    x 2.570070 -0.362510 -0.073870 
#    y -0.362510 2.325260 0.082500 
#    z -0.073870 0.082500 2.155820 
# 
# From -- ./inp_files/237262.got.cif
#   From: 2010.05.17/outbox.cif.g08.bks.cpg/sg2_119_cif.got.tgz:237262.got - 2010.06.03 11:33:40.
