data_PCOD9089802
_publ_section_title
;
Structure prediction by ZEFSAII (Michael W. Deem and Ramdas Pophale) SiO2 
 PCOD9089802
Probable space group: P -1
;
_chemical_formula_sum "Si O2"
_cell_formula_units_Z 16
_cell_length_a 19.937351
_cell_length_b 12.817197
_cell_length_c 8.676835
_cell_angle_alpha 46.037523
_cell_angle_beta 30.409158
_cell_angle_gamma 44.000513
_cell_volume 762.270780
_symmetry_space_group_name_H-M "P -1"
_symmetry_group_IT_number 2
_symmetry_cell_setting 'triclinic'
loop_
_space_group_symop_operation_xyz
x,y,z
-x,-y,-z
loop_
_atom_site_type_symbol
_atom_site_label
_atom_site_fract_x
_atom_site_fract_y
_atom_site_fract_z
Si Si1 0.709127 0.498322 0.627745
Si Si2 0.539111 0.488385 0.675960
Si Si3 0.304248 0.069594 0.431778
Si Si4 0.997663 0.171363 0.812406
Si Si5 0.485528 0.752752 0.267970
Si Si6 0.017482 0.306885 0.317222
Si Si7 0.788861 0.778063 0.248338
Si Si8 0.033017 0.570253 0.201667
O O1 0.648504 0.462741 0.624282
O O2 0.873559 0.403296 0.418481
O O3 0.692996 0.678490 0.488394
O O4 0.614723 0.466084 0.985419
O O5 0.546474 0.623988 0.409888
O O6 0.558143 0.337745 0.690629
O O7 0.158492 0.153440 0.549681
O O8 0.285299 0.077375 0.646245
O O9 0.363021 0.896071 0.434168
O O10 0.404023 0.168370 0.091938
O O11 0.969800 0.226484 0.636678
O O12 0.907007 0.299774 0.982891
O O13 0.000000 0.000000 0.000000
O O14 0.093396 0.421068 0.126374
O O15 0.123939 0.200010 0.093737
O O16 0.900549 0.665447 0.261910
O O17 0.000000 0.500000 0.500000
#
# Coordination Sequence:
#
# PCOD9089802 Si02
#       8
#     2   2   2   2   2   2   2   2
#     4  10  20  38  63  95 128 152 200 264 316 352
#     4  10  22  40  67  94 117 156 217 270 294 352
#     4  10  22  43  64  85 127 167 205 254 310 376
#     4  10  22  39  61  92 128 161 206 251 305 379
#     4  10  22  44  66  87 116 168 220 257 303 352
#     4  10  21  38  64  93 125 166 200 247 319 376
#     4  10  19  38  61  91 126 163 199 250 311 390
#     4   8  16  34  56  84 116 161 200 236 284 359
#
# _framework density 20.989917999999999
#
# number of rings (size 3 to 8) (size 9 to 14) (size 15 to 20)
#    0.000    2.250    1.250    1.500    3.500    0.000 
#    9.000    5.625    0.000    0.000    0.000    0.000 
#    0.000    0.000    0.000    0.000    0.000    0.000 
#
# Total GULP energy -89216.250389 kJ/mol
# GULP energy per Si atom -5576.015649 kJ/mol
# Density = 2.094214 g / cm^3
# Si number density = 20.989918 Si / 1000 Ang^3
#
#
#
# Elastic Constant Matrix: (Units=GPa)
#
#
# Indices 1 2 3 4 5 6 
#
# 1 101.5039 48.5104 34.9383 3.4681 18.0455 30.7370
# 2 48.5104 102.1236 32.6738 -0.4665 17.4729 25.0930
# 3 34.9383 32.6738 58.8163 7.9802 10.1557 15.6759
# 4 3.4681 -0.4665 7.9802 31.8221 1.8894 7.6901
# 5 18.0455 17.4729 10.1557 1.8894 21.6740 9.1989
# 6 30.7370 25.0930 15.6759 7.6901 9.1989 22.4255
#
#
#
# Elastic Compliance Matrix: (Units=1/GPa)
#
#
# Indices 1 2 3 4 5 6 
#
# 1 0.019218 -0.001782 -0.004779 0.004364 -0.003820 -0.020936
# 2 -0.001782 0.015751 -0.004380 0.004658 -0.004535 -0.011856
# 3 -0.004779 -0.004380 0.024048 -0.004758 -0.002133 -0.002853
# 4 0.004364 0.004658 -0.004758 0.037213 0.000426 -0.020803
# 5 -0.003820 -0.004535 -0.002133 0.000426 0.059317 -0.012677
# 6 -0.020936 -0.011856 -0.002853 -0.020803 -0.012677 0.100882
#
#
# Mechanical properties :
#
#
# Convention : Reuss Voigt Hill
#
# Bulk Modulus (GPa) = 26.92882 54.96543 40.94713
# Shear Modulus (GPa) = 17.20050 24.93907 21.06979
#
# Velocity S-wave (km/s) = 2.86574 3.45069 3.17173
# Velocity P-wave (km/s) = 4.87926 6.48997 5.74138
#
# Compressibility (1/GPa) = 0.03713493
#
# Stress axis : x y z
#
# Youngs Moduli (GPa) = 52.03408 63.48982 41.58338
#
# Poissons Ratio (x) = 0.11317 0.19871
# Poissons Ratio (y) = 0.09275 0.18213
# Poissons Ratio (z) = 0.24865 0.27808
#
# Static dielectric constant tensor:
#      x y z
#    x 1.748310 0.029100 -0.015870 
#    y 0.029100 1.804050 0.037300 
#    z -0.015870 0.037300 1.817700 
# 
# From -- ./inp_files/345925.got.cif
#   From: 2010.05.17/outbox.cif.g08.bks.cpg/sg2_173_cif.got.tgz:345925.got - 2010.06.03 11:33:40.
