data_PCOD9089440
_publ_section_title
;
Structure prediction by ZEFSAII (Michael W. Deem and Ramdas Pophale) SiO2 
 PCOD9089440
Probable space group: P -1
;
_chemical_formula_sum "Si O2"
_cell_formula_units_Z 16
_cell_length_a 6.957978
_cell_length_b 11.430559
_cell_length_c 11.131638
_cell_angle_alpha 93.441136
_cell_angle_beta 92.375211
_cell_angle_gamma 122.232539
_cell_volume 744.715224
_symmetry_space_group_name_H-M "P -1"
_symmetry_group_IT_number 2
_symmetry_cell_setting 'triclinic'
loop_
_space_group_symop_operation_xyz
x,y,z
-x,-y,-z
loop_
_atom_site_type_symbol
_atom_site_label
_atom_site_fract_x
_atom_site_fract_y
_atom_site_fract_z
Si Si1 0.023668 0.679057 0.292585
Si Si2 0.827928 0.845795 0.323529
Si Si3 0.712447 0.896622 0.710778
Si Si4 0.543402 0.153466 0.519347
Si Si5 0.867067 0.764506 0.888610
Si Si6 0.437797 0.225784 0.920438
Si Si7 0.889401 0.495487 0.868526
Si Si8 0.737932 0.104578 0.909978
O O1 0.828171 0.704984 0.329425
O O2 0.762637 0.855571 0.185649
O O3 0.982311 0.534968 0.234499
O O4 0.119534 0.774456 0.179563
O O5 0.647407 0.850492 0.401755
O O6 0.217319 0.743669 0.403410
O O7 0.085398 0.976136 0.353817
O O8 0.499393 0.810329 0.612541
O O9 0.821064 0.818058 0.768451
O O10 0.654576 0.967629 0.821206
O O11 0.500000 0.000000 0.500000
O O12 0.887800 0.633268 0.861521
O O13 0.657390 0.732677 0.967914
O O14 0.092389 0.873829 0.976938
O O15 0.631326 0.363563 0.864755
O O16 0.548765 0.136366 0.947925
O O17 0.000000 0.500000 0.000000
#
# Coordination Sequence:
#
# PCOD9089440 Si02
#       8
#     2   2   2   2   2   2   2   2
#     4  10  20  36  61  88 112 152 202 250 277 331
#     4  11  20  38  63  90 115 152 203 239 295 343
#     4  11  24  38  58  90 126 159 182 248 300 350
#     4  12  21  40  61  89 119 151 206 238 287 352
#     4  12  23  39  57  90 127 152 194 240 300 356
#     4  11  20  36  64  89 112 162 195 240 297 340
#     4  11  20  40  62  85 119 154 203 244 282 350
#     4  10  19  38  54  89 120 149 191 242 295 343
#
# _framework density 21.484722000000001
#
# number of rings (size 3 to 8) (size 9 to 14) (size 15 to 20)
#    0.000    1.000   10.000    1.125    0.000    0.500 
#    2.250    0.625    0.000    0.750    0.000    0.000 
#    0.000    0.000    0.000    0.000    0.000    0.000 
#
# Total GULP energy -89412.566843 kJ/mol
# GULP energy per Si atom -5588.285428 kJ/mol
# Density = 2.143582 g / cm^3
# Si number density = 21.484722 Si / 1000 Ang^3
#
#
#
# Elastic Constant Matrix: (Units=GPa)
#
#
# Indices 1 2 3 4 5 6 
#
# 1 113.1813 32.7798 39.7750 13.2792 3.2920 -44.8126
# 2 32.7798 74.6281 41.9075 15.6116 -3.3496 -46.3941
# 3 39.7750 41.9075 88.6570 13.1882 30.8212 -28.3167
# 4 13.2792 15.6116 13.1882 27.2045 -7.5552 -7.7429
# 5 3.2920 -3.3496 30.8212 -7.5552 53.0672 5.9152
# 6 -44.8126 -46.3941 -28.3167 -7.7429 5.9152 49.1799
#
#
#
# Elastic Compliance Matrix: (Units=1/GPa)
#
#
# Indices 1 2 3 4 5 6 
#
# 1 0.016278 0.008397 -0.003497 -0.005792 -0.001504 0.020010
# 2 0.008397 0.043029 -0.010114 -0.011890 0.001882 0.040322
# 3 -0.003497 -0.010114 0.025687 -0.008868 -0.016904 0.002699
# 4 -0.005792 -0.011890 -0.008868 0.050118 0.013605 -0.015345
# 5 -0.001504 0.001882 -0.016904 0.013605 0.032041 -0.011039
# 6 0.020010 0.040322 0.002699 -0.015345 -0.011039 0.077070
#
#
# Mechanical properties :
#
#
# Convention : Reuss Voigt Hill
#
# Bulk Modulus (GPa) = 13.41081 56.15454 34.78267
# Shear Modulus (GPa) = 17.88863 36.69061 27.28962
#
# Velocity S-wave (km/s) = 2.88865 4.13698 3.56784
# Velocity P-wave (km/s) = 4.16909 7.00094 5.76170
#
# Compressibility (1/GPa) = 0.07456672
#
# Stress axis : x y z
#
# Youngs Moduli (GPa) = 61.43218 23.23989 38.93040
#
# Poissons Ratio (x) = -0.19515 0.13614
# Poissons Ratio (y) = -0.51586 0.39374
# Poissons Ratio (z) = 0.21483 0.23505
#
# Static dielectric constant tensor:
#      x y z
#    x 1.831550 0.020240 -0.006580 
#    y 0.020240 1.829580 0.009350 
#    z -0.006580 0.009350 1.816540 
# 
# From -- ./inp_files/118100.got.cif
#   From: 2010.05.17/outbox.cif.g08.bks.cpg/sg2_60_cif.got.tgz:118100.got - 2010.06.03 11:33:40.
