data_PCOD9089030
_publ_section_title
;
Structure prediction by ZEFSAII (Michael W. Deem and Ramdas Pophale) SiO2 
 PCOD9089030
Probable space group: P -1
;
_chemical_formula_sum "Si O2"
_cell_formula_units_Z 15
_cell_length_a 8.998389
_cell_length_b 9.602255
_cell_length_c 10.271266
_cell_angle_alpha 64.766793
_cell_angle_beta 100.723875
_cell_angle_gamma 136.628539
_cell_volume 540.244191
_symmetry_space_group_name_H-M "P -1"
_symmetry_group_IT_number 2
_symmetry_cell_setting 'triclinic'
loop_
_space_group_symop_operation_xyz
x,y,z
-x,-y,-z
loop_
_atom_site_type_symbol
_atom_site_label
_atom_site_fract_x
_atom_site_fract_y
_atom_site_fract_z
Si Si1 0.584884 0.847016 0.122589
Si Si2 0.339510 0.767899 0.888237
Si Si3 0.000000 0.000000 0.000000
Si Si4 0.796190 0.977702 0.475207
Si Si5 0.764039 0.716936 0.343785
Si Si6 0.680648 0.299814 0.545041
Si Si7 0.245067 0.109633 0.193522
Si Si8 0.986628 0.426487 0.306793
O O1 0.574523 0.678812 0.264550
O O2 0.633520 0.035523 0.138510
O O3 0.369372 0.703346 0.056044
O O4 0.812843 0.991161 0.021820
O O5 0.554624 0.857951 0.812812
O O6 0.127484 0.590687 0.832961
O O7 0.218374 0.232846 0.043092
O O8 0.812989 0.852867 0.425262
O O9 0.575800 0.912656 0.432714
O O10 0.763816 0.895446 0.650025
O O11 0.987040 0.242496 0.371268
O O12 0.708167 0.502915 0.447955
O O13 0.974686 0.869457 0.215241
O O14 0.821387 0.327682 0.443237
O O15 0.790113 0.343262 0.684771
#
# Coordination Sequence:
#
# PCOD9089030 Si02
#       8
#     2   2   1   2   2   2   2   2
#     4   9  19  36  64  94 124 163 220 257 314 380
#     4  10  19  37  64  95 122 171 216 256 310 394
#     4   8  18  34  56  94 120 160 208 262 300 380
#     4  12  22  39  64  90 127 173 211 260 323 373
#     4  11  22  40  60  97 128 162 213 272 311 375
#     4  11  25  38  59  96 131 165 214 265 317 378
#     4  10  20  35  63  87 125 166 210 250 323 369
#     4  11  23  40  61  92 128 172 206 262 317 383
#
# _framework density 27.765218999999998
#
# number of rings (size 3 to 8) (size 9 to 14) (size 15 to 20)
#    0.000    1.600    4.000    1.200    0.000    0.000 
#    0.000    0.667    0.000    0.800    0.000    0.000 
#    0.000    0.000    0.000    0.000    0.000    0.000 
#
# Total GULP energy -83675.090943 kJ/mol
# GULP energy per Si atom -5578.339396 kJ/mol
# Density = 2.770202 g / cm^3
# Si number density = 27.765219 Si / 1000 Ang^3
#
#
#
# Elastic Constant Matrix: (Units=GPa)
#
#
# Indices 1 2 3 4 5 6 
#
# 1 149.2452 31.5268 49.4818 15.8104 20.3892 20.9542
# 2 31.5268 85.8274 28.9916 24.7234 21.3051 7.9365
# 3 49.4818 28.9916 156.3246 58.8147 31.0894 2.3816
# 4 15.8104 24.7234 58.8147 46.3813 24.0084 13.4668
# 5 20.3892 21.3051 31.0894 24.0084 65.2708 10.4110
# 6 20.9542 7.9365 2.3816 13.4668 10.4110 43.9854
#
#
#
# Elastic Compliance Matrix: (Units=1/GPa)
#
#
# Indices 1 2 3 4 5 6 
#
# 1 0.008931 -0.002778 -0.004190 0.005848 -0.001237 -0.005024
# 2 -0.002778 0.014909 0.001743 -0.008713 -0.001887 0.001654
# 3 -0.004190 0.001743 0.015088 -0.020743 0.000034 0.007207
# 4 0.005848 -0.008713 -0.020743 0.059624 -0.008426 -0.016351
# 5 -0.001237 -0.001887 0.000034 -0.008426 0.019587 -0.001128
# 6 -0.005024 0.001654 0.007207 -0.016351 -0.001128 0.029713
#
#
# Mechanical properties :
#
#
# Convention : Reuss Voigt Hill
#
# Bulk Modulus (GPa) = 35.11558 67.93307 51.52433
# Shear Modulus (GPa) = 29.79842 49.88730 39.84286
#
# Velocity S-wave (km/s) = 3.27957 4.24341 3.79224
# Velocity P-wave (km/s) = 5.19765 6.96626 6.14591
#
# Compressibility (1/GPa) = 0.02847739
#
# Stress axis : x y z
#
# Youngs Moduli (GPa) = 111.96670 67.07505 66.27933
#
# Poissons Ratio (x) = 0.18637 0.27768
# Poissons Ratio (y) = 0.31110 -0.11552
# Poissons Ratio (z) = 0.46909 -0.11691
#
# Static dielectric constant tensor:
#      x y z
#    x 2.205900 0.070890 0.038220 
#    y 0.070890 2.208790 0.019720 
#    z 0.038220 0.019720 2.847940 
# 
# From -- ./inp_files/378791.got.cif
#   From: 2010.05.17/outbox.cif.g08.bks.cpg/sg2_190_cif.got.tgz:378791.got - 2010.06.03 11:33:40.
