data_PCOD9089382
_publ_section_title
;
Structure prediction by ZEFSAII (Michael W. Deem and Ramdas Pophale) SiO2 
 PCOD9089382
Probable space group: P -1
;
_chemical_formula_sum "Si O2"
_cell_formula_units_Z 12
_cell_length_a 7.697381
_cell_length_b 11.099248
_cell_length_c 15.420291
_cell_angle_alpha 29.030791
_cell_angle_beta 83.939001
_cell_angle_gamma 100.571331
_cell_volume 521.703896
_symmetry_space_group_name_H-M "P -1"
_symmetry_group_IT_number 2
_symmetry_cell_setting 'triclinic'
loop_
_space_group_symop_operation_xyz
x,y,z
-x,-y,-z
loop_
_atom_site_type_symbol
_atom_site_label
_atom_site_fract_x
_atom_site_fract_y
_atom_site_fract_z
Si Si1 0.859390 0.107015 0.738114
Si Si2 0.196429 0.247747 0.391811
Si Si3 0.230042 0.661902 0.261301
Si Si4 0.420030 0.547303 0.884468
Si Si5 0.786654 0.166239 0.212480
Si Si6 0.513091 0.808911 0.294708
O O1 0.848384 0.137080 0.824088
O O2 0.676204 0.155536 0.684960
O O3 0.075577 0.366761 0.518176
O O4 0.791124 0.777050 0.924731
O O5 0.189357 0.521743 0.257040
O O6 0.407620 0.376409 0.244745
O O7 0.199588 0.075844 0.583556
O O8 0.000000 0.000000 0.500000
O O9 0.469742 0.813573 0.190749
O O10 0.382069 0.803057 0.744375
O O11 0.500000 0.500000 0.000000
O O12 0.709694 0.058156 0.186189
O O13 0.000000 0.500000 0.000000
O O14 0.500000 0.500000 0.500000
#
# Coordination Sequence:
#
# PCOD9089382 Si02
#       6
#     2   2   2   2   2   2
#     4   9  19  37  65  92 121 172 209 260 328 388
#     4  12  26  40  63  96 133 174 223 270 320 390
#     4   9  19  39  63  94 121 169 217 260 325 386
#     4  12  23  41  63  91 131 175 217 271 327 381
#     4  12  24  42  68  97 132 170 221 267 329 392
#     4  10  19  37  69  93 126 165 216 265 323 385
#
# _framework density 23.001553000000001
#
# number of rings (size 3 to 8) (size 9 to 14) (size 15 to 20)
#    1.000    0.333    3.333    3.500    0.000    0.667 
#    0.000    0.000    0.000    3.000    0.000    0.000 
#    0.000    0.000    0.000    0.000    0.000    0.000 
#
# Total GULP energy -66889.673429 kJ/mol
# GULP energy per Si atom -5574.139452 kJ/mol
# Density = 2.294920 g / cm^3
# Si number density = 23.001553 Si / 1000 Ang^3
#
#
#
# Elastic Constant Matrix: (Units=GPa)
#
#
# Indices 1 2 3 4 5 6 
#
# 1 60.8890 32.6419 7.7829 -5.6290 5.2280 4.1311
# 2 32.6419 181.1488 31.1091 -29.0029 -5.6593 2.9674
# 3 7.7829 31.1091 63.1557 -12.0518 -8.7985 12.7534
# 4 -5.6290 -29.0029 -12.0518 51.0936 2.0886 -3.9926
# 5 5.2280 -5.6593 -8.7985 2.0886 36.6877 -10.3319
# 6 4.1311 2.9674 12.7534 -3.9926 -10.3319 48.1731
#
#
#
# Elastic Compliance Matrix: (Units=1/GPa)
#
#
# Indices 1 2 3 4 5 6 
#
# 1 0.018795 -0.003340 -0.000814 -0.000015 -0.003963 -0.002042
# 2 -0.003340 0.007068 -0.002537 0.003081 0.001066 0.001007
# 3 -0.000814 -0.002537 0.018869 0.002492 0.003004 -0.003918
# 4 -0.000015 0.003081 0.002492 0.021981 0.000104 0.000996
# 5 -0.003963 0.001066 0.003004 0.000104 0.030392 0.006006
# 6 -0.002042 0.001007 -0.003918 0.000996 0.006006 0.023280
#
#
# Mechanical properties :
#
#
# Convention : Reuss Voigt Hill
#
# Bulk Modulus (GPa) = 31.89610 49.80681 40.85145
# Shear Modulus (GPa) = 34.67040 42.76817 38.71928
#
# Velocity S-wave (km/s) = 3.88662 4.31671 4.10730
# Velocity P-wave (km/s) = 5.83422 6.82246 6.34760
#
# Compressibility (1/GPa) = 0.03135180
#
# Stress axis : x y z
#
# Youngs Moduli (GPa) = 53.20521 141.48619 52.99662
#
# Poissons Ratio (x) = 0.47253 0.04312
# Poissons Ratio (y) = 0.17769 0.13444
# Poissons Ratio (z) = 0.04329 0.35892
#
# Static dielectric constant tensor:
#      x y z
#    x 1.890290 -0.020070 -0.027480 
#    y -0.020070 1.935960 -0.028130 
#    z -0.027480 -0.028130 1.940780 
# 
# From -- ./inp_files/451928.got.cif
#   From: 2010.05.17/outbox.cif.g08.bks.cpg/sg2_226_cif.got.tgz:451928.got - 2010.06.03 11:33:40.
