data_PCOD9089759
_publ_section_title
;
Structure prediction by ZEFSAII (Michael W. Deem and Ramdas Pophale) SiO2 
 PCOD9089759
Probable space group: P -1
;
_chemical_formula_sum "Si O2"
_cell_formula_units_Z 16
_cell_length_a 14.355335
_cell_length_b 11.446470
_cell_length_c 14.968716
_cell_angle_alpha 139.226073
_cell_angle_beta 51.900477
_cell_angle_gamma 148.910293
_cell_volume 825.849850
_symmetry_space_group_name_H-M "P -1"
_symmetry_group_IT_number 2
_symmetry_cell_setting 'triclinic'
loop_
_space_group_symop_operation_xyz
x,y,z
-x,-y,-z
loop_
_atom_site_type_symbol
_atom_site_label
_atom_site_fract_x
_atom_site_fract_y
_atom_site_fract_z
Si Si1 0.691568 0.424063 0.067175
Si Si2 0.924744 0.218010 0.906818
Si Si3 0.600468 0.075128 0.576912
Si Si4 0.237619 0.121409 0.679125
Si Si5 0.045793 0.068395 0.407486
Si Si6 0.757376 0.342670 0.348154
Si Si7 0.996699 0.627846 0.661075
Si Si8 0.356941 0.867372 0.896791
O O1 0.640951 0.573891 0.185458
O O2 0.655995 0.294875 0.111224
O O3 0.908675 0.665403 0.064687
O O4 0.565962 0.158634 0.925568
O O5 0.896878 0.051704 0.743849
O O6 0.739042 0.058891 0.971734
O O7 0.000000 0.500000 0.000000
O O8 0.782626 0.398874 0.674061
O O9 0.500000 0.000000 0.500000
O O10 0.662503 0.940594 0.450756
O O11 0.445551 0.925391 0.654196
O O12 0.123855 0.062655 0.627817
O O13 0.106734 0.919229 0.722960
O O14 0.185484 0.392785 0.502742
O O15 0.000000 0.000000 0.500000
O O16 0.751982 0.325873 0.235347
O O17 0.893676 0.352575 0.315867
O O18 0.000000 0.500000 0.500000
#
# Coordination Sequence:
#
# PCOD9089759 Si02
#       8
#     2   2   2   2   2   2   2   2
#     4   9  20  40  60  82 121 159 202 240 295 369
#     4   9  19  38  60  77 118 168 189 232 305 349
#     4  11  20  36  61  89 117 161 195 248 315 351
#     4  10  19  38  61  88 120 156 200 252 304 358
#     4  11  21  37  62  96 123 153 204 253 292 365
#     4  12  22  37  62  93 120 154 207 253 298 361
#     4  10  19  39  58  86 123 155 194 257 313 349
#     4  10  22  40  59  86 124 164 196 243 302 363
#
# _framework density 19.373982000000002
#
# number of rings (size 3 to 8) (size 9 to 14) (size 15 to 20)
#    0.000    1.750    5.000    2.250    1.750    1.000 
#    6.750    1.875    0.000    3.750    0.000    0.000 
#    0.000    0.000    0.000    0.000    0.000    0.000 
#
# Total GULP energy -89102.295594 kJ/mol
# GULP energy per Si atom -5568.893475 kJ/mol
# Density = 1.932989 g / cm^3
# Si number density = 19.373982 Si / 1000 Ang^3
#
#
#
# Elastic Constant Matrix: (Units=GPa)
#
#
# Indices 1 2 3 4 5 6 
#
# 1 80.1900 18.6765 26.3852 9.2169 0.2150 -3.4289
# 2 18.6765 89.0861 9.9331 15.2002 1.0730 9.6119
# 3 26.3852 9.9331 80.8570 15.7127 -4.3722 -1.3940
# 4 9.2169 15.2002 15.7127 28.0119 4.2620 -2.5140
# 5 0.2150 1.0730 -4.3722 4.2620 23.4762 0.6259
# 6 -3.4289 9.6119 -1.3940 -2.5140 0.6259 22.4836
#
#
#
# Elastic Compliance Matrix: (Units=1/GPa)
#
#
# Indices 1 2 3 4 5 6 
#
# 1 0.014765 -0.002866 -0.004370 -0.000441 -0.000823 0.003180
# 2 -0.002866 0.013840 0.000681 -0.007767 0.001123 -0.007211
# 3 -0.004370 0.000681 0.015574 -0.008443 0.004470 -0.001060
# 4 -0.000441 -0.007767 -0.008443 0.047054 -0.009976 0.008269
# 5 -0.000823 0.001123 0.004470 -0.009976 0.045268 -0.002704
# 6 0.003180 -0.007211 -0.001060 0.008269 -0.002704 0.048979
#
#
# Mechanical properties :
#
#
# Convention : Reuss Voigt Hill
#
# Bulk Modulus (GPa) = 32.18734 40.01364 36.10049
# Shear Modulus (GPa) = 23.92964 27.80356 25.86660
#
# Velocity S-wave (km/s) = 3.51827 3.79238 3.65789
# Velocity P-wave (km/s) = 5.75796 6.31461 6.04270
#
# Compressibility (1/GPa) = 0.03106812
#
# Stress axis : x y z
#
# Youngs Moduli (GPa) = 67.72980 72.25582 64.20982
#
# Poissons Ratio (x) = 0.20708 0.28058
# Poissons Ratio (y) = 0.19411 -0.04371
# Poissons Ratio (z) = 0.29597 -0.04918
#
# Static dielectric constant tensor:
#      x y z
#    x 1.698380 0.066510 -0.003770 
#    y 0.066510 1.612270 -0.098070 
#    z -0.003770 -0.098070 1.691410 
# 
# From -- ./inp_files/532720.got.cif
#   From: 2010.05.17/outbox.cif.g08.bks.cpg/sg2_267_cif.got.tgz:532720.got - 2010.06.03 11:33:40.
