data_PCOD9089302
_publ_section_title
;
Structure prediction by ZEFSAII (Michael W. Deem and Ramdas Pophale) SiO2 
 PCOD9089302
Probable space group: P -1
;
_chemical_formula_sum "Si O2"
_cell_formula_units_Z 16
_cell_length_a 9.847126
_cell_length_b 7.937979
_cell_length_c 16.093424
_cell_angle_alpha 110.261100
_cell_angle_beta 144.959469
_cell_angle_gamma 72.530496
_cell_volume 677.251483
_symmetry_space_group_name_H-M "P -1"
_symmetry_group_IT_number 2
_symmetry_cell_setting 'triclinic'
loop_
_space_group_symop_operation_xyz
x,y,z
-x,-y,-z
loop_
_atom_site_type_symbol
_atom_site_label
_atom_site_fract_x
_atom_site_fract_y
_atom_site_fract_z
Si Si1 0.963336 0.836573 0.304981
Si Si2 0.801819 0.031157 0.976800
Si Si3 0.437403 0.733969 0.586759
Si Si4 0.646236 0.861495 0.312949
Si Si5 0.503277 0.322980 0.214750
Si Si6 0.935450 0.696799 0.748112
Si Si7 0.314945 0.442605 0.968992
Si Si8 0.968177 0.756994 0.593627
O O1 0.195105 0.707769 0.411891
O O2 0.841449 0.859212 0.338118
O O3 0.770619 0.754836 0.134082
O O4 0.043057 0.032317 0.352214
O O5 0.601299 0.167495 0.861353
O O6 0.664230 0.851261 0.899016
O O7 0.930777 0.118719 0.133652
O O8 0.000000 0.000000 0.000000
O O9 0.496318 0.616664 0.678428
O O10 0.662970 0.720725 0.638951
O O11 0.397082 0.938903 0.635986
O O12 0.754931 0.734747 0.417911
O O13 0.778184 0.274386 0.326931
O O14 0.415520 0.437707 0.111383
O O15 0.078909 0.563494 0.858239
O O16 0.963256 0.648086 0.657404
O O17 0.500000 0.500000 0.000000
#
# Coordination Sequence:
#
# PCOD9089302 Si02
#       8
#     2   2   2   2   2   2   2   2
#     4  11  21  41  68  93 123 167 213 260 317 383
#     4  11  21  40  67  97 126 159 209 264 316 369
#     4  10  21  42  66  91 127 160 212 268 319 367
#     4  10  19  37  67  96 121 160 211 262 313 372
#     4  11  21  43  67  93 123 170 213 258 320 371
#     4  12  25  42  61  95 136 164 207 269 313 375
#     4  12  27  41  61  94 134 171 213 257 313 382
#     4  11  21  39  70  96 121 163 218 267 314 363
#
# _framework density 23.624903
#
# number of rings (size 3 to 8) (size 9 to 14) (size 15 to 20)
#    0.000    1.000    7.500    2.250    0.000    4.000 
#    2.250    3.750    0.000    0.000    0.000    0.000 
#    0.000    0.000    0.000    0.000    0.000    0.000 
#
# Total GULP energy -89460.850816 kJ/mol
# GULP energy per Si atom -5591.303176 kJ/mol
# Density = 2.357113 g / cm^3
# Si number density = 23.624903 Si / 1000 Ang^3
#
#
#
# Elastic Constant Matrix: (Units=GPa)
#
#
# Indices 1 2 3 4 5 6 
#
# 1 100.3497 3.2250 52.4820 -19.3047 19.1490 0.2822
# 2 3.2250 45.8361 11.3592 -9.4179 11.1222 13.8365
# 3 52.4820 11.3592 125.1708 -21.1699 5.9972 6.7856
# 4 -19.3047 -9.4179 -21.1699 40.6625 -1.1675 -1.2249
# 5 19.1490 11.1222 5.9972 -1.1675 44.6699 -13.4669
# 6 0.2822 13.8365 6.7856 -1.2249 -13.4669 28.7920
#
#
#
# Elastic Compliance Matrix: (Units=1/GPa)
#
#
# Indices 1 2 3 4 5 6 
#
# 1 0.015156 0.004797 -0.005249 0.005188 -0.008325 -0.004890
# 2 0.004797 0.035384 -0.001612 0.008377 -0.017869 -0.024673
# 3 -0.005249 -0.001612 0.010823 0.002760 0.000915 -0.001179
# 4 0.005188 0.008377 0.002760 0.030083 -0.005743 -0.006134
# 5 -0.008325 -0.017869 0.000915 -0.005743 0.037959 0.025964
# 6 -0.004890 -0.024673 -0.001179 -0.006134 0.025964 0.058798
#
#
# Mechanical properties :
#
#
# Convention : Reuss Voigt Hill
#
# Bulk Modulus (GPa) = 17.47153 45.05433 31.26293
# Shear Modulus (GPa) = 23.65064 36.44426 30.04745
#
# Velocity S-wave (km/s) = 3.16743 3.93188 3.57018
# Velocity P-wave (km/s) = 4.55942 6.30278 5.50060
#
# Compressibility (1/GPa) = 0.05723596
#
# Stress axis : x y z
#
# Youngs Moduli (GPa) = 65.97845 28.26113 92.39568
#
# Poissons Ratio (x) = -0.13556 0.48497
# Poissons Ratio (y) = -0.31647 0.14892
# Poissons Ratio (z) = 0.34631 0.04555
#
# Static dielectric constant tensor:
#      x y z
#    x 1.821980 0.021670 -0.019820 
#    y 0.021670 1.986250 0.052740 
#    z -0.019820 0.052740 1.932930 
# 
# From -- ./inp_files/313631.got.cif
#   From: 2010.05.17/outbox.cif.g08.bks.cpg/sg2_157_cif.got.tgz:313631.got - 2010.06.03 11:33:40.
