data_PCOD9089648
_publ_section_title
;
Structure prediction by ZEFSAII (Michael W. Deem and Ramdas Pophale) SiO2 
 PCOD9089648
Probable space group: P -1
;
_chemical_formula_sum "Si O2"
_cell_formula_units_Z 12
_cell_length_a 15.144086
_cell_length_b 7.117989
_cell_length_c 10.810132
_cell_angle_alpha 74.119081
_cell_angle_beta 25.297020
_cell_angle_gamma 66.591908
_cell_volume 445.952419
_symmetry_space_group_name_H-M "P -1"
_symmetry_group_IT_number 2
_symmetry_cell_setting 'triclinic'
loop_
_space_group_symop_operation_xyz
x,y,z
-x,-y,-z
loop_
_atom_site_type_symbol
_atom_site_label
_atom_site_fract_x
_atom_site_fract_y
_atom_site_fract_z
Si Si1 0.551775 0.040499 0.564645
Si Si2 0.718744 0.336155 0.423831
Si Si3 0.740279 0.353568 0.044883
Si Si4 0.915626 0.669814 0.866575
Si Si5 0.279743 0.470249 0.235213
Si Si6 0.210925 0.081395 0.489988
O O1 0.708596 0.864497 0.487614
O O2 0.500000 0.000000 0.500000
O O3 0.676372 0.208919 0.382442
O O4 0.305385 0.131674 0.917837
O O5 0.955696 0.328323 0.169909
O O6 0.676854 0.171259 0.608240
O O7 0.527100 0.564539 0.626120
O O8 0.814841 0.487288 0.027843
O O9 0.766665 0.445481 0.859457
O O10 0.946793 0.134184 0.818506
O O11 0.090024 0.609813 0.545257
O O12 0.276477 0.234313 0.290238
O O13 0.500000 0.500000 0.000000
#
# Coordination Sequence:
#
# PCOD9089648 Si02
#       6
#     2   2   2   2   2   2
#     4   9  21  41  62  85 120 153 202 257 294 343
#     4   9  20  38  60  89 117 155 206 242 290 361
#     4  10  20  40  55  86 128 153 193 244 288 353
#     4  10  19  38  60  86 121 155 197 251 281 356
#     4  11  21  38  61  88 127 161 190 241 298 356
#     4   9  21  38  60  87 120 161 201 237 299 355
#
# _framework density 26.908701000000001
#
# number of rings (size 3 to 8) (size 9 to 14) (size 15 to 20)
#    1.000    1.333    1.667    2.000    0.000    2.667 
#    3.000   10.000    0.000    5.000    0.000    0.000 
#    0.000    0.000    0.000    0.000    0.000    0.000 
#
# Total GULP energy -66985.253489 kJ/mol
# GULP energy per Si atom -5582.104457 kJ/mol
# Density = 2.684746 g / cm^3
# Si number density = 26.908701 Si / 1000 Ang^3
#
#
#
# Elastic Constant Matrix: (Units=GPa)
#
#
# Indices 1 2 3 4 5 6 
#
# 1 143.2594 32.8284 23.6682 -6.0571 -51.0143 15.2063
# 2 32.8284 78.5053 29.8808 1.1910 -18.9630 -7.3759
# 3 23.6682 29.8808 136.6071 6.1946 -35.0394 -12.2542
# 4 -6.0571 1.1910 6.1946 40.5863 -4.0250 -22.7149
# 5 -51.0143 -18.9630 -35.0394 -4.0250 60.3827 -3.3653
# 6 15.2063 -7.3759 -12.2542 -22.7149 -3.3653 34.7441
#
#
#
# Elastic Compliance Matrix: (Units=1/GPa)
#
#
# Indices 1 2 3 4 5 6 
#
# 1 0.011122 -0.003250 0.000536 -0.000061 0.008427 -0.004592
# 2 -0.003250 0.015792 -0.002080 0.002945 0.001544 0.006116
# 3 0.000536 -0.002080 0.009433 0.001651 0.005622 0.004275
# 4 -0.000061 0.002945 0.001651 0.040885 0.006149 0.028560
# 5 0.008427 0.001544 0.005622 0.006149 0.028137 0.005368
# 6 -0.004592 0.006116 0.004275 0.028560 0.005368 0.052790
#
#
# Mechanical properties :
#
#
# Convention : Reuss Voigt Hill
#
# Bulk Modulus (GPa) = 37.37035 59.01406 48.19221
# Shear Modulus (GPa) = 28.30198 45.27555 36.78877
#
# Velocity S-wave (km/s) = 3.24663 4.10635 3.70154
# Velocity P-wave (km/s) = 5.28887 6.66796 6.01805
#
# Compressibility (1/GPa) = 0.02675918
#
# Stress axis : x y z
#
# Youngs Moduli (GPa) = 89.90971 63.32471 106.01125
#
# Poissons Ratio (x) = 0.20581 -0.05685
# Poissons Ratio (y) = 0.29221 0.22051
# Poissons Ratio (z) = -0.04821 0.13172
#
# Static dielectric constant tensor:
#      x y z
#    x 2.213790 -0.017400 0.085560 
#    y -0.017400 2.213890 -0.043120 
#    z 0.085560 -0.043120 2.108010 
# 
# From -- ./inp_files/315525.got.cif
#   From: 2010.05.17/outbox.cif.g08.bks.cpg/sg2_158_cif.got.tgz:315525.got - 2010.06.03 11:33:40.
