data_PCOD9089921
_publ_section_title
;
Structure prediction by ZEFSAII (Michael W. Deem and Ramdas Pophale) SiO2 
 PCOD9089921
Probable space group: P -1
;
_chemical_formula_sum "Si O2"
_cell_formula_units_Z 14
_cell_length_a 9.051943
_cell_length_b 9.731260
_cell_length_c 9.507786
_cell_angle_alpha 81.295443
_cell_angle_beta 81.371547
_cell_angle_gamma 135.732144
_cell_volume 535.806681
_symmetry_space_group_name_H-M "P -1"
_symmetry_group_IT_number 2
_symmetry_cell_setting 'triclinic'
loop_
_space_group_symop_operation_xyz
x,y,z
-x,-y,-z
loop_
_atom_site_type_symbol
_atom_site_label
_atom_site_fract_x
_atom_site_fract_y
_atom_site_fract_z
Si Si1 0.095793 0.656591 0.829736
Si Si2 0.905982 0.729374 0.046914
Si Si3 0.738928 0.449132 0.685022
Si Si4 0.415093 0.107907 0.283980
Si Si5 0.247112 0.235038 0.456797
Si Si6 0.098768 0.353816 0.645225
Si Si7 0.640562 0.798904 0.016169
O O1 0.366413 0.837179 0.741200
O O2 0.948198 0.535101 0.729411
O O3 0.000000 0.500000 0.000000
O O4 0.013543 0.748293 0.886100
O O5 0.867594 0.596178 0.202746
O O6 0.691531 0.673463 0.051876
O O7 0.108380 0.960117 0.052460
O O8 0.729893 0.612013 0.666700
O O9 0.784259 0.461031 0.512175
O O10 0.513539 0.246211 0.830899
O O11 0.396355 0.208207 0.396027
O O12 0.459056 0.225210 0.115135
O O13 0.167211 0.857722 0.332964
O O14 0.233660 0.300232 0.601534
O O15 0.000000 0.000000 0.500000
#
# Coordination Sequence:
#
# PCOD9089921 Si02
#       7
#     2   2   2   2   2   2   2
#     4  12  25  38  63  98 125 167 210 251 304 382
#     4  10  23  42  64  91 126 162 209 255 318 368
#     4  10  21  40  65  94 121 158 219 254 305 359
#     4  10  19  38  62  91 127 163 202 252 313 365
#     4   8  17  36  63  89 120 156 203 260 301 354
#     4   8  20  39  64  86 123 161 206 257 309 359
#     4  10  21  39  67  91 120 164 212 262 304 359
#
# _framework density 26.128827000000001
#
# number of rings (size 3 to 8) (size 9 to 14) (size 15 to 20)
#    0.857    1.429    1.429    0.857    2.000    5.714 
#    0.000    0.714    3.143    0.000    0.000    0.000 
#    0.000    0.000    0.000    0.000    0.000    0.000 
#
# Total GULP energy -78207.485483 kJ/mol
# GULP energy per Si atom -5586.248963 kJ/mol
# Density = 2.606936 g / cm^3
# Si number density = 26.128827 Si / 1000 Ang^3
#
#
#
# Elastic Constant Matrix: (Units=GPa)
#
#
# Indices 1 2 3 4 5 6 
#
# 1 132.5327 10.9843 59.2794 9.4623 -24.7941 38.7667
# 2 10.9843 42.7289 22.6494 6.0077 -0.3584 17.3790
# 3 59.2794 22.6494 158.2783 16.5388 -25.6599 21.9155
# 4 9.4623 6.0077 16.5388 46.6371 3.0897 -5.2278
# 5 -24.7941 -0.3584 -25.6599 3.0897 54.1387 2.3095
# 6 38.7667 17.3790 21.9155 -5.2278 2.3095 34.0236
#
#
#
# Elastic Compliance Matrix: (Units=1/GPa)
#
#
# Indices 1 2 3 4 5 6 
#
# 1 0.016422 0.007017 -0.002070 -0.006549 0.007920 -0.022506
# 2 0.007017 0.034478 -0.002591 -0.008046 0.003758 -0.025429
# 3 -0.002070 -0.002591 0.008670 -0.002835 0.003415 -0.002570
# 4 -0.006549 -0.008046 -0.002835 0.027281 -0.006723 0.018046
# 5 0.007920 0.003758 0.003415 -0.006723 0.024802 -0.015860
# 6 -0.022506 -0.025429 -0.002570 0.018046 -0.015860 0.073529
#
#
# Mechanical properties :
#
#
# Convention : Reuss Voigt Hill
#
# Bulk Modulus (GPa) = 15.55651 57.70733 36.63192
# Shear Modulus (GPa) = 24.76499 43.00165 33.88332
#
# Velocity S-wave (km/s) = 3.08198 4.06119 3.60499
# Velocity P-wave (km/s) = 4.31642 6.64264 5.60162
#
# Compressibility (1/GPa) = 0.06428176
#
# Stress axis : x y z
#
# Youngs Moduli (GPa) = 60.89340 29.00378 115.34269
#
# Poissons Ratio (x) = -0.20351 0.23876
# Poissons Ratio (y) = -0.42728 0.29885
# Poissons Ratio (z) = 0.12605 0.07515
#
# Static dielectric constant tensor:
#      x y z
#    x 2.095340 -0.085880 -0.031830 
#    y -0.085880 2.093650 0.027060 
#    z -0.031830 0.027060 2.118200 
# 
# From -- ./inp_files/387081.got.cif
#   From: 2010.05.17/outbox.cif.g08.bks.cpg/sg2_194_cif.got.tgz:387081.got - 2010.06.03 11:33:40.
