data_PCOD9089377
_publ_section_title
;
Structure prediction by ZEFSAII (Michael W. Deem and Ramdas Pophale) SiO2 
 PCOD9089377
Probable space group: P -1
;
_chemical_formula_sum "Si O2"
_cell_formula_units_Z 14
_cell_length_a 17.777300
_cell_length_b 9.067167
_cell_length_c 13.805115
_cell_angle_alpha 43.189828
_cell_angle_beta 154.530504
_cell_angle_gamma 132.464478
_cell_volume 653.854011
_symmetry_space_group_name_H-M "P -1"
_symmetry_group_IT_number 2
_symmetry_cell_setting 'triclinic'
loop_
_space_group_symop_operation_xyz
x,y,z
-x,-y,-z
loop_
_atom_site_type_symbol
_atom_site_label
_atom_site_fract_x
_atom_site_fract_y
_atom_site_fract_z
Si Si1 0.815260 0.200985 0.705140
Si Si2 0.736591 0.446716 0.034326
Si Si3 0.305403 0.037525 0.797618
Si Si4 0.945533 0.829736 0.724096
Si Si5 0.430860 0.451073 0.834877
Si Si6 0.146525 0.445608 0.075628
Si Si7 0.074863 0.140277 0.875780
O O1 0.676168 0.353999 0.425541
O O2 0.963564 0.355008 0.857213
O O3 0.905205 0.094638 0.768287
O O4 0.779783 0.007796 0.834477
O O5 0.581620 0.435145 0.936892
O O6 0.780190 0.203924 0.173460
O O7 0.714058 0.549022 0.851894
O O8 0.876967 0.608402 0.174113
O O9 0.182325 0.140949 0.526648
O O10 0.327881 0.214764 0.823781
O O11 0.500000 0.000000 0.000000
O O12 0.102920 0.678407 0.954492
O O13 0.830596 0.706560 0.733515
O O14 0.025922 0.052706 0.755723
O O15 0.500000 0.500000 0.000000
#
# Coordination Sequence:
#
# PCOD9089377 Si02
#       7
#     2   2   2   2   2   2   2
#     4   9  18  39  63  86 124 159 199 248 305 356
#     4  10  23  42  58  95 128 151 208 251 295 359
#     4  10  23  41  59  88 129 165 196 247 307 364
#     4  10  19  37  69  89 121 162 198 242 316 362
#     4  11  24  42  63  83 123 173 202 240 311 365
#     4   9  19  39  65  93 117 156 206 255 297 352
#     4   9  20  36  64  96 116 153 202 256 298 349
#
# _framework density 21.411508000000001
#
# number of rings (size 3 to 8) (size 9 to 14) (size 15 to 20)
#    0.000    2.286    1.429    0.857    4.000    2.857 
#    2.571    2.857    0.000    0.000    0.000    0.000 
#    0.000    0.000    0.000    0.000    0.000    0.000 
#
# Total GULP energy -77974.419726 kJ/mol
# GULP energy per Si atom -5569.601409 kJ/mol
# Density = 2.136277 g / cm^3
# Si number density = 21.411508 Si / 1000 Ang^3
#
#
#
# Elastic Constant Matrix: (Units=GPa)
#
#
# Indices 1 2 3 4 5 6 
#
# 1 75.4038 27.5728 6.4813 -3.0874 -16.4670 -12.1231
# 2 27.5728 152.4254 38.7586 -0.3405 -15.0607 -36.3347
# 3 6.4813 38.7586 82.8489 -5.0709 -11.0096 -8.4785
# 4 -3.0874 -0.3405 -5.0709 17.2637 -2.1861 -7.1359
# 5 -16.4670 -15.0607 -11.0096 -2.1861 12.6634 0.0788
# 6 -12.1231 -36.3347 -8.4785 -7.1359 0.0788 33.7493
#
#
#
# Elastic Compliance Matrix: (Units=1/GPa)
#
#
# Indices 1 2 3 4 5 6 
#
# 1 0.024650 0.002345 0.005449 0.018280 0.042633 0.016514
# 2 0.002345 0.011770 -0.001333 0.008635 0.017287 0.014964
# 3 0.005449 -0.001333 0.016605 0.011523 0.021882 0.007079
# 4 0.018280 0.008635 0.011523 0.087562 0.058942 0.037133
# 5 0.042633 0.017287 0.021882 0.058942 0.183845 0.051456
# 6 0.016514 0.014964 0.007079 0.037133 0.051456 0.061183
#
#
# Mechanical properties :
#
#
# Convention : Reuss Voigt Hill
#
# Bulk Modulus (GPa) = 15.16366 50.70040 32.93203
# Shear Modulus (GPa) = 12.66871 28.59296 20.63084
#
# Velocity S-wave (km/s) = 2.43508 3.65828 3.10746
# Velocity P-wave (km/s) = 3.87344 6.44783 5.31874
#
# Compressibility (1/GPa) = 0.06594713
#
# Stress axis : x y z
#
# Youngs Moduli (GPa) = 40.56834 84.96444 60.22322
#
# Poissons Ratio (x) = -0.19927 -0.32813
# Poissons Ratio (y) = -0.09514 0.08025
# Poissons Ratio (z) = -0.22104 0.11322
#
# Static dielectric constant tensor:
#      x y z
#    x 1.455490 -0.174660 -0.434160 
#    y -0.174660 1.748540 -0.300230 
#    z -0.434160 -0.300230 1.273720 
# 
# From -- ./inp_files/174193.got.cif
#   From: 2010.05.17/outbox.cif.g08.bks.cpg/sg2_88_cif.got.tgz:174193.got - 2010.06.03 11:33:40.
