data_PCOD9089073
_publ_section_title
;
Structure prediction by ZEFSAII (Michael W. Deem and Ramdas Pophale) SiO2 
 PCOD9089073
Probable space group: P -1
;
_chemical_formula_sum "Si O2"
_cell_formula_units_Z 16
_cell_length_a 9.702280
_cell_length_b 15.108991
_cell_length_c 14.262208
_cell_angle_alpha 32.764269
_cell_angle_beta 96.560791
_cell_angle_gamma 71.983228
_cell_volume 738.376078
_symmetry_space_group_name_H-M "P -1"
_symmetry_group_IT_number 2
_symmetry_cell_setting 'triclinic'
loop_
_space_group_symop_operation_xyz
x,y,z
-x,-y,-z
loop_
_atom_site_type_symbol
_atom_site_label
_atom_site_fract_x
_atom_site_fract_y
_atom_site_fract_z
Si Si1 0.928348 0.133994 0.485348
Si Si2 0.283374 0.616793 0.417813
Si Si3 0.994260 0.825905 0.037537
Si Si4 0.644549 0.554803 0.225326
Si Si5 0.210210 0.253465 0.019394
Si Si6 0.615627 0.108669 0.468488
Si Si7 0.715856 0.367038 0.948256
Si Si8 0.084678 0.314849 0.256036
O O1 0.854151 0.280664 0.446266
O O2 0.757886 0.147021 0.438116
O O3 0.952574 0.263643 0.301619
O O4 0.151642 0.852540 0.771013
O O5 0.500000 0.500000 0.500000
O O6 0.151083 0.656610 0.287210
O O7 0.338857 0.450696 0.657023
O O8 0.139972 0.892786 0.200673
O O9 0.129730 0.724941 0.042966
O O10 0.836183 0.820001 0.006787
O O11 0.458871 0.597919 0.141125
O O12 0.640553 0.730774 0.014962
O O13 0.305859 0.062157 0.282302
O O14 0.987423 0.526215 0.797862
O O15 0.387516 0.383921 0.230774
O O16 0.679433 0.948923 0.522644
O O17 0.000000 0.500000 0.000000
#
# Coordination Sequence:
#
# PCOD9089073 Si02
#       8
#     2   2   2   2   2   2   2   2
#     4  10  19  37  65  85 121 163 207 243 292 357
#     4  11  22  39  67  88 116 156 206 250 292 364
#     4  11  22  39  64  90 117 156 204 246 300 361
#     4  10  21  39  60  90 123 160 197 248 309 351
#     4  10  21  41  60  85 129 161 193 251 308 352
#     4  10  20  37  62  88 119 165 204 248 290 355
#     4  11  20  37  64  90 118 162 208 242 293 360
#     4   9  20  38  60  89 125 163 196 248 303 345
#
# _framework density 21.669173000000001
#
# number of rings (size 3 to 8) (size 9 to 14) (size 15 to 20)
#    0.000    1.750    3.750    1.125    0.000    1.000 
#    4.500    1.250    0.000    0.000    0.000    0.000 
#    0.000    0.000    0.000    0.000    0.000    0.000 
#
# Total GULP energy -89348.961060 kJ/mol
# GULP energy per Si atom -5584.310066 kJ/mol
# Density = 2.161985 g / cm^3
# Si number density = 21.669173 Si / 1000 Ang^3
#
#
#
# Elastic Constant Matrix: (Units=GPa)
#
#
# Indices 1 2 3 4 5 6 
#
# 1 62.3429 17.3014 27.3435 3.5736 -13.6157 -14.5094
# 2 17.3014 78.3752 26.8131 7.6932 -13.0614 -9.2891
# 3 27.3435 26.8131 79.5801 -12.9269 -3.7351 -9.2712
# 4 3.5736 7.6932 -12.9269 25.8659 -0.6220 1.0936
# 5 -13.6157 -13.0614 -3.7351 -0.6220 27.6202 2.2813
# 6 -14.5094 -9.2891 -9.2712 1.0936 2.2813 40.0068
#
#
#
# Elastic Compliance Matrix: (Units=1/GPa)
#
#
# Indices 1 2 3 4 5 6 
#
# 1 0.023703 0.000915 -0.008487 -0.007815 0.010259 0.006471
# 2 0.000915 0.017286 -0.006903 -0.008651 0.007285 0.002567
# 3 -0.008487 -0.006903 0.019677 0.012961 -0.004477 -0.000220
# 4 -0.007815 -0.008651 0.012961 0.048797 -0.004853 -0.002896
# 5 0.010259 0.007285 -0.004477 -0.004853 0.043827 0.002008
# 6 0.006471 0.002567 -0.000220 -0.002896 0.002008 0.027852
#
#
# Mechanical properties :
#
#
# Convention : Reuss Voigt Hill
#
# Bulk Modulus (GPa) = 31.52853 40.35712 35.94282
# Shear Modulus (GPa) = 22.65873 28.62129 25.64001
#
# Velocity S-wave (km/s) = 3.23718 3.63827 3.44357
# Velocity P-wave (km/s) = 5.34360 6.02610 5.69508
#
# Compressibility (1/GPa) = 0.03171731
#
# Stress axis : x y z
#
# Youngs Moduli (GPa) = 42.18825 57.84955 50.81965
#
# Poissons Ratio (x) = -0.05291 0.43129
# Poissons Ratio (y) = -0.03859 0.35080
# Poissons Ratio (z) = 0.35804 0.39933
#
# Static dielectric constant tensor:
#      x y z
#    x 1.805490 -0.011140 0.003260 
#    y -0.011140 1.793590 -0.039900 
#    z 0.003260 -0.039900 1.795540 
# 
# From -- ./inp_files/52221.got.cif
#   From: 2010.05.17/outbox.cif.g08.bks.cpg/sg2_27_cif.got.tgz:52221.got - 2010.06.03 11:33:40.
