data_PCOD9089736
_publ_section_title
;
Structure prediction by ZEFSAII (Michael W. Deem and Ramdas Pophale) SiO2 
 PCOD9089736
Probable space group: P -1
;
_chemical_formula_sum "Si O2"
_cell_formula_units_Z 16
_cell_length_a 7.120336
_cell_length_b 11.227297
_cell_length_c 9.883565
_cell_angle_alpha 98.310048
_cell_angle_beta 93.585954
_cell_angle_gamma 124.954003
_cell_volume 630.411986
_symmetry_space_group_name_H-M "P -1"
_symmetry_group_IT_number 2
_symmetry_cell_setting 'triclinic'
loop_
_space_group_symop_operation_xyz
x,y,z
-x,-y,-z
loop_
_atom_site_type_symbol
_atom_site_label
_atom_site_fract_x
_atom_site_fract_y
_atom_site_fract_z
Si Si1 0.384297 0.280746 0.175177
Si Si2 0.858370 0.275148 0.368760
Si Si3 0.218982 0.038899 0.341228
Si Si4 0.778478 0.509596 0.402343
Si Si5 0.500739 0.675807 0.120435
Si Si6 0.294285 0.044975 0.647611
Si Si7 0.015552 0.290513 0.800307
Si Si8 0.046324 0.350740 0.105577
O O1 0.527327 0.421282 0.306646
O O2 0.140952 0.251538 0.122700
O O3 0.343321 0.144434 0.235396
O O4 0.507773 0.314088 0.040982
O O5 0.782006 0.375801 0.439284
O O6 0.711398 0.101042 0.360119
O O7 0.117650 0.360349 0.460704
O O8 0.880359 0.309696 0.216720
O O9 0.337750 0.095317 0.501968
O O10 0.157116 0.877080 0.286085
O O11 0.970432 0.013119 0.340702
O O12 0.946830 0.598532 0.296447
O O13 0.732140 0.680465 0.160203
O O14 0.545658 0.817058 0.223549
O O15 0.725558 0.479401 0.863029
O O16 0.942987 0.315410 0.945416
#
# Coordination Sequence:
#
# PCOD9089736 Si02
#       8
#     2   2   2   2   2   2   2   2
#     4  11  21  38  62  90 116 154 196 239 293 339
#     4  11  25  40  60  85 120 159 191 236 297 348
#     4  10  21  34  62  89 116 155 192 241 293 339
#     4  11  23  43  59  82 123 156 193 240 289 353
#     4  10  21  35  61  93 122 142 192 256 288 330
#     4  10  21  38  55  90 123 147 195 244 288 341
#     4  10  19  38  61  86 122 152 191 242 291 338
#     4  11  21  37  63  92 113 151 201 243 283 343
#
# _framework density 25.380227000000001
#
# number of rings (size 3 to 8) (size 9 to 14) (size 15 to 20)
#    0.000    1.500    5.000    0.750    3.500    2.500 
#    0.000    2.500    0.000    0.000    0.000    0.000 
#    0.000    0.000    0.000    0.000    0.000    0.000 
#
# Total GULP energy -89584.646347 kJ/mol
# GULP energy per Si atom -5599.040397 kJ/mol
# Density = 2.532246 g / cm^3
# Si number density = 25.380227 Si / 1000 Ang^3
#
#
#
# Elastic Constant Matrix: (Units=GPa)
#
#
# Indices 1 2 3 4 5 6 
#
# 1 57.1112 23.1659 35.9492 -3.3220 1.2315 0.4023
# 2 23.1659 150.5847 52.5458 -17.7645 2.5136 -8.5714
# 3 35.9492 52.5458 142.9975 -9.7008 17.7175 7.7847
# 4 -3.3220 -17.7645 -9.7008 53.8891 3.4160 0.8468
# 5 1.2315 2.5136 17.7175 3.4160 30.1663 -5.9650
# 6 0.4023 -8.5714 7.7847 0.8468 -5.9650 34.4722
#
#
#
# Elastic Compliance Matrix: (Units=1/GPa)
#
#
# Indices 1 2 3 4 5 6 
#
# 1 0.021306 -0.001482 -0.005200 -0.000288 0.002539 0.001004
# 2 -0.001482 0.008239 -0.002852 0.001977 0.001400 0.002904
# 3 -0.005200 -0.002852 0.010478 0.001113 -0.006659 -0.004194
# 4 -0.000288 0.001977 0.001113 0.019605 -0.003183 -0.000789
# 5 0.002539 0.001400 -0.006659 -0.003183 0.038908 0.008633
# 6 0.001004 0.002904 -0.004194 -0.000789 0.008633 0.032180
#
#
# Mechanical properties :
#
#
# Convention : Reuss Voigt Hill
#
# Bulk Modulus (GPa) = 47.72653 63.77946 55.75299
# Shear Modulus (GPa) = 31.89403 39.64101 35.76752
#
# Velocity S-wave (km/s) = 3.54877 3.95636 3.75809
# Velocity P-wave (km/s) = 5.96968 6.78635 6.39107
#
# Compressibility (1/GPa) = 0.02095271
#
# Stress axis : x y z
#
# Youngs Moduli (GPa) = 46.93567 121.37024 95.44248
#
# Poissons Ratio (x) = 0.17991 0.49633
# Poissons Ratio (y) = 0.06957 0.27223
# Poissons Ratio (z) = 0.24408 0.34619
#
# Static dielectric constant tensor:
#      x y z
#    x 2.150790 0.003810 0.021780 
#    y 0.003810 1.918080 0.023910 
#    z 0.021780 0.023910 1.956650 
# 
# From -- ./inp_files/258601.got.cif
#   From: 2010.05.17/outbox.cif.g08.bks.cpg/sg2_130_cif.got.tgz:258601.got - 2010.06.03 11:33:40.
