data_PCOD9089859
_publ_section_title
;
Structure prediction by ZEFSAII (Michael W. Deem and Ramdas Pophale) SiO2 
 PCOD9089859
Probable space group: P -1
;
_chemical_formula_sum "Si O2"
_cell_formula_units_Z 16
_cell_length_a 8.836721
_cell_length_b 7.332144
_cell_length_c 17.103469
_cell_angle_alpha 60.388133
_cell_angle_beta 134.870232
_cell_angle_gamma 124.696692
_cell_volume 637.517732
_symmetry_space_group_name_H-M "P -1"
_symmetry_group_IT_number 2
_symmetry_cell_setting 'triclinic'
loop_
_space_group_symop_operation_xyz
x,y,z
-x,-y,-z
loop_
_atom_site_type_symbol
_atom_site_label
_atom_site_fract_x
_atom_site_fract_y
_atom_site_fract_z
Si Si1 0.790929 0.271950 0.474810
Si Si2 0.833223 0.142272 0.969932
Si Si3 0.945695 0.005756 0.287354
Si Si4 0.660463 0.742398 0.707141
Si Si5 0.752980 0.994761 0.380721
Si Si6 0.738283 0.187820 0.745543
Si Si7 0.336029 0.514196 0.089721
Si Si8 0.786779 0.708225 0.141578
O O1 0.558262 0.285523 0.419969
O O2 0.735064 0.201989 0.378825
O O3 0.000000 0.500000 0.500000
O O4 0.873322 0.095613 0.587223
O O5 0.746864 0.133118 0.851798
O O6 0.711898 0.256561 0.963250
O O7 0.095892 0.315045 0.027760
O O8 0.806547 0.899611 0.044403
O O9 0.110442 0.235868 0.260016
O O10 0.782978 0.022198 0.293567
O O11 0.816812 0.835896 0.209015
O O12 0.596026 0.544155 0.787299
O O13 0.724888 0.975739 0.730088
O O14 0.513932 0.794540 0.358299
O O15 0.000000 0.000000 0.500000
O O16 0.990240 0.360412 0.776436
O O17 0.532394 0.530054 0.095919
#
# Coordination Sequence:
#
# PCOD9089859 Si02
#       8
#     2   2   2   2   2   2   2   2
#     4  10  20  36  61  90 120 156 205 259 309 371
#     4  11  23  42  61  93 131 166 212 261 307 366
#     4  10  19  38  62  86 121 166 203 248 316 367
#     4  10  21  40  60  88 123 164 209 253 312 373
#     4   9  20  38  63  91 119 165 207 252 317 374
#     4  10  21  40  62  88 130 162 210 261 310 372
#     4  11  23  39  62  90 130 162 218 255 305 373
#     4  11  22  39  67  93 126 172 209 253 320 360
#
# _framework density 25.097341
#
# number of rings (size 3 to 8) (size 9 to 14) (size 15 to 20)
#    0.000    1.750    2.500    2.625    0.000    2.500 
#    0.000    4.375    0.000    0.000    0.000    0.000 
#    0.000    0.000    0.000    0.000    0.000    0.000 
#
# Total GULP energy -89387.471757 kJ/mol
# GULP energy per Si atom -5586.716985 kJ/mol
# Density = 2.504022 g / cm^3
# Si number density = 25.097341 Si / 1000 Ang^3
#
#
#
# Elastic Constant Matrix: (Units=GPa)
#
#
# Indices 1 2 3 4 5 6 
#
# 1 153.1606 48.0008 31.5906 19.1900 7.6772 37.8254
# 2 48.0008 63.5794 14.2541 6.3949 11.2202 28.2127
# 3 31.5906 14.2541 64.7298 16.4141 3.3705 9.5352
# 4 19.1900 6.3949 16.4141 25.9015 4.6575 8.5612
# 5 7.6772 11.2202 3.3705 4.6575 52.1888 16.9774
# 6 37.8254 28.2127 9.5352 8.5612 16.9774 50.5596
#
#
#
# Elastic Compliance Matrix: (Units=1/GPa)
#
#
# Indices 1 2 3 4 5 6 
#
# 1 0.009988 -0.005113 -0.002316 -0.003585 0.001417 -0.004051
# 2 -0.005113 0.024128 -0.001998 0.002399 -0.001544 -0.009149
# 3 -0.002316 -0.001998 0.019542 -0.010496 0.000156 0.000887
# 4 -0.003585 0.002399 -0.010496 0.049135 -0.002324 -0.004217
# 5 0.001417 -0.001544 0.000156 -0.002324 0.021811 -0.007159
# 6 -0.004051 -0.009149 0.000887 -0.004217 -0.007159 0.030865
#
#
# Mechanical properties :
#
#
# Convention : Reuss Voigt Hill
#
# Bulk Modulus (GPa) = 28.73356 52.12898 40.43127
# Shear Modulus (GPa) = 26.89263 38.23825 32.56544
#
# Velocity S-wave (km/s) = 3.27698 3.90756 3.60608
# Velocity P-wave (km/s) = 5.07857 6.41674 5.78647
#
# Compressibility (1/GPa) = 0.03480251
#
# Stress axis : x y z
#
# Youngs Moduli (GPa) = 100.11956 41.44622 51.17186
#
# Poissons Ratio (x) = 0.21193 0.11853
# Poissons Ratio (y) = 0.51194 0.10224
# Poissons Ratio (z) = 0.23192 0.08281
#
# Static dielectric constant tensor:
#      x y z
#    x 2.142620 0.040910 0.049010 
#    y 0.040910 2.020140 0.023080 
#    z 0.049010 0.023080 2.044050 
# 
# From -- ./inp_files/328110.got.cif
#   From: 2010.05.17/outbox.cif.g08.bks.cpg/sg2_165_cif.got.tgz:328110.got - 2010.06.03 11:33:40.
