data_PCOD9089630
_publ_section_title
;
Structure prediction by ZEFSAII (Michael W. Deem and Ramdas Pophale) SiO2 
 PCOD9089630
Probable space group: P -1
;
_chemical_formula_sum "Si O2"
_cell_formula_units_Z 16
_cell_length_a 14.800109
_cell_length_b 6.551075
_cell_length_c 15.820728
_cell_angle_alpha 56.530969
_cell_angle_beta 38.520481
_cell_angle_gamma 67.852813
_cell_volume 792.517175
_symmetry_space_group_name_H-M "P -1"
_symmetry_group_IT_number 2
_symmetry_cell_setting 'triclinic'
loop_
_space_group_symop_operation_xyz
x,y,z
-x,-y,-z
loop_
_atom_site_type_symbol
_atom_site_label
_atom_site_fract_x
_atom_site_fract_y
_atom_site_fract_z
Si Si1 0.197885 0.372354 0.893618
Si Si2 0.088410 0.819774 0.777271
Si Si3 0.462236 0.069622 0.744337
Si Si4 0.106288 0.690075 0.432752
Si Si5 0.420428 0.627146 0.263029
Si Si6 0.033796 0.225889 0.308908
Si Si7 0.390753 0.089563 0.489623
Si Si8 0.698647 0.465915 0.034699
O O1 0.141016 0.560018 0.826402
O O2 0.340492 0.259345 0.782446
O O3 0.239874 0.517150 0.917646
O O4 0.064021 0.169741 0.063622
O O5 0.054833 0.816527 0.703470
O O6 0.222849 0.020467 0.653488
O O7 0.553752 0.146345 0.743267
O O8 0.569862 0.058586 0.589291
O O9 0.369187 0.804935 0.877747
O O10 0.271619 0.627458 0.321501
O O11 0.000000 0.500000 0.500000
O O12 0.059237 0.683052 0.567011
O O13 0.089286 0.965581 0.351878
O O14 0.415994 0.375807 0.379536
O O15 0.562427 0.627783 0.100433
O O16 0.172028 0.421724 0.144438
O O17 0.500000 0.000000 0.500000
#
# Coordination Sequence:
#
# PCOD9089630 Si02
#       8
#     2   2   2   2   2   2   2   2
#     4   9  20  37  59  88 120 151 187 229 282 347
#     4  10  19  38  60  84 120 153 187 236 283 338
#     4  10  20  37  58  83 117 151 185 232 284 342
#     4  11  24  42  60  83 114 150 196 245 285 333
#     4  10  22  38  59  84 112 150 191 234 288 342
#     4  10  23  40  60  86 114 149 196 240 285 337
#     4  11  22  35  55  87 120 151 190 233 280 341
#     4   9  20  39  60  88 119 147 186 235 284 344
#
# _framework density 20.188836999999999
#
# number of rings (size 3 to 8) (size 9 to 14) (size 15 to 20)
#    0.000    2.000    0.000    3.750    0.000   10.500 
#    0.000   11.250    0.000    0.000    0.000    0.000 
#    0.000    0.000    0.000    0.000    0.000    0.000 
#
# Total GULP energy -89373.256247 kJ/mol
# GULP energy per Si atom -5585.828515 kJ/mol
# Density = 2.014289 g / cm^3
# Si number density = 20.188837 Si / 1000 Ang^3
#
#
#
# Elastic Constant Matrix: (Units=GPa)
#
#
# Indices 1 2 3 4 5 6 
#
# 1 91.3950 5.5141 20.8924 3.4620 -18.7903 -9.5526
# 2 5.5141 33.7333 -8.3948 0.4809 3.0652 7.6889
# 3 20.8924 -8.3948 63.8766 -7.1566 -10.4478 -3.6112
# 4 3.4620 0.4809 -7.1566 19.6080 3.6103 -8.7523
# 5 -18.7903 3.0652 -10.4478 3.6103 35.9361 -3.2213
# 6 -9.5526 7.6889 -3.6112 -8.7523 -3.2213 14.5989
#
#
#
# Elastic Compliance Matrix: (Units=1/GPa)
#
#
# Indices 1 2 3 4 5 6 
#
# 1 0.015881 -0.008262 -0.003562 0.002034 0.009305 0.017134
# 2 -0.008262 0.040914 0.003196 -0.012701 -0.008807 -0.035721
# 3 -0.003562 0.003196 0.019370 0.010512 0.003137 0.007772
# 4 0.002034 -0.012701 0.010512 0.080997 0.002418 0.059713
# 5 0.009305 -0.008807 0.003137 0.002418 0.035986 0.020893
# 6 0.017134 -0.035721 0.007772 0.059713 0.020893 0.140854
#
#
# Mechanical properties :
#
#
# Convention : Reuss Voigt Hill
#
# Bulk Modulus (GPa) = 16.97507 25.00316 20.98911
# Shear Modulus (GPa) = 13.48097 25.42815 19.45456
#
# Velocity S-wave (km/s) = 2.58688 3.55282 3.10761
# Velocity P-wave (km/s) = 4.16521 5.40754 4.82652
#
# Compressibility (1/GPa) = 0.05890992
#
# Stress axis : x y z
#
# Youngs Moduli (GPa) = 62.96829 24.44179 51.62513
#
# Poissons Ratio (x) = 0.20194 0.18387
# Poissons Ratio (y) = 0.52026 -0.16501
# Poissons Ratio (z) = 0.22427 -0.07812
#
# Static dielectric constant tensor:
#      x y z
#    x 1.707450 0.003060 -0.011690 
#    y 0.003060 1.699670 -0.003080 
#    z -0.011690 -0.003080 1.725170 
# 
# From -- ./inp_files/97576.got.cif
#   From: 2010.05.17/outbox.cif.g08.bks.cpg/sg2_49_cif.got.tgz:97576.got - 2010.06.03 11:33:40.
