data_PCOD9089791
_publ_section_title
;
Structure prediction by ZEFSAII (Michael W. Deem and Ramdas Pophale) SiO2 
 PCOD9089791
Probable space group: P -1
;
_chemical_formula_sum "Si O2"
_cell_formula_units_Z 16
_cell_length_a 8.704208
_cell_length_b 14.364935
_cell_length_c 14.306402
_cell_angle_alpha 135.908216
_cell_angle_beta 42.972986
_cell_angle_gamma 128.701194
_cell_volume 829.457396
_symmetry_space_group_name_H-M "P -1"
_symmetry_group_IT_number 2
_symmetry_cell_setting 'triclinic'
loop_
_space_group_symop_operation_xyz
x,y,z
-x,-y,-z
loop_
_atom_site_type_symbol
_atom_site_label
_atom_site_fract_x
_atom_site_fract_y
_atom_site_fract_z
Si Si1 0.995507 0.801364 0.909421
Si Si2 0.163702 0.270207 0.440441
Si Si3 0.587080 0.563592 0.889276
Si Si4 0.468994 0.998531 0.623337
Si Si5 0.673342 0.306400 0.766830
Si Si6 0.490179 0.780520 0.591193
Si Si7 0.945103 0.924206 0.826253
Si Si8 0.737718 0.502185 0.586989
O O1 0.249138 0.785905 0.754488
O O2 0.880159 0.863005 0.914770
O O3 0.815907 0.658978 0.904041
O O4 0.043380 0.914007 0.051505
O O5 0.328584 0.242068 0.428456
O O6 0.248305 0.414981 0.455461
O O7 0.915159 0.276995 0.601230
O O8 0.161402 0.158433 0.277195
O O9 0.588770 0.406884 0.802281
O O10 0.627035 0.577304 0.771587
O O11 0.363773 0.612000 0.063127
O O12 0.594738 0.912249 0.575171
O O13 0.210448 0.917468 0.694235
O O14 0.500000 0.000000 0.500000
O O15 0.514524 0.156791 0.744016
O O16 0.414708 0.647936 0.464544
O O17 0.000000 0.500000 0.500000
#
# Coordination Sequence:
#
# PCOD9089791 Si02
#       8
#     2   2   2   2   2   2   2   2
#     4  10  19  38  61  91 117 154 210 262 289 352
#     4  12  23  40  61  93 129 161 194 253 320 372
#     4  11  21  37  64  95 114 154 214 264 291 344
#     4  11  20  38  62  86 117 163 211 247 290 366
#     4  11  23  36  60  91 127 156 201 253 308 354
#     4  11  25  37  62  93 126 157 201 253 315 365
#     4  10  20  35  63  90 116 157 210 254 297 350
#     4  12  20  40  68  89 114 161 216 254 293 357
#
# _framework density 19.289718000000001
#
# number of rings (size 3 to 8) (size 9 to 14) (size 15 to 20)
#    0.000    1.000    6.250    1.875    0.000    1.000 
#    0.000    0.625    0.000    0.000    0.000    0.000 
#    0.000    0.000    0.000    0.000    0.000    0.000 
#
# Total GULP energy -89117.720622 kJ/mol
# GULP energy per Si atom -5569.857539 kJ/mol
# Density = 1.924581 g / cm^3
# Si number density = 19.289718 Si / 1000 Ang^3
#
#
#
# Elastic Constant Matrix: (Units=GPa)
#
#
# Indices 1 2 3 4 5 6 
#
# 1 81.9169 40.0872 38.4221 14.0270 3.1919 -14.8097
# 2 40.0872 100.4067 9.2712 18.2675 3.3178 -14.6326
# 3 38.4221 9.2712 101.7533 4.0923 19.7252 2.4677
# 4 14.0270 18.2675 4.0923 38.9175 -0.2403 6.7019
# 5 3.1919 3.3178 19.7252 -0.2403 15.4775 3.5104
# 6 -14.8097 -14.6326 2.4677 6.7019 3.5104 26.6963
#
#
#
# Elastic Compliance Matrix: (Units=1/GPa)
#
#
# Indices 1 2 3 4 5 6 
#
# 1 0.021747 -0.005334 -0.008758 -0.006245 0.005268 0.010825
# 2 -0.005334 0.014275 0.001996 -0.006243 -0.006202 0.007063
# 3 -0.008758 0.001996 0.016720 0.000859 -0.019238 -0.002996
# 4 -0.006245 -0.006243 0.000859 0.033603 0.005717 -0.016153
# 5 0.005268 -0.006202 -0.019238 0.005717 0.092240 -0.012263
# 6 0.010825 0.007063 -0.002996 -0.016153 -0.012263 0.053280
#
#
# Mechanical properties :
#
#
# Convention : Reuss Voigt Hill
#
# Bulk Modulus (GPa) = 35.02791 51.07089 43.04940
# Shear Modulus (GPa) = 18.82708 29.30468 24.06588
#
# Velocity S-wave (km/s) = 3.12752 3.90190 3.53597
# Velocity P-wave (km/s) = 5.58928 6.84346 6.24792
#
# Compressibility (1/GPa) = 0.02854866
#
# Stress axis : x y z
#
# Youngs Moduli (GPa) = 45.98361 70.05312 59.80711
#
# Poissons Ratio (x) = 0.37366 0.52381
# Poissons Ratio (y) = 0.24528 -0.11935
# Poissons Ratio (z) = 0.40274 -0.13979
#
# Static dielectric constant tensor:
#      x y z
#    x 1.695450 -0.029530 0.018800 
#    y -0.029530 1.748170 -0.001670 
#    z 0.018800 -0.001670 1.744610 
# 
# From -- ./inp_files/432266.got.cif
#   From: 2010.05.17/outbox.cif.g08.bks.cpg/sg2_217_cif.got.tgz:432266.got - 2010.06.03 11:33:40.
