data_PCOD9089997
_publ_section_title
;
Structure prediction by ZEFSAII (Michael W. Deem and Ramdas Pophale) SiO2 
 PCOD9089997
Probable space group: P -1
;
_chemical_formula_sum "Si O2"
_cell_formula_units_Z 16
_cell_length_a 8.901530
_cell_length_b 5.634289
_cell_length_c 20.092879
_cell_angle_alpha 52.744574
_cell_angle_beta 98.395440
_cell_angle_gamma 109.934769
_cell_volume 751.579473
_symmetry_space_group_name_H-M "P -1"
_symmetry_group_IT_number 2
_symmetry_cell_setting 'triclinic'
loop_
_space_group_symop_operation_xyz
x,y,z
-x,-y,-z
loop_
_atom_site_type_symbol
_atom_site_label
_atom_site_fract_x
_atom_site_fract_y
_atom_site_fract_z
Si Si1 0.609471 0.983790 0.382844
Si Si2 0.463597 0.746641 0.099094
Si Si3 0.715555 0.614955 0.230078
Si Si4 0.113474 0.786490 0.538950
Si Si5 0.746277 0.990428 0.619077
Si Si6 0.039659 0.825710 0.276001
Si Si7 0.665594 0.977508 0.825991
Si Si8 0.520815 0.382416 0.667947
O O1 0.716195 0.254117 0.291743
O O2 0.713737 0.042089 0.445139
O O3 0.422182 0.953314 0.386261
O O4 0.582416 0.657503 0.398113
O O5 0.629162 0.716202 0.145591
O O6 0.369815 0.398836 0.121466
O O7 0.378214 0.880874 0.131430
O O8 0.500000 0.000000 0.000000
O O9 0.588617 0.563544 0.290098
O O10 0.880562 0.858833 0.225489
O O11 0.032264 0.486435 0.630973
O O12 0.150772 0.754808 0.469219
O O13 0.000000 0.000000 0.500000
O O14 0.688126 0.657458 0.633495
O O15 0.842758 0.956962 0.697296
O O16 0.155221 0.841135 0.218126
O O17 0.557361 0.071356 0.747143
#
# Coordination Sequence:
#
# PCOD9089997 Si02
#       8
#     2   2   2   2   2   2   2   2
#     4  10  20  40  60  79 117 168 222 258 319 382
#     4  11  23  44  72 102 131 163 210 264 320 391
#     4   9  21  38  62  93 121 166 212 256 319 386
#     4  11  25  37  55  88 123 163 216 281 332 359
#     4  11  22  39  57  84 121 168 221 277 320 363
#     4  11  22  42  62  87 129 170 213 263 324 389
#     4  11  21  42  68  98 128 172 213 255 318 402
#     4  10  19  38  63  86 115 169 226 261 305 384
#
# _framework density 21.288498000000001
#
# number of rings (size 3 to 8) (size 9 to 14) (size 15 to 20)
#    0.000    1.500    2.500    3.375    1.750    0.500 
#    4.500    1.250    0.000    0.000    0.000    0.000 
#    0.000    0.000    0.000    0.000    0.000    0.000 
#
# Total GULP energy -89089.629750 kJ/mol
# GULP energy per Si atom -5568.101859 kJ/mol
# Density = 2.124004 g / cm^3
# Si number density = 21.288498 Si / 1000 Ang^3
#
#
#
# Elastic Constant Matrix: (Units=GPa)
#
#
# Indices 1 2 3 4 5 6 
#
# 1 57.4677 27.7905 37.8199 9.4328 -7.2358 19.8931
# 2 27.7905 94.8420 37.7521 0.4094 -4.6837 10.2082
# 3 37.8199 37.7521 104.4122 10.4039 -9.0957 -3.1019
# 4 9.4328 0.4094 10.4039 30.1988 0.6360 4.4426
# 5 -7.2358 -4.6837 -9.0957 0.6360 25.8546 5.1124
# 6 19.8931 10.2082 -3.1019 4.4426 5.1124 33.3104
#
#
#
# Elastic Compliance Matrix: (Units=1/GPa)
#
#
# Indices 1 2 3 4 5 6 
#
# 1 0.036239 -0.003127 -0.011363 -0.004232 0.010179 -0.022740
# 2 -0.003127 0.013408 -0.004007 0.002612 0.000687 -0.003068
# 3 -0.011363 -0.004007 0.015742 -0.003279 -0.000256 0.009956
# 4 -0.004232 0.002612 -0.003279 0.036024 -0.002147 -0.003054
# 5 0.010179 0.000687 -0.000256 -0.002147 0.044145 -0.012802
# 6 -0.022740 -0.003068 0.009956 -0.003054 -0.012802 0.047840
#
#
# Mechanical properties :
#
#
# Convention : Reuss Voigt Hill
#
# Bulk Modulus (GPa) = 35.21688 51.49411 43.35550
# Shear Modulus (GPa) = 20.84559 28.09671 24.47115
#
# Velocity S-wave (km/s) = 3.13260 3.63686 3.39411
# Velocity P-wave (km/s) = 5.44636 6.47123 5.98079
#
# Compressibility (1/GPa) = 0.02839547
#
# Stress axis : x y z
#
# Youngs Moduli (GPa) = 27.59438 74.58241 63.52319
#
# Poissons Ratio (x) = 0.23323 0.72181
# Poissons Ratio (y) = 0.08629 0.25453
# Poissons Ratio (z) = 0.31356 0.29884
#
# Static dielectric constant tensor:
#      x y z
#    x 1.934110 -0.155800 0.076220 
#    y -0.155800 2.026650 -0.093490 
#    z 0.076220 -0.093490 1.777880 
# 
# From -- ./inp_files/50923.got.cif
#   From: 2010.05.17/outbox.cif.g08.bks.cpg/sg2_26_cif.got.tgz:50923.got - 2010.06.03 11:33:40.
