data_PCOD9089581
_publ_section_title
;
Structure prediction by ZEFSAII (Michael W. Deem and Ramdas Pophale) SiO2 
 PCOD9089581
Probable space group: P -1
;
_chemical_formula_sum "Si O2"
_cell_formula_units_Z 16
_cell_length_a 5.331786
_cell_length_b 9.485421
_cell_length_c 19.054260
_cell_angle_alpha 108.473756
_cell_angle_beta 112.331869
_cell_angle_gamma 50.516778
_cell_volume 684.142151
_symmetry_space_group_name_H-M "P -1"
_symmetry_group_IT_number 2
_symmetry_cell_setting 'triclinic'
loop_
_space_group_symop_operation_xyz
x,y,z
-x,-y,-z
loop_
_atom_site_type_symbol
_atom_site_label
_atom_site_fract_x
_atom_site_fract_y
_atom_site_fract_z
Si Si1 0.182316 0.650372 0.234312
Si Si2 0.749290 0.654447 0.282492
Si Si3 0.671607 0.224825 0.247345
Si Si4 0.147990 0.330310 0.937780
Si Si5 0.107425 0.179188 0.569104
Si Si6 0.016308 0.273523 0.171550
Si Si7 0.878888 0.198223 0.994446
Si Si8 0.900196 0.951988 0.595529
O O1 0.362840 0.748649 0.269222
O O2 0.440471 0.449311 0.264674
O O3 0.836344 0.758884 0.255948
O O4 0.101128 0.616885 0.144078
O O5 0.937408 0.645309 0.371456
O O6 0.867905 0.469157 0.224419
O O7 0.412254 0.175879 0.196106
O O8 0.904063 0.179035 0.196988
O O9 0.868277 0.140807 0.326816
O O10 0.501934 0.282322 0.942718
O O11 0.000000 0.500000 0.000000
O O12 0.121128 0.191585 0.961042
O O13 0.514921 0.035476 0.586943
O O14 0.943418 0.100439 0.586179
O O15 0.992750 0.193754 0.479494
O O16 0.881759 0.294001 0.081773
O O17 0.000000 0.000000 0.000000
#
# Coordination Sequence:
#
# PCOD9089581 Si02
#       8
#     2   2   2   2   2   2   2   2
#     4  10  21  37  60  89 121 153 215 258 302 373
#     4  10  19  38  59  88 121 160 204 262 296 368
#     4  10  20  39  61  88 120 163 202 258 314 362
#     4  12  23  43  71  92 125 181 218 267 329 388
#     4  10  21  38  60  89 126 163 207 249 305 389
#     4  10  21  40  63  84 126 158 204 261 308 373
#     4  12  26  46  66  97 134 170 219 275 334 384
#     4  10  21  39  60  89 127 166 198 252 318 370
#
# _framework density 23.386952999999998
#
# number of rings (size 3 to 8) (size 9 to 14) (size 15 to 20)
#    0.000    1.500    0.000    6.750    0.000    0.000 
#   13.500    5.000    0.000    0.000    0.000    0.000 
#    0.000    0.000    0.000    0.000    0.000    0.000 
#
# Total GULP energy -89372.011014 kJ/mol
# GULP energy per Si atom -5585.750688 kJ/mol
# Density = 2.333372 g / cm^3
# Si number density = 23.386953 Si / 1000 Ang^3
#
#
#
# Elastic Constant Matrix: (Units=GPa)
#
#
# Indices 1 2 3 4 5 6 
#
# 1 187.3818 -5.9002 31.9124 -12.0658 6.9342 27.0178
# 2 -5.9002 48.3390 9.4330 -3.3938 2.4344 6.1605
# 3 31.9124 9.4330 78.8983 -13.6239 6.7676 10.8111
# 4 -12.0658 -3.3938 -13.6239 37.4459 4.6765 1.6558
# 5 6.9342 2.4344 6.7676 4.6765 36.5538 2.0940
# 6 27.0178 6.1605 10.8111 1.6558 2.0940 18.3599
#
#
#
# Elastic Compliance Matrix: (Units=1/GPa)
#
#
# Indices 1 2 3 4 5 6 
#
# 1 0.007509 0.002869 -0.001223 0.002877 -0.001103 -0.011426
# 2 0.002869 0.023076 -0.001749 0.003057 -0.001516 -0.011038
# 3 -0.001223 -0.001749 0.015580 0.005784 -0.002876 -0.006981
# 4 0.002877 0.003057 0.005784 0.031142 -0.005181 -0.010884
# 5 -0.001103 -0.001516 -0.002876 -0.005181 0.028805 0.001007
# 6 -0.011426 -0.011038 -0.006981 -0.010884 0.001007 0.079962
#
#
# Mechanical properties :
#
#
# Convention : Reuss Voigt Hill
#
# Bulk Modulus (GPa) = 21.75837 42.83441 32.29639
# Shear Modulus (GPa) = 24.80155 37.08352 30.94254
#
# Velocity S-wave (km/s) = 3.26004 3.98634 3.64135
# Velocity P-wave (km/s) = 4.84710 6.28834 5.61416
#
# Compressibility (1/GPa) = 0.04595934
#
# Stress axis : x y z
#
# Youngs Moduli (GPa) = 133.17575 43.33438 64.18315
#
# Poissons Ratio (x) = -0.12432 0.07850
# Poissons Ratio (y) = -0.38207 0.11226
# Poissons Ratio (z) = 0.16288 0.07579
#
# Static dielectric constant tensor:
#      x y z
#    x 2.064610 0.014930 0.019010 
#    y 0.014930 1.938170 0.081570 
#    z 0.019010 0.081570 1.950290 
# 
# From -- ./inp_files/548191.got.cif
#   From: 2010.05.17/outbox.cif.g08.bks.cpg/sg2_275_cif.got.tgz:548191.got - 2010.06.03 11:33:40.
