data_PCOD9089000
_publ_section_title
;
Structure prediction by ZEFSAII (Michael W. Deem and Ramdas Pophale) SiO2 
 PCOD9089000
Probable space group: P -1
;
_chemical_formula_sum "Si O2"
_cell_formula_units_Z 10
_cell_length_a 9.675985
_cell_length_b 6.659795
_cell_length_c 13.795904
_cell_angle_alpha 67.812321
_cell_angle_beta 41.067108
_cell_angle_gamma 46.511437
_cell_volume 404.690516
_symmetry_space_group_name_H-M "P -1"
_symmetry_group_IT_number 2
_symmetry_cell_setting 'triclinic'
loop_
_space_group_symop_operation_xyz
x,y,z
-x,-y,-z
loop_
_atom_site_type_symbol
_atom_site_label
_atom_site_fract_x
_atom_site_fract_y
_atom_site_fract_z
Si Si1 0.513931 0.746693 0.503759
Si Si2 0.480993 0.670888 0.322421
Si Si3 0.792802 0.697347 0.661837
Si Si4 0.637527 0.370536 0.104502
Si Si5 0.091598 0.784633 0.202486
O O1 0.607394 0.664244 0.358866
O O2 0.650466 0.471828 0.550063
O O3 0.500000 0.000000 0.500000
O O4 0.176914 0.926685 0.657933
O O5 0.671587 0.481740 0.164177
O O6 0.271705 0.007689 0.344314
O O7 0.497566 0.774549 0.779772
O O8 0.906221 0.477384 0.731844
O O9 0.000000 0.500000 0.500000
O O10 0.376700 0.661569 0.129326
O O11 0.884314 0.188959 0.929007
#
# Coordination Sequence:
#
# PCOD9089000 Si02
#       5
#     2   2   2   2   2
#     4  11  24  42  57  92 128 161 197 253 297 368
#     4  11  22  38  65  90 118 162 210 238 308 357
#     4  10  19  37  64  92 116 156 200 254 291 350
#     4   9  21  41  65  89 122 154 205 255 295 357
#     4   9  21  43  62  87 128 157 193 258 308 338
#
# _framework density 24.710241
#
# number of rings (size 3 to 8) (size 9 to 14) (size 15 to 20)
#    1.200    0.800    2.000    1.200    0.000    4.800 
#    3.600    2.000    0.000    0.000    0.000    0.000 
#    0.000    0.000    0.000    0.000    0.000    0.000 
#
# Total GULP energy -55803.679455 kJ/mol
# GULP energy per Si atom -5580.367946 kJ/mol
# Density = 2.465400 g / cm^3
# Si number density = 24.710241 Si / 1000 Ang^3
#
#
#
# Elastic Constant Matrix: (Units=GPa)
#
#
# Indices 1 2 3 4 5 6 
#
# 1 74.0546 26.9126 33.8029 15.9649 27.6203 11.7103
# 2 26.9126 197.2441 43.5677 0.3010 13.9321 9.0289
# 3 33.8029 43.5677 115.4537 -2.1465 39.3290 5.2939
# 4 15.9649 0.3010 -2.1465 38.9144 -1.0094 0.8331
# 5 27.6203 13.9321 39.3290 -1.0094 49.1506 13.4658
# 6 11.7103 9.0289 5.2939 0.8331 13.4658 33.6749
#
#
#
# Elastic Compliance Matrix: (Units=1/GPa)
#
#
# Indices 1 2 3 4 5 6 
#
# 1 0.020792 -0.001509 -0.002636 -0.008827 -0.008571 -0.002766
# 2 -0.001509 0.005698 -0.002058 0.000518 0.001213 -0.001177
# 3 -0.002636 -0.002058 0.013295 0.001521 -0.009391 0.003096
# 4 -0.008827 0.000518 0.001521 0.029499 0.004116 0.000316
# 5 -0.008571 0.001213 -0.009391 0.004116 0.035166 -0.010032
# 6 -0.002766 -0.001177 0.003096 0.000316 -0.010032 0.034490
#
#
# Mechanical properties :
#
#
# Convention : Reuss Voigt Hill
#
# Bulk Modulus (GPa) = 36.52380 66.14652 51.33516
# Shear Modulus (GPa) = 31.15829 43.17926 37.16878
#
# Velocity S-wave (km/s) = 3.55483 4.18475 3.88259
# Velocity P-wave (km/s) = 5.62690 7.08354 6.39682
#
# Compressibility (1/GPa) = 0.02737941
#
# Stress axis : x y z
#
# Youngs Moduli (GPa) = 48.09518 175.50823 75.21682
#
# Poissons Ratio (x) = 0.26490 0.19824
# Poissons Ratio (y) = 0.07259 0.15477
# Poissons Ratio (z) = 0.12676 0.36115
#
# Static dielectric constant tensor:
#      x y z
#    x 2.100690 -0.028020 -0.082160 
#    y -0.028020 1.940270 -0.069330 
#    z -0.082160 -0.069330 1.966590 
# 
# From -- ./inp_files/21688.got.cif
#   From: 2010.05.17/outbox.cif.g08.bks.cpg/sg2_11_cif.got.tgz:21688.got - 2010.06.03 11:33:40.
