data_PCOD9089095
_publ_section_title
;
Structure prediction by ZEFSAII (Michael W. Deem and Ramdas Pophale) SiO2 
 PCOD9089095
Probable space group: P -1
;
_chemical_formula_sum "Si O2"
_cell_formula_units_Z 14
_cell_length_a 16.201737
_cell_length_b 11.040946
_cell_length_c 6.998881
_cell_angle_alpha 65.480380
_cell_angle_beta 37.406700
_cell_angle_gamma 44.630556
_cell_volume 500.074272
_symmetry_space_group_name_H-M "P -1"
_symmetry_group_IT_number 2
_symmetry_cell_setting 'triclinic'
loop_
_space_group_symop_operation_xyz
x,y,z
-x,-y,-z
loop_
_atom_site_type_symbol
_atom_site_label
_atom_site_fract_x
_atom_site_fract_y
_atom_site_fract_z
Si Si1 0.697231 0.739899 0.623141
Si Si2 0.722571 0.430511 0.863267
Si Si3 0.626054 0.848801 0.135374
Si Si4 0.871153 0.917514 0.774988
Si Si5 0.583117 0.253591 0.346966
Si Si6 0.989741 0.367127 0.724185
Si Si7 0.822126 0.043841 0.381103
O O1 0.664084 0.605309 0.751188
O O2 0.914960 0.634405 0.258644
O O3 0.552740 0.933320 0.656109
O O4 0.649051 0.802431 0.897237
O O5 0.905621 0.248346 0.535518
O O6 0.809578 0.418123 0.919802
O O7 0.582341 0.402260 0.169836
O O8 0.589374 0.730419 0.374894
O O9 0.793266 0.823684 0.927063
O O10 0.809645 0.056314 0.622940
O O11 0.765319 0.052080 0.059314
O O12 0.639051 0.215674 0.492944
O O13 0.127424 0.145025 0.615402
O O14 0.000000 0.500000 0.500000
O O15 0.000000 0.000000 0.000000
#
# Coordination Sequence:
#
# PCOD9089095 Si02
#       7
#     2   2   2   2   2   2   2
#     4  10  19  37  65  90 120 166 208 251 307 369
#     4  10  21  37  62  91 125 158 206 265 303 349
#     4  11  21  38  63  88 124 168 205 246 312 376
#     4  11  23  41  62  94 127 160 206 259 302 367
#     4  12  23  38  64  94 125 163 207 251 309 373
#     4   9  16  32  59  88 116 151 197 251 293 351
#     4  11  19  35  62  92 115 157 205 249 303 352
#
# _framework density 27.995840000000001
#
# number of rings (size 3 to 8) (size 9 to 14) (size 15 to 20)
#    0.000    1.429    7.143    1.714    0.000    0.571 
#    0.000    1.429    0.000    3.429    0.000    0.000 
#    0.000    0.000    0.000    0.000    0.000    0.000 
#
# Total GULP energy -78180.751197 kJ/mol
# GULP energy per Si atom -5584.339371 kJ/mol
# Density = 2.793212 g / cm^3
# Si number density = 27.995840 Si / 1000 Ang^3
#
#
#
# Elastic Constant Matrix: (Units=GPa)
#
#
# Indices 1 2 3 4 5 6 
#
# 1 70.2235 36.0071 45.6835 -21.9282 -7.2663 21.1288
# 2 36.0071 144.2577 25.4186 -29.7374 2.5765 26.8285
# 3 45.6835 25.4186 123.6812 -43.9614 -27.4827 26.3280
# 4 -21.9282 -29.7374 -43.9614 53.7888 24.4346 -8.4058
# 5 -7.2663 2.5765 -27.4827 24.4346 56.6211 -9.9440
# 6 21.1288 26.8285 26.3280 -8.4058 -9.9440 48.6690
#
#
#
# Elastic Compliance Matrix: (Units=1/GPa)
#
#
# Indices 1 2 3 4 5 6 
#
# 1 0.021532 -0.002973 -0.005942 0.002402 -0.001804 -0.004448
# 2 -0.002973 0.009588 0.001502 0.006239 -0.003564 -0.004458
# 3 -0.005942 0.001502 0.014317 0.008722 0.001625 -0.004155
# 4 0.002402 0.006239 0.008722 0.034560 -0.011642 -0.005610
# 5 -0.001804 -0.003564 0.001625 -0.011642 0.024250 0.004813
# 6 -0.004448 -0.004458 -0.004155 -0.005610 0.004813 0.027198
#
#
# Mechanical properties :
#
#
# Convention : Reuss Voigt Hill
#
# Bulk Modulus (GPa) = 32.66755 61.37565 47.02160
# Shear Modulus (GPa) = 31.95411 47.21933 39.58672
#
# Velocity S-wave (km/s) = 3.38211 4.11135 3.76443
# Velocity P-wave (km/s) = 5.19091 6.67145 5.97720
#
# Compressibility (1/GPa) = 0.03061141
#
# Stress axis : x y z
#
# Youngs Moduli (GPa) = 46.44231 104.29428 69.84663
#
# Poissons Ratio (x) = 0.31005 0.41505
# Poissons Ratio (y) = 0.13806 -0.10492
# Poissons Ratio (z) = 0.27598 -0.15667
#
# Static dielectric constant tensor:
#      x y z
#    x 2.222120 -0.009510 -0.008190 
#    y -0.009510 2.152560 0.126610 
#    z -0.008190 0.126610 2.424900 
# 
# From -- ./inp_files/345035.got.cif
#   From: 2010.05.17/outbox.cif.g08.bks.cpg/sg2_173_cif.got.tgz:345035.got - 2010.06.03 11:33:40.
