data_PCOD9089389
_publ_section_title
;
Structure prediction by ZEFSAII (Michael W. Deem and Ramdas Pophale) SiO2 
 PCOD9089389
Probable space group: P -1
;
_chemical_formula_sum "Si O2"
_cell_formula_units_Z 16
_cell_length_a 17.755661
_cell_length_b 5.808095
_cell_length_c 19.563869
_cell_angle_alpha 80.411632
_cell_angle_beta 160.038042
_cell_angle_gamma 104.366521
_cell_volume 653.556458
_symmetry_space_group_name_H-M "P -1"
_symmetry_group_IT_number 2
_symmetry_cell_setting 'triclinic'
loop_
_space_group_symop_operation_xyz
x,y,z
-x,-y,-z
loop_
_atom_site_type_symbol
_atom_site_label
_atom_site_fract_x
_atom_site_fract_y
_atom_site_fract_z
Si Si1 0.559533 0.324749 0.353039
Si Si2 0.103692 0.876101 0.535263
Si Si3 0.660141 0.484517 0.200308
Si Si4 0.769238 0.566449 0.749952
Si Si5 0.659578 0.470881 0.965227
Si Si6 0.324089 0.982690 0.286048
Si Si7 0.048457 0.863848 0.345830
Si Si8 0.936963 0.701114 0.741557
O O1 0.395028 0.421243 0.158620
O O2 0.438393 0.093952 0.306776
O O3 0.712198 0.521234 0.525080
O O4 0.751334 0.266448 0.471621
O O5 0.905418 0.623245 0.370804
O O6 0.085872 0.008024 0.441712
O O7 0.322193 0.782120 0.747721
O O8 0.000000 0.000000 0.500000
O O9 0.573130 0.616202 0.184528
O O10 0.500000 0.500000 0.000000
O O11 0.500000 0.500000 0.500000
O O12 0.802718 0.812732 0.810089
O O13 0.929376 0.630993 0.816921
O O14 0.786578 0.305693 0.804714
O O15 0.809939 0.676758 0.133499
O O16 0.830828 0.310294 0.098930
O O17 0.500000 0.000000 0.500000
O O18 0.091929 0.034752 0.308608
#
# Coordination Sequence:
#
# PCOD9089389 Si02
#       8
#     2   2   2   2   2   2   2   2
#     4  11  23  43  68  93 136 181 226 279 353 417
#     4  11  26  41  71 101 127 178 229 274 342 417
#     4  11  24  47  66  93 139 172 218 281 340 410
#     4  10  19  38  67 100 133 184 239 289 354 420
#     4  11  26  44  63 100 135 179 223 282 350 413
#     4  10  19  37  69  99 131 186 239 289 354 419
#     4  11  24  43  64  98 136 175 224 283 342 417
#     4  11  25  40  70  95 135 177 226 286 345 415
#
# _framework density 24.481435999999999
#
# number of rings (size 3 to 8) (size 9 to 14) (size 15 to 20)
#    0.000    1.250    5.000    1.500    5.250    2.500 
#    0.000    1.250    0.000    0.000    0.000    0.000 
#    0.000    0.000    0.000    0.000    0.000    0.000 
#
# Total GULP energy -89302.153711 kJ/mol
# GULP energy per Si atom -5581.384607 kJ/mol
# Density = 2.442572 g / cm^3
# Si number density = 24.481436 Si / 1000 Ang^3
#
#
#
# Elastic Constant Matrix: (Units=GPa)
#
#
# Indices 1 2 3 4 5 6 
#
# 1 107.7246 2.9164 28.5944 3.5827 -3.5564 3.2967
# 2 2.9164 91.0464 28.3092 -5.1124 1.1325 -2.7222
# 3 28.5944 28.3092 94.0139 -41.6328 -10.7363 -4.4309
# 4 3.5827 -5.1124 -41.6328 29.3625 2.8603 -2.7082
# 5 -3.5564 1.1325 -10.7363 2.8603 37.3266 -6.2991
# 6 3.2967 -2.7222 -4.4309 -2.7082 -6.2991 41.3925
#
#
#
# Elastic Compliance Matrix: (Units=1/GPa)
#
#
# Indices 1 2 3 4 5 6 
#
# 1 0.015040 0.003565 -0.018357 -0.027451 -0.002719 -0.005138
# 2 0.003565 0.013943 -0.012920 -0.016249 -0.002936 -0.002260
# 3 -0.018357 -0.012920 0.059660 0.084761 0.011726 0.014329
# 4 -0.027451 -0.016249 0.084761 0.155458 0.014144 0.022515
# 5 -0.002719 -0.002936 0.011726 0.014144 0.030053 0.006778
# 6 -0.005138 -0.002260 0.014329 0.022515 0.006778 0.028458
#
#
# Mechanical properties :
#
#
# Convention : Reuss Voigt Hill
#
# Bulk Modulus (GPa) = 30.10394 45.82497 37.96446
# Shear Modulus (GPa) = 13.54612 37.14732 25.34672
#
# Velocity S-wave (km/s) = 2.35483 3.89957 3.22117
# Velocity P-wave (km/s) = 4.44038 6.24775 5.41993
#
# Compressibility (1/GPa) = 0.03321824
#
# Stress axis : x y z
#
# Youngs Moduli (GPa) = 66.49151 71.72032 16.76160
#
# Poissons Ratio (x) = -0.25566 0.30769
# Poissons Ratio (y) = -0.23702 0.21656
# Poissons Ratio (z) = 1.22057 0.92664
#
# Static dielectric constant tensor:
#      x y z
#    x 1.949780 0.011160 0.032300 
#    y 0.011160 1.986730 0.055280 
#    z 0.032300 0.055280 2.005690 
# 
# From -- ./inp_files/599020.got.cif
#   From: 2010.05.17/outbox.cif.g08.bks.cpg/sg2_300_cif.got.tgz:599020.got - 2010.06.03 11:33:40.
