data_PCOD9089984
_publ_section_title
;
Structure prediction by ZEFSAII (Michael W. Deem and Ramdas Pophale) SiO2 
 PCOD9089984
Probable space group: P -1
;
_chemical_formula_sum "Si O2"
_cell_formula_units_Z 16
_cell_length_a 13.910479
_cell_length_b 12.054564
_cell_length_c 9.922095
_cell_angle_alpha 53.730651
_cell_angle_beta 104.259299
_cell_angle_gamma 59.058568
_cell_volume 696.328469
_symmetry_space_group_name_H-M "P -1"
_symmetry_group_IT_number 2
_symmetry_cell_setting 'triclinic'
loop_
_space_group_symop_operation_xyz
x,y,z
-x,-y,-z
loop_
_atom_site_type_symbol
_atom_site_label
_atom_site_fract_x
_atom_site_fract_y
_atom_site_fract_z
Si Si1 0.689046 0.762044 0.819510
Si Si2 0.768738 0.965046 0.685457
Si Si3 0.779772 0.261415 0.455978
Si Si4 0.128170 0.152314 0.885143
Si Si5 0.249098 0.564917 0.397175
Si Si6 0.407186 0.031858 0.068987
Si Si7 0.369949 0.464908 0.057282
Si Si8 0.173355 0.864989 0.917149
O O1 0.750876 0.534312 0.972909
O O2 0.500000 0.000000 0.500000
O O3 0.819045 0.742635 0.848141
O O4 0.628790 0.840914 0.898957
O O5 0.839763 0.032441 0.616852
O O6 0.569699 0.199916 0.377157
O O7 0.783802 0.966063 0.850847
O O8 0.719879 0.372572 0.507210
O O9 0.635499 0.479465 0.138124
O O10 0.968603 0.124497 0.602119
O O11 0.915510 0.351222 0.683547
O O12 0.223487 0.941180 0.961545
O O13 0.204589 0.211998 0.829268
O O14 0.437435 0.267946 0.633774
O O15 0.175621 0.743543 0.120182
O O16 0.500000 0.000000 0.000000
O O17 0.295740 0.672381 0.976274
#
# Coordination Sequence:
#
# PCOD9089984 Si02
#       8
#     2   2   2   2   2   2   2   2
#     4   9  20  41  58  82 123 164 205 245 301 377
#     4  10  19  38  63  85 119 162 209 251 301 376
#     4  11  21  38  59  95 128 151 207 264 317 358
#     4  10  21  40  64  97 122 156 214 259 308 366
#     4  11  21  39  70  90 123 166 204 262 310 369
#     4  11  24  40  65  92 125 162 210 259 307 375
#     4  11  23  36  62  88 126 168 197 259 324 354
#     4  11  21  39  64  91 123 160 207 259 307 381
#
# _framework density 22.977661000000001
#
# number of rings (size 3 to 8) (size 9 to 14) (size 15 to 20)
#    0.000    1.500    2.500    4.500    1.750    1.500 
#    4.500    1.875    8.250    0.000    0.000    0.000 
#    0.000    0.000    0.000    0.000    0.000    0.000 
#
# Total GULP energy -89170.729692 kJ/mol
# GULP energy per Si atom -5573.170606 kJ/mol
# Density = 2.292536 g / cm^3
# Si number density = 22.977661 Si / 1000 Ang^3
#
#
#
# Elastic Constant Matrix: (Units=GPa)
#
#
# Indices 1 2 3 4 5 6 
#
# 1 -18.8581 40.6130 -69.0756 -30.0388 91.7870 84.0113
# 2 40.6130 76.5307 54.3497 27.9160 -0.5626 -3.3013
# 3 -69.0756 54.3497 -14.5098 -30.0807 82.1781 61.9225
# 4 -30.0388 27.9160 -30.0807 -2.0112 43.3010 45.3761
# 5 91.7870 -0.5626 82.1781 43.3010 -40.1677 -49.0411
# 6 84.0113 -3.3013 61.9225 45.3761 -49.0411 -13.4110
#
#
#
# Elastic Compliance Matrix: (Units=1/GPa)
#
#
# Indices 1 2 3 4 5 6 
#
# 1 0.013904 0.002014 -0.004892 -0.015956 0.002226 0.001892
# 2 0.002014 0.018866 -0.006597 -0.006714 -0.011198 -0.004259
# 3 -0.004892 -0.006597 0.020569 -0.013432 0.002460 0.011514
# 4 -0.015956 -0.006714 -0.013432 0.066972 0.020946 -0.010318
# 5 0.002226 -0.011198 0.002460 0.020946 0.032564 -0.020153
# 6 0.001892 -0.004259 0.011514 -0.010318 -0.020153 0.030279
#
#
# Mechanical properties :
#
#
# Convention : Reuss Voigt Hill
#
# Bulk Modulus (GPa) = 29.07929 10.54857 19.81393
# Shear Modulus (GPa) = 23.41175 -9.96626 6.72275
#
# Velocity S-wave (km/s) = 3.19547 -2.08489 1.71235
# Velocity P-wave (km/s) = 5.12812 1.09314 3.54279
#
# Compressibility (1/GPa) = 0.03438873
#
# Stress axis : x y z
#
# Youngs Moduli (GPa) = 71.92043 53.00469 48.61641
#
# Poissons Ratio (x) = -0.10673 0.23782
# Poissons Ratio (y) = -0.14482 0.32074
# Poissons Ratio (z) = 0.35181 0.34970
#
# Static dielectric constant tensor:
#      x y z
#    x 1.932490 -0.017040 0.019770 
#    y -0.017040 1.784550 0.013680 
#    z 0.019770 0.013680 1.813300 
# 
# From -- ./inp_files/306772.got.cif
#   From: 2010.05.17/outbox.cif.g08.bks.cpg/sg2_154_cif.got.tgz:306772.got - 2010.06.03 11:33:40.
