data_PCOD9089844
_publ_section_title
;
Structure prediction by ZEFSAII (Michael W. Deem and Ramdas Pophale) SiO2 
 PCOD9089844
Probable space group: P -1
;
_chemical_formula_sum "Si O2"
_cell_formula_units_Z 14
_cell_length_a 13.221214
_cell_length_b 12.049582
_cell_length_c 8.886028
_cell_angle_alpha 130.518400
_cell_angle_beta 54.448608
_cell_angle_gamma 147.645317
_cell_volume 574.064656
_symmetry_space_group_name_H-M "P -1"
_symmetry_group_IT_number 2
_symmetry_cell_setting 'triclinic'
loop_
_space_group_symop_operation_xyz
x,y,z
-x,-y,-z
loop_
_atom_site_type_symbol
_atom_site_label
_atom_site_fract_x
_atom_site_fract_y
_atom_site_fract_z
Si Si1 0.757360 0.160500 0.478972
Si Si2 0.291442 0.395116 0.796711
Si Si3 0.614944 0.490168 0.529274
Si Si4 0.304968 0.897606 0.018567
Si Si5 0.503184 0.803753 0.169943
Si Si6 0.133490 0.540590 0.632091
Si Si7 0.886203 0.996193 0.713718
O O1 0.625696 0.165144 0.675726
O O2 0.832772 0.311290 0.397382
O O3 0.934429 0.289844 0.546238
O O4 0.632996 0.918667 0.307091
O O5 0.400713 0.338797 0.626649
O O6 0.348605 0.512392 0.683490
O O7 0.065036 0.198269 0.841208
O O8 0.379470 0.558972 0.006141
O O9 0.704196 0.436651 0.494052
O O10 0.731524 0.743233 0.683695
O O11 0.199926 0.934869 0.227924
O O12 0.162232 0.648379 0.860493
O O13 0.500000 0.000000 0.000000
O O14 0.362198 0.042794 0.951199
O O15 0.000000 0.000000 0.500000
#
# Coordination Sequence:
#
# PCOD9089844 Si02
#       7
#     2   2   2   2   2   2   2
#     4   9  21  39  59  86 120 165 214 257 306 351
#     4  10  20  37  65  86 129 157 200 247 324 370
#     4  10  21  39  62  94 122 163 198 257 319 372
#     4  11  22  36  64  97 125 161 206 256 319 377
#     4  10  19  38  62  84 122 162 203 261 301 363
#     4  10  21  39  63  85 125 160 213 260 304 365
#     4  10  22  38  59  91 131 163 195 246 312 385
#
# _framework density 24.387498999999998
#
# number of rings (size 3 to 8) (size 9 to 14) (size 15 to 20)
#    0.000    2.000    1.429    1.714    4.000    2.286 
#    5.143    6.429    0.000    0.000    0.000    0.000 
#    0.000    0.000    0.000    0.000    0.000    0.000 
#
# Total GULP energy -78126.723228 kJ/mol
# GULP energy per Si atom -5580.480231 kJ/mol
# Density = 2.433199 g / cm^3
# Si number density = 24.387499 Si / 1000 Ang^3
#
#
#
# Elastic Constant Matrix: (Units=GPa)
#
#
# Indices 1 2 3 4 5 6 
#
# 1 115.3024 35.5123 48.2507 17.1195 -7.4703 29.6196
# 2 35.5123 72.3202 34.1837 16.1538 17.5049 20.0098
# 3 48.2507 34.1837 132.4931 39.2030 2.7157 16.4525
# 4 17.1195 16.1538 39.2030 43.5620 11.0295 12.8336
# 5 -7.4703 17.5049 2.7157 11.0295 32.0012 0.6854
# 6 29.6196 20.0098 16.4525 12.8336 0.6854 35.2632
#
#
#
# Elastic Compliance Matrix: (Units=1/GPa)
#
#
# Indices 1 2 3 4 5 6 
#
# 1 0.013728 -0.004783 -0.002822 -0.000509 0.006395 -0.007439
# 2 -0.004783 0.022938 -0.003662 0.002575 -0.014070 -0.007954
# 3 -0.002822 -0.003662 0.012138 -0.010110 0.003748 0.002392
# 4 -0.000509 0.002575 -0.010110 0.037558 -0.013406 -0.009725
# 5 0.006395 -0.014070 0.003748 -0.013406 0.044636 0.004875
# 6 -0.007439 -0.007954 0.002392 -0.009725 0.004875 0.041448
#
#
# Mechanical properties :
#
#
# Convention : Reuss Voigt Hill
#
# Bulk Modulus (GPa) = 38.06723 61.77879 49.92301
# Shear Modulus (GPa) = 24.54138 35.64320 30.09229
#
# Velocity S-wave (km/s) = 3.17568 3.82715 3.51653
# Velocity P-wave (km/s) = 5.39350 6.70198 6.08303
#
# Compressibility (1/GPa) = 0.02626931
#
# Stress axis : x y z
#
# Youngs Moduli (GPa) = 72.84468 43.59542 82.38903
#
# Poissons Ratio (x) = 0.20852 0.23249
# Poissons Ratio (y) = 0.34842 0.30172
# Poissons Ratio (z) = 0.20556 0.15965
#
# Static dielectric constant tensor:
#      x y z
#    x 1.993190 0.085510 0.007590 
#    y 0.085510 2.103030 -0.015530 
#    z 0.007590 -0.015530 2.048280 
# 
# From -- ./inp_files/176884.got.cif
#   From: 2010.05.17/outbox.cif.g08.bks.cpg/sg2_89_cif.got.tgz:176884.got - 2010.06.03 11:33:40.
