data_PCOD9089737
_publ_section_title
;
Structure prediction by ZEFSAII (Michael W. Deem and Ramdas Pophale) SiO2 
 PCOD9089737
Probable space group: P -1
;
_chemical_formula_sum "Si O2"
_cell_formula_units_Z 16
_cell_length_a 8.380932
_cell_length_b 10.440130
_cell_length_c 21.331098
_cell_angle_alpha 137.760970
_cell_angle_beta 40.688746
_cell_angle_gamma 135.962608
_cell_volume 763.321214
_symmetry_space_group_name_H-M "P -1"
_symmetry_group_IT_number 2
_symmetry_cell_setting 'triclinic'
loop_
_space_group_symop_operation_xyz
x,y,z
-x,-y,-z
loop_
_atom_site_type_symbol
_atom_site_label
_atom_site_fract_x
_atom_site_fract_y
_atom_site_fract_z
Si Si1 0.025818 0.849243 0.001287
Si Si2 0.015996 0.866380 0.237121
Si Si3 0.151674 0.503661 0.553585
Si Si4 0.612346 0.332782 0.332262
Si Si5 0.727489 0.917915 0.880477
Si Si6 0.435220 0.074697 0.850539
Si Si7 0.770078 0.177622 0.465384
Si Si8 0.329332 0.572087 0.799084
O O1 0.711735 0.772339 0.066729
O O2 0.106661 0.050326 0.094633
O O3 0.116156 0.661502 0.923034
O O4 0.220471 0.941968 0.918075
O O5 0.274088 0.835509 0.176429
O O6 0.763811 0.665657 0.246957
O O7 0.082338 0.923361 0.166387
O O8 0.971192 0.059047 0.351610
O O9 0.363643 0.392754 0.445362
O O10 0.164137 0.566293 0.645527
O O11 0.239464 0.698922 0.550896
O O12 0.884065 0.346470 0.546899
O O13 0.662301 0.400720 0.268984
O O14 0.552446 0.090955 0.263553
O O15 0.594423 0.710412 0.806062
O O16 0.500000 0.000000 0.000000
O O17 0.500000 0.000000 0.500000
#
# Coordination Sequence:
#
# PCOD9089737 Si02
#       8
#     2   2   2   2   2   2   2   2
#     4   9  20  37  61  87 122 160 201 250 291 356
#     4  12  22  38  64  87 125 167 196 251 314 357
#     4  10  22  41  68  85 118 161 204 253 314 358
#     4  10  19  42  63  89 116 162 205 251 305 362
#     4  10  19  39  60  89 121 163 203 250 300 355
#     4  10  19  38  61  86 122 160 200 247 301 354
#     4  11  24  43  61  94 125 155 204 259 303 365
#     4  10  21  38  62  91 126 161 203 247 303 362
#
# _framework density 20.961031999999999
#
# number of rings (size 3 to 8) (size 9 to 14) (size 15 to 20)
#    0.000    1.750    5.000    0.750    1.750    3.500 
#    2.250    1.875    0.000    0.000    0.000    0.000 
#    0.000    0.000    0.000    0.000    0.000    0.000 
#
# Total GULP energy -89079.133453 kJ/mol
# GULP energy per Si atom -5567.445841 kJ/mol
# Density = 2.091332 g / cm^3
# Si number density = 20.961032 Si / 1000 Ang^3
#
#
#
# Elastic Constant Matrix: (Units=GPa)
#
#
# Indices 1 2 3 4 5 6 
#
# 1 76.7281 12.9201 25.9655 3.6631 22.2572 23.3773
# 2 12.9201 64.3393 14.7859 4.9156 19.4069 8.6691
# 3 25.9655 14.7859 68.2538 6.2447 13.5181 8.1571
# 4 3.6631 4.9156 6.2447 25.8454 6.3113 -2.4586
# 5 22.2572 19.4069 13.5181 6.3113 46.9470 4.6668
# 6 23.3773 8.6691 8.1571 -2.4586 4.6668 15.4758
#
#
#
# Elastic Compliance Matrix: (Units=1/GPa)
#
#
# Indices 1 2 3 4 5 6 
#
# 1 0.030303 0.004239 -0.004800 -0.005740 -0.009628 -0.043628
# 2 0.004239 0.019724 -0.002351 -0.003301 -0.007607 -0.014444
# 3 -0.004800 -0.002351 0.017609 -0.002867 -0.001362 -0.000758
# 4 -0.005740 -0.003301 -0.002867 0.043416 -0.002894 0.019802
# 5 -0.009628 -0.007607 -0.001362 -0.002894 0.028758 0.010391
# 6 -0.043628 -0.014444 -0.000758 0.019802 0.010391 0.139024
#
#
# Mechanical properties :
#
#
# Convention : Reuss Voigt Hill
#
# Bulk Modulus (GPa) = 16.17780 35.18490 25.68135
# Shear Modulus (GPa) = 16.37934 28.03029 22.20482
#
# Velocity S-wave (km/s) = 2.79842 3.66082 3.25828
# Velocity P-wave (km/s) = 4.26337 5.88992 5.14137
#
# Compressibility (1/GPa) = 0.06181312
#
# Stress axis : x y z
#
# Youngs Moduli (GPa) = 32.99993 50.69846 56.78818
#
# Poissons Ratio (x) = -0.21492 0.27260
# Poissons Ratio (y) = -0.13989 0.13350
# Poissons Ratio (z) = 0.15841 0.11918
#
# Static dielectric constant tensor:
#      x y z
#    x 2.090780 0.189790 -0.030890 
#    y 0.189790 1.997100 0.035760 
#    z -0.030890 0.035760 1.794480 
# 
# From -- ./inp_files/607308.got.cif
#   From: 2010.05.17/outbox.cif.g08.bks.cpg/sg2_304_cif.got.tgz:607308.got - 2010.06.03 11:33:40.
