data_PCOD9089091
_publ_section_title
;
Structure prediction by ZEFSAII (Michael W. Deem and Ramdas Pophale) SiO2 
 PCOD9089091
Probable space group: P -1
;
_chemical_formula_sum "Si O2"
_cell_formula_units_Z 16
_cell_length_a 8.738819
_cell_length_b 19.985529
_cell_length_c 16.582223
_cell_angle_alpha 158.323256
_cell_angle_beta 52.888534
_cell_angle_gamma 138.016543
_cell_volume 669.288677
_symmetry_space_group_name_H-M "P -1"
_symmetry_group_IT_number 2
_symmetry_cell_setting 'triclinic'
loop_
_space_group_symop_operation_xyz
x,y,z
-x,-y,-z
loop_
_atom_site_type_symbol
_atom_site_label
_atom_site_fract_x
_atom_site_fract_y
_atom_site_fract_z
Si Si1 0.362693 0.284058 0.647524
Si Si2 0.220723 0.771081 0.560156
Si Si3 0.855384 0.797521 0.205628
Si Si4 0.166765 0.682154 0.907497
Si Si5 0.739383 0.557065 0.283794
Si Si6 0.455530 0.305474 0.359612
Si Si7 0.347384 0.898102 0.839873
Si Si8 0.288837 0.964042 0.581851
O O1 0.582399 0.276113 0.554544
O O2 0.322511 0.306426 0.778205
O O3 0.383732 0.467809 0.788554
O O4 0.109937 0.040291 0.425724
O O5 0.957947 0.538418 0.356897
O O6 0.212521 0.831092 0.722136
O O7 0.302392 0.940966 0.647650
O O8 0.745499 0.850658 0.228184
O O9 0.943820 0.656947 0.989721
O O10 0.324747 0.670597 0.911261
O O11 0.360440 0.922170 0.071655
O O12 0.675328 0.675017 0.501161
O O13 0.032017 0.721838 0.365721
O O14 0.500000 0.500000 0.500000
O O15 0.667470 0.301244 0.330187
O O16 0.306773 0.060651 0.084623
O O17 0.500000 0.000000 0.500000
#
# Coordination Sequence:
#
# PCOD9089091 Si02
#       8
#     2   2   2   2   2   2   2   2
#     4  10  19  37  65  89 130 177 228 270 327 407
#     4  11  22  41  66 100 132 176 230 268 336 411
#     4  10  20  37  61  93 131 181 221 271 336 390
#     4  11  23  41  65  96 139 175 222 279 334 401
#     4  10  21  39  65  95 133 175 224 281 330 405
#     4  11  22  43  76  97 130 177 228 277 348 405
#     4  11  23  44  73  98 133 180 215 287 348 389
#     4  10  20  38  63  92 136 177 216 279 332 389
#
# _framework density 23.905978000000001
#
# number of rings (size 3 to 8) (size 9 to 14) (size 15 to 20)
#    0.000    1.500    5.000    0.750    0.000    1.000 
#    4.500    5.000    0.000    0.000    0.000    0.000 
#    0.000    0.000    0.000    0.000    0.000    0.000 
#
# Total GULP energy -89391.039968 kJ/mol
# GULP energy per Si atom -5586.939998 kJ/mol
# Density = 2.385157 g / cm^3
# Si number density = 23.905978 Si / 1000 Ang^3
#
#
#
# Elastic Constant Matrix: (Units=GPa)
#
#
# Indices 1 2 3 4 5 6 
#
# 1 149.8020 35.2683 47.0901 6.0762 -18.1980 -51.3303
# 2 35.2683 99.3277 27.4593 5.2937 -10.8933 -30.8286
# 3 47.0901 27.4593 79.0059 -3.2123 -4.8506 -24.1694
# 4 6.0762 5.2937 -3.2123 31.0758 -6.3956 -2.4234
# 5 -18.1980 -10.8933 -4.8506 -6.3956 54.4378 -1.9195
# 6 -51.3303 -30.8286 -24.1694 -2.4234 -1.9195 54.2863
#
#
#
# Elastic Compliance Matrix: (Units=1/GPa)
#
#
# Indices 1 2 3 4 5 6 
#
# 1 0.011594 0.000412 -0.003960 -0.001223 0.003797 0.009513
# 2 0.000412 0.013088 -0.002662 -0.001536 0.002574 0.006660
# 3 -0.003960 -0.002662 0.016802 0.003169 0.000097 0.002370
# 4 -0.001223 -0.001536 0.003169 0.033823 0.003576 0.001018
# 5 0.003797 0.002574 0.000097 0.003576 0.020794 0.005990
# 6 0.009513 0.006660 0.002370 0.001018 0.005990 0.032511
#
#
# Mechanical properties :
#
#
# Convention : Reuss Voigt Hill
#
# Bulk Modulus (GPa) = 34.40449 60.86345 47.63397
# Shear Modulus (GPa) = 33.17415 42.51451 37.84433
#
# Velocity S-wave (km/s) = 3.72922 4.22169 3.98307
# Velocity P-wave (km/s) = 5.74156 7.01985 6.41264
#
# Compressibility (1/GPa) = 0.02906597
#
# Stress axis : x y z
#
# Youngs Moduli (GPa) = 86.25250 76.40361 59.51530
#
# Poissons Ratio (x) = -0.03151 0.23568
# Poissons Ratio (y) = -0.03557 0.15842
# Poissons Ratio (z) = 0.34156 0.20337
#
# Static dielectric constant tensor:
#      x y z
#    x 1.918680 -0.043030 0.005420 
#    y -0.043030 1.916080 0.047390 
#    z 0.005420 0.047390 1.969720 
# 
# From -- ./inp_files/562762.got.cif
#   From: 2010.05.17/outbox.cif.g08.bks.cpg/sg2_282_cif.got.tgz:562762.got - 2010.06.03 11:33:40.
