data_PCOD9089551
_publ_section_title
;
Structure prediction by ZEFSAII (Michael W. Deem and Ramdas Pophale) SiO2 
 PCOD9089551
Probable space group: P -1
;
_chemical_formula_sum "Si O2"
_cell_formula_units_Z 14
_cell_length_a 14.218976
_cell_length_b 14.873088
_cell_length_c 25.356873
_cell_angle_alpha 158.846221
_cell_angle_beta 157.153764
_cell_angle_gamma 33.490554
_cell_volume 738.823975
_symmetry_space_group_name_H-M "P -1"
_symmetry_group_IT_number 2
_symmetry_cell_setting 'triclinic'
loop_
_space_group_symop_operation_xyz
x,y,z
-x,-y,-z
loop_
_atom_site_type_symbol
_atom_site_label
_atom_site_fract_x
_atom_site_fract_y
_atom_site_fract_z
Si Si1 0.479137 0.191487 0.467612
Si Si2 0.220217 0.693020 0.949354
Si Si3 0.635456 0.459351 0.245088
Si Si4 0.048174 0.130352 0.291466
Si Si5 0.339578 0.259361 0.313588
Si Si6 0.429166 0.335511 0.788785
Si Si7 0.219999 0.374694 0.067854
O O1 0.233207 0.084913 0.315848
O O2 0.400581 0.272354 0.414180
O O3 0.627488 0.428004 0.704704
O O4 0.633713 0.965767 0.417815
O O5 0.237347 0.471864 0.795774
O O6 0.942662 0.721509 0.831034
O O7 0.342664 0.633475 0.035340
O O8 0.362427 0.968042 0.151913
O O9 0.779749 0.705622 0.485738
O O10 0.533690 0.536308 0.178958
O O11 0.411842 0.334643 0.099118
O O12 0.843720 0.287758 0.251802
O O13 0.902293 0.879127 0.105009
O O14 0.500000 0.500000 0.500000
O O15 0.000000 0.500000 0.000000
#
# Coordination Sequence:
#
# PCOD9089551 Si02
#       7
#     2   2   2   2   2   2   2
#     4  10  22  37  58  83 112 149 184 227 280 329
#     4   9  21  39  59  82 112 147 184 230 280 327
#     4  10  21  36  58  83 112 149 187 230 274 325
#     4  10  21  39  57  82 115 147 187 228 273 333
#     4  10  21  39  60  84 111 144 187 231 275 330
#     4  10  19  38  59  81 114 148 184 229 279 328
#     4  11  22  36  57  86 115 147 185 228 278 331
#
# _framework density 18.949034999999999
#
# number of rings (size 3 to 8) (size 9 to 14) (size 15 to 20)
#    0.000    2.000    0.000    3.000    0.000    8.000 
#    0.000   12.143    0.000    0.000    0.000    0.000 
#    0.000    0.000    0.000    0.000    0.000    0.000 
#
# Total GULP energy -78125.754294 kJ/mol
# GULP energy per Si atom -5580.411021 kJ/mol
# Density = 1.890591 g / cm^3
# Si number density = 18.949035 Si / 1000 Ang^3
#
#
#
# Elastic Constant Matrix: (Units=GPa)
#
#
# Indices 1 2 3 4 5 6 
#
# 1 87.2780 45.3469 37.3291 16.5956 9.4946 14.3837
# 2 45.3469 88.2061 28.1088 9.6268 3.1054 6.4167
# 3 37.3291 28.1088 74.2078 15.8640 29.6439 7.9717
# 4 16.5956 9.6268 15.8640 26.0659 2.3198 2.6377
# 5 9.4946 3.1054 29.6439 2.3198 23.2498 4.9026
# 6 14.3837 6.4167 7.9717 2.6377 4.9026 34.7287
#
#
#
# Elastic Compliance Matrix: (Units=1/GPa)
#
#
# Indices 1 2 3 4 5 6 
#
# 1 0.019554 -0.007052 -0.006656 -0.005536 0.003111 -0.005287
# 2 -0.007052 0.016603 -0.006705 0.001635 0.009051 -0.000009
# 3 -0.006656 -0.006705 0.041551 -0.014507 -0.048423 0.002396
# 4 -0.005536 0.001635 -0.014507 0.048770 0.015803 -0.000614
# 5 0.003111 0.009051 -0.048423 0.015803 0.102273 -0.007484
# 6 -0.005287 -0.000009 0.002396 -0.000614 -0.007484 0.031539
#
#
# Mechanical properties :
#
#
# Convention : Reuss Voigt Hill
#
# Bulk Modulus (GPa) = 27.11464 52.36239 39.73852
# Shear Modulus (GPa) = 15.95339 26.06934 21.01136
#
# Velocity S-wave (km/s) = 2.90472 3.71315 3.33353
# Velocity P-wave (km/s) = 5.05867 6.78797 5.98610
#
# Compressibility (1/GPa) = 0.03688045
#
# Stress axis : x y z
#
# Youngs Moduli (GPa) = 51.13962 60.22931 24.06661
#
# Poissons Ratio (x) = 0.42476 0.16020
# Poissons Ratio (y) = 0.36066 0.16138
# Poissons Ratio (z) = 0.34041 0.40386
#
# Static dielectric constant tensor:
#      x y z
#    x 1.647460 -0.016770 -0.019760 
#    y -0.016770 1.672300 0.017960 
#    z -0.019760 0.017960 1.648160 
# 
# From -- ./inp_files/60650.got.cif
#   From: 2010.05.17/outbox.cif.g08.bks.cpg/sg2_31_cif.got.tgz:60650.got - 2010.06.03 11:33:40.
