data_PCOD9089212
_publ_section_title
;
Structure prediction by ZEFSAII (Michael W. Deem and Ramdas Pophale) SiO2 
 PCOD9089212
Probable space group: P -1
;
_chemical_formula_sum "Si O2"
_cell_formula_units_Z 14
_cell_length_a 15.139832
_cell_length_b 9.257389
_cell_length_c 7.211996
_cell_angle_alpha 89.410087
_cell_angle_beta 56.282082
_cell_angle_gamma 129.587471
_cell_volume 533.309818
_symmetry_space_group_name_H-M "P -1"
_symmetry_group_IT_number 2
_symmetry_cell_setting 'triclinic'
loop_
_space_group_symop_operation_xyz
x,y,z
-x,-y,-z
loop_
_atom_site_type_symbol
_atom_site_label
_atom_site_fract_x
_atom_site_fract_y
_atom_site_fract_z
Si Si1 0.639143 0.315197 0.806551
Si Si2 0.983875 0.491110 0.750537
Si Si3 0.821275 0.796399 0.015796
Si Si4 0.512546 0.605811 0.796328
Si Si5 0.909578 0.692522 0.250373
Si Si6 0.869660 0.055191 0.458445
Si Si7 0.687692 0.066416 0.949492
O O1 0.548548 0.295820 0.085307
O O2 0.504361 0.178545 0.799441
O O3 0.794564 0.579979 0.570513
O O4 0.676864 0.189187 0.813016
O O5 0.789388 0.243367 0.995591
O O6 0.000000 0.500000 0.500000
O O7 0.077421 0.466665 0.756196
O O8 0.047593 0.714044 0.725923
O O9 0.972216 0.884522 0.713248
O O10 0.632858 0.607229 0.163784
O O11 0.820773 0.684001 0.189373
O O12 0.910383 0.042072 0.952669
O O13 0.500000 0.500000 0.000000
O O14 0.712061 0.827626 0.529373
O O15 0.784855 0.032382 0.744222
#
# Coordination Sequence:
#
# PCOD9089212 Si02
#       7
#     2   2   2   2   2   2   2
#     4  10  19  38  64  95 126 161 212 270 319 367
#     4  10  19  37  66  92 124 159 218 265 309 376
#     4  11  27  44  63  92 140 174 210 259 325 391
#     4  11  25  40  67  97 126 169 221 268 316 377
#     4  11  24  44  62  93 133 176 208 260 329 386
#     4  10  21  42  64  99 125 164 220 262 320 378
#     4   9  19  34  65  99 122 154 214 270 317 371
#
# _framework density 26.251156999999999
#
# number of rings (size 3 to 8) (size 9 to 14) (size 15 to 20)
#    0.000    1.714    2.857    1.714    8.000    1.714 
#    2.571    2.857    0.000    0.000    0.000    0.000 
#    0.000    0.000    0.000    0.000    0.000    0.000 
#
# Total GULP energy -78118.337391 kJ/mol
# GULP energy per Si atom -5579.881242 kJ/mol
# Density = 2.619141 g / cm^3
# Si number density = 26.251157 Si / 1000 Ang^3
#
#
#
# Elastic Constant Matrix: (Units=GPa)
#
#
# Indices 1 2 3 4 5 6 
#
# 1 100.2305 32.8143 19.3161 -6.8228 10.2933 12.2751
# 2 32.8143 137.4639 24.2815 -37.4165 -4.3343 7.4684
# 3 19.3161 24.2815 89.4262 -13.6206 -5.4664 -0.0708
# 4 -6.8228 -37.4165 -13.6206 37.8342 -1.5638 -20.8290
# 5 10.2933 -4.3343 -5.4664 -1.5638 35.0498 -15.6081
# 6 12.2751 7.4684 -0.0708 -20.8290 -15.6081 62.2044
#
#
#
# Elastic Compliance Matrix: (Units=1/GPa)
#
#
# Indices 1 2 3 4 5 6 
#
# 1 0.013183 -0.004393 -0.003225 -0.007022 -0.008110 -0.006464
# 2 -0.004393 0.012199 0.000286 0.014896 0.006150 0.005934
# 3 -0.003225 0.000286 0.013198 0.007035 0.005267 0.004294
# 4 -0.007022 0.014896 0.007035 0.055616 0.017562 0.022635
# 5 -0.008110 0.006150 0.005267 0.017562 0.040847 0.016998
# 6 -0.006464 0.005934 0.004294 0.022635 0.016998 0.028488
#
#
# Mechanical properties :
#
#
# Convention : Reuss Voigt Hill
#
# Bulk Modulus (GPa) = 41.81340 53.32716 47.57028
# Shear Modulus (GPa) = 26.85745 43.73159 35.29452
#
# Velocity S-wave (km/s) = 3.20206 4.08596 3.67071
# Velocity P-wave (km/s) = 5.44368 6.52828 6.01050
#
# Compressibility (1/GPa) = 0.02391578
#
# Stress axis : x y z
#
# Youngs Moduli (GPa) = 75.85370 81.97478 75.76816
#
# Poissons Ratio (x) = 0.36013 0.24436
# Poissons Ratio (y) = 0.33324 -0.02167
# Poissons Ratio (z) = 0.24464 -0.02345
#
# Static dielectric constant tensor:
#      x y z
#    x 2.085280 0.063830 -0.080290 
#    y 0.063830 2.108980 0.056230 
#    z -0.080290 0.056230 2.293140 
# 
# From -- ./inp_files/238252.got.cif
#   From: 2010.05.17/outbox.cif.g08.bks.cpg/sg2_120_cif.got.tgz:238252.got - 2010.06.03 11:33:40.
