data_PCOD9089593
_publ_section_title
;
Structure prediction by ZEFSAII (Michael W. Deem and Ramdas Pophale) SiO2 
 PCOD9089593
Probable space group: P -1
;
_chemical_formula_sum "Si O2"
_cell_formula_units_Z 16
_cell_length_a 8.975061
_cell_length_b 25.049117
_cell_length_c 9.261449
_cell_angle_alpha 127.052756
_cell_angle_beta 148.433617
_cell_angle_gamma 44.755026
_cell_volume 767.404063
_symmetry_space_group_name_H-M "P -1"
_symmetry_group_IT_number 2
_symmetry_cell_setting 'triclinic'
loop_
_space_group_symop_operation_xyz
x,y,z
-x,-y,-z
loop_
_atom_site_type_symbol
_atom_site_label
_atom_site_fract_x
_atom_site_fract_y
_atom_site_fract_z
Si Si1 0.384494 0.282001 0.329940
Si Si2 0.331291 0.431168 0.407265
Si Si3 0.885222 0.792514 0.214937
Si Si4 0.690419 0.349771 0.279467
Si Si5 0.504143 0.164139 0.470544
Si Si6 0.398702 0.483896 0.047852
Si Si7 0.239606 0.086784 0.918822
Si Si8 0.616299 0.753884 0.207328
O O1 0.316446 0.366949 0.390983
O O2 0.418217 0.244191 0.451651
O O3 0.745570 0.231881 0.481059
O O4 0.122199 0.268129 0.003753
O O5 0.452273 0.397611 0.292726
O O6 0.568950 0.458052 0.719049
O O7 0.970058 0.499639 0.224458
O O8 0.723112 0.871490 0.124939
O O9 0.693144 0.786660 0.181397
O O10 0.620039 0.401390 0.163752
O O11 0.050292 0.317826 0.583948
O O12 0.632356 0.278320 0.079010
O O13 0.478750 0.182772 0.646509
O O14 0.871098 0.103821 0.638889
O O15 0.283690 0.132071 0.164602
O O16 0.500000 0.500000 0.000000
O O17 0.500000 0.000000 0.000000
#
# Coordination Sequence:
#
# PCOD9089593 Si02
#       8
#     2   2   2   2   2   2   2   2
#     4  10  20  36  61  86 110 154 197 237 288 349
#     4  12  22  43  63  82 117 156 203 241 307 358
#     4  10  19  38  59  90 115 150 195 234 279 354
#     4  12  25  41  61  85 117 163 194 245 306 355
#     4  10  23  36  62  92 123 151 194 246 289 332
#     4  12  28  41  59  86 119 152 203 254 302 359
#     4  10  21  41  63  89 124 161 193 227 286 356
#     4  12  22  40  61  91 121 148 201 251 293 339
#
# _framework density 20.849509999999999
#
# number of rings (size 3 to 8) (size 9 to 14) (size 15 to 20)
#    0.000    1.000    2.500    4.500    3.500    0.000 
#    0.000    1.250    0.000    0.000    0.000    0.000 
#    0.000    0.000    0.000    0.000    0.000    0.000 
#
# Total GULP energy -89472.192108 kJ/mol
# GULP energy per Si atom -5592.012007 kJ/mol
# Density = 2.080206 g / cm^3
# Si number density = 20.849510 Si / 1000 Ang^3
#
#
#
# Elastic Constant Matrix: (Units=GPa)
#
#
# Indices 1 2 3 4 5 6 
#
# 1 35.1493 4.4380 3.5236 -1.7296 -16.2207 -3.5655
# 2 4.4380 70.2223 -2.8123 -11.6932 -7.9145 11.7679
# 3 3.5236 -2.8123 67.1443 -0.8851 -3.2846 2.4349
# 4 -1.7296 -11.6932 -0.8851 29.8259 -0.2623 -1.1547
# 5 -16.2207 -7.9145 -3.2846 -0.2623 27.1336 1.8973
# 6 -3.5655 11.7679 2.4349 -1.1547 1.8973 17.9416
#
#
#
# Elastic Compliance Matrix: (Units=1/GPa)
#
#
# Indices 1 2 3 4 5 6 
#
# 1 0.040135 -0.000587 -0.001185 0.002508 0.023267 0.006222
# 2 -0.000587 0.018253 0.001637 0.006740 0.006112 -0.012524
# 3 -0.001185 0.001637 0.015255 0.000906 0.001871 -0.003519
# 4 0.002508 0.006740 0.000906 0.036295 0.004075 -0.002140
# 5 0.023267 0.006112 0.001871 0.004075 0.053162 -0.004999
# 6 0.006222 -0.012524 -0.003519 -0.002140 -0.004999 0.066056
#
#
# Mechanical properties :
#
#
# Convention : Reuss Voigt Hill
#
# Bulk Modulus (GPa) = 13.62880 20.31272 16.97076
# Shear Modulus (GPa) = 19.69403 26.13800 22.91602
#
# Velocity S-wave (km/s) = 3.07674 3.54453 3.31889
# Velocity P-wave (km/s) = 4.37866 5.14930 4.77954
#
# Compressibility (1/GPa) = 0.07337401
#
# Stress axis : x y z
#
# Youngs Moduli (GPa) = 24.91594 54.78541 65.55161
#
# Poissons Ratio (x) = 0.03214 0.07769
# Poissons Ratio (y) = 0.01462 -0.10733
# Poissons Ratio (z) = 0.02953 -0.08970
#
# Static dielectric constant tensor:
#      x y z
#    x 1.750340 0.003310 -0.005300 
#    y 0.003310 1.727920 -0.013570 
#    z -0.005300 -0.013570 1.723270 
# 
# From -- ./inp_files/48655.got.cif
#   From: 2010.05.17/outbox.cif.g08.bks.cpg/sg2_25_cif.got.tgz:48655.got - 2010.06.03 11:33:40.
