data_PCOD9089084
_publ_section_title
;
Structure prediction by ZEFSAII (Michael W. Deem and Ramdas Pophale) SiO2 
 PCOD9089084
Probable space group: P -1
;
_chemical_formula_sum "Si O2"
_cell_formula_units_Z 16
_cell_length_a 11.185771
_cell_length_b 11.661603
_cell_length_c 8.901126
_cell_angle_alpha 84.350686
_cell_angle_beta 115.911655
_cell_angle_gamma 50.446539
_cell_volume 676.091221
_symmetry_space_group_name_H-M "P -1"
_symmetry_group_IT_number 2
_symmetry_cell_setting 'triclinic'
loop_
_space_group_symop_operation_xyz
x,y,z
-x,-y,-z
loop_
_atom_site_type_symbol
_atom_site_label
_atom_site_fract_x
_atom_site_fract_y
_atom_site_fract_z
Si Si1 0.769118 0.683933 0.663808
Si Si2 0.734894 0.461734 0.543044
Si Si3 0.397209 0.614475 0.158749
Si Si4 0.706404 0.238711 0.215969
Si Si5 0.843655 0.941663 0.515808
Si Si6 0.028546 0.601065 0.583598
Si Si7 0.016187 0.855696 0.081138
Si Si8 0.336367 0.030222 0.270938
O O1 0.775681 0.541359 0.668836
O O2 0.985119 0.593237 0.733195
O O3 0.709008 0.802792 0.757840
O O4 0.575957 0.843564 0.427653
O O5 0.496429 0.592599 0.371262
O O6 0.874460 0.259692 0.690468
O O7 0.785695 0.468530 0.399128
O O8 0.545406 0.425078 0.188413
O O9 0.181408 0.700254 0.071099
O O10 0.358286 0.735247 0.994968
O O11 0.927443 0.155614 0.336631
O O12 0.717548 0.116957 0.333111
O O13 0.864602 0.810713 0.450749
O O14 0.749883 0.973107 0.622128
O O15 0.000000 0.500000 0.500000
O O16 0.799769 0.936727 0.936124
O O17 0.000000 0.000000 0.000000
#
# Coordination Sequence:
#
# PCOD9089084 Si02
#       8
#     2   2   2   2   2   2   2   2
#     4   9  21  41  67  86 114 165 206 258 304 352
#     4  11  23  40  64  87 128 163 200 252 310 360
#     4  11  23  40  58  95 126 159 205 248 306 377
#     4  10  22  35  63  92 119 163 202 247 311 364
#     4  10  19  37  65  88 122 161 196 259 303 359
#     4   9  19  38  65  88 114 160 206 250 306 351
#     4  12  27  38  61  95 128 165 198 249 311 373
#     4  10  21  41  64  88 126 154 209 252 302 364
#
# _framework density 23.665448000000001
#
# number of rings (size 3 to 8) (size 9 to 14) (size 15 to 20)
#    0.000    1.750    2.500    1.125    5.250    0.500 
#    0.000    0.625   22.000    0.000    0.000    0.000 
#    0.000    0.000    0.000    0.000    0.000    0.000 
#
# Total GULP energy -89136.160373 kJ/mol
# GULP energy per Si atom -5571.010023 kJ/mol
# Density = 2.361158 g / cm^3
# Si number density = 23.665448 Si / 1000 Ang^3
#
#
#
# Elastic Constant Matrix: (Units=GPa)
#
#
# Indices 1 2 3 4 5 6 
#
# 1 74.4616 26.7792 26.6048 -6.3044 -0.5368 4.1003
# 2 26.7792 85.4371 16.1088 -7.5283 -5.3507 24.4017
# 3 26.6048 16.1088 86.7327 -8.0425 5.1877 18.9652
# 4 -6.3044 -7.5283 -8.0425 19.0500 1.4174 0.5684
# 5 -0.5368 -5.3507 5.1877 1.4174 29.4799 -1.2824
# 6 4.1003 24.4017 18.9652 0.5684 -1.2824 41.2717
#
#
#
# Elastic Compliance Matrix: (Units=1/GPa)
#
#
# Indices 1 2 3 4 5 6 
#
# 1 0.017021 -0.005333 -0.004943 0.001305 0.000311 0.003725
# 2 -0.005333 0.016565 0.001071 0.005373 0.002038 -0.009767
# 3 -0.004943 0.001071 0.015149 0.005635 -0.003149 -0.007279
# 4 0.001305 0.005373 0.005635 0.057858 -0.003070 -0.006788
# 5 0.000311 0.002038 -0.003149 -0.003070 0.035057 0.001343
# 6 0.003725 -0.009767 -0.007279 -0.006788 0.001343 0.033114
#
#
# Mechanical properties :
#
#
# Convention : Reuss Voigt Hill
#
# Bulk Modulus (GPa) = 32.97410 42.84634 37.91022
# Shear Modulus (GPa) = 24.59632 29.76956 27.18294
#
# Velocity S-wave (km/s) = 3.22737 3.55058 3.39283
# Velocity P-wave (km/s) = 5.27746 5.91212 5.60378
#
# Compressibility (1/GPa) = 0.03032683
#
# Stress axis : x y z
#
# Youngs Moduli (GPa) = 58.75032 60.36983 66.00900
#
# Poissons Ratio (x) = 0.32192 0.32627
# Poissons Ratio (y) = 0.31329 -0.07071
# Poissons Ratio (z) = 0.29040 -0.06467
#
# Static dielectric constant tensor:
#      x y z
#    x 1.994690 -0.013910 0.007590 
#    y -0.013910 1.912020 0.012840 
#    z 0.007590 0.012840 1.950210 
# 
# From -- ./inp_files/239879.got.cif
#   From: 2010.05.17/outbox.cif.g08.bks.cpg/sg2_120_cif.got.tgz:239879.got - 2010.06.03 11:33:40.
