data_PCOD9089105
_publ_section_title
;
Structure prediction by ZEFSAII (Michael W. Deem and Ramdas Pophale) SiO2 
 PCOD9089105
Probable space group: P -1
;
_chemical_formula_sum "Si O2"
_cell_formula_units_Z 16
_cell_length_a 6.902302
_cell_length_b 11.039619
_cell_length_c 16.273565
_cell_angle_alpha 128.300947
_cell_angle_beta 43.772368
_cell_angle_gamma 100.395836
_cell_volume 586.094067
_symmetry_space_group_name_H-M "P -1"
_symmetry_group_IT_number 2
_symmetry_cell_setting 'triclinic'
loop_
_space_group_symop_operation_xyz
x,y,z
-x,-y,-z
loop_
_atom_site_type_symbol
_atom_site_label
_atom_site_fract_x
_atom_site_fract_y
_atom_site_fract_z
Si Si1 0.517683 0.816079 0.128106
Si Si2 0.439419 0.540435 0.763802
Si Si3 0.130672 0.856913 0.492962
Si Si4 0.089176 0.556303 0.108777
Si Si5 0.678434 0.792353 0.880530
Si Si6 0.264915 0.250549 0.538468
Si Si7 0.735199 0.886953 0.258131
Si Si8 0.766494 0.506916 0.500426
O O1 0.700511 0.871105 0.163875
O O2 0.573762 0.625995 0.064383
O O3 0.669549 0.784714 0.978520
O O4 0.155108 0.977089 0.303900
O O5 0.729592 0.338248 0.595201
O O6 0.504883 0.683929 0.850929
O O7 0.439138 0.569499 0.677991
O O8 0.149262 0.517591 0.879682
O O9 0.444387 0.869809 0.382049
O O10 0.945721 0.840262 0.463043
O O11 0.935640 0.626431 0.274241
O O12 0.963433 0.274571 0.856838
O O13 0.030405 0.683747 0.685539
O O14 0.500000 0.000000 0.000000
O O15 0.287943 0.354880 0.496904
O O16 0.614430 0.094628 0.394771
O O17 0.000000 0.500000 0.500000
#
# Coordination Sequence:
#
# PCOD9089105 Si02
#       8
#     2   2   2   2   2   2   2   2
#     4  11  21  39  63  93 123 164 204 253 318 353
#     4  10  22  41  64  92 128 162 204 253 308 369
#     4  10  20  42  65  93 119 163 216 255 294 370
#     4  11  23  42  59  93 134 160 202 257 311 367
#     4  11  22  38  65  95 120 159 209 263 309 357
#     4  11  19  38  65  91 120 168 210 242 311 370
#     4  10  24  40  65  91 125 167 209 256 299 368
#     4  10  19  37  65  91 122 160 210 258 299 362
#
# _framework density 27.299372999999999
#
# number of rings (size 3 to 8) (size 9 to 14) (size 15 to 20)
#    0.000    1.500    3.750    3.000    5.250    0.500 
#    0.000   20.625    0.000    0.000    0.000    0.000 
#    0.000    0.000    0.000    0.000    0.000    0.000 
#
# Total GULP energy -89528.451352 kJ/mol
# GULP energy per Si atom -5595.528209 kJ/mol
# Density = 2.723724 g / cm^3
# Si number density = 27.299373 Si / 1000 Ang^3
#
#
#
# Elastic Constant Matrix: (Units=GPa)
#
#
# Indices 1 2 3 4 5 6 
#
# 1 101.1097 42.6512 56.9096 6.2949 7.8258 -14.2420
# 2 42.6512 160.5745 71.7924 19.9033 -4.2367 -25.0323
# 3 56.9096 71.7924 195.0213 24.3460 14.7054 -22.2401
# 4 6.2949 19.9033 24.3460 67.5978 -12.6159 -2.2469
# 5 7.8258 -4.2367 14.7054 -12.6159 53.2541 3.4587
# 6 -14.2420 -25.0323 -22.2401 -2.2469 3.4587 54.9103
#
#
#
# Elastic Compliance Matrix: (Units=1/GPa)
#
#
# Indices 1 2 3 4 5 6 
#
# 1 0.012518 -0.001964 -0.002702 0.000190 -0.001292 0.001346
# 2 -0.001964 0.008233 -0.002134 -0.001191 0.001104 0.002261
# 3 -0.002702 -0.002134 0.007304 -0.002151 -0.002387 0.001347
# 4 0.000190 -0.001191 -0.002151 0.016708 0.004492 -0.000964
# 5 -0.001292 0.001104 -0.002387 0.004492 0.020904 -0.001931
# 6 0.001346 0.002261 0.001347 -0.000964 -0.001931 0.020219
#
#
# Mechanical properties :
#
#
# Convention : Reuss Voigt Hill
#
# Bulk Modulus (GPa) = 69.19230 88.82354 79.00792
# Shear Modulus (GPa) = 47.93635 54.17593 51.05614
#
# Velocity S-wave (km/s) = 4.19495 4.45962 4.32931
# Velocity P-wave (km/s) = 6.99030 7.68928 7.34811
#
# Compressibility (1/GPa) = 0.01445247
#
# Stress axis : x y z
#
# Youngs Moduli (GPa) = 79.88658 121.46445 136.91145
#
# Poissons Ratio (x) = 0.23861 0.37000
# Poissons Ratio (y) = 0.15693 0.29219
# Poissons Ratio (z) = 0.21589 0.25922
#
# Static dielectric constant tensor:
#      x y z
#    x 2.323990 0.019170 -0.065060 
#    y 0.019170 2.183410 0.033280 
#    z -0.065060 0.033280 2.166610 
# 
# From -- ./inp_files/559900.got.cif
#   From: 2010.05.17/outbox.cif.g08.bks.cpg/sg2_280_cif.got.tgz:559900.got - 2010.06.03 11:33:40.
