data_PCOD9089123
_publ_section_title
;
Structure prediction by ZEFSAII (Michael W. Deem and Ramdas Pophale) SiO2 
 PCOD9089123
Probable space group: P -1
;
_chemical_formula_sum "Si O2"
_cell_formula_units_Z 14
_cell_length_a 9.978313
_cell_length_b 9.431244
_cell_length_c 8.915348
_cell_angle_alpha 104.326302
_cell_angle_beta 75.924493
_cell_angle_gamma 56.508350
_cell_volume 598.410996
_symmetry_space_group_name_H-M "P -1"
_symmetry_group_IT_number 2
_symmetry_cell_setting 'triclinic'
loop_
_space_group_symop_operation_xyz
x,y,z
-x,-y,-z
loop_
_atom_site_type_symbol
_atom_site_label
_atom_site_fract_x
_atom_site_fract_y
_atom_site_fract_z
Si Si1 0.906408 0.178500 0.721436
Si Si2 0.705883 0.087178 0.597607
Si Si3 0.886748 0.653926 0.801147
Si Si4 0.419606 0.512223 0.683872
Si Si5 0.215825 0.283743 0.485166
Si Si6 0.036269 0.803838 0.959641
Si Si7 0.342395 0.421556 0.260975
O O1 0.789974 0.108986 0.728090
O O2 0.812266 0.348637 0.667671
O O3 0.900359 0.259303 0.903951
O O4 0.119112 0.006892 0.583644
O O5 0.526522 0.298070 0.657500
O O6 0.672831 0.937385 0.564673
O O7 0.071759 0.428304 0.690356
O O8 0.885712 0.791150 0.947049
O O9 0.887195 0.698094 0.635844
O O10 0.710913 0.669512 0.865152
O O11 0.500000 0.500000 0.500000
O O12 0.206402 0.645047 0.769068
O O13 0.473680 0.613434 0.802351
O O14 0.323169 0.348405 0.405104
O O15 0.000000 0.000000 0.000000
#
# Coordination Sequence:
#
# PCOD9089123 Si02
#       7
#     2   2   2   2   2   2   2
#     4  10  20  36  64  91 125 161 208 243 306 368
#     4  10  19  37  65  93 118 166 203 249 302 373
#     4   9  18  35  63  86 121 163 197 246 300 364
#     4  11  24  40  63  92 123 159 208 259 301 360
#     4   9  16  35  65  90 118 160 207 239 302 370
#     4  12  25  40  61  91 126 161 208 259 307 356
#     4   9  19  37  62  88 122 160 200 245 302 360
#
# _framework density 23.395292000000001
#
# number of rings (size 3 to 8) (size 9 to 14) (size 15 to 20)
#    0.857    1.143    1.429    2.571    0.000    4.000 
#    0.000    3.571    3.143    0.000    0.000    0.000 
#    0.000    0.000    0.000    0.000    0.000    0.000 
#
# Total GULP energy -78040.622307 kJ/mol
# GULP energy per Si atom -5574.330165 kJ/mol
# Density = 2.334204 g / cm^3
# Si number density = 23.395292 Si / 1000 Ang^3
#
#
#
# Elastic Constant Matrix: (Units=GPa)
#
#
# Indices 1 2 3 4 5 6 
#
# 1 70.4351 27.1961 -1.7644 12.9151 23.9807 19.8033
# 2 27.1961 110.6095 2.9360 17.6061 10.0364 24.3798
# 3 -1.7644 2.9360 52.5146 3.4133 22.3763 5.5858
# 4 12.9151 17.6061 3.4133 20.5042 7.4216 4.5563
# 5 23.9807 10.0364 22.3763 7.4216 32.8650 13.0327
# 6 19.8033 24.3798 5.5858 4.5563 13.0327 26.5670
#
#
#
# Elastic Compliance Matrix: (Units=1/GPa)
#
#
# Indices 1 2 3 4 5 6 
#
# 1 0.026158 -0.001750 0.011433 -0.007260 -0.021282 -0.008610
# 2 -0.001750 0.012952 -0.000857 -0.008991 0.004282 -0.010959
# 3 0.011433 -0.000857 0.032267 -0.001076 -0.029948 0.000356
# 4 -0.007260 -0.008991 -0.001076 0.062620 -0.008211 0.007177
# 5 -0.021282 0.004282 -0.029948 -0.008211 0.073380 -0.016358
# 6 -0.008610 -0.010959 0.000356 0.007177 -0.016358 0.060835
#
#
# Mechanical properties :
#
#
# Convention : Reuss Voigt Hill
#
# Bulk Modulus (GPa) = 11.23266 32.25495 21.74380
# Shear Modulus (GPa) = 17.84205 29.66666 23.75436
#
# Velocity S-wave (km/s) = 2.76458 3.56485 3.18991
# Velocity P-wave (km/s) = 3.87327 5.54627 4.78347
#
# Compressibility (1/GPa) = 0.08902614
#
# Stress axis : x y z
#
# Youngs Moduli (GPa) = 38.22994 77.20751 30.99138
#
# Poissons Ratio (x) = 0.13515 -0.35431
# Poissons Ratio (y) = 0.06692 0.02657
# Poissons Ratio (z) = -0.43707 0.06620
#
# Static dielectric constant tensor:
#      x y z
#    x 1.934550 0.013970 0.081590 
#    y 0.013970 1.954530 -0.001580 
#    z 0.081590 -0.001580 1.911320 
# 
# From -- ./inp_files/240358.got.cif
#   From: 2010.05.17/outbox.cif.g08.bks.cpg/sg2_121_cif.got.tgz:240358.got - 2010.06.03 11:33:40.
