data_PCOD9089702
_publ_section_title
;
Structure prediction by ZEFSAII (Michael W. Deem and Ramdas Pophale) SiO2 
 PCOD9089702
Probable space group: P -1
;
_chemical_formula_sum "Si O2"
_cell_formula_units_Z 16
_cell_length_a 17.806858
_cell_length_b 9.643236
_cell_length_c 14.455010
_cell_angle_alpha 121.946992
_cell_angle_beta 31.615115
_cell_angle_gamma 142.269453
_cell_volume 711.037190
_symmetry_space_group_name_H-M "P -1"
_symmetry_group_IT_number 2
_symmetry_cell_setting 'triclinic'
loop_
_space_group_symop_operation_xyz
x,y,z
-x,-y,-z
loop_
_atom_site_type_symbol
_atom_site_label
_atom_site_fract_x
_atom_site_fract_y
_atom_site_fract_z
Si Si1 0.104156 0.220477 0.098672
Si Si2 0.491898 0.373618 0.324612
Si Si3 0.594217 0.420776 0.923977
Si Si4 0.605518 0.321302 0.682676
Si Si5 0.102515 0.836590 0.984355
Si Si6 0.238487 0.838530 0.648241
Si Si7 0.370191 0.618449 0.623497
Si Si8 0.247949 0.185352 0.340719
O O1 0.207894 0.357886 0.137274
O O2 0.893459 0.146343 0.271281
O O3 0.293645 0.422404 0.894670
O O4 0.050057 0.981393 0.067993
O O5 0.433949 0.498519 0.472934
O O6 0.553136 0.312269 0.324830
O O7 0.289005 0.155911 0.390755
O O8 0.661794 0.366855 0.748656
O O9 0.500000 0.500000 0.000000
O O10 0.387578 0.192952 0.126516
O O11 0.750732 0.324789 0.471159
O O12 0.640516 0.535643 0.682763
O O13 0.344448 0.049483 0.852415
O O14 0.124961 0.759377 0.838167
O O15 0.894325 0.593371 0.175372
O O16 0.488969 0.127893 0.491139
O O17 0.000000 0.000000 0.500000
#
# Coordination Sequence:
#
# PCOD9089702 Si02
#       8
#     2   2   2   2   2   2   2   2
#     4  11  19  39  68  87 128 164 208 266 299 373
#     4  10  19  38  60  98 117 157 221 257 302 357
#     4   9  19  39  62  89 113 161 211 249 307 363
#     4  11  24  42  62  92 130 165 203 261 320 373
#     4  12  22  41  66  90 129 172 210 257 303 369
#     4  12  25  41  59  97 135 163 205 254 327 368
#     4  11  23  34  63  94 123 165 210 255 303 374
#     4  10  21  39  67  91 117 160 213 263 305 370
#
# _framework density 22.50234
#
# number of rings (size 3 to 8) (size 9 to 14) (size 15 to 20)
#    0.000    1.250    6.250    2.250    1.750    3.000 
#    2.250    0.000    0.000    3.000    0.000    0.000 
#    0.000    0.000    0.000    0.000    0.000    0.000 
#
# Total GULP energy -89504.893443 kJ/mol
# GULP energy per Si atom -5594.055840 kJ/mol
# Density = 2.245112 g / cm^3
# Si number density = 22.502340 Si / 1000 Ang^3
#
#
#
# Elastic Constant Matrix: (Units=GPa)
#
#
# Indices 1 2 3 4 5 6 
#
# 1 85.0060 28.1818 22.5316 4.6236 2.5907 19.5777
# 2 28.1818 52.7506 54.6962 10.8277 0.9673 16.4596
# 3 22.5316 54.6962 106.8914 5.7312 -0.3585 7.1337
# 4 4.6236 10.8277 5.7312 48.1720 6.1523 2.0291
# 5 2.5907 0.9673 -0.3585 6.1523 36.3997 3.3323
# 6 19.5777 16.4596 7.1337 2.0291 3.3323 37.1395
#
#
#
# Elastic Compliance Matrix: (Units=1/GPa)
#
#
# Indices 1 2 3 4 5 6 
#
# 1 0.015149 -0.007881 0.001127 0.000445 -0.000504 -0.004689
# 2 -0.007881 0.056343 -0.025674 -0.008409 0.001658 -0.015574
# 3 0.001127 -0.025674 0.021669 0.002844 -0.000259 0.006490
# 4 0.000445 -0.008409 0.002844 0.022667 -0.003799 0.002048
# 5 -0.000504 0.001658 -0.000259 -0.003799 0.028356 -0.002756
# 6 -0.004689 -0.015574 0.006490 0.002048 -0.002756 0.035188
#
#
# Mechanical properties :
#
#
# Convention : Reuss Voigt Hill
#
# Bulk Modulus (GPa) = 35.32927 50.60744 42.96835
# Shear Modulus (GPa) = 19.71125 33.62481 26.66803
#
# Velocity S-wave (km/s) = 2.96288 3.86979 3.44630
# Velocity P-wave (km/s) = 5.23825 6.51964 5.91375
#
# Compressibility (1/GPa) = 0.02830514
#
# Stress axis : x y z
#
# Youngs Moduli (GPa) = 66.01174 17.74836 46.14982
#
# Poissons Ratio (x) = 0.13987 -0.05199
# Poissons Ratio (y) = 0.52021 1.18484
# Poissons Ratio (z) = -0.07437 0.45567
#
# Static dielectric constant tensor:
#      x y z
#    x 1.885010 0.012910 0.010170 
#    y 0.012910 1.841630 -0.007560 
#    z 0.010170 -0.007560 1.857180 
# 
# From -- ./inp_files/452641.got.cif
#   From: 2010.05.17/outbox.cif.g08.bks.cpg/sg2_227_cif.got.tgz:452641.got - 2010.06.03 11:33:40.
