data_PCOD9089082
_publ_section_title
;
Structure prediction by ZEFSAII (Michael W. Deem and Ramdas Pophale) SiO2 
 PCOD9089082
Probable space group: P -1
;
_chemical_formula_sum "Si O2"
_cell_formula_units_Z 16
_cell_length_a 8.362449
_cell_length_b 19.440505
_cell_length_c 9.605836
_cell_angle_alpha 142.919286
_cell_angle_beta 102.115635
_cell_angle_gamma 61.643532
_cell_volume 785.417179
_symmetry_space_group_name_H-M "P -1"
_symmetry_group_IT_number 2
_symmetry_cell_setting 'triclinic'
loop_
_space_group_symop_operation_xyz
x,y,z
-x,-y,-z
loop_
_atom_site_type_symbol
_atom_site_label
_atom_site_fract_x
_atom_site_fract_y
_atom_site_fract_z
Si Si1 0.183735 0.893354 0.446933
Si Si2 0.186688 0.306148 0.147766
Si Si3 0.558184 0.403421 0.986945
Si Si4 0.698303 0.912815 0.700280
Si Si5 0.221760 0.480431 0.672902
Si Si6 0.245914 0.062358 0.938578
Si Si7 0.435062 0.904101 0.271119
Si Si8 0.786949 0.621559 0.191222
O O1 0.250540 0.740688 0.242786
O O2 0.343267 0.872629 0.330701
O O3 0.182766 0.966708 0.705653
O O4 0.000000 0.000000 0.500000
O O5 0.225677 0.395093 0.404793
O O6 0.996698 0.394554 0.165842
O O7 0.158655 0.200581 0.061421
O O8 0.377113 0.223225 0.959410
O O9 0.372247 0.389308 0.945464
O O10 0.500000 0.500000 0.000000
O O11 0.627477 0.469852 0.221918
O O12 0.766202 0.766359 0.415477
O O13 0.473297 0.984305 0.817332
O O14 0.705953 0.009416 0.741972
O O15 0.793621 0.908928 0.858993
O O16 0.255473 0.396318 0.683984
O O17 0.500000 0.000000 0.500000
O O18 0.000000 0.500000 0.000000
#
# Coordination Sequence:
#
# PCOD9089082 Si02
#       8
#     2   2   2   2   2   2   2   2
#     4  12  24  41  65  95 130 167 210 262 326 379
#     4  10  20  38  63  91 120 166 213 259 310 382
#     4  10  23  40  59  90 127 169 205 254 318 379
#     4  10  20  36  61  92 118 155 209 263 310 362
#     4  10  22  38  62  87 127 164 208 250 319 378
#     4  10  19  37  65  88 120 159 209 260 312 376
#     4  11  22  37  64  93 123 155 214 267 308 367
#     4  11  22  36  61  92 123 162 210 256 311 383
#
# _framework density 20.371338999999999
#
# number of rings (size 3 to 8) (size 9 to 14) (size 15 to 20)
#    0.000    1.500    5.000    0.750    3.500    1.000 
#    0.000    2.500    0.000    0.000    0.000    0.000 
#    0.000    0.000    0.000    0.000    0.000    0.000 
#
# Total GULP energy -89253.333438 kJ/mol
# GULP energy per Si atom -5578.333340 kJ/mol
# Density = 2.032497 g / cm^3
# Si number density = 20.371339 Si / 1000 Ang^3
#
#
#
# Elastic Constant Matrix: (Units=GPa)
#
#
# Indices 1 2 3 4 5 6 
#
# 1 46.4450 11.1348 30.6221 -0.9566 -0.8500 -13.1554
# 2 11.1348 79.6183 17.7428 13.8843 1.2334 1.7124
# 3 30.6221 17.7428 99.1959 12.8146 6.3210 -1.6391
# 4 -0.9566 13.8843 12.8146 39.7053 -7.2506 -3.3080
# 5 -0.8500 1.2334 6.3210 -7.2506 20.3465 0.9807
# 6 -13.1554 1.7124 -1.6391 -3.3080 0.9807 22.4121
#
#
#
# Elastic Compliance Matrix: (Units=1/GPa)
#
#
# Indices 1 2 3 4 5 6 
#
# 1 0.037402 -0.004864 -0.012088 0.009849 0.008036 0.022544
# 2 -0.004864 0.014487 -0.000198 -0.006052 -0.002948 -0.004741
# 3 -0.012088 -0.000198 0.015111 -0.007000 -0.007359 -0.006686
# 4 0.009849 -0.006052 -0.007000 0.033247 0.014318 0.010012
# 5 0.008036 -0.002948 -0.007359 0.014318 0.056857 0.004029
# 6 0.022544 -0.004741 -0.006686 0.010012 0.004029 0.059026
#
#
# Mechanical properties :
#
#
# Convention : Reuss Voigt Hill
#
# Bulk Modulus (GPa) = 30.58108 38.25095 34.41601
# Shear Modulus (GPa) = 19.13277 27.54342 23.33810
#
# Velocity S-wave (km/s) = 3.06796 3.68104 3.38839
# Velocity P-wave (km/s) = 5.25302 6.07325 5.67796
#
# Compressibility (1/GPa) = 0.03269996
#
# Stress axis : x y z
#
# Youngs Moduli (GPa) = 26.73641 69.02524 66.17734
#
# Poissons Ratio (x) = 0.33572 0.79996
# Poissons Ratio (y) = 0.13004 0.01313
# Poissons Ratio (z) = 0.32319 0.01370
#
# Static dielectric constant tensor:
#      x y z
#    x 1.704610 -0.305200 -0.145210 
#    y -0.305200 0.005210 -0.941550 
#    z -0.145210 -0.941550 1.200050 
# 
# From -- ./inp_files/218930.got.cif
#   From: 2010.05.17/outbox.cif.g08.bks.cpg/sg2_110_cif.got.tgz:218930.got - 2010.06.03 11:33:40.
