data_PCOD9089904
_publ_section_title
;
Structure prediction by ZEFSAII (Michael W. Deem and Ramdas Pophale) SiO2 
 PCOD9089904
Probable space group: P -1
;
_chemical_formula_sum "Si O2"
_cell_formula_units_Z 10
_cell_length_a 5.596219
_cell_length_b 15.696632
_cell_length_c 9.667115
_cell_angle_alpha 35.534638
_cell_angle_beta 94.250109
_cell_angle_gamma 101.047724
_cell_volume 479.381067
_symmetry_space_group_name_H-M "P -1"
_symmetry_group_IT_number 2
_symmetry_cell_setting 'triclinic'
loop_
_space_group_symop_operation_xyz
x,y,z
-x,-y,-z
loop_
_atom_site_type_symbol
_atom_site_label
_atom_site_fract_x
_atom_site_fract_y
_atom_site_fract_z
Si Si1 0.669014 0.891444 0.011655
Si Si2 0.790663 0.629769 0.178219
Si Si3 0.223635 0.673203 0.346654
Si Si4 0.785147 0.590150 0.908115
Si Si5 0.026155 0.194434 0.608899
O O1 0.698349 0.764585 0.068821
O O2 0.384371 0.840478 0.105762
O O3 0.802131 0.863848 0.196294
O O4 0.798264 0.055766 0.747722
O O5 0.640660 0.460845 0.436362
O O6 0.052837 0.636251 0.254266
O O7 0.812023 0.642791 0.998538
O O8 0.073072 0.683706 0.465762
O O9 0.834505 0.728596 0.620201
O O10 0.500000 0.500000 0.000000
O O11 0.000000 0.500000 0.000000
#
# Coordination Sequence:
#
# PCOD9089904 Si02
#       5
#     2   2   2   2   2
#     4  10  21  38  63  91 125 163 210 263 314 374
#     4  10  22  36  61  91 123 163 213 256 314 370
#     4  10  19  38  62  89 124 160 213 257 310 376
#     4  12  26  44  66  94 129 169 214 263 319 379
#     4  10  22  39  61  93 123 166 210 258 320 375
#
# _framework density 20.860230999999999
#
# number of rings (size 3 to 8) (size 9 to 14) (size 15 to 20)
#    0.000    1.600    2.000    2.400    2.800    0.800 
#    0.000    1.000    0.000    0.000    0.000    0.000 
#    0.000    0.000    0.000    0.000    0.000    0.000 
#
# Total GULP energy -55789.484321 kJ/mol
# GULP energy per Si atom -5578.948432 kJ/mol
# Density = 2.081275 g / cm^3
# Si number density = 20.860231 Si / 1000 Ang^3
#
#
#
# Elastic Constant Matrix: (Units=GPa)
#
#
# Indices 1 2 3 4 5 6 
#
# 1 57.6288 29.6671 28.1066 4.8475 -17.8054 -2.7561
# 2 29.6671 129.0084 62.6350 17.6695 -15.7827 -11.7749
# 3 28.1066 62.6350 132.1696 10.9578 -40.7240 -5.2965
# 4 4.8475 17.6695 10.9578 41.6851 -3.4616 -8.7406
# 5 -17.8054 -15.7827 -40.7240 -3.4616 34.2317 -11.0356
# 6 -2.7561 -11.7749 -5.2965 -8.7406 -11.0356 29.9635
#
#
#
# Elastic Compliance Matrix: (Units=1/GPa)
#
#
# Indices 1 2 3 4 5 6 
#
# 1 0.023244 -0.003866 0.001425 0.001082 0.014178 0.006408
# 2 -0.003866 0.011295 -0.005062 -0.002951 -0.002694 0.001335
# 3 0.001425 -0.005062 0.016384 0.001336 0.020986 0.009157
# 4 0.001082 -0.002951 0.001336 0.027328 0.006648 0.009596
# 5 0.014178 -0.002694 0.020986 0.006648 0.071356 0.032175
# 6 0.006408 0.001335 0.009157 0.009596 0.032175 0.050756
#
#
# Mechanical properties :
#
#
# Convention : Reuss Voigt Hill
#
# Bulk Modulus (GPa) = 27.84265 62.18044 45.01154
# Shear Modulus (GPa) = 21.99335 34.40260 28.19798
#
# Velocity S-wave (km/s) = 3.25055 4.06543 3.68061
# Velocity P-wave (km/s) = 5.24064 7.20485 6.29977
#
# Compressibility (1/GPa) = 0.03591612
#
# Stress axis : x y z
#
# Youngs Moduli (GPa) = 43.02262 88.53709 61.03341
#
# Poissons Ratio (x) = 0.34225 -0.08695
# Poissons Ratio (y) = 0.16631 0.30897
# Poissons Ratio (z) = -0.06129 0.44820
#
# Static dielectric constant tensor:
#      x y z
#    x 1.844910 0.019820 0.010370 
#    y 0.019820 1.763140 -0.075160 
#    z 0.010370 -0.075160 1.769520 
# 
# From -- ./inp_files/15262.got.cif
#   From: 2010.05.17/outbox.cif.g08.bks.cpg/sg2_8_cif.got.tgz:15262.got - 2010.06.03 11:33:40.
