data_PCOD9089016
_publ_section_title
;
Structure prediction by ZEFSAII (Michael W. Deem and Ramdas Pophale) SiO2 
 PCOD9089016
Probable space group: P -1
;
_chemical_formula_sum "Si O2"
_cell_formula_units_Z 16
_cell_length_a 12.100791
_cell_length_b 9.376714
_cell_length_c 22.103699
_cell_angle_alpha 138.727842
_cell_angle_beta 151.494430
_cell_angle_gamma 46.982724
_cell_volume 787.654753
_symmetry_space_group_name_H-M "P -1"
_symmetry_group_IT_number 2
_symmetry_cell_setting 'triclinic'
loop_
_space_group_symop_operation_xyz
x,y,z
-x,-y,-z
loop_
_atom_site_type_symbol
_atom_site_label
_atom_site_fract_x
_atom_site_fract_y
_atom_site_fract_z
Si Si1 0.986214 0.230393 0.031160
Si Si2 0.730446 0.005463 0.358387
Si Si3 0.507589 0.436869 0.913706
Si Si4 0.316711 0.613836 0.305786
Si Si5 0.283016 0.854263 0.242307
Si Si6 0.233211 0.636564 0.597839
Si Si7 0.465600 0.748202 0.540117
Si Si8 0.292114 0.478092 0.705316
O O1 0.197022 0.386578 0.182078
O O2 0.772086 0.374357 0.003236
O O3 0.917232 0.185615 0.914569
O O4 0.000000 0.000000 0.000000
O O5 0.691024 0.143361 0.323320
O O6 0.612090 0.125368 0.396783
O O7 0.632518 0.776539 0.228911
O O8 0.000000 0.000000 0.500000
O O9 0.385524 0.575359 0.843777
O O10 0.500000 0.500000 0.000000
O O11 0.235069 0.758693 0.254991
O O12 0.590554 0.550127 0.405567
O O13 0.290298 0.740548 0.396773
O O14 0.515299 0.712942 0.284254
O O15 0.332802 0.107644 0.343010
O O16 0.267176 0.633599 0.684993
O O17 0.966970 0.604579 0.441438
O O18 0.500000 0.500000 0.500000
#
# Coordination Sequence:
#
# PCOD9089016 Si02
#       8
#     2   2   2   2   2   2   2   2
#     4  11  22  42  64  90 130 166 214 260 318 383
#     4  12  22  40  65  92 122 164 211 259 315 371
#     4  11  24  43  65  90 126 168 211 261 319 377
#     4  11  23  35  65  95 126 168 209 262 321 382
#     4  10  21  42  60  91 129 169 209 259 325 379
#     4  10  19  37  64  94 123 161 211 255 318 370
#     4  12  22  38  61  95 126 158 211 264 310 378
#     4   9  19  39  64  89 125 165 205 263 311 375
#
# _framework density 20.313468
#
# number of rings (size 3 to 8) (size 9 to 14) (size 15 to 20)
#    0.000    1.250    5.000    2.250    1.750    0.000 
#    2.250    0.625    0.000    0.000    0.000    0.000 
#    0.000    0.000    0.000    0.000    0.000    0.000 
#
# Total GULP energy -89221.831348 kJ/mol
# GULP energy per Si atom -5576.364459 kJ/mol
# Density = 2.026723 g / cm^3
# Si number density = 20.313468 Si / 1000 Ang^3
#
#
#
# Elastic Constant Matrix: (Units=GPa)
#
#
# Indices 1 2 3 4 5 6 
#
# 1 104.0678 38.2963 59.3587 -3.9609 -18.6998 36.8459
# 2 38.2963 47.7795 24.3736 -5.3213 -13.3462 27.4648
# 3 59.3587 24.3736 120.5016 1.3711 -21.3423 4.8014
# 4 -3.9609 -5.3213 1.3711 35.5777 4.9318 1.0724
# 5 -18.6998 -13.3462 -21.3423 4.9318 39.9732 -7.6939
# 6 36.8459 27.4648 4.8014 1.0724 -7.6939 35.6310
#
#
#
# Elastic Compliance Matrix: (Units=1/GPa)
#
#
# Indices 1 2 3 4 5 6 
#
# 1 0.024776 0.000632 -0.011301 0.003954 0.000548 -0.024586
# 2 0.000632 0.046206 -0.007655 0.007763 0.004017 -0.034605
# 3 -0.011301 -0.007655 0.015534 -0.004072 0.004131 0.016508
# 4 0.003954 0.007763 -0.004072 0.030716 -0.003687 -0.011244
# 5 0.000548 0.004017 0.004131 -0.003687 0.029719 0.002309
# 6 -0.024586 -0.034605 0.016508 -0.011244 0.002309 0.078776
#
#
# Mechanical properties :
#
#
# Convention : Reuss Voigt Hill
#
# Bulk Modulus (GPa) = 20.05280 57.37848 38.71564
# Shear Modulus (GPa) = 17.92129 32.25772 25.08950
#
# Velocity S-wave (km/s) = 2.97347 3.98929 3.51824
# Velocity P-wave (km/s) = 4.65637 7.03755 5.96695
#
# Compressibility (1/GPa) = 0.04986835
#
# Stress axis : x y z
#
# Youngs Moduli (GPa) = 40.36166 21.64208 64.37458
#
# Poissons Ratio (x) = -0.01368 0.72748
# Poissons Ratio (y) = -0.02552 0.49282
# Poissons Ratio (z) = 0.45612 0.16568
#
# Static dielectric constant tensor:
#      x y z
#    x 1.749570 0.018370 -0.004970 
#    y 0.018370 1.777140 -0.027860 
#    z -0.004970 -0.027860 1.717440 
# 
# From -- ./inp_files/312460.got.cif
#   From: 2010.05.17/outbox.cif.g08.bks.cpg/sg2_157_cif.got.tgz:312460.got - 2010.06.03 11:33:40.
