data_PCOD9089254
_publ_section_title
;
Structure prediction by ZEFSAII (Michael W. Deem and Ramdas Pophale) SiO2 
 PCOD9089254
Probable space group: P -1
;
_chemical_formula_sum "Si O2"
_cell_formula_units_Z 12
_cell_length_a 12.317333
_cell_length_b 5.091898
_cell_length_c 7.893525
_cell_angle_alpha 89.687457
_cell_angle_beta 94.314107
_cell_angle_gamma 102.232161
_cell_volume 482.432547
_symmetry_space_group_name_H-M "P -1"
_symmetry_group_IT_number 2
_symmetry_cell_setting 'triclinic'
loop_
_space_group_symop_operation_xyz
x,y,z
-x,-y,-z
loop_
_atom_site_type_symbol
_atom_site_label
_atom_site_fract_x
_atom_site_fract_y
_atom_site_fract_z
Si Si1 0.369975 0.996380 0.012125
Si Si2 0.703574 0.519013 0.176163
Si Si3 0.706288 0.771456 0.654140
Si Si4 0.052075 0.480583 0.694694
Si Si5 0.384305 0.794910 0.518055
Si Si6 0.961048 0.933897 0.691618
O O1 0.330802 0.206867 0.879041
O O2 0.303192 0.689752 0.979217
O O3 0.345112 0.111554 0.190062
O O4 0.500000 0.000000 0.000000
O O5 0.823195 0.562472 0.281316
O O6 0.619911 0.341796 0.299518
O O7 0.642367 0.470234 0.602208
O O8 0.835772 0.772841 0.691058
O O9 0.701704 0.006299 0.513765
O O10 0.000000 0.500000 0.500000
O O11 0.042953 0.759149 0.775974
O O12 0.975563 0.224468 0.773966
O O13 0.500000 0.000000 0.500000
O O14 0.000000 0.000000 0.500000
#
# Coordination Sequence:
#
# PCOD9089254 Si02
#       6
#     2   2   2   2   2   2
#     4  12  28  49  70 100 149 201 238 291 364 431
#     4  12  25  47  74 106 143 191 243 297 360 433
#     4  12  25  46  70 103 144 190 238 296 361 428
#     4  10  20  38  67 102 136 176 227 290 355 416
#     4  12  25  43  71 105 136 181 248 310 353 416
#     4  10  19  37  66  98 131 175 223 282 350 416
#
# _framework density 24.873943000000001
#
# number of rings (size 3 to 8) (size 9 to 14) (size 15 to 20)
#    0.000    0.667    0.000   10.000    0.000    2.667 
#    0.000    5.000    0.000    0.000    0.000    0.000 
#    0.000    0.000    0.000    0.000    0.000    0.000 
#
# Total GULP energy -67138.247239 kJ/mol
# GULP energy per Si atom -5594.853937 kJ/mol
# Density = 2.481733 g / cm^3
# Si number density = 24.873943 Si / 1000 Ang^3
#
#
#
# Elastic Constant Matrix: (Units=GPa)
#
#
# Indices 1 2 3 4 5 6 
#
# 1 142.5213 42.8075 31.1791 1.6835 18.2546 -7.5648
# 2 42.8075 177.6936 26.5066 4.4930 8.5442 -17.5967
# 3 31.1791 26.5066 78.3516 6.4643 1.0075 -3.4476
# 4 1.6835 4.4930 6.4643 37.3955 -10.1402 15.0213
# 5 18.2546 8.5442 1.0075 -10.1402 39.7888 -9.6908
# 6 -7.5648 -17.5967 -3.4476 15.0213 -9.6908 52.3642
#
#
#
# Elastic Compliance Matrix: (Units=1/GPa)
#
#
# Indices 1 2 3 4 5 6 
#
# 1 0.008551 -0.001433 -0.002801 -0.000778 -0.003717 0.000105
# 2 -0.001433 0.006462 -0.001388 -0.001504 -0.000541 0.002205
# 3 -0.002801 -0.001388 0.014573 -0.002371 0.000835 0.000923
# 4 -0.000778 -0.001504 -0.002371 0.032825 0.006937 -0.008907
# 5 -0.003717 -0.000541 0.000835 0.006937 0.029379 0.002783
# 6 0.000105 0.002205 0.000923 -0.008907 0.002783 0.022984
#
#
# Mechanical properties :
#
#
# Convention : Reuss Voigt Hill
#
# Bulk Modulus (GPa) = 54.52204 66.61700 60.56952
# Shear Modulus (GPa) = 37.84104 45.78126 41.81115
#
# Velocity S-wave (km/s) = 3.90463 4.29480 4.10435
# Velocity P-wave (km/s) = 6.50347 7.17173 6.84576
#
# Compressibility (1/GPa) = 0.01834121
#
# Stress axis : x y z
#
# Youngs Moduli (GPa) = 116.95029 154.74225 68.62194
#
# Poissons Ratio (x) = 0.22179 0.19222
# Poissons Ratio (y) = 0.16762 0.09523
# Poissons Ratio (z) = 0.32759 0.21475
#
# Static dielectric constant tensor:
#      x y z
#    x 2.432840 -0.805540 -0.827300 
#    y -0.805540 3.424790 1.546860 
#    z -0.827300 1.546860 3.686820 
# 
# From -- ./inp_files/58221.got.cif
#   From: 2010.05.17/outbox.cif.g08.bks.cpg/sg2_30_cif.got.tgz:58221.got - 2010.06.03 11:33:40.
