data_PCOD9089249
_publ_section_title
;
Structure prediction by ZEFSAII (Michael W. Deem and Ramdas Pophale) SiO2 
 PCOD9089249
Probable space group: P -1
;
_chemical_formula_sum "Si O2"
_cell_formula_units_Z 16
_cell_length_a 12.693086
_cell_length_b 10.867895
_cell_length_c 14.954380
_cell_angle_alpha 51.694207
_cell_angle_beta 42.141615
_cell_angle_gamma 31.871129
_cell_volume 730.560280
_symmetry_space_group_name_H-M "P -1"
_symmetry_group_IT_number 2
_symmetry_cell_setting 'triclinic'
loop_
_space_group_symop_operation_xyz
x,y,z
-x,-y,-z
loop_
_atom_site_type_symbol
_atom_site_label
_atom_site_fract_x
_atom_site_fract_y
_atom_site_fract_z
Si Si1 0.647611 0.609520 0.410445
Si Si2 0.096244 0.474403 0.202002
Si Si3 0.030044 0.875655 0.125797
Si Si4 0.376594 0.674404 0.719469
Si Si5 0.710523 0.235087 0.818317
Si Si6 0.992943 0.899152 0.638192
Si Si7 0.283750 0.391431 0.937287
Si Si8 0.448552 0.961096 0.219387
O O1 0.490926 0.652738 0.567293
O O2 0.507649 0.820339 0.334260
O O3 0.865089 0.548674 0.340420
O O4 0.775094 0.374421 0.383564
O O5 0.080213 0.661423 0.163702
O O6 0.334096 0.212272 0.200944
O O7 0.098971 0.480772 0.088273
O O8 0.227939 0.792956 0.105262
O O9 0.796103 0.074412 0.240850
O O10 0.000000 0.000000 0.000000
O O11 0.585088 0.480485 0.745434
O O12 0.254153 0.590629 0.827685
O O13 0.519344 0.242808 0.915102
O O14 0.932092 0.035949 0.705088
O O15 0.769299 0.956260 0.732955
O O16 0.000000 0.000000 0.500000
O O17 0.338715 0.225594 0.900131
#
# Coordination Sequence:
#
# PCOD9089249 Si02
#       8
#     2   2   2   2   2   2   2   2
#     4  11  24  39  65  99 135 169 209 267 331 388
#     4  11  25  43  60  94 134 172 218 264 322 389
#     4  12  25  43  68  92 124 173 230 266 312 385
#     4  10  23  42  65  98 125 166 221 264 319 381
#     4   9  22  39  65  97 126 162 212 280 313 365
#     4  10  19  37  66  97 131 163 211 266 326 383
#     4   9  20  44  66  94 126 167 219 269 323 379
#     4  10  23  39  64  97 135 171 208 266 333 387
#
# _framework density 21.900998999999999
#
# number of rings (size 3 to 8) (size 9 to 14) (size 15 to 20)
#    0.750    1.000    2.500    0.375    3.500    6.000 
#    0.000    1.250    0.000    0.000    0.000    0.000 
#    0.000    0.000    0.000    0.000    0.000    0.000 
#
# Total GULP energy -89346.255210 kJ/mol
# GULP energy per Si atom -5584.140951 kJ/mol
# Density = 2.185115 g / cm^3
# Si number density = 21.900999 Si / 1000 Ang^3
#
#
#
# Elastic Constant Matrix: (Units=GPa)
#
#
# Indices 1 2 3 4 5 6 
#
# 1 70.4245 28.0899 10.1061 -12.7710 20.6500 0.1219
# 2 28.0899 148.3450 26.7311 -25.1825 10.0286 15.6941
# 3 10.1061 26.7311 78.0247 -11.0865 11.3379 -2.7789
# 4 -12.7710 -25.1825 -11.0865 40.9498 -6.3652 -0.9530
# 5 20.6500 10.0286 11.3379 -6.3652 29.8179 -7.1376
# 6 0.1219 15.6941 -2.7789 -0.9530 -7.1376 26.3740
#
#
#
# Elastic Compliance Matrix: (Units=1/GPa)
#
#
# Indices 1 2 3 4 5 6 
#
# 1 0.019217 -0.002170 0.000409 0.002756 -0.012643 -0.002076
# 2 -0.002170 0.008896 -0.002250 0.003870 -0.001171 -0.005698
# 3 0.000409 -0.002250 0.014497 0.002064 -0.004165 0.001812
# 4 0.002756 0.003870 0.002064 0.028511 0.001963 -0.000537
# 5 -0.012643 -0.001171 -0.004165 0.001963 0.047884 0.013346
# 6 -0.002076 -0.005698 0.001812 -0.000537 0.013346 0.045100
#
#
# Mechanical properties :
#
#
# Convention : Reuss Voigt Hill
#
# Bulk Modulus (GPa) = 28.91071 47.40536 38.15804
# Shear Modulus (GPa) = 27.22469 34.88615 31.05542
#
# Velocity S-wave (km/s) = 3.52956 3.99545 3.76971
# Velocity P-wave (km/s) = 5.46257 6.55569 6.03394
#
# Compressibility (1/GPa) = 0.03458926
#
# Stress axis : x y z
#
# Youngs Moduli (GPa) = 52.03695 112.40479 68.97917
#
# Poissons Ratio (x) = 0.24397 -0.02823
# Poissons Ratio (y) = 0.11294 0.15517
# Poissons Ratio (z) = -0.02130 0.25286
#
# Static dielectric constant tensor:
#      x y z
#    x 1.825310 -0.029230 -0.021640 
#    y -0.029230 1.848120 0.002770 
#    z -0.021640 0.002770 1.802160 
# 
# From -- ./inp_files/530965.got.cif
#   From: 2010.05.17/outbox.cif.g08.bks.cpg/sg2_266_cif.got.tgz:530965.got - 2010.06.03 11:33:40.
