data_PCOD9089624
_publ_section_title
;
Structure prediction by ZEFSAII (Michael W. Deem and Ramdas Pophale) SiO2 
 PCOD9089624
Probable space group: P -1
;
_chemical_formula_sum "Si O2"
_cell_formula_units_Z 15
_cell_length_a 25.582282
_cell_length_b 7.207803
_cell_length_c 9.420886
_cell_angle_alpha 130.414901
_cell_angle_beta 151.338220
_cell_angle_gamma 60.675927
_cell_volume 619.299863
_symmetry_space_group_name_H-M "P -1"
_symmetry_group_IT_number 2
_symmetry_cell_setting 'triclinic'
loop_
_space_group_symop_operation_xyz
x,y,z
-x,-y,-z
loop_
_atom_site_type_symbol
_atom_site_label
_atom_site_fract_x
_atom_site_fract_y
_atom_site_fract_z
Si Si1 0.295961 0.132840 0.679341
Si Si2 0.000000 0.500000 0.500000
Si Si3 0.583084 0.124313 0.952019
Si Si4 0.040850 0.801975 0.309767
Si Si5 0.917608 0.658032 0.679781
Si Si6 0.343836 0.115972 0.457222
Si Si7 0.848910 0.681015 0.024431
Si Si8 0.601139 0.314766 0.793758
O O1 0.177787 0.190384 0.461430
O O2 0.305895 0.086127 0.513571
O O3 0.328816 0.918955 0.745418
O O4 0.381444 0.395457 0.051545
O O5 0.938306 0.580150 0.532145
O O6 0.884040 0.477580 0.109544
O O7 0.523984 0.853582 0.607390
O O8 0.477452 0.209404 0.811705
O O9 0.631453 0.294659 0.020817
O O10 0.109242 0.600319 0.421919
O O11 0.923674 0.715720 0.075279
O O12 0.096284 0.069919 0.632803
O O13 0.018893 0.806235 0.092561
O O14 0.328845 0.842522 0.212473
O O15 0.274414 0.290237 0.295992
#
# Coordination Sequence:
#
# PCOD9089624 Si02
#       8
#     2   1   2   2   2   2   2   2
#     4  12  21  39  68  89 123 171 203 255 312 369
#     4  10  24  36  56  88 124 148 206 260 296 368
#     4   9  22  42  58  96 130 154 214 256 300 380
#     4   9  19  38  60  78 119 153 201 244 306 365
#     4  10  21  37  58  91 113 157 207 246 304 379
#     4  10  21  38  62  91 122 164 210 250 306 376
#     4  10  19  38  60  83 117 161 191 257 307 353
#     4   9  22  41  60  88 129 164 199 261 309 356
#
# _framework density 24.220897000000001
#
# number of rings (size 3 to 8) (size 9 to 14) (size 15 to 20)
#    0.800    1.333    1.333    1.600    1.867    1.067 
#    0.000    1.333    0.000    0.000    0.000    0.000 
#    0.000    0.000    0.000    0.000    0.000    0.000 
#
# Total GULP energy -83542.382771 kJ/mol
# GULP energy per Si atom -5569.492185 kJ/mol
# Density = 2.416577 g / cm^3
# Si number density = 24.220897 Si / 1000 Ang^3
#
#
#
# Elastic Constant Matrix: (Units=GPa)
#
#
# Indices 1 2 3 4 5 6 
#
# 1 139.5264 57.8959 62.9529 -23.8375 -42.5332 -32.0820
# 2 57.8959 269.4169 133.7805 -68.1610 -22.6089 -12.4442
# 3 62.9529 133.7805 139.3095 -53.6765 -36.8240 -16.8023
# 4 -23.8375 -68.1610 -53.6765 62.6959 5.8966 3.1515
# 5 -42.5332 -22.6089 -36.8240 5.8966 42.1977 0.9470
# 6 -32.0820 -12.4442 -16.8023 3.1515 0.9470 34.8997
#
#
#
# Elastic Compliance Matrix: (Units=1/GPa)
#
#
# Indices 1 2 3 4 5 6 
#
# 1 0.015493 -0.001031 0.000977 0.003499 0.015122 0.013619
# 2 -0.001031 0.007699 -0.007200 0.002230 -0.003469 -0.001776
# 3 0.000977 -0.007200 0.022412 0.009917 0.015124 0.007815
# 4 0.003499 0.002230 0.009917 0.026999 0.009466 0.006091
# 5 0.015122 -0.003469 0.015124 0.009466 0.048558 0.017773
# 6 0.013619 -0.001776 0.007815 0.006091 0.017773 0.043270
#
#
# Mechanical properties :
#
#
# Convention : Reuss Voigt Hill
#
# Bulk Modulus (GPa) = 32.15750 117.50127 74.82939
# Shear Modulus (GPa) = 26.41247 47.53355 36.97301
#
# Velocity S-wave (km/s) = 3.30583 4.43482 3.91127
# Velocity P-wave (km/s) = 5.27986 8.65108 7.16652
#
# Compressibility (1/GPa) = 0.03109694
#
# Stress axis : x y z
#
# Youngs Moduli (GPa) = 64.54469 129.87901 44.61859
#
# Poissons Ratio (x) = 0.13394 -0.04360
# Poissons Ratio (y) = 0.06656 0.32124
# Poissons Ratio (z) = -0.06307 0.93510
#
# Static dielectric constant tensor:
#      x y z
#    x 2.065750 0.096460 0.075310 
#    y 0.096460 2.032700 0.037070 
#    z 0.075310 0.037070 1.998770 
# 
# From -- ./inp_files/356314.got.cif
#   From: 2010.05.17/outbox.cif.g08.bks.cpg/sg2_179_cif.got.tgz:356314.got - 2010.06.03 11:33:40.
