data_PCOD9089843
_publ_section_title
;
Structure prediction by ZEFSAII (Michael W. Deem and Ramdas Pophale) SiO2 
 PCOD9089843
Probable space group: P -1
;
_chemical_formula_sum "Si O2"
_cell_formula_units_Z 16
_cell_length_a 11.275899
_cell_length_b 6.799465
_cell_length_c 9.652585
_cell_angle_alpha 131.220815
_cell_angle_beta 108.571671
_cell_angle_gamma 75.271670
_cell_volume 526.648622
_symmetry_space_group_name_H-M "P -1"
_symmetry_group_IT_number 2
_symmetry_cell_setting 'triclinic'
loop_
_space_group_symop_operation_xyz
x,y,z
-x,-y,-z
loop_
_atom_site_type_symbol
_atom_site_label
_atom_site_fract_x
_atom_site_fract_y
_atom_site_fract_z
Si Si1 0.070819 0.189349 0.719831
Si Si2 0.736315 0.347990 0.343058
Si Si3 0.689439 0.874959 0.384769
Si Si4 0.821617 0.292622 0.818499
Si Si5 0.471373 0.242604 0.207165
Si Si6 0.567729 0.314718 0.825189
Si Si7 0.050921 0.420757 0.330790
Si Si8 0.206995 0.129894 0.067028
O O1 0.969253 0.195015 0.810840
O O2 0.045611 0.471617 0.769139
O O3 0.220245 0.139697 0.724230
O O4 0.000000 0.000000 0.500000
O O5 0.714794 0.606655 0.359538
O O6 0.605754 0.290143 0.339425
O O7 0.827230 0.412377 0.531051
O O8 0.790723 0.115917 0.151681
O O9 0.537880 0.899368 0.323558
O O10 0.747915 0.096060 0.601601
O O11 0.716964 0.289193 0.900750
O O12 0.819070 0.598349 0.907047
O O13 0.439596 0.505327 0.230731
O O14 0.345949 0.162965 0.195152
O O15 0.500000 0.000000 0.000000
O O16 0.500000 0.500000 0.000000
O O17 0.109848 0.149247 0.166723
O O18 0.000000 0.500000 0.500000
#
# Coordination Sequence:
#
# PCOD9089843 Si02
#       8
#     2   2   2   2   2   2   2   2
#     4   9  19  39  59  81 121 156 190 245 299 349
#     4  10  20  37  63  89 117 155 200 245 299 352
#     4  10  19  38  62  84 120 158 190 252 305 340
#     4   9  19  39  60  82 119 158 193 240 305 353
#     4   8  17  38  56  81 123 150 184 248 301 344
#     4  10  20  36  59  89 115 154 204 244 289 360
#     4  11  21  37  61  88 115 159 206 239 289 362
#     4   9  20  39  60  85 123 157 191 249 299 350
#
# _framework density 30.380786000000001
#
# number of rings (size 3 to 8) (size 9 to 14) (size 15 to 20)
#    0.000    2.500    1.250    0.375    0.000    1.000 
#   27.000    0.625    0.000    0.000    0.000    0.000 
#    0.000    0.000    0.000    0.000    0.000    0.000 
#
# Total GULP energy -89465.950294 kJ/mol
# GULP energy per Si atom -5591.621893 kJ/mol
# Density = 3.031164 g / cm^3
# Si number density = 30.380786 Si / 1000 Ang^3
#
#
#
# Elastic Constant Matrix: (Units=GPa)
#
#
# Indices 1 2 3 4 5 6 
#
# 1 256.3889 49.2829 51.7267 2.7519 -5.9870 13.2125
# 2 49.2829 120.1456 13.3368 18.1765 -14.7282 25.1288
# 3 51.7267 13.3368 165.5357 27.5039 -10.3047 19.6772
# 4 2.7519 18.1765 27.5039 45.2171 8.5244 -3.7226
# 5 -5.9870 -14.7282 -10.3047 8.5244 77.7819 -0.2112
# 6 13.2125 25.1288 19.6772 -3.7226 -0.2112 66.7772
#
#
#
# Elastic Compliance Matrix: (Units=1/GPa)
#
#
# Indices 1 2 3 4 5 6 
#
# 1 0.004580 -0.002101 -0.001621 0.001673 -0.000442 0.000454
# 2 -0.002101 0.011274 0.001510 -0.006238 0.002844 -0.004611
# 3 -0.001621 0.001510 0.007859 -0.005873 0.001838 -0.002885
# 4 0.001673 -0.006238 -0.005873 0.029488 -0.005048 0.005375
# 5 -0.000442 0.002844 0.001838 -0.005048 0.014153 -0.001761
# 6 0.000454 -0.004611 -0.002885 0.005375 -0.001761 0.017764
#
#
# Mechanical properties :
#
#
# Convention : Reuss Voigt Hill
#
# Bulk Modulus (GPa) = 51.84496 85.64036 68.74266
# Shear Modulus (GPa) = 52.09894 66.47015 59.28454
#
# Velocity S-wave (km/s) = 4.14559 4.68257 4.42224
# Velocity P-wave (km/s) = 6.32587 7.58192 6.98220
#
# Compressibility (1/GPa) = 0.01928828
#
# Stress axis : x y z
#
# Youngs Moduli (GPa) = 218.36349 88.69905 127.24278
#
# Poissons Ratio (x) = 0.18633 0.20628
# Poissons Ratio (y) = 0.45872 -0.19210
# Poissons Ratio (z) = 0.35400 -0.13391
#
# Static dielectric constant tensor:
#      x y z
#    x 2.638280 -0.133580 -0.090370 
#    y -0.133580 2.660920 -0.067910 
#    z -0.090370 -0.067910 2.545260 
# 
# From -- ./inp_files/418615.got.cif
#   From: 2010.05.17/outbox.cif.g08.bks.cpg/sg2_210_cif.got.tgz:418615.got - 2010.06.03 11:33:40.
