data_PCOD9089391
_publ_section_title
;
Structure prediction by ZEFSAII (Michael W. Deem and Ramdas Pophale) SiO2 
 PCOD9089391
Probable space group: P -1
;
_chemical_formula_sum "Si O2"
_cell_formula_units_Z 14
_cell_length_a 20.314724
_cell_length_b 10.038163
_cell_length_c 10.938029
_cell_angle_alpha 64.358181
_cell_angle_beta 44.661950
_cell_angle_gamma 29.882551
_cell_volume 664.707504
_symmetry_space_group_name_H-M "P -1"
_symmetry_group_IT_number 2
_symmetry_cell_setting 'triclinic'
loop_
_space_group_symop_operation_xyz
x,y,z
-x,-y,-z
loop_
_atom_site_type_symbol
_atom_site_label
_atom_site_fract_x
_atom_site_fract_y
_atom_site_fract_z
Si Si1 0.104195 0.889314 0.277893
Si Si2 0.086145 0.046229 0.874903
Si Si3 0.779561 0.191490 0.474764
Si Si4 0.130172 0.218073 0.353004
Si Si5 0.316112 0.845813 0.881004
Si Si6 0.203520 0.274366 0.997800
Si Si7 0.483747 0.164765 0.040507
O O1 0.268514 0.534063 0.180190
O O2 0.232220 0.860731 0.097409
O O3 0.000000 0.000000 0.500000
O O4 0.921285 0.136876 0.324934
O O5 0.911398 0.411226 0.978773
O O6 0.197158 0.906215 0.652986
O O7 0.236496 0.874161 0.854376
O O8 0.000000 0.000000 0.000000
O O9 0.554263 0.527090 0.682197
O O10 0.884778 0.928153 0.530679
O O11 0.087818 0.333191 0.226979
O O12 0.000000 0.500000 0.500000
O O13 0.362647 0.931249 0.180167
O O14 0.233086 0.127819 0.900376
O O15 0.418200 0.999733 0.890263
O O16 0.500000 0.000000 0.000000
#
# Coordination Sequence:
#
# PCOD9089391 Si02
#       7
#     2   2   2   2   2   2   2
#     4  12  24  40  69 102 141 175 218 283 353 399
#     4  12  25  46  71  95 134 190 231 275 332 413
#     4  12  23  44  70 100 136 178 232 275 339 410
#     4  10  19  37  69  99 136 171 221 285 340 394
#     4  12  25  45  68 102 137 182 227 283 340 401
#     4  10  23  41  70  97 141 171 223 287 341 395
#     4  10  21  38  66 103 135 173 219 281 338 402
#
# _framework density 21.061896000000001
#
# number of rings (size 3 to 8) (size 9 to 14) (size 15 to 20)
#    0.857    0.000    4.286    4.286    0.000    1.714 
#    0.000    0.714    3.143    0.000    0.000    0.000 
#    0.000    0.000    0.000    0.000    0.000    0.000 
#
# Total GULP energy -78046.027811 kJ/mol
# GULP energy per Si atom -5574.716272 kJ/mol
# Density = 2.101396 g / cm^3
# Si number density = 21.061896 Si / 1000 Ang^3
#
#
#
# Elastic Constant Matrix: (Units=GPa)
#
#
# Indices 1 2 3 4 5 6 
#
# 1 85.6963 21.9586 40.9278 16.5738 7.5539 16.1208
# 2 21.9586 111.0691 51.0065 21.4297 -0.1839 25.8601
# 3 40.9278 51.0065 127.5922 32.5091 -10.4010 8.8269
# 4 16.5738 21.4297 32.5091 35.7103 -2.9484 4.3062
# 5 7.5539 -0.1839 -10.4010 -2.9484 35.2254 6.1146
# 6 16.1208 25.8601 8.8269 4.3062 6.1146 36.1295
#
#
#
# Elastic Compliance Matrix: (Units=1/GPa)
#
#
# Indices 1 2 3 4 5 6 
#
# 1 0.015591 0.000861 -0.004431 -0.003396 -0.003993 -0.005410
# 2 0.000861 0.013422 -0.004127 -0.003683 -0.000163 -0.008516
# 3 -0.004431 -0.004127 0.012899 -0.007135 0.003795 0.001988
# 4 -0.003396 -0.003683 -0.007135 0.038292 0.001624 0.001056
# 5 -0.003993 -0.000163 0.003795 0.001624 0.031284 -0.004517
# 6 -0.005410 -0.008516 0.001988 0.001056 -0.004517 0.036340
#
#
# Mechanical properties :
#
#
# Convention : Reuss Voigt Hill
#
# Bulk Modulus (GPa) = 37.71334 61.34927 49.53130
# Shear Modulus (GPa) = 29.05920 35.44404 32.25162
#
# Velocity S-wave (km/s) = 3.71847 4.10671 3.91740
# Velocity P-wave (km/s) = 6.03165 7.18874 6.63547
#
# Compressibility (1/GPa) = 0.02651581
#
# Stress axis : x y z
#
# Youngs Moduli (GPa) = 64.13853 74.50607 77.52746
#
# Poissons Ratio (x) = -0.06413 0.34354
# Poissons Ratio (y) = -0.05520 0.31998
# Poissons Ratio (z) = 0.28421 0.30751
#
# Static dielectric constant tensor:
#      x y z
#    x 1.832420 0.044860 -0.020230 
#    y 0.044860 1.763140 -0.049030 
#    z -0.020230 -0.049030 1.775350 
# 
# From -- ./inp_files/469904.got.cif
#   From: 2010.05.17/outbox.cif.g08.bks.cpg/sg2_235_cif.got.tgz:469904.got - 2010.06.03 11:33:40.
