data_PCOD9089066
_publ_section_title
;
Structure prediction by ZEFSAII (Michael W. Deem and Ramdas Pophale) SiO2 
 PCOD9089066
Probable space group: P -1
;
_chemical_formula_sum "Si O2"
_cell_formula_units_Z 16
_cell_length_a 7.487281
_cell_length_b 21.773667
_cell_length_c 7.090266
_cell_angle_alpha 122.099675
_cell_angle_beta 121.031584
_cell_angle_gamma 39.274460
_cell_volume 608.058536
_symmetry_space_group_name_H-M "P -1"
_symmetry_group_IT_number 2
_symmetry_cell_setting 'triclinic'
loop_
_space_group_symop_operation_xyz
x,y,z
-x,-y,-z
loop_
_atom_site_type_symbol
_atom_site_label
_atom_site_fract_x
_atom_site_fract_y
_atom_site_fract_z
Si Si1 0.789128 0.691041 0.936267
Si Si2 0.675035 0.405896 0.302297
Si Si3 0.309099 0.000126 0.048701
Si Si4 0.156086 0.165247 0.710369
Si Si5 0.811495 0.098780 0.438334
Si Si6 0.810721 0.225434 0.265315
Si Si7 0.727041 0.699068 0.373368
Si Si8 0.786945 0.525758 0.099619
O O1 0.881260 0.752522 0.052142
O O2 0.758677 0.696218 0.158593
O O3 0.478116 0.745173 0.771004
O O4 0.016367 0.572809 0.826100
O O5 0.500000 0.500000 0.500000
O O6 0.681128 0.319445 0.218953
O O7 0.997492 0.351617 0.430797
O O8 0.481447 0.454979 0.092092
O O9 0.512842 0.937686 0.240475
O O10 0.229061 0.939625 0.833088
O O11 0.022987 0.115962 0.110553
O O12 0.500000 0.000000 0.000000
O O13 0.974627 0.136172 0.600211
O O14 0.019642 0.214200 0.511476
O O15 0.508962 0.186665 0.511722
O O16 0.000000 0.000000 0.500000
O O17 0.660946 0.631129 0.278062
O O18 0.000000 0.500000 0.000000
#
# Coordination Sequence:
#
# PCOD9089066 Si02
#       8
#     2   2   2   2   2   2   2   2
#     4  11  22  41  71 105 134 172 228 286 337 395
#     4  12  19  35  67 104 136 172 225 281 335 397
#     4  12  27  46  67  97 136 181 229 280 339 411
#     4  12  27  45  69  97 139 178 227 285 343 394
#     4  12  27  46  66  95 137 182 228 276 337 410
#     4  12  24  41  70 101 135 178 227 282 340 397
#     4  11  22  39  68 101 136 180 225 276 335 400
#     4  10  19  37  65 106 137 169 225 282 329 400
#
# _framework density 26.313255000000002
#
# number of rings (size 3 to 8) (size 9 to 14) (size 15 to 20)
#    0.000    0.500    7.500    2.625    0.000    5.000 
#    0.000    0.625    0.000   10.500    0.000    0.000 
#    0.000    0.000    0.000    0.000    0.000    0.000 
#
# Total GULP energy -89555.742463 kJ/mol
# GULP energy per Si atom -5597.233904 kJ/mol
# Density = 2.625336 g / cm^3
# Si number density = 26.313255 Si / 1000 Ang^3
#
#
#
# Elastic Constant Matrix: (Units=GPa)
#
#
# Indices 1 2 3 4 5 6 
#
# 1 71.0018 33.2017 31.1801 -6.9915 24.4693 0.6278
# 2 33.2017 218.6330 54.1901 -2.0542 11.9185 -13.3732
# 3 31.1801 54.1901 143.0824 -11.3862 35.7347 -7.2805
# 4 -6.9915 -2.0542 -11.3862 54.9544 2.7329 8.3215
# 5 24.4693 11.9185 35.7347 2.7329 44.9389 -4.4818
# 6 0.6278 -13.3732 -7.2805 8.3215 -4.4818 45.3602
#
#
#
# Elastic Compliance Matrix: (Units=1/GPa)
#
#
# Indices 1 2 3 4 5 6 
#
# 1 0.019158 -0.002321 -0.000775 0.003061 -0.009644 -0.002588
# 2 -0.002321 0.005407 -0.001915 -0.000813 0.001564 0.001623
# 3 -0.000775 -0.001915 0.009807 0.002223 -0.007012 -0.000080
# 4 0.003061 -0.000813 0.002223 0.019870 -0.004831 -0.004048
# 5 -0.009644 0.001564 -0.007012 -0.004831 0.033322 0.003648
# 6 -0.002588 0.001623 -0.000080 -0.004048 0.003648 0.023650
#
#
# Mechanical properties :
#
#
# Convention : Reuss Voigt Hill
#
# Bulk Modulus (GPa) = 41.06803 74.42901 57.74852
# Shear Modulus (GPa) = 38.65403 49.99373 44.32388
#
# Velocity S-wave (km/s) = 3.83690 4.36356 4.10868
# Velocity P-wave (km/s) = 5.93888 7.33040 6.67102
#
# Compressibility (1/GPa) = 0.02434984
#
# Stress axis : x y z
#
# Youngs Moduli (GPa) = 52.19805 184.93436 101.96736
#
# Poissons Ratio (x) = 0.42923 0.07906
# Poissons Ratio (y) = 0.12115 0.19525
# Poissons Ratio (z) = 0.04047 0.35412
#
# Static dielectric constant tensor:
#      x y z
#    x 2.222990 0.045760 -0.074780 
#    y 0.045760 1.988860 -0.007510 
#    z -0.074780 -0.007510 2.024350 
# 
# From -- ./inp_files/226554.got.cif
#   From: 2010.05.17/outbox.cif.g08.bks.cpg/sg2_114_cif.got.tgz:226554.got - 2010.06.03 11:33:40.
