data_PCOD9089794
_publ_section_title
;
Structure prediction by ZEFSAII (Michael W. Deem and Ramdas Pophale) SiO2 
 PCOD9089794
Probable space group: P -1
;
_chemical_formula_sum "Si O2"
_cell_formula_units_Z 16
_cell_length_a 12.122395
_cell_length_b 15.838178
_cell_length_c 15.469792
_cell_angle_alpha 151.383942
_cell_angle_beta 39.247414
_cell_angle_gamma 153.834948
_cell_volume 625.993158
_symmetry_space_group_name_H-M "P -1"
_symmetry_group_IT_number 2
_symmetry_cell_setting 'triclinic'
loop_
_space_group_symop_operation_xyz
x,y,z
-x,-y,-z
loop_
_atom_site_type_symbol
_atom_site_label
_atom_site_fract_x
_atom_site_fract_y
_atom_site_fract_z
Si Si1 0.078666 0.363056 0.062615
Si Si2 0.540514 0.472871 0.137355
Si Si3 0.226467 0.003637 0.612146
Si Si4 0.086658 0.265986 0.700759
Si Si5 0.311742 0.997532 0.159608
Si Si6 0.207052 0.483236 0.633415
Si Si7 0.648728 0.099046 0.382531
Si Si8 0.905202 0.664698 0.780719
O O1 0.919199 0.423297 0.233048
O O2 0.135443 0.318689 0.080015
O O3 0.331997 0.580989 0.049826
O O4 0.891761 0.116618 0.893473
O O5 0.664726 0.547690 0.222933
O O6 0.248550 0.307172 0.158929
O O7 0.664143 0.733748 0.249704
O O8 0.312374 0.008124 0.658761
O O9 0.932284 0.759759 0.559260
O O10 0.367208 0.965524 0.429223
O O11 0.136872 0.392447 0.693225
O O12 0.000000 0.000000 0.500000
O O13 0.859861 0.189802 0.824756
O O14 0.493684 0.281900 0.340210
O O15 0.500000 0.000000 0.000000
O O16 0.791262 0.385999 0.582844
O O17 0.803581 0.140550 0.244918
#
# Coordination Sequence:
#
# PCOD9089794 Si02
#       8
#     2   2   2   2   2   2   2   2
#     4  10  21  41  63  91 125 168 203 254 315 374
#     4  10  22  39  60  89 132 156 199 266 308 367
#     4  10  19  38  61  91 121 161 202 257 316 365
#     4  11  23  42  63  98 127 163 216 263 310 373
#     4   9  23  41  61  92 129 166 212 259 305 379
#     4  11  22  41  71  88 123 177 207 253 321 373
#     4   9  20  35  62  94 119 153 212 256 303 378
#     4  10  19  38  63  90 120 161 203 258 312 366
#
# _framework density 25.559383
#
# number of rings (size 3 to 8) (size 9 to 14) (size 15 to 20)
#    0.000    2.000    2.500    0.375    0.000    8.000 
#    4.500    0.625    0.000    0.000    0.000    0.000 
#    0.000    0.000    0.000    0.000    0.000    0.000 
#
# Total GULP energy -89489.883712 kJ/mol
# GULP energy per Si atom -5593.117732 kJ/mol
# Density = 2.550121 g / cm^3
# Si number density = 25.559383 Si / 1000 Ang^3
#
#
#
# Elastic Constant Matrix: (Units=GPa)
#
#
# Indices 1 2 3 4 5 6 
#
# 1 87.1434 20.4475 -6.0724 -14.0089 7.3264 1.1825
# 2 20.4475 95.4301 -7.2236 -2.6274 8.9015 22.2698
# 3 -6.0724 -7.2236 41.4342 -4.1311 -16.1387 1.6778
# 4 -14.0089 -2.6274 -4.1311 40.9396 -2.2414 1.6428
# 5 7.3264 8.9015 -16.1387 -2.2414 38.4504 4.4057
# 6 1.1825 22.2698 1.6778 1.6428 4.4057 34.9784
#
#
#
# Elastic Compliance Matrix: (Units=1/GPa)
#
#
# Indices 1 2 3 4 5 6 
#
# 1 0.012981 -0.002727 0.001357 0.004293 -0.001157 0.001176
# 2 -0.002727 0.013246 0.002009 0.000416 -0.000721 -0.008367
# 3 0.001357 0.002009 0.030303 0.004536 0.012787 -0.004602
# 4 0.004293 0.000416 0.004536 0.026622 0.002797 -0.002230
# 5 -0.001157 -0.000721 0.012787 0.002797 0.032421 -0.004330
# 6 0.001176 -0.008367 -0.004602 -0.002230 -0.004330 0.034747
#
#
# Mechanical properties :
#
#
# Convention : Reuss Voigt Hill
#
# Bulk Modulus (GPa) = 17.29864 26.47898 21.88881
# Shear Modulus (GPa) = 29.70657 37.33077 33.51867
#
# Velocity S-wave (km/s) = 3.41289 3.82586 3.62526
# Velocity P-wave (km/s) = 4.72368 5.46796 5.10939
#
# Compressibility (1/GPa) = 0.05780803
#
# Stress axis : x y z
#
# Youngs Moduli (GPa) = 77.03398 75.49207 33.00017
#
# Poissons Ratio (x) = 0.20588 -0.04477
# Poissons Ratio (y) = 0.21008 -0.06630
# Poissons Ratio (z) = -0.10451 -0.15168
#
# Static dielectric constant tensor:
#      x y z
#    x 1.942490 0.059050 -0.060080 
#    y 0.059050 2.045650 0.024220 
#    z -0.060080 0.024220 2.157550 
# 
# From -- ./inp_files/382057.got.cif
#   From: 2010.05.17/outbox.cif.g08.bks.cpg/sg2_192_cif.got.tgz:382057.got - 2010.06.03 11:33:40.
