data_PCOD9089471
_publ_section_title
;
Structure prediction by ZEFSAII (Michael W. Deem and Ramdas Pophale) SiO2 
 PCOD9089471
Probable space group: P -1
;
_chemical_formula_sum "Si O2"
_cell_formula_units_Z 16
_cell_length_a 5.271524
_cell_length_b 18.207538
_cell_length_c 18.323997
_cell_angle_alpha 22.927312
_cell_angle_beta 103.538527
_cell_angle_gamma 110.290105
_cell_volume 624.887275
_symmetry_space_group_name_H-M "P -1"
_symmetry_group_IT_number 2
_symmetry_cell_setting 'triclinic'
loop_
_space_group_symop_operation_xyz
x,y,z
-x,-y,-z
loop_
_atom_site_type_symbol
_atom_site_label
_atom_site_fract_x
_atom_site_fract_y
_atom_site_fract_z
Si Si1 0.280761 0.382759 0.421905
Si Si2 0.955750 0.278294 0.895955
Si Si3 0.424551 0.553462 0.769676
Si Si4 0.247779 0.464575 0.593203
Si Si5 0.878726 0.858587 0.690297
Si Si6 0.229679 0.900937 0.414965
Si Si7 0.251717 0.072814 0.891559
Si Si8 0.349303 0.703438 0.882526
O O1 0.266715 0.608003 0.218632
O O2 0.401770 0.372817 0.359659
O O3 0.488436 0.358402 0.518925
O O4 0.966172 0.226742 0.545145
O O5 0.157988 0.360458 0.903380
O O6 0.117818 0.367694 0.750555
O O7 0.846098 0.043697 0.084909
O O8 0.320378 0.735500 0.616256
O O9 0.605099 0.482311 0.904209
O O10 0.342372 0.309462 0.694359
O O11 0.000000 0.500000 0.500000
O O12 0.945952 0.006792 0.628843
O O13 0.041381 0.702777 0.850433
O O14 0.546583 0.756463 0.775165
O O15 0.000000 0.000000 0.500000
O O16 0.498312 0.097509 0.238542
O O17 0.500000 0.000000 0.000000
O O18 0.000000 0.000000 0.000000
#
# Coordination Sequence:
#
# PCOD9089471 Si02
#       8
#     2   2   2   2   2   2   2   2
#     4  10  19  38  65  83 131 166 213 267 330 371
#     4   9  20  37  57  83 117 167 202 269 322 373
#     4  10  21  40  64  93 128 168 218 268 313 385
#     4  10  21  37  58  86 121 161 214 267 325 386
#     4  10  22  44  69  98 138 171 209 266 316 378
#     4   9  22  39  67  93 132 170 212 267 326 375
#     4  10  19  38  57  79 112 154 200 251 314 373
#     4  10  23  41  68  99 130 171 220 255 318 386
#
# _framework density 25.604617000000001
#
# number of rings (size 3 to 8) (size 9 to 14) (size 15 to 20)
#    0.750    1.500    1.250    1.125    3.500    0.500 
#    9.000    1.250    0.000    0.000    0.000    0.000 
#    0.000    0.000    0.000    0.000    0.000    0.000 
#
# Total GULP energy -89389.793616 kJ/mol
# GULP energy per Si atom -5586.862101 kJ/mol
# Density = 2.554634 g / cm^3
# Si number density = 25.604617 Si / 1000 Ang^3
#
#
#
# Elastic Constant Matrix: (Units=GPa)
#
#
# Indices 1 2 3 4 5 6 
#
# 1 121.1539 23.1351 27.2771 4.9482 36.5457 -6.1116
# 2 23.1351 80.9797 32.6893 -9.2713 16.2336 10.2356
# 3 27.2771 32.6893 101.3661 -5.5915 30.7762 -1.7241
# 4 4.9482 -9.2713 -5.5915 49.8081 0.9416 2.1820
# 5 36.5457 16.2336 30.7762 0.9416 54.8220 0.0080
# 6 -6.1116 10.2356 -1.7241 2.1820 0.0080 38.9497
#
#
#
# Elastic Compliance Matrix: (Units=1/GPa)
#
#
# Indices 1 2 3 4 5 6 
#
# 1 0.010843 -0.002153 -0.000329 -0.001497 -0.006381 0.002338
# 2 -0.002153 0.015770 -0.004136 0.002915 -0.000963 -0.004828
# 3 -0.000329 -0.004136 0.013168 0.000785 -0.005962 0.001575
# 4 -0.001497 0.002915 0.000785 0.020963 -0.000666 -0.002140
# 5 -0.006381 -0.000963 -0.005962 -0.000666 0.026138 -0.000980
# 6 0.002338 -0.004828 0.001575 -0.002140 -0.000980 0.027500
#
#
# Mechanical properties :
#
#
# Convention : Reuss Voigt Hill
#
# Bulk Modulus (GPa) = 37.67030 52.18919 44.92974
# Shear Modulus (GPa) = 36.63978 43.40917 40.02447
#
# Velocity S-wave (km/s) = 3.78694 4.12195 3.95799
# Velocity P-wave (km/s) = 5.81940 6.56361 6.20267
#
# Compressibility (1/GPa) = 0.02654611
#
# Stress axis : x y z
#
# Youngs Moduli (GPa) = 92.22685 63.41123 75.94377
#
# Poissons Ratio (x) = 0.13650 0.02500
# Poissons Ratio (y) = 0.19852 0.31407
# Poissons Ratio (z) = 0.03036 0.26224
#
# Static dielectric constant tensor:
#      x y z
#    x 2.080430 0.064540 -0.074370 
#    y 0.064540 2.054110 -0.031160 
#    z -0.074370 -0.031160 2.052000 
# 
# From -- ./inp_files/584192.got.cif
#   From: 2010.05.17/outbox.cif.g08.bks.cpg/sg2_293_cif.got.tgz:584192.got - 2010.06.03 11:33:40.
