data_PCOD9089248
_publ_section_title
;
Structure prediction by ZEFSAII (Michael W. Deem and Ramdas Pophale) SiO2 
 PCOD9089248
Probable space group: P -1
;
_chemical_formula_sum "Si O2"
_cell_formula_units_Z 16
_cell_length_a 8.746998
_cell_length_b 11.603666
_cell_length_c 13.930169
_cell_angle_alpha 64.342971
_cell_angle_beta 124.074752
_cell_angle_gamma 71.034871
_cell_volume 685.865661
_symmetry_space_group_name_H-M "P -1"
_symmetry_group_IT_number 2
_symmetry_cell_setting 'triclinic'
loop_
_space_group_symop_operation_xyz
x,y,z
-x,-y,-z
loop_
_atom_site_type_symbol
_atom_site_label
_atom_site_fract_x
_atom_site_fract_y
_atom_site_fract_z
Si Si1 0.764474 0.340597 0.924572
Si Si2 0.181005 0.610859 0.865174
Si Si3 0.418645 0.316575 0.910622
Si Si4 0.492818 0.310171 0.401820
Si Si5 0.748464 0.731026 0.307846
Si Si6 0.874704 0.953217 0.333095
Si Si7 0.641040 0.020077 0.428872
Si Si8 0.362765 0.909940 0.283874
O O1 0.493851 0.395679 0.838308
O O2 0.712981 0.464659 0.775097
O O3 0.831755 0.390472 0.024670
O O4 0.027840 0.107690 0.087097
O O5 0.184836 0.483105 0.845828
O O6 0.925397 0.832500 0.655627
O O7 0.500000 0.500000 0.000000
O O8 0.330067 0.246225 0.838675
O O9 0.699094 0.134329 0.133907
O O10 0.543935 0.249440 0.552232
O O11 0.795976 0.189999 0.506295
O O12 0.436756 0.210694 0.356543
O O13 0.831289 0.830318 0.329168
O O14 0.495119 0.826030 0.256054
O O15 0.000000 0.500000 0.500000
O O16 0.743511 0.037506 0.362346
O O17 0.489375 0.972602 0.353969
#
# Coordination Sequence:
#
# PCOD9089248 Si02
#       8
#     2   2   2   2   2   2   2   2
#     4  11  23  41  67 100 135 169 217 269 333 393
#     4  10  19  37  66  97 130 168 211 268 319 384
#     4  11  21  42  66  97 132 173 222 273 319 389
#     4  12  22  42  68  98 133 176 215 268 338 388
#     4  11  25  47  67  91 130 174 226 272 324 391
#     4  11  22  41  67  98 127 175 224 269 324 391
#     4  11  22  40  65  97 142 170 214 272 326 394
#     4  11  25  46  63  99 136 171 216 275 329 388
#
# _framework density 23.328184
#
# number of rings (size 3 to 8) (size 9 to 14) (size 15 to 20)
#    0.000    1.000    2.500    6.375    0.000    1.000 
#   11.250    1.250    0.000    0.000    0.000    0.000 
#    0.000    0.000    0.000    0.000    0.000    0.000 
#
# Total GULP energy -89585.399246 kJ/mol
# GULP energy per Si atom -5599.087453 kJ/mol
# Density = 2.327509 g / cm^3
# Si number density = 23.328184 Si / 1000 Ang^3
#
#
#
# Elastic Constant Matrix: (Units=GPa)
#
#
# Indices 1 2 3 4 5 6 
#
# 1 51.3774 3.1429 1.1698 -3.5690 -11.0463 -6.4587
# 2 3.1429 101.4099 -0.2586 -2.0102 -4.1983 -7.0111
# 3 1.1698 -0.2586 87.0633 -8.0776 -20.0031 6.6349
# 4 -3.5690 -2.0102 -8.0776 30.2027 4.1960 1.1492
# 5 -11.0463 -4.1983 -20.0031 4.1960 34.7589 -3.2569
# 6 -6.4587 -7.0111 6.6349 1.1492 -3.2569 25.2056
#
#
#
# Elastic Compliance Matrix: (Units=1/GPa)
#
#
# Indices 1 2 3 4 5 6 
#
# 1 0.022089 0.000126 0.001239 0.001576 0.008153 0.006351
# 2 0.000126 0.010139 0.000210 0.000408 0.001616 0.002988
# 3 0.001239 0.000210 0.013690 0.002837 0.007734 -0.002358
# 4 0.001576 0.000408 0.002837 0.034463 -0.002173 -0.002082
# 5 0.008153 0.001616 0.007734 -0.002173 0.036770 0.005353
# 6 0.006351 0.002988 -0.002358 -0.002082 0.005353 0.043539
#
#
# Mechanical properties :
#
#
# Convention : Reuss Voigt Hill
#
# Bulk Modulus (GPa) = 20.37994 27.55098 23.96546
# Shear Modulus (GPa) = 28.75296 33.75320 31.25308
#
# Velocity S-wave (km/s) = 3.51457 3.80792 3.66418
# Velocity P-wave (km/s) = 5.02242 5.58296 5.31009
#
# Compressibility (1/GPa) = 0.04906785
#
# Stress axis : x y z
#
# Youngs Moduli (GPa) = 45.27231 98.62769 73.04792
#
# Poissons Ratio (x) = -0.01247 -0.09050
# Poissons Ratio (y) = -0.00572 -0.01533
# Poissons Ratio (z) = -0.05609 -0.02070
#
# Static dielectric constant tensor:
#      x y z
#    x 1.900570 0.039850 0.011750 
#    y 0.039850 1.903020 0.010440 
#    z 0.011750 0.010440 1.864540 
# 
# From -- ./inp_files/274068.got.cif
#   From: 2010.05.17/outbox.cif.g08.bks.cpg/sg2_138_cif.got.tgz:274068.got - 2010.06.03 11:33:40.
