data_PCOD9089805
_publ_section_title
;
Structure prediction by ZEFSAII (Michael W. Deem and Ramdas Pophale) SiO2 
 PCOD9089805
Probable space group: P -1
;
_chemical_formula_sum "Si O2"
_cell_formula_units_Z 14
_cell_length_a 11.514504
_cell_length_b 12.257239
_cell_length_c 6.551306
_cell_angle_alpha 52.660954
_cell_angle_beta 89.160908
_cell_angle_gamma 118.461200
_cell_volume 582.093847
_symmetry_space_group_name_H-M "P -1"
_symmetry_group_IT_number 2
_symmetry_cell_setting 'triclinic'
loop_
_space_group_symop_operation_xyz
x,y,z
-x,-y,-z
loop_
_atom_site_type_symbol
_atom_site_label
_atom_site_fract_x
_atom_site_fract_y
_atom_site_fract_z
Si Si1 0.634522 0.250180 0.866485
Si Si2 0.694137 0.520688 0.830511
Si Si3 0.625619 0.757733 0.672391
Si Si4 0.856522 0.917060 0.841511
Si Si5 0.305235 0.973534 0.104104
Si Si6 0.726249 0.122314 0.311910
Si Si7 0.033467 0.251825 0.163973
O O1 0.630882 0.179030 0.172857
O O2 0.475767 0.142581 0.889712
O O3 0.699170 0.443578 0.703490
O O4 0.721951 0.190688 0.821521
O O5 0.680621 0.674599 0.622836
O O6 0.828641 0.586253 0.904429
O O7 0.544592 0.378474 0.118064
O O8 0.712672 0.794361 0.841303
O O9 0.672617 0.944881 0.400714
O O10 0.923413 0.812920 0.956749
O O11 0.803579 0.974666 0.962490
O O12 0.966088 0.093820 0.508707
O O13 0.293947 0.918909 0.403400
O O14 0.900823 0.259118 0.114861
#
# Coordination Sequence:
#
# PCOD9089805 Si02
#       7
#     2   2   2   2   2   2   2
#     4  11  20  31  55  77 104 130 171 205 255 292
#     4  10  16  28  49  81 100 130 165 215 245 296
#     4   8  16  28  51  74 100 128 175 204 248 284
#     4   8  13  31  49  71  96 137 168 204 235 308
#     4   9  19  33  51  77  99 135 171 207 241 304
#     4  10  19  36  53  77  99 138 167 205 244 313
#     4   8  16  27  51  73 102 129 169 201 255 290
#
# _framework density 24.051105
#
# number of rings (size 3 to 8) (size 9 to 14) (size 15 to 20)
#    0.000    3.143    2.857    1.286    0.000    0.571 
#    0.000    3.571    0.000    8.571    0.000    0.000 
#    0.000    0.000    0.000    0.000    0.000    0.000 
#
# Total GULP energy -78054.661151 kJ/mol
# GULP energy per Si atom -5575.332939 kJ/mol
# Density = 2.399636 g / cm^3
# Si number density = 24.051105 Si / 1000 Ang^3
#
#
#
# Elastic Constant Matrix: (Units=GPa)
#
#
# Indices 1 2 3 4 5 6 
#
# 1 86.5116 52.6578 12.4203 -10.0583 -23.9389 -0.4932
# 2 52.6578 168.9658 13.9971 -8.7564 -17.9324 -31.8616
# 3 12.4203 13.9971 31.1818 -9.4673 -13.1535 3.9855
# 4 -10.0583 -8.7564 -9.4673 22.6093 4.0233 -14.5865
# 5 -23.9389 -17.9324 -13.1535 4.0233 31.5005 -8.0995
# 6 -0.4932 -31.8616 3.9855 -14.5865 -8.0995 64.2525
#
#
#
# Elastic Compliance Matrix: (Units=1/GPa)
#
#
# Indices 1 2 3 4 5 6 
#
# 1 0.017458 -0.003977 0.000880 0.005064 0.010886 0.000629
# 2 -0.003977 0.008814 -0.000584 0.004649 0.002640 0.005765
# 3 0.000880 -0.000584 0.044269 0.017654 0.017382 0.003170
# 4 0.005064 0.004649 0.017654 0.065041 0.010001 0.017276
# 5 0.010886 0.002640 0.017382 0.010001 0.049780 0.008860
# 6 0.000629 0.005765 0.003170 0.017276 0.008860 0.023269
#
#
# Mechanical properties :
#
#
# Convention : Reuss Voigt Hill
#
# Bulk Modulus (GPa) = 15.82799 49.42328 32.62563
# Shear Modulus (GPa) = 21.09229 37.51140 29.30184
#
# Velocity S-wave (km/s) = 2.96459 3.95353 3.49422
# Velocity P-wave (km/s) = 4.27945 6.43696 5.46572
#
# Compressibility (1/GPa) = 0.06317923
#
# Stress axis : x y z
#
# Youngs Moduli (GPa) = 57.27942 113.44981 22.58929
#
# Poissons Ratio (x) = 0.45124 -0.01989
# Poissons Ratio (y) = 0.22783 0.01320
# Poissons Ratio (z) = -0.05043 0.06627
#
# Static dielectric constant tensor:
#      x y z
#    x 1.919290 -0.031400 -0.009870 
#    y -0.031400 2.033840 0.065970 
#    z -0.009870 0.065970 1.976560 
# 
# From -- ./inp_files/251935.got.cif
#   From: 2010.05.17/outbox.cif.g08.bks.cpg/sg2_126_cif.got.tgz:251935.got - 2010.06.03 11:33:40.
