data_PCOD9089907
_publ_section_title
;
Structure prediction by ZEFSAII (Michael W. Deem and Ramdas Pophale) SiO2 
 PCOD9089907
Probable space group: P -1
;
_chemical_formula_sum "Si O2"
_cell_formula_units_Z 16
_cell_length_a 7.484773
_cell_length_b 18.529689
_cell_length_c 6.974858
_cell_angle_alpha 58.651332
_cell_angle_beta 58.817469
_cell_angle_gamma 47.363943
_cell_volume 586.325746
_symmetry_space_group_name_H-M "P -1"
_symmetry_group_IT_number 2
_symmetry_cell_setting 'triclinic'
loop_
_space_group_symop_operation_xyz
x,y,z
-x,-y,-z
loop_
_atom_site_type_symbol
_atom_site_label
_atom_site_fract_x
_atom_site_fract_y
_atom_site_fract_z
Si Si1 0.678361 0.636661 0.690834
Si Si2 0.768330 0.965945 0.480847
Si Si3 0.758621 0.163579 0.810366
Si Si4 0.183259 0.479339 0.630319
Si Si5 0.749334 0.805125 0.946682
Si Si6 0.286899 0.641037 0.390764
Si Si7 0.271779 0.613089 0.896581
Si Si8 0.498506 0.837554 0.407403
O O1 0.757385 0.590617 0.492003
O O2 0.398359 0.668543 0.840256
O O3 0.672988 0.738548 0.576476
O O4 0.909994 0.535520 0.798826
O O5 0.843256 0.864964 0.696786
O O6 0.975088 0.939168 0.242506
O O7 0.500000 0.000000 0.500000
O O8 0.704830 0.059983 0.517880
O O9 0.822388 0.242002 0.742990
O O10 0.639602 0.195287 0.617256
O O11 0.515230 0.172179 0.026351
O O12 0.199074 0.575708 0.427383
O O13 0.415695 0.412765 0.732289
O O14 0.972927 0.685659 0.004944
O O15 0.665820 0.851638 0.143252
O O16 0.728827 0.379318 0.345387
O O17 0.500000 0.500000 0.000000
#
# Coordination Sequence:
#
# PCOD9089907 Si02
#       8
#     2   2   2   2   2   2   2   2
#     4  10  20  38  64  93 126 174 226 264 324 402
#     4  12  25  44  71  98 129 169 227 285 338 381
#     4  10  22  41  70  90 133 176 213 270 331 396
#     4   9  19  33  65  87 124 167 227 256 323 392
#     4  10  23  43  68  98 135 170 227 266 328 406
#     4  10  19  38  62  89 133 179 207 268 336 383
#     4  11  22  36  65  96 135 174 219 266 319 399
#     4  10  22  41  71  89 125 179 218 273 328 391
#
# _framework density 27.288585999999999
#
# number of rings (size 3 to 8) (size 9 to 14) (size 15 to 20)
#    0.750    1.000    3.750    0.750    8.750    0.500 
#    0.000    0.625   16.500    0.000    0.000    0.000 
#    0.000    0.000    0.000    0.000    0.000    0.000 
#
# Total GULP energy -89294.808073 kJ/mol
# GULP energy per Si atom -5580.925505 kJ/mol
# Density = 2.722648 g / cm^3
# Si number density = 27.288586 Si / 1000 Ang^3
#
#
#
# Elastic Constant Matrix: (Units=GPa)
#
#
# Indices 1 2 3 4 5 6 
#
# 1 82.9419 39.5019 24.4925 16.6960 -2.0849 -7.8063
# 2 39.5019 170.0518 68.4966 19.2770 -10.4258 -8.8872
# 3 24.4925 68.4966 101.6013 14.9271 -6.1795 1.1467
# 4 16.6960 19.2770 14.9271 45.9991 -8.9028 -14.1692
# 5 -2.0849 -10.4258 -6.1795 -8.9028 30.9002 4.6836
# 6 -7.8063 -8.8872 1.1467 -14.1692 4.6836 57.9088
#
#
#
# Elastic Compliance Matrix: (Units=1/GPa)
#
#
# Indices 1 2 3 4 5 6 
#
# 1 0.014413 -0.002399 -0.001390 -0.003791 -0.001326 0.000782
# 2 -0.002399 0.008701 -0.005125 -0.000567 0.001456 0.000857
# 3 -0.001390 -0.005125 0.014038 -0.002368 0.000587 -0.001879
# 4 -0.003791 -0.000567 -0.002368 0.027001 0.006015 0.005569
# 5 -0.001326 0.001456 0.000587 0.006015 0.034813 -0.001311
# 6 0.000782 0.000857 -0.001879 0.005569 -0.001311 0.019011
#
#
# Mechanical properties :
#
#
# Convention : Reuss Voigt Hill
#
# Bulk Modulus (GPa) = 51.75128 68.84190 60.29659
# Shear Modulus (GPa) = 35.15067 41.76855 38.45961
#
# Velocity S-wave (km/s) = 3.59292 3.91656 3.75823
# Velocity P-wave (km/s) = 6.01811 6.76275 6.40127
#
# Compressibility (1/GPa) = 0.01932320
#
# Stress axis : x y z
#
# Youngs Moduli (GPa) = 69.38252 114.93570 71.23772
#
# Poissons Ratio (x) = 0.27572 0.09900
# Poissons Ratio (y) = 0.16644 0.36511
# Poissons Ratio (z) = 0.09642 0.58907
#
# Static dielectric constant tensor:
#      x y z
#    x 2.271430 0.003840 -0.057670 
#    y 0.003840 2.177650 -0.039640 
#    z -0.057670 -0.039640 2.262860 
# 
# From -- ./inp_files/220429.got.cif
#   From: 2010.05.17/outbox.cif.g08.bks.cpg/sg2_111_cif.got.tgz:220429.got - 2010.06.03 11:33:40.
