data_PCOD9089992
_publ_section_title
;
Structure prediction by ZEFSAII (Michael W. Deem and Ramdas Pophale) SiO2 
 PCOD9089992
Probable space group: P -1
;
_chemical_formula_sum "Si O2"
_cell_formula_units_Z 16
_cell_length_a 14.056905
_cell_length_b 9.867817
_cell_length_c 7.812578
_cell_angle_alpha 76.747342
_cell_angle_beta 126.142473
_cell_angle_gamma 132.382966
_cell_volume 620.154157
_symmetry_space_group_name_H-M "P -1"
_symmetry_group_IT_number 2
_symmetry_cell_setting 'triclinic'
loop_
_space_group_symop_operation_xyz
x,y,z
-x,-y,-z
loop_
_atom_site_type_symbol
_atom_site_label
_atom_site_fract_x
_atom_site_fract_y
_atom_site_fract_z
Si Si1 0.367992 0.299164 0.749453
Si Si2 0.773550 0.072734 0.417897
Si Si3 0.267665 0.782427 0.975136
Si Si4 0.130739 0.333418 0.645280
Si Si5 0.356527 0.129654 0.148586
Si Si6 0.891024 0.414829 0.650168
Si Si7 0.654943 0.368886 0.654610
Si Si8 0.715141 0.655244 0.868720
O O1 0.238253 0.313314 0.655342
O O2 0.536611 0.497620 0.809214
O O3 0.312531 0.143878 0.592594
O O4 0.390194 0.227192 0.969167
O O5 0.685397 0.108418 0.185927
O O6 0.825529 0.209799 0.592369
O O7 0.939173 0.162151 0.468208
O O8 0.083644 0.580492 0.817451
O O9 0.376312 0.745294 0.173098
O O10 0.281212 0.920202 0.084892
O O11 0.163422 0.518459 0.573532
O O12 0.169713 0.333779 0.883117
O O13 0.513804 0.240640 0.403257
O O14 0.244493 0.149648 0.125503
O O15 0.810307 0.417892 0.727872
O O16 0.698858 0.561067 0.701202
#
# Coordination Sequence:
#
# PCOD9089992 Si02
#       8
#     2   2   2   2   2   2   2   2
#     4  10  21  38  61  88 115 146 189 238 286 338
#     4  10  21  38  61  88 115 146 189 238 286 338
#     4  10  22  39  59  84 114 149 192 238 283 336
#     4  10  19  38  63  86 112 148 187 238 291 336
#     4  10  22  39  59  84 114 149 192 238 283 336
#     4  11  22  39  59  86 117 151 190 235 282 338
#     4  12  23  38  57  82 118 160 191 228 279 336
#     4  11  22  39  59  86 117 151 190 235 282 338
#
# _framework density 25.800037
#
# number of rings (size 3 to 8) (size 9 to 14) (size 15 to 20)
#    0.000    1.500    0.000    7.500    0.000    3.000 
#    0.000    3.750    0.000    0.000    0.000    0.000 
#    0.000    0.000    0.000    0.000    0.000    0.000 
#
# Total GULP energy -89608.414352 kJ/mol
# GULP energy per Si atom -5600.525897 kJ/mol
# Density = 2.574131 g / cm^3
# Si number density = 25.800037 Si / 1000 Ang^3
#
#
#
# Elastic Constant Matrix: (Units=GPa)
#
#
# Indices 1 2 3 4 5 6 
#
# 1 93.5858 12.5939 10.6710 3.1107 -0.1656 -24.2394
# 2 12.5939 114.7258 28.9144 26.5248 -5.2196 -40.7280
# 3 10.6710 28.9144 95.9747 -8.2712 -7.1066 -13.0156
# 4 3.1107 26.5248 -8.2712 55.7478 -16.1688 -15.9509
# 5 -0.1656 -5.2196 -7.1066 -16.1688 37.1692 1.2933
# 6 -24.2394 -40.7280 -13.0156 -15.9509 1.2933 37.2414
#
#
#
# Elastic Compliance Matrix: (Units=1/GPa)
#
#
# Indices 1 2 3 4 5 6 
#
# 1 0.013472 0.002594 -0.000457 0.001585 0.000605 0.012104
# 2 0.002594 0.015873 -0.003199 -0.003633 -0.000522 0.016392
# 3 -0.000457 -0.003199 0.012594 0.005440 0.004226 0.002789
# 4 0.001585 -0.003633 0.005440 0.026655 0.011785 0.009967
# 5 0.000605 -0.000522 0.004226 0.011785 0.032587 0.005216
# 6 0.012104 0.016392 0.002789 0.009967 0.005216 0.057719
#
#
# Mechanical properties :
#
#
# Convention : Reuss Voigt Hill
#
# Bulk Modulus (GPa) = 25.11584 45.40497 35.26041
# Shear Modulus (GPa) = 28.68701 42.83882 35.76291
#
# Velocity S-wave (km/s) = 3.33813 4.07924 3.72715
# Velocity P-wave (km/s) = 4.96119 6.31062 5.67615
#
# Compressibility (1/GPa) = 0.03981551
#
# Stress axis : x y z
#
# Youngs Moduli (GPa) = 74.22977 62.99839 79.40299
#
# Poissons Ratio (x) = -0.16343 0.03625
# Poissons Ratio (y) = -0.19256 0.25404
# Poissons Ratio (z) = 0.03389 0.20156
#
# Static dielectric constant tensor:
#      x y z
#    x 2.059740 0.036880 -0.072650 
#    y 0.036880 2.045150 -0.058230 
#    z -0.072650 -0.058230 2.056310 
# 
# From -- ./inp_files/175185.got.cif
#   From: 2010.05.17/outbox.cif.g08.bks.cpg/sg2_88_cif.got.tgz:175185.got - 2010.06.03 11:33:40.
