data_PCOD9089437
_publ_section_title
;
Structure prediction by ZEFSAII (Michael W. Deem and Ramdas Pophale) SiO2 
 PCOD9089437
Probable space group: P -1
;
_chemical_formula_sum "Si O2"
_cell_formula_units_Z 16
_cell_length_a 8.728365
_cell_length_b 12.470070
_cell_length_c 9.136026
_cell_angle_alpha 57.017525
_cell_angle_beta 115.879322
_cell_angle_gamma 118.832810
_cell_volume 709.961464
_symmetry_space_group_name_H-M "P -1"
_symmetry_group_IT_number 2
_symmetry_cell_setting 'triclinic'
loop_
_space_group_symop_operation_xyz
x,y,z
-x,-y,-z
loop_
_atom_site_type_symbol
_atom_site_label
_atom_site_fract_x
_atom_site_fract_y
_atom_site_fract_z
Si Si1 0.175087 0.204321 0.832577
Si Si2 0.194211 0.904429 0.064823
Si Si3 0.502987 0.285413 0.106233
Si Si4 0.918185 0.669672 0.591900
Si Si5 0.220173 0.259733 0.241686
Si Si6 0.891756 0.507441 0.097193
Si Si7 0.145141 0.890258 0.738309
Si Si8 0.517931 0.993645 0.337868
O O1 0.132115 0.273180 0.619208
O O2 0.206025 0.060565 0.924762
O O3 0.353910 0.297409 0.919812
O O4 0.996855 0.164766 0.887418
O O5 0.218134 0.852984 0.950859
O O6 0.346130 0.901123 0.247503
O O7 0.401784 0.261370 0.239428
O O8 0.688204 0.405817 0.094056
O O9 0.536121 0.146340 0.185764
O O10 0.764139 0.664082 0.652681
O O11 0.984904 0.539581 0.700336
O O12 0.085483 0.779900 0.664750
O O13 0.057889 0.115962 0.293544
O O14 0.135875 0.349009 0.035492
O O15 0.000000 0.500000 0.000000
O O16 0.297003 0.019073 0.639290
O O17 0.500000 0.000000 0.500000
#
# Coordination Sequence:
#
# PCOD9089437 Si02
#       8
#     2   2   2   2   2   2   2   2
#     4  10  20  36  54  87 112 151 182 237 275 335
#     4  10  21  33  57  79 120 151 188 223 285 330
#     4  11  20  38  59  83 114 148 187 231 286 333
#     4   9  19  35  60  79 115 143 189 229 280 327
#     4   9  20  36  59  83 108 145 192 231 284 329
#     4  10  19  38  62  83 107 150 189 233 286 338
#     4  10  19  38  54  82 113 151 187 229 280 330
#     4  11  22  35  56  86 115 153 191 228 277 339
#
# _framework density 22.536434
#
# number of rings (size 3 to 8) (size 9 to 14) (size 15 to 20)
#    0.750    1.250    2.500    1.500    0.000    1.500 
#    0.000    3.125    0.000    0.000    0.000    0.000 
#    0.000    0.000    0.000    0.000    0.000    0.000 
#
# Total GULP energy -89113.518475 kJ/mol
# GULP energy per Si atom -5569.594905 kJ/mol
# Density = 2.248514 g / cm^3
# Si number density = 22.536434 Si / 1000 Ang^3
#
#
#
# Elastic Constant Matrix: (Units=GPa)
#
#
# Indices 1 2 3 4 5 6 
#
# 1 109.6515 37.5197 42.1953 -1.1857 -14.5766 29.5060
# 2 37.5197 44.7017 20.9103 4.0772 -5.4933 27.3171
# 3 42.1953 20.9103 163.6407 17.3635 -3.9894 9.7201
# 4 -1.1857 4.0772 17.3635 22.7651 0.8289 -0.2793
# 5 -14.5766 -5.4933 -3.9894 0.8289 33.3611 -6.8202
# 6 29.5060 27.3171 9.7201 -0.2793 -6.8202 37.2000
#
#
#
# Elastic Compliance Matrix: (Units=1/GPa)
#
#
# Indices 1 2 3 4 5 6 
#
# 1 0.014755 -0.008576 -0.002837 0.004282 0.003784 -0.003938
# 2 -0.008576 0.048303 -0.001416 -0.008310 -0.001615 -0.028656
# 3 -0.002837 -0.001416 0.007542 -0.005625 -0.000177 0.001245
# 4 0.004282 -0.008310 -0.005625 0.050001 -0.000501 0.004459
# 5 0.003784 -0.001615 -0.000177 -0.000501 0.032198 0.004130
# 6 -0.003938 -0.028656 0.001245 0.004459 0.004130 0.051514
#
#
# Mechanical properties :
#
#
# Convention : Reuss Voigt Hill
#
# Bulk Modulus (GPa) = 22.25148 57.69381 39.97264
# Shear Modulus (GPa) = 20.41211 33.15648 26.78429
#
# Velocity S-wave (km/s) = 3.01281 3.83983 3.45119
# Velocity P-wave (km/s) = 4.69017 6.73164 5.80141
#
# Compressibility (1/GPa) = 0.04494083
#
# Stress axis : x y z
#
# Youngs Moduli (GPa) = 67.77274 20.70282 132.59027
#
# Poissons Ratio (x) = 0.17755 0.37615
# Poissons Ratio (y) = 0.58124 0.18777
# Poissons Ratio (z) = 0.19227 0.02932
#
# Static dielectric constant tensor:
#      x y z
#    x 1.970540 -0.018020 0.027760 
#    y -0.018020 1.881240 -0.015760 
#    z 0.027760 -0.015760 1.868180 
# 
# From -- ./inp_files/216823.got.cif
#   From: 2010.05.17/outbox.cif.g08.bks.cpg/sg2_109_cif.got.tgz:216823.got - 2010.06.03 11:33:40.
