data_PCOD9089479
_publ_section_title
;
Structure prediction by ZEFSAII (Michael W. Deem and Ramdas Pophale) SiO2 
 PCOD9089479
Probable space group: P -1
;
_chemical_formula_sum "Si O2"
_cell_formula_units_Z 16
_cell_length_a 6.919389
_cell_length_b 18.039998
_cell_length_c 15.851323
_cell_angle_alpha 157.061927
_cell_angle_beta 111.609403
_cell_angle_gamma 81.925977
_cell_volume 599.534656
_symmetry_space_group_name_H-M "P -1"
_symmetry_group_IT_number 2
_symmetry_cell_setting 'triclinic'
loop_
_space_group_symop_operation_xyz
x,y,z
-x,-y,-z
loop_
_atom_site_type_symbol
_atom_site_label
_atom_site_fract_x
_atom_site_fract_y
_atom_site_fract_z
Si Si1 0.976938 0.741164 0.012673
Si Si2 0.169509 0.692346 0.572752
Si Si3 0.538052 0.830676 0.926292
Si Si4 0.646764 0.665931 0.119035
Si Si5 0.865984 0.458493 0.845739
Si Si6 0.755095 0.647682 0.574029
Si Si7 0.805844 0.005795 0.368290
Si Si8 0.185872 0.944226 0.085187
O O1 0.862314 0.495209 0.692404
O O2 0.052739 0.668986 0.035802
O O3 0.153455 0.907456 0.141323
O O4 0.831315 0.853765 0.143016
O O5 0.409009 0.771879 0.751823
O O6 0.936260 0.598650 0.498845
O O7 0.210471 0.923636 0.783826
O O8 0.490324 0.591044 0.693314
O O9 0.367440 0.875384 0.005643
O O10 0.917890 0.843063 0.388340
O O11 0.614126 0.836361 0.232420
O O12 0.500000 0.500000 0.000000
O O13 0.650040 0.498897 0.875079
O O14 0.769669 0.202734 0.536613
O O15 0.000000 0.500000 0.000000
O O16 0.716128 0.809037 0.677957
O O17 0.917845 0.782544 0.824522
#
# Coordination Sequence:
#
# PCOD9089479 Si02
#       8
#     2   2   2   2   2   2   2   2
#     4  11  20  36  59  88 118 152 191 242 292 334
#     4  10  20  36  60  82 116 159 195 242 285 338
#     4  10  19  39  56  82 118 157 199 237 287 336
#     4   9  18  38  64  86 109 145 190 232 290 353
#     4   9  20  39  62  84 111 152 190 229 288 350
#     4  10  19  38  57  83 114 154 200 233 289 342
#     4   9  20  36  57  85 117 147 183 239 288 341
#     4  10  20  35  59  84 115 154 192 244 286 343
#
# _framework density 26.687366999999998
#
# number of rings (size 3 to 8) (size 9 to 14) (size 15 to 20)
#    0.000    2.250    2.500    1.500    1.750    0.500 
#    6.750    2.500    0.000    0.000    0.000    0.000 
#    0.000    0.000    0.000    0.000    0.000    0.000 
#
# Total GULP energy -89420.657345 kJ/mol
# GULP energy per Si atom -5588.791084 kJ/mol
# Density = 2.662662 g / cm^3
# Si number density = 26.687367 Si / 1000 Ang^3
#
#
#
# Elastic Constant Matrix: (Units=GPa)
#
#
# Indices 1 2 3 4 5 6 
#
# 1 44.9441 29.1154 31.5683 12.5329 -10.9953 22.2401
# 2 29.1154 187.3097 61.5015 41.1870 -3.3074 19.6143
# 3 31.5683 61.5015 193.1206 29.1779 -21.6071 7.9591
# 4 12.5329 41.1870 29.1779 74.5833 3.0024 -0.7578
# 5 -10.9953 -3.3074 -21.6071 3.0024 39.9212 6.3955
# 6 22.2401 19.6143 7.9591 -0.7578 6.3955 39.2398
#
#
#
# Elastic Compliance Matrix: (Units=1/GPa)
#
#
# Indices 1 2 3 4 5 6 
#
# 1 0.043399 -0.001443 -0.002977 -0.006190 0.014822 -0.025807
# 2 -0.001443 0.006958 -0.001411 -0.003075 0.000037 -0.002440
# 3 -0.002977 -0.001411 0.006597 -0.001402 0.002644 0.000597
# 4 -0.006190 -0.003075 -0.001402 0.016963 -0.005032 0.006477
# 5 0.014822 0.000037 0.002644 -0.005032 0.033263 -0.014474
# 6 -0.025807 -0.002440 0.000597 0.006477 -0.014474 0.043694
#
#
# Mechanical properties :
#
#
# Convention : Reuss Voigt Hill
#
# Bulk Modulus (GPa) = 22.07925 74.41608 48.24766
# Shear Modulus (GPa) = 28.14793 50.96148 39.55471
#
# Velocity S-wave (km/s) = 3.25118 4.37461 3.85405
# Velocity P-wave (km/s) = 4.73126 7.31171 6.15817
#
# Compressibility (1/GPa) = 0.04529140
#
# Stress axis : x y z
#
# Youngs Moduli (GPa) = 23.04226 143.70935 151.58212
#
# Poissons Ratio (x) = 0.20738 0.45133
# Poissons Ratio (y) = 0.03325 0.21386
# Poissons Ratio (z) = 0.06861 0.20275
#
# Static dielectric constant tensor:
#      x y z
#    x 2.186010 -0.072460 -0.015090 
#    y -0.072460 2.172560 0.003010 
#    z -0.015090 0.003010 2.055910 
# 
# From -- ./inp_files/562780.got.cif
#   From: 2010.05.17/outbox.cif.g08.bks.cpg/sg2_282_cif.got.tgz:562780.got - 2010.06.03 11:33:40.
