data_PCOD9089247
_publ_section_title
;
Structure prediction by ZEFSAII (Michael W. Deem and Ramdas Pophale) SiO2 
 PCOD9089247
Probable space group: P -1
;
_chemical_formula_sum "Si O2"
_cell_formula_units_Z 16
_cell_length_a 5.794038
_cell_length_b 9.048100
_cell_length_c 17.718985
_cell_angle_alpha 100.277582
_cell_angle_beta 122.733622
_cell_angle_gamma 50.905541
_cell_volume 587.347333
_symmetry_space_group_name_H-M "P -1"
_symmetry_group_IT_number 2
_symmetry_cell_setting 'triclinic'
loop_
_space_group_symop_operation_xyz
x,y,z
-x,-y,-z
loop_
_atom_site_type_symbol
_atom_site_label
_atom_site_fract_x
_atom_site_fract_y
_atom_site_fract_z
Si Si1 0.527573 0.070051 0.655713
Si Si2 0.436593 0.415488 0.694475
Si Si3 0.239471 0.022129 0.893058
Si Si4 0.886952 0.399508 0.103249
Si Si5 0.764180 0.341787 0.468420
Si Si6 0.220167 0.317921 0.319219
Si Si7 0.624966 0.568927 0.879971
Si Si8 0.381103 0.953089 0.158965
O O1 0.675041 0.187383 0.693660
O O2 0.473763 0.053338 0.733553
O O3 0.171695 0.190367 0.554090
O O4 0.802264 0.840969 0.663573
O O5 0.305471 0.531158 0.604547
O O6 0.547988 0.496153 0.785028
O O7 0.077621 0.473762 0.675003
O O8 0.293648 0.131819 0.848420
O O9 0.856017 0.113240 0.872640
O O10 0.384065 0.807426 0.868371
O O11 0.500000 0.000000 0.000000
O O12 0.108825 0.360296 0.216367
O O13 0.982095 0.501815 0.073693
O O14 0.499364 0.493232 0.077562
O O15 0.081515 0.175562 0.095049
O O16 0.500000 0.500000 0.500000
O O17 0.609655 0.237320 0.403087
#
# Coordination Sequence:
#
# PCOD9089247 Si02
#       8
#     2   2   2   2   2   2   2   2
#     4  11  24  41  62  93 125 175 221 280 324 382
#     4  11  23  42  61  86 129 175 223 270 326 388
#     4  10  19  37  66  97 127 163 211 266 329 410
#     4   8  15  31  54  79 113 155 199 253 300 371
#     4  12  24  41  61  89 128 174 230 277 326 380
#     4  10  21  41  58  84 122 167 229 270 327 375
#     4   9  17  32  58  84 117 159 202 252 316 373
#     4   9  20  36  57  93 129 161 212 263 327 393
#
# _framework density 27.241123000000002
#
# number of rings (size 3 to 8) (size 9 to 14) (size 15 to 20)
#    0.000    2.000    2.500    1.875    0.000    1.500 
#    2.250    0.000    0.000    1.500    0.000    0.000 
#    0.000    0.000    0.000    0.000    0.000    0.000 
#
# Total GULP energy -89369.846936 kJ/mol
# GULP energy per Si atom -5585.615433 kJ/mol
# Density = 2.717912 g / cm^3
# Si number density = 27.241123 Si / 1000 Ang^3
#
#
#
# Elastic Constant Matrix: (Units=GPa)
#
#
# Indices 1 2 3 4 5 6 
#
# 1 193.6913 12.9991 54.6560 -4.4426 13.3581 21.4560
# 2 12.9991 123.3118 -7.9256 -2.0405 1.6570 0.5282
# 3 54.6560 -7.9256 90.4261 9.2696 19.7987 9.9801
# 4 -4.4426 -2.0405 9.2696 27.5275 13.5203 -4.4714
# 5 13.3581 1.6570 19.7987 13.5203 64.5847 0.3516
# 6 21.4560 0.5282 9.9801 -4.4714 0.3516 27.9738
#
#
#
# Elastic Compliance Matrix: (Units=1/GPa)
#
#
# Indices 1 2 3 4 5 6 
#
# 1 0.006793 -0.000908 -0.003882 0.002070 -0.000606 -0.003469
# 2 -0.000908 0.008302 0.001345 0.000278 -0.000496 0.000111
# 3 -0.003882 0.001345 0.014963 -0.004683 -0.002821 -0.003099
# 4 0.002070 0.000278 -0.004683 0.043406 -0.008125 0.007118
# 5 -0.000606 -0.000496 -0.002821 -0.008125 0.018188 -0.000047
# 6 -0.003469 0.000111 -0.003099 0.007118 -0.000047 0.040651
#
#
# Mechanical properties :
#
#
# Convention : Reuss Voigt Hill
#
# Bulk Modulus (GPa) = 43.16529 58.54314 50.85421
# Shear Modulus (GPa) = 34.03301 47.19718 40.61510
#
# Velocity S-wave (km/s) = 3.53841 4.16693 3.86547
# Velocity P-wave (km/s) = 5.70735 6.68494 6.21540
#
# Compressibility (1/GPa) = 0.02316676
#
# Stress axis : x y z
#
# Youngs Moduli (GPa) = 147.21338 120.44586 66.83228
#
# Poissons Ratio (x) = 0.10940 0.25944
# Poissons Ratio (y) = 0.13372 -0.08986
# Poissons Ratio (z) = 0.57148 -0.16195
#
# Static dielectric constant tensor:
#      x y z
#    x 2.197750 0.039940 0.002950 
#    y 0.039940 2.106510 0.019740 
#    z 0.002950 0.019740 2.143070 
# 
# From -- ./inp_files/548192.got.cif
#   From: 2010.05.17/outbox.cif.g08.bks.cpg/sg2_275_cif.got.tgz:548192.got - 2010.06.03 11:33:40.
