data_PCOD9089465
_publ_section_title
;
Structure prediction by ZEFSAII (Michael W. Deem and Ramdas Pophale) SiO2 
 PCOD9089465
Probable space group: P -1
;
_chemical_formula_sum "Si O2"
_cell_formula_units_Z 15
_cell_length_a 24.960569
_cell_length_b 13.204060
_cell_length_c 15.239665
_cell_angle_alpha 151.073104
_cell_angle_beta 20.584915
_cell_angle_gamma 160.812715
_cell_volume 578.666305
_symmetry_space_group_name_H-M "P -1"
_symmetry_group_IT_number 2
_symmetry_cell_setting 'triclinic'
loop_
_space_group_symop_operation_xyz
x,y,z
-x,-y,-z
loop_
_atom_site_type_symbol
_atom_site_label
_atom_site_fract_x
_atom_site_fract_y
_atom_site_fract_z
Si Si1 0.578319 0.090844 0.661955
Si Si2 0.132431 0.758202 0.417355
Si Si3 0.159659 0.155855 0.126068
Si Si4 0.500000 0.500000 0.500000
Si Si5 0.579311 0.309840 0.651524
Si Si6 0.848230 0.552953 0.262949
Si Si7 0.593000 0.199632 0.121331
Si Si8 0.795458 0.899228 0.188136
O O1 0.379309 0.752732 0.666908
O O2 0.481813 0.035546 0.866100
O O3 0.785569 0.141596 0.391911
O O4 0.626012 0.313746 0.685163
O O5 0.000000 0.500000 0.500000
O O6 0.351620 0.084299 0.380690
O O7 0.275270 0.769860 0.136642
O O8 0.959185 0.737175 0.621127
O O9 0.979744 0.846679 0.224405
O O10 0.390834 0.294855 0.917772
O O11 0.206775 0.157102 0.952502
O O12 0.707112 0.526429 0.224223
O O13 0.586530 0.605514 0.341709
O O14 0.786627 0.572964 0.469777
O O15 0.500000 0.000000 0.500000
O O16 0.000000 0.500000 0.000000
O O17 0.000000 0.000000 0.000000
#
# Coordination Sequence:
#
# PCOD9089465 Si02
#       8
#     2   2   2   1   2   2   2   2
#     4  10  20  39  60  96 134 159 214 277 322 382
#     4  11  26  47  63  90 135 186 221 256 335 409
#     4  12  22  37  65  92 126 180 217 259 334 391
#     4  10  22  40  62  98 122 160 218 284 320 376
#     4  10  19  38  56  94 134 164 211 268 323 395
#     4  11  20  36  63  99 134 169 207 277 338 381
#     4  10  24  43  65  92 134 167 220 279 328 389
#     4  11  22  32  54  92 131 161 208 260 327 381
#
# _framework density 25.921673999999999
#
# number of rings (size 3 to 8) (size 9 to 14) (size 15 to 20)
#    0.000    1.333    5.333    2.400    7.467    2.133 
#    2.400    0.667    0.000    1.600    0.000    0.000 
#    0.000    0.000    0.000    0.000    0.000    0.000 
#
# Total GULP energy -83699.724737 kJ/mol
# GULP energy per Si atom -5579.981649 kJ/mol
# Density = 2.586268 g / cm^3
# Si number density = 25.921674 Si / 1000 Ang^3
#
#
#
# Elastic Constant Matrix: (Units=GPa)
#
#
# Indices 1 2 3 4 5 6 
#
# 1 206.7568 75.5800 109.8343 -12.3729 -9.2197 -61.8344
# 2 75.5800 105.6789 74.7975 -6.2456 8.6468 -48.5289
# 3 109.8343 74.7975 222.0906 2.2443 2.9072 -31.5246
# 4 -12.3729 -6.2456 2.2443 48.9512 -15.0551 4.2428
# 5 -9.2197 8.6468 2.9072 -15.0551 63.3339 -9.3472
# 6 -61.8344 -48.5289 -31.5246 4.2428 -9.3472 50.5333
#
#
#
# Elastic Compliance Matrix: (Units=1/GPa)
#
#
# Indices 1 2 3 4 5 6 
#
# 1 0.010443 0.000068 -0.003708 0.003108 0.004046 0.011018
# 2 0.000068 0.020385 -0.004539 0.001452 0.000253 0.016752
# 3 -0.003708 -0.004539 0.007270 -0.001881 -0.001358 -0.004454
# 4 0.003108 0.001452 -0.001881 0.023148 0.006323 0.003249
# 5 0.004046 0.000253 -0.001358 0.006323 0.018991 0.007328
# 6 0.011018 0.016752 -0.004454 0.003249 0.007328 0.047663
#
#
# Mechanical properties :
#
#
# Convention : Reuss Voigt Hill
#
# Bulk Modulus (GPa) = 45.99938 117.21665 81.60802
# Shear Modulus (GPa) = 33.00253 50.85131 41.92692
#
# Velocity S-wave (km/s) = 3.57201 4.43395 4.02611
# Velocity P-wave (km/s) = 5.89885 8.45759 7.29134
#
# Compressibility (1/GPa) = 0.02173942
#
# Stress axis : x y z
#
# Youngs Moduli (GPa) = 95.75776 49.05635 137.55976
#
# Poissons Ratio (x) = -0.00333 0.51005
# Poissons Ratio (y) = -0.00650 0.62438
# Poissons Ratio (z) = 0.35505 0.22266
#
# Static dielectric constant tensor:
#      x y z
#    x 2.163270 0.248800 -0.016060 
#    y 0.248800 2.683380 0.110400 
#    z -0.016060 0.110400 2.038730 
# 
# From -- ./inp_files/542887.got.cif
#   From: 2010.05.17/outbox.cif.g08.bks.cpg/sg2_272_cif.got.tgz:542887.got - 2010.06.03 11:33:40.
