data_PCOD9089438
_publ_section_title
;
Structure prediction by ZEFSAII (Michael W. Deem and Ramdas Pophale) SiO2 
 PCOD9089438
Probable space group: P -1
;
_chemical_formula_sum "Si O2"
_cell_formula_units_Z 16
_cell_length_a 6.966167
_cell_length_b 9.145650
_cell_length_c 17.929350
_cell_angle_alpha 93.102946
_cell_angle_beta 115.630419
_cell_angle_gamma 128.041979
_cell_volume 723.659771
_symmetry_space_group_name_H-M "P -1"
_symmetry_group_IT_number 2
_symmetry_cell_setting 'triclinic'
loop_
_space_group_symop_operation_xyz
x,y,z
-x,-y,-z
loop_
_atom_site_type_symbol
_atom_site_label
_atom_site_fract_x
_atom_site_fract_y
_atom_site_fract_z
Si Si1 0.394033 0.497266 0.735038
Si Si2 0.842559 0.388954 0.700944
Si Si3 0.134816 0.071631 0.702960
Si Si4 0.785462 0.253969 0.459058
Si Si5 0.699630 0.031006 0.745631
Si Si6 0.866964 0.894673 0.895848
Si Si7 0.710447 0.917359 0.504336
Si Si8 0.004262 0.785664 0.782446
O O1 0.566477 0.647247 0.840351
O O2 0.638819 0.649547 0.715084
O O3 0.070444 0.417344 0.681724
O O4 0.375055 0.313681 0.731428
O O5 0.772633 0.236598 0.749392
O O6 0.527473 0.261951 0.600257
O O7 0.998401 0.610454 0.764248
O O8 0.927458 0.058780 0.727603
O O9 0.955929 0.948274 0.593853
O O10 0.199933 0.957679 0.756367
O O11 0.512111 0.147675 0.467543
O O12 0.000000 0.500000 0.500000
O O13 0.632249 0.159075 0.349787
O O14 0.885652 0.144170 0.505358
O O15 0.770560 0.991690 0.835305
O O16 0.079927 0.896967 0.877953
O O17 0.000000 0.000000 0.000000
#
# Coordination Sequence:
#
# PCOD9089438 Si02
#       8
#     2   2   2   2   2   2   2   2
#     4   9  20  36  61  76 110 152 177 226 289 327
#     4  10  19  38  54  84 114 149 186 229 275 326
#     4   9  17  35  52  82 113 153 184 226 273 326
#     4   9  16  26  46  78 107 146 186 217 269 324
#     4   8  17  31  54  78 113 144 178 240 267 320
#     4   9  19  38  60  82 108 144 186 232 284 335
#     4   9  19  27  48  79 116 139 190 229 252 326
#     4   9  21  38  57  79 117 145 183 239 273 325
#
# _framework density 22.109838
#
# number of rings (size 3 to 8) (size 9 to 14) (size 15 to 20)
#    0.750    2.250    0.000    2.250    3.500    0.500 
#    2.250    7.500    0.000    0.000    0.000    0.000 
#    0.000    0.000    0.000    0.000    0.000    0.000 
#
# Total GULP energy -89105.063063 kJ/mol
# GULP energy per Si atom -5569.066441 kJ/mol
# Density = 2.205951 g / cm^3
# Si number density = 22.109838 Si / 1000 Ang^3
#
#
#
# Elastic Constant Matrix: (Units=GPa)
#
#
# Indices 1 2 3 4 5 6 
#
# 1 69.2955 14.7934 21.0575 -0.2411 -20.0941 -4.4497
# 2 14.7934 148.5075 56.3664 -8.6982 -18.7043 -16.4882
# 3 21.0575 56.3664 152.5398 -4.2092 -22.9171 -21.1269
# 4 -0.2411 -8.6982 -4.2092 25.3871 -0.7022 -3.3919
# 5 -20.0941 -18.7043 -22.9171 -0.7022 20.3872 8.6243
# 6 -4.4497 -16.4882 -21.1269 -3.3919 8.6243 36.9353
#
#
#
# Elastic Compliance Matrix: (Units=1/GPa)
#
#
# Indices 1 2 3 4 5 6 
#
# 1 0.020442 0.000479 -0.000072 0.000630 0.021514 -0.002330
# 2 0.000479 0.008511 -0.002098 0.002945 0.005309 0.001687
# 3 -0.000072 -0.002098 0.008756 0.001266 0.006793 0.002593
# 4 0.000630 0.002945 0.001266 0.041391 0.004071 0.004965
# 5 0.021514 0.005309 0.006793 0.004071 0.087659 -0.011247
# 6 -0.002330 0.001687 0.002593 0.004965 -0.011247 0.032112
#
#
# Mechanical properties :
#
#
# Convention : Reuss Voigt Hill
#
# Bulk Modulus (GPa) = 29.13342 61.64192 45.38767
# Shear Modulus (GPa) = 23.39775 35.08360 29.24068
#
# Velocity S-wave (km/s) = 3.25661 3.98777 3.64059
# Velocity P-wave (km/s) = 5.22933 7.01024 6.18423
#
# Compressibility (1/GPa) = 0.03432484
#
# Stress axis : x y z
#
# Youngs Moduli (GPa) = 48.91979 117.49550 114.21266
#
# Poissons Ratio (x) = -0.05627 0.00823
# Poissons Ratio (y) = -0.02343 0.23967
# Poissons Ratio (z) = 0.00353 0.24656
#
# Static dielectric constant tensor:
#      x y z
#    x 1.992070 -0.022620 0.011610 
#    y -0.022620 1.855910 -0.007440 
#    z 0.011610 -0.007440 1.786610 
# 
# From -- ./inp_files/556186.got.cif
#   From: 2010.05.17/outbox.cif.g08.bks.cpg/sg2_279_cif.got.tgz:556186.got - 2010.06.03 11:33:40.
