data_PCOD9089482
_publ_section_title
;
Structure prediction by ZEFSAII (Michael W. Deem and Ramdas Pophale) SiO2 
 PCOD9089482
Probable space group: P -1
;
_chemical_formula_sum "Si O2"
_cell_formula_units_Z 13
_cell_length_a 6.878093
_cell_length_b 10.844305
_cell_length_c 17.719803
_cell_angle_alpha 28.771696
_cell_angle_beta 67.410839
_cell_angle_gamma 58.033806
_cell_volume 529.246363
_symmetry_space_group_name_H-M "P -1"
_symmetry_group_IT_number 2
_symmetry_cell_setting 'triclinic'
loop_
_space_group_symop_operation_xyz
x,y,z
-x,-y,-z
loop_
_atom_site_type_symbol
_atom_site_label
_atom_site_fract_x
_atom_site_fract_y
_atom_site_fract_z
Si Si1 0.850054 0.031179 0.288853
Si Si2 0.511416 0.621979 0.053800
Si Si3 0.142070 0.170973 0.770345
Si Si4 0.000000 0.000000 0.000000
Si Si5 0.799615 0.337053 0.449527
Si Si6 0.766963 0.828925 0.786424
Si Si7 0.150235 0.425589 0.837125
O O1 0.598730 0.289241 0.203540
O O2 0.033726 0.172766 0.183785
O O3 0.874237 0.872472 0.291780
O O4 0.953491 0.827790 0.454119
O O5 0.647289 0.646462 0.093073
O O6 0.593486 0.743588 0.903820
O O7 0.243103 0.858601 0.968943
O O8 0.288750 0.347306 0.672067
O O9 0.913113 0.279990 0.796954
O O10 0.854565 0.842896 0.057666
O O11 0.823342 0.370524 0.340064
O O12 0.670019 0.143342 0.595450
O O13 0.910674 0.604095 0.822285
#
# Coordination Sequence:
#
# PCOD9089482 Si02
#       7
#     2   2   2   1   2   2   2
#     4   9  19  36  58  80 109 149 181 220 264 331
#     4  11  21  33  62  83 111 139 186 231 270 311
#     4  11  21  37  55  86 110 143 183 230 269 327
#     4  10  22  34  58  76 110 146 180 226 272 320
#     4   9  21  33  60  77 113 153 176 217 275 323
#     4   9  19  34  58  84 105 150 181 222 265 332
#     4  10  19  38  57  84 108 145 186 224 267 332
#
# _framework density 24.563227000000001
#
# number of rings (size 3 to 8) (size 9 to 14) (size 15 to 20)
#    0.923    1.231    0.000    5.077    0.000    3.077 
#    0.000    0.000    6.769    4.615    0.000    0.000 
#    0.000    0.000    0.000    0.000    0.000    0.000 
#
# Total GULP energy -72412.461447 kJ/mol
# GULP energy per Si atom -5570.189342 kJ/mol
# Density = 2.450732 g / cm^3
# Si number density = 24.563227 Si / 1000 Ang^3
#
#
#
# Elastic Constant Matrix: (Units=GPa)
#
#
# Indices 1 2 3 4 5 6 
#
# 1 47.9021 21.6571 15.4455 19.6917 13.9647 3.6517
# 2 21.6571 112.3848 30.6505 24.9888 -3.7275 13.1850
# 3 15.4455 30.6505 137.4483 24.3850 3.4608 -1.9895
# 4 19.6917 24.9888 24.3850 39.0237 7.6066 1.2067
# 5 13.9647 -3.7275 3.4608 7.6066 33.2415 2.6165
# 6 3.6517 13.1850 -1.9895 1.2067 2.6165 51.8597
#
#
#
# Elastic Compliance Matrix: (Units=1/GPa)
#
#
# Indices 1 2 3 4 5 6 
#
# 1 0.030098 -0.003643 -0.000447 -0.010503 -0.010569 -0.000433
# 2 -0.003643 0.011699 -0.001363 -0.005588 0.004488 -0.002867
# 3 -0.000447 -0.001363 0.008380 -0.004174 0.000055 0.000794
# 4 -0.010503 -0.005588 -0.004174 0.037961 -0.004573 0.001348
# 5 -0.010569 0.004488 0.000055 -0.004573 0.036233 -0.002117
# 6 -0.000433 -0.002867 0.000794 0.001348 -0.002117 0.020148
#
#
# Mechanical properties :
#
#
# Convention : Reuss Voigt Hill
#
# Bulk Modulus (GPa) = 25.46246 48.13792 36.80019
# Shear Modulus (GPa) = 29.67074 40.15714 34.91394
#
# Velocity S-wave (km/s) = 3.47930 4.04771 3.77422
# Velocity P-wave (km/s) = 5.15066 6.44092 5.83158
#
# Compressibility (1/GPa) = 0.03927351
#
# Stress axis : x y z
#
# Youngs Moduli (GPa) = 33.22429 85.47484 119.33013
#
# Poissons Ratio (x) = 0.31136 0.05332
# Poissons Ratio (y) = 0.12103 0.16261
# Poissons Ratio (z) = 0.01484 0.11647
#
# Static dielectric constant tensor:
#      x y z
#    x 1.977160 -0.096760 0.025630 
#    y -0.096760 2.066330 -0.061630 
#    z 0.025630 -0.061630 2.077270 
# 
# From -- ./inp_files/400749.got.cif
#   From: 2010.05.17/outbox.cif.g08.bks.cpg/sg2_201_cif.got.tgz:400749.got - 2010.06.03 11:33:40.
