data_PCOD9089899
_publ_section_title
;
Structure prediction by ZEFSAII (Michael W. Deem and Ramdas Pophale) SiO2 
 PCOD9089899
Probable space group: P -1
;
_chemical_formula_sum "Si O2"
_cell_formula_units_Z 16
_cell_length_a 21.674782
_cell_length_b 5.647010
_cell_length_c 9.691280
_cell_angle_alpha 55.388069
_cell_angle_beta 45.243942
_cell_angle_gamma 59.051331
_cell_volume 679.854293
_symmetry_space_group_name_H-M "P -1"
_symmetry_group_IT_number 2
_symmetry_cell_setting 'triclinic'
loop_
_space_group_symop_operation_xyz
x,y,z
-x,-y,-z
loop_
_atom_site_type_symbol
_atom_site_label
_atom_site_fract_x
_atom_site_fract_y
_atom_site_fract_z
Si Si1 0.085224 0.235369 0.849395
Si Si2 0.549872 0.067205 0.763371
Si Si3 0.485435 0.743708 0.710278
Si Si4 0.980389 0.812776 0.311137
Si Si5 0.185248 0.352676 0.896780
Si Si6 0.704144 0.288159 0.056712
Si Si7 0.854024 0.595271 0.739634
Si Si8 0.277709 0.824555 0.622553
O O1 0.045623 0.364417 0.724302
O O2 0.114919 0.423661 0.862933
O O3 0.178937 0.017154 0.734636
O O4 0.019151 0.062167 0.089110
O O5 0.526581 0.427017 0.681764
O O6 0.656307 0.007292 0.613616
O O7 0.520468 0.860881 0.759003
O O8 0.500000 0.000000 0.000000
O O9 0.500000 0.000000 0.500000
O O10 0.381496 0.728097 0.891418
O O11 0.890950 0.865142 0.526549
O O12 0.061162 0.666848 0.331936
O O13 0.262433 0.524456 0.678397
O O14 0.151623 0.430381 0.077743
O O15 0.224626 0.011680 0.963949
O O16 0.759827 0.539994 0.855511
O O17 0.679626 0.281810 0.259946
#
# Coordination Sequence:
#
# PCOD9089899 Si02
#       8
#     2   2   2   2   2   2   2   2
#     4  10  21  39  60  87 122 171 211 266 322 417
#     4  12  28  47  70 107 147 180 225 295 355 408
#     4  12  25  45  77 106 134 187 239 284 334 431
#     4  10  20  40  57  88 128 159 217 264 333 389
#     4  10  19  38  62  89 119 173 213 267 329 393
#     4  10  21  39  64  94 127 167 225 270 332 396
#     4  10  21  38  59  88 128 165 204 285 321 386
#     4  10  21  41  64  89 130 172 214 272 342 398
#
# _framework density 23.534455000000001
#
# number of rings (size 3 to 8) (size 9 to 14) (size 15 to 20)
#    0.000    1.500    5.000    1.500    5.250    2.000 
#    2.250    0.000    0.000    0.000    0.000    0.000 
#    0.000    0.000    0.000    0.000    0.000    0.000 
#
# Total GULP energy -89167.478000 kJ/mol
# GULP energy per Si atom -5572.967375 kJ/mol
# Density = 2.348089 g / cm^3
# Si number density = 23.534455 Si / 1000 Ang^3
#
#
#
# Elastic Constant Matrix: (Units=GPa)
#
#
# Indices 1 2 3 4 5 6 
#
# 1 109.6039 31.5161 57.0652 -9.5997 -19.7006 29.1329
# 2 31.5161 62.2986 7.1118 0.2804 -10.2868 4.7977
# 3 57.0652 7.1118 160.4398 -8.5999 -32.8204 15.5590
# 4 -9.5997 0.2804 -8.5999 17.6716 4.5580 -4.2612
# 5 -19.7006 -10.2868 -32.8204 4.5580 37.8026 -4.9646
# 6 29.1329 4.7977 15.5590 -4.2612 -4.9646 39.5844
#
#
#
# Elastic Compliance Matrix: (Units=1/GPa)
#
#
# Indices 1 2 3 4 5 6 
#
# 1 0.016201 -0.006848 -0.004091 0.004444 0.001331 -0.008840
# 2 -0.006848 0.019860 0.002050 -0.003675 0.004318 0.001973
# 3 -0.004091 0.002050 0.008856 0.000514 0.006066 0.000098
# 4 0.004444 -0.003675 0.000514 0.061370 -0.005254 0.002920
# 5 0.001331 0.004318 0.006066 -0.005254 0.034200 -0.000163
# 6 -0.008840 0.001973 0.000098 0.002920 -0.000163 0.031785
#
#
# Mechanical properties :
#
#
# Convention : Reuss Voigt Hill
#
# Bulk Modulus (GPa) = 36.84784 58.19205 47.51994
# Shear Modulus (GPa) = 25.11350 34.78834 29.95092
#
# Velocity S-wave (km/s) = 3.27019 3.84889 3.57128
# Velocity P-wave (km/s) = 5.47264 6.67323 6.10253
#
# Compressibility (1/GPa) = 0.02713863
#
# Stress axis : x y z
#
# Youngs Moduli (GPa) = 61.72377 50.35325 112.91778
#
# Poissons Ratio (x) = 0.34484 0.46196
# Poissons Ratio (y) = 0.42271 -0.23153
# Poissons Ratio (z) = 0.25252 -0.10324
#
# Static dielectric constant tensor:
#      x y z
#    x 1.936900 0.026030 -0.006930 
#    y 0.026030 2.004770 0.025340 
#    z -0.006930 0.025340 1.933950 
# 
# From -- ./inp_files/288597.got.cif
#   From: 2010.05.17/outbox.cif.g08.bks.cpg/sg2_145_cif.got.tgz:288597.got - 2010.06.03 11:33:40.
