data_PCOD9089284
_publ_section_title
;
Structure prediction by ZEFSAII (Michael W. Deem and Ramdas Pophale) SiO2 
 PCOD9089284
Probable space group: P -1
;
_chemical_formula_sum "Si O2"
_cell_formula_units_Z 16
_cell_length_a 12.813218
_cell_length_b 5.522915
_cell_length_c 10.534317
_cell_angle_alpha 88.975793
_cell_angle_beta 116.304658
_cell_angle_gamma 109.318034
_cell_volume 623.311617
_symmetry_space_group_name_H-M "P -1"
_symmetry_group_IT_number 2
_symmetry_cell_setting 'triclinic'
loop_
_space_group_symop_operation_xyz
x,y,z
-x,-y,-z
loop_
_atom_site_type_symbol
_atom_site_label
_atom_site_fract_x
_atom_site_fract_y
_atom_site_fract_z
Si Si1 0.143050 0.575501 0.536842
Si Si2 0.211618 0.113086 0.556636
Si Si3 0.678748 0.088140 0.828286
Si Si4 0.999395 0.054343 0.774523
Si Si5 0.488963 0.786465 0.102669
Si Si6 0.111255 0.534419 0.219262
Si Si7 0.290621 0.242852 0.917784
Si Si8 0.577582 0.804151 0.537874
O O1 0.203636 0.370125 0.610076
O O2 0.160016 0.582879 0.392117
O O3 0.000000 0.500000 0.500000
O O4 0.203128 0.855405 0.629705
O O5 0.326223 0.160254 0.524380
O O6 0.084966 0.011843 0.399071
O O7 0.546242 0.115949 0.785827
O O8 0.778839 0.351267 0.824067
O O9 0.660524 0.879875 0.709762
O O10 0.710358 0.975480 0.976541
O O11 0.962195 0.773801 0.825249
O O12 0.144932 0.177024 0.821801
O O13 0.966884 0.274557 0.831661
O O14 0.618354 0.745247 0.153202
O O15 0.370499 0.523983 0.017070
O O16 0.500000 0.000000 0.000000
O O17 0.500000 0.500000 0.500000
O O18 0.500000 0.000000 0.500000
#
# Coordination Sequence:
#
# PCOD9089284 Si02
#       8
#     2   2   2   2   2   2   2   2
#     4  10  19  37  67  90 130 181 221 275 355 397
#     4  10  21  43  63  96 135 172 224 291 342 411
#     4  11  24  44  72  97 141 184 234 296 349 416
#     4  10  22  40  68 102 140 174 216 282 349 422
#     4   9  22  44  69  98 143 186 234 282 342 419
#     4  10  23  39  64 100 143 175 225 280 352 410
#     4  10  23  42  73 102 142 185 231 282 355 423
#     4  12  27  45  71  97 138 186 241 294 349 409
#
# _framework density 25.669343999999999
#
# number of rings (size 3 to 8) (size 9 to 14) (size 15 to 20)
#    0.000    1.750    2.500    1.125    8.750    1.000 
#    0.000    7.500    5.500    0.000    0.000    0.000 
#    0.000    0.000    0.000    0.000    0.000    0.000 
#
# Total GULP energy -89514.338094 kJ/mol
# GULP energy per Si atom -5594.646131 kJ/mol
# Density = 2.561092 g / cm^3
# Si number density = 25.669344 Si / 1000 Ang^3
#
#
#
# Elastic Constant Matrix: (Units=GPa)
#
#
# Indices 1 2 3 4 5 6 
#
# 1 188.6984 99.3992 45.5951 -19.5619 0.4068 2.2538
# 2 99.3992 229.0660 27.6476 -2.0951 4.2177 -1.2311
# 3 45.5951 27.6476 61.2844 -12.8539 3.0222 7.2282
# 4 -19.5619 -2.0951 -12.8539 23.8553 8.6987 1.8038
# 5 0.4068 4.2177 3.0222 8.6987 48.0850 -1.5525
# 6 2.2538 -1.2311 7.2282 1.8038 -1.5525 61.9989
#
#
#
# Elastic Compliance Matrix: (Units=1/GPa)
#
#
# Indices 1 2 3 4 5 6 
#
# 1 0.008342 -0.003112 -0.003793 0.004677 -0.000408 -0.000069
# 2 -0.003112 0.005801 -0.000892 -0.002573 0.000052 0.000409
# 3 -0.003793 -0.000892 0.022161 0.010137 -0.003208 -0.002839
# 4 0.004677 -0.002573 0.010137 0.055074 -0.010519 -0.003269
# 5 -0.000408 0.000052 -0.003208 -0.010519 0.022941 0.001270
# 6 -0.000069 0.000409 -0.002839 -0.003269 0.001270 0.016598
#
#
# Mechanical properties :
#
#
# Convention : Reuss Voigt Hill
#
# Bulk Modulus (GPa) = 48.28729 91.59250 69.93990
# Shear Modulus (GPa) = 32.59131 47.21496 39.90314
#
# Velocity S-wave (km/s) = 3.56709 4.29342 3.94700
# Velocity P-wave (km/s) = 5.98478 7.76769 6.93378
#
# Compressibility (1/GPa) = 0.02070938
#
# Stress axis : x y z
#
# Youngs Moduli (GPa) = 119.87677 172.37231 45.12425
#
# Poissons Ratio (x) = 0.53644 0.17116
# Poissons Ratio (y) = 0.37307 0.04027
# Poissons Ratio (z) = 0.45470 0.15381
#
# Static dielectric constant tensor:
#      x y z
#    x 1.988800 -0.032860 0.067120 
#    y -0.032860 2.010590 0.126600 
#    z 0.067120 0.126600 2.010620 
# 
# From -- ./inp_files/410609.got.cif
#   From: 2010.05.17/outbox.cif.g08.bks.cpg/sg2_206_cif.got.tgz:410609.got - 2010.06.03 11:33:40.
