data_PCOD9089564
_publ_section_title
;
Structure prediction by ZEFSAII (Michael W. Deem and Ramdas Pophale) SiO2 
 PCOD9089564
Probable space group: P -1
;
_chemical_formula_sum "Si O2"
_cell_formula_units_Z 14
_cell_length_a 12.254734
_cell_length_b 11.252317
_cell_length_c 13.005214
_cell_angle_alpha 38.883704
_cell_angle_beta 70.304683
_cell_angle_gamma 41.625741
_cell_volume 605.300761
_symmetry_space_group_name_H-M "P -1"
_symmetry_group_IT_number 2
_symmetry_cell_setting 'triclinic'
loop_
_space_group_symop_operation_xyz
x,y,z
-x,-y,-z
loop_
_atom_site_type_symbol
_atom_site_label
_atom_site_fract_x
_atom_site_fract_y
_atom_site_fract_z
Si Si1 0.289775 0.422385 0.904436
Si Si2 0.668668 0.097318 0.987504
Si Si3 0.626102 0.877826 0.700997
Si Si4 0.997151 0.400030 0.279549
Si Si5 0.786642 0.291870 0.928737
Si Si6 0.755082 0.803683 0.377247
Si Si7 0.169364 0.962282 0.693186
O O1 0.113615 0.570075 0.792759
O O2 0.237901 0.697288 0.781454
O O3 0.487370 0.219819 0.911672
O O4 0.324132 0.245174 0.113185
O O5 0.654617 0.335035 0.864196
O O6 0.873902 0.761373 0.090881
O O7 0.678588 0.986968 0.170825
O O8 0.769305 0.863856 0.640829
O O9 0.378749 0.203483 0.553983
O O10 0.703219 0.605841 0.782920
O O11 0.986669 0.296885 0.459225
O O12 0.841000 0.110881 0.140515
O O13 0.000000 0.000000 0.000000
O O14 0.693885 0.037432 0.326598
O O15 0.000000 0.500000 0.500000
#
# Coordination Sequence:
#
# PCOD9089564 Si02
#       7
#     2   2   2   2   2   2   2
#     4  10  22  40  59  83 122 166 200 230 289 366
#     4  10  20  36  63  86 115 160 200 237 296 354
#     4  10  22  37  62  90 115 159 199 244 299 350
#     4  12  21  37  61  91 121 155 200 246 288 350
#     4  10  19  38  62  90 121 153 197 250 299 357
#     4  10  19  38  59  86 120 147 192 254 299 347
#     4  10  22  37  61  87 121 157 193 247 304 342
#
# _framework density 23.128996999999998
#
# number of rings (size 3 to 8) (size 9 to 14) (size 15 to 20)
#    0.000    1.714    2.857    2.143    0.000    4.000 
#    0.000    1.429    0.000    1.714    0.000    0.000 
#    0.000    0.000    0.000    0.000    0.000    0.000 
#
# Total GULP energy -77954.061804 kJ/mol
# GULP energy per Si atom -5568.147272 kJ/mol
# Density = 2.307635 g / cm^3
# Si number density = 23.128997 Si / 1000 Ang^3
#
#
#
# Elastic Constant Matrix: (Units=GPa)
#
#
# Indices 1 2 3 4 5 6 
#
# 1 162.1951 45.7973 22.6000 -3.7002 34.1634 -18.1277
# 2 45.7973 52.1804 3.2745 -14.0265 20.4622 -16.3128
# 3 22.6000 3.2745 37.6238 0.0192 7.5847 -8.5860
# 4 -3.7002 -14.0265 0.0192 31.6966 3.8621 8.2297
# 5 34.1634 20.4622 7.5847 3.8621 26.7920 -8.2551
# 6 -18.1277 -16.3128 -8.5860 8.2297 -8.2551 34.9986
#
#
#
# Elastic Compliance Matrix: (Units=1/GPa)
#
#
# Indices 1 2 3 4 5 6 
#
# 1 0.009791 -0.005860 -0.004023 -0.000586 -0.006823 -0.000118
# 2 -0.005860 0.041954 0.006986 0.019277 -0.027072 0.007315
# 3 -0.004023 0.006986 0.031391 0.001734 -0.007262 0.006753
# 4 -0.000586 0.019277 0.001734 0.044576 -0.022986 -0.006797
# 5 -0.006823 -0.027072 -0.007262 -0.022986 0.073555 0.004821
# 6 -0.000118 0.007315 0.006753 -0.006797 0.004821 0.036313
#
#
# Mechanical properties :
#
#
# Convention : Reuss Voigt Hill
#
# Bulk Modulus (GPa) = 12.92951 43.92699 28.42825
# Shear Modulus (GPa) = 18.57674 30.71927 24.64801
#
# Velocity S-wave (km/s) = 2.83712 3.64836 3.26801
# Velocity P-wave (km/s) = 4.04161 6.06472 5.15342
#
# Compressibility (1/GPa) = 0.07734247
#
# Stress axis : x y z
#
# Youngs Moduli (GPa) = 102.13494 23.83588 31.85582
#
# Poissons Ratio (x) = 0.13967 0.12814
# Poissons Ratio (y) = 0.59849 -0.22253
# Poissons Ratio (z) = 0.41085 -0.16651
#
# Static dielectric constant tensor:
#      x y z
#    x 1.900090 -0.066400 0.024690 
#    y -0.066400 1.995740 -0.136720 
#    z 0.024690 -0.136720 1.976240 
# 
# From -- ./inp_files/176843.got.cif
#   From: 2010.05.17/outbox.cif.g08.bks.cpg/sg2_89_cif.got.tgz:176843.got - 2010.06.03 11:33:40.
