data_PCOD9089562
_publ_section_title
;
Structure prediction by ZEFSAII (Michael W. Deem and Ramdas Pophale) SiO2 
 PCOD9089562
Probable space group: P -1
;
_chemical_formula_sum "Si O2"
_cell_formula_units_Z 16
_cell_length_a 8.811266
_cell_length_b 11.732006
_cell_length_c 12.211226
_cell_angle_alpha 46.616993
_cell_angle_beta 53.740234
_cell_angle_gamma 70.656877
_cell_volume 733.675154
_symmetry_space_group_name_H-M "P -1"
_symmetry_group_IT_number 2
_symmetry_cell_setting 'triclinic'
loop_
_space_group_symop_operation_xyz
x,y,z
-x,-y,-z
loop_
_atom_site_type_symbol
_atom_site_label
_atom_site_fract_x
_atom_site_fract_y
_atom_site_fract_z
Si Si1 0.736230 0.420598 0.228077
Si Si2 0.142515 0.383839 0.394139
Si Si3 0.505515 0.595869 0.046967
Si Si4 0.927354 0.123915 0.290554
Si Si5 0.898535 0.597960 0.256408
Si Si6 0.247158 0.145319 0.320211
Si Si7 0.116706 0.920060 0.910054
Si Si8 0.661271 0.768712 0.398818
O O1 0.672099 0.541446 0.086591
O O2 0.866962 0.298347 0.203969
O O3 0.838528 0.513213 0.224709
O O4 0.542732 0.313519 0.421632
O O5 0.311726 0.529596 0.232187
O O6 0.170986 0.278308 0.343622
O O7 0.180868 0.275866 0.551400
O O8 0.953188 0.463730 0.405006
O O9 0.500000 0.500000 0.000000
O O10 0.557555 0.775401 0.868845
O O11 0.960464 0.076747 0.183366
O O12 0.104751 0.110055 0.302680
O O13 0.760500 0.004471 0.498356
O O14 0.726727 0.686523 0.315372
O O15 0.079685 0.733321 0.075657
O O16 0.311138 0.041375 0.745331
O O17 0.000000 0.000000 0.000000
#
# Coordination Sequence:
#
# PCOD9089562 Si02
#       8
#     2   2   2   2   2   2   2   2
#     4  11  23  38  62  93 118 156 206 249 301 354
#     4  10  19  38  59  86 118 159 203 239 300 358
#     4   9  21  36  54  83 127 148 190 253 299 352
#     4  11  22  36  63  88 121 159 197 250 300 357
#     4  11  22  38  64  87 119 161 204 246 294 359
#     4  10  20  37  56  90 125 152 195 250 306 349
#     4  10  23  39  57  84 120 158 197 242 296 355
#     4  10  22  42  58  87 126 160 198 247 299 358
#
# _framework density 21.808015999999999
#
# number of rings (size 3 to 8) (size 9 to 14) (size 15 to 20)
#    0.000    1.750    2.500    1.500    3.500    2.500 
#    0.000    0.000    0.000    0.000    0.000   17.500 
#    0.000    0.000    0.000    0.000    0.000    0.000 
#
# Total GULP energy -89281.043390 kJ/mol
# GULP energy per Si atom -5580.065212 kJ/mol
# Density = 2.175838 g / cm^3
# Si number density = 21.808016 Si / 1000 Ang^3
#
#
#
# Elastic Constant Matrix: (Units=GPa)
#
#
# Indices 1 2 3 4 5 6 
#
# 1 61.3131 49.4344 18.6914 -3.8030 16.2682 2.9803
# 2 49.4344 100.5178 27.8427 -1.5404 13.0184 25.1239
# 3 18.6914 27.8427 101.1927 -10.8841 6.4627 8.7193
# 4 -3.8030 -1.5404 -10.8841 33.2052 2.6096 3.9342
# 5 16.2682 13.0184 6.4627 2.6096 32.6589 -4.6503
# 6 2.9803 25.1239 8.7193 3.9342 -4.6503 22.8827
#
#
#
# Elastic Compliance Matrix: (Units=1/GPa)
#
#
# Indices 1 2 3 4 5 6 
#
# 1 0.032994 -0.018751 -0.001743 0.001017 -0.006496 0.015459
# 2 -0.018751 0.027464 -0.000935 0.002708 -0.005767 -0.028993
# 3 -0.001743 -0.000935 0.011392 0.004140 -0.001941 -0.004193
# 4 0.001017 0.002708 0.004140 0.033652 -0.006781 -0.011848
# 5 -0.006496 -0.005767 -0.001941 -0.006781 0.039517 0.017114
# 6 0.015459 -0.028993 -0.004193 -0.011848 0.017114 0.080634
#
#
# Mechanical properties :
#
#
# Convention : Reuss Voigt Hill
#
# Bulk Modulus (GPa) = 34.49189 50.55118 42.52153
# Shear Modulus (GPa) = 17.97423 28.88635 23.43029
#
# Velocity S-wave (km/s) = 2.87401 3.64342 3.28134
# Velocity P-wave (km/s) = 5.18302 6.39764 5.82209
#
# Compressibility (1/GPa) = 0.02899232
#
# Stress axis : x y z
#
# Youngs Moduli (GPa) = 30.30821 36.41077 87.78036
#
# Poissons Ratio (x) = 0.68273 0.15301
# Poissons Ratio (y) = 0.56830 0.08211
# Poissons Ratio (z) = 0.05283 0.03406
#
# Static dielectric constant tensor:
#      x y z
#    x 1.777170 -0.002140 -0.030870 
#    y -0.002140 1.771410 -0.025960 
#    z -0.030870 -0.025960 1.867420 
# 
# From -- ./inp_files/278593.got.cif
#   From: 2010.05.17/outbox.cif.g08.bks.cpg/sg2_140_cif.got.tgz:278593.got - 2010.06.03 11:33:40.
