data_PCOD9089278
_publ_section_title
;
Structure prediction by ZEFSAII (Michael W. Deem and Ramdas Pophale) SiO2 
 PCOD9089278
Probable space group: P -1
;
_chemical_formula_sum "Si O2"
_cell_formula_units_Z 14
_cell_length_a 8.857202
_cell_length_b 11.618313
_cell_length_c 8.032024
_cell_angle_alpha 125.667367
_cell_angle_beta 92.494106
_cell_angle_gamma 82.892515
_cell_volume 665.915073
_symmetry_space_group_name_H-M "P -1"
_symmetry_group_IT_number 2
_symmetry_cell_setting 'triclinic'
loop_
_space_group_symop_operation_xyz
x,y,z
-x,-y,-z
loop_
_atom_site_type_symbol
_atom_site_label
_atom_site_fract_x
_atom_site_fract_y
_atom_site_fract_z
Si Si1 0.254783 0.017040 0.960291
Si Si2 0.790806 0.690333 0.935963
Si Si3 0.270062 0.117369 0.589697
Si Si4 0.044344 0.068238 0.278618
Si Si5 0.054367 0.645833 0.689794
Si Si6 0.350934 0.568631 0.455766
Si Si7 0.443622 0.853629 0.579157
O O1 0.398936 0.918195 0.813719
O O2 0.111138 0.999399 0.813379
O O3 0.279158 0.181391 0.081416
O O4 0.181108 0.983465 0.104236
O O5 0.721251 0.548650 0.758193
O O6 0.971837 0.670336 0.884602
O O7 0.751742 0.754522 0.169822
O O8 0.110517 0.089673 0.479701
O O9 0.382981 0.156491 0.481008
O O10 0.351945 0.971980 0.554113
O O11 0.010833 0.222092 0.318207
O O12 0.232616 0.626817 0.645119
O O13 0.000000 0.500000 0.500000
O O14 0.500000 0.500000 0.500000
O O15 0.385670 0.699910 0.452663
#
# Coordination Sequence:
#
# PCOD9089278 Si02
#       7
#     2   2   2   2   2   2   2
#     4   9  19  38  63  92 116 152 213 257 278 364
#     4   9  21  41  61  90 125 154 203 254 300 366
#     4  10  23  41  62  91 129 164 189 254 317 363
#     4  10  19  37  67  90 118 159 205 251 306 349
#     4   9  19  38  63  89 120 153 210 258 284 362
#     4  11  23  41  66  89 120 166 206 254 300 353
#     4  10  22  41  60  92 128 159 205 248 300 374
#
# _framework density 21.023703000000001
#
# number of rings (size 3 to 8) (size 9 to 14) (size 15 to 20)
#    0.000    2.286    1.429    0.000    6.000    3.429 
#    5.143    4.286    6.286    0.000    0.000    0.000 
#    0.000    0.000    0.000    0.000    0.000    0.000 
#
# Total GULP energy -78072.000709 kJ/mol
# GULP energy per Si atom -5576.571479 kJ/mol
# Density = 2.097585 g / cm^3
# Si number density = 21.023703 Si / 1000 Ang^3
#
#
#
# Elastic Constant Matrix: (Units=GPa)
#
#
# Indices 1 2 3 4 5 6 
#
# 1 114.7527 43.8470 60.7761 -5.3604 -19.8065 13.2872
# 2 43.8470 56.0636 38.9480 24.3710 5.7543 20.2708
# 3 60.7761 38.9480 113.0531 7.9515 -9.6248 0.9225
# 4 -5.3604 24.3710 7.9515 31.9581 6.1555 9.2726
# 5 -19.8065 5.7543 -9.6248 6.1555 45.6664 0.4391
# 6 13.2872 20.2708 0.9225 9.2726 0.4391 34.7885
#
#
#
# Elastic Compliance Matrix: (Units=1/GPa)
#
#
# Indices 1 2 3 4 5 6 
#
# 1 0.024550 -0.027868 -0.004478 0.024479 0.009913 0.000330
# 2 -0.027868 0.078377 -0.009548 -0.052928 -0.016644 -0.020455
# 3 -0.004478 -0.009548 0.014639 0.000511 0.002213 0.006721
# 4 0.024479 -0.052928 0.000511 0.073693 0.007444 0.001741
# 5 0.009913 -0.016644 0.002213 0.007444 0.027724 0.003519
# 6 0.000330 -0.020455 0.006721 0.001741 0.003519 0.039851
#
#
# Mechanical properties :
#
#
# Convention : Reuss Voigt Hill
#
# Bulk Modulus (GPa) = 29.60307 63.44572 46.52440
# Shear Modulus (GPa) = 14.12902 31.83583 22.98242
#
# Velocity S-wave (km/s) = 2.59521 3.89560 3.30989
# Velocity P-wave (km/s) = 4.80536 7.10478 6.06504
#
# Compressibility (1/GPa) = 0.03378028
#
# Stress axis : x y z
#
# Youngs Moduli (GPa) = 40.73238 12.75883 68.30865
#
# Poissons Ratio (x) = 0.35556 0.30586
# Poissons Ratio (y) = 1.13513 0.65219
# Poissons Ratio (z) = 0.18239 0.12182
#
# Static dielectric constant tensor:
#      x y z
#    x 1.785380 0.016790 -0.032370 
#    y 0.016790 1.741710 -0.009120 
#    z -0.032370 -0.009120 1.809420 
# 
# From -- ./inp_files/153783.got.cif
#   From: 2010.05.17/outbox.cif.g08.bks.cpg/sg2_77_cif.got.tgz:153783.got - 2010.06.03 11:33:40.
