data_PCOD9089782
_publ_section_title
;
Structure prediction by ZEFSAII (Michael W. Deem and Ramdas Pophale) SiO2 
 PCOD9089782
Probable space group: P -1
;
_chemical_formula_sum "Si O2"
_cell_formula_units_Z 16
_cell_length_a 7.905355
_cell_length_b 9.794142
_cell_length_c 20.556132
_cell_angle_alpha 56.025213
_cell_angle_beta 129.971452
_cell_angle_gamma 81.435760
_cell_volume 607.992316
_symmetry_space_group_name_H-M "P -1"
_symmetry_group_IT_number 2
_symmetry_cell_setting 'triclinic'
loop_
_space_group_symop_operation_xyz
x,y,z
-x,-y,-z
loop_
_atom_site_type_symbol
_atom_site_label
_atom_site_fract_x
_atom_site_fract_y
_atom_site_fract_z
Si Si1 0.369320 0.047349 0.693925
Si Si2 0.371633 0.389508 0.024272
Si Si3 0.749830 0.009778 0.566142
Si Si4 0.434464 0.765132 0.668480
Si Si5 0.271306 0.468191 0.403396
Si Si6 0.648570 0.732822 0.091520
Si Si7 0.604451 0.593312 0.404041
Si Si8 0.374402 0.569255 0.092802
O O1 0.508286 0.153124 0.709778
O O2 0.923974 0.337650 0.503699
O O3 0.442361 0.875114 0.817872
O O4 0.480878 0.894421 0.693338
O O5 0.160247 0.590379 0.981459
O O6 0.500000 0.500000 0.000000
O O7 0.257276 0.370716 0.933025
O O8 0.530900 0.248244 0.395808
O O9 0.672751 0.143500 0.579654
O O10 0.500000 0.000000 0.500000
O O11 0.181462 0.729131 0.734230
O O12 0.668646 0.481991 0.833899
O O13 0.000000 0.000000 0.500000
O O14 0.308883 0.628162 0.339743
O O15 0.190643 0.516384 0.446159
O O16 0.981694 0.527015 0.279552
O O17 0.347673 0.777078 0.025111
O O18 0.500000 0.000000 0.000000
#
# Coordination Sequence:
#
# PCOD9089782 Si02
#       8
#     2   2   2   2   2   2   2   2
#     4  10  19  38  61  90 117 159 195 244 303 368
#     4   9  19  37  59  80 111 156 206 240 281 349
#     4  11  19  33  58  91 118 144 187 254 315 347
#     4   9  18  31  56  86 113 142 189 238 296 352
#     4  11  22  38  56  91 125 158 193 246 315 358
#     4  11  22  37  59  84 116 164 209 242 283 363
#     4  10  22  36  60  90 128 151 189 251 320 368
#     4   9  19  37  60  84 113 153 200 249 296 351
#
# _framework density 26.316123000000001
#
# number of rings (size 3 to 8) (size 9 to 14) (size 15 to 20)
#    0.000    2.000    1.250    3.750    1.750    1.000 
#    2.250    0.625    0.000    1.500    0.000    0.000 
#    0.000    0.000    0.000    0.000    0.000    0.000 
#
# Total GULP energy -89113.970964 kJ/mol
# GULP energy per Si atom -5569.623185 kJ/mol
# Density = 2.625623 g / cm^3
# Si number density = 26.316123 Si / 1000 Ang^3
#
#
#
# Elastic Constant Matrix: (Units=GPa)
#
#
# Indices 1 2 3 4 5 6 
#
# 1 76.6839 28.9215 19.0837 4.3457 -21.3518 32.7550
# 2 28.9215 160.6866 45.6574 8.3035 -12.0355 30.3516
# 3 19.0837 45.6574 83.0656 -0.5239 -12.6243 17.2289
# 4 4.3457 8.3035 -0.5239 51.0866 10.0760 -4.7762
# 5 -21.3518 -12.0355 -12.6243 10.0760 43.9942 2.2444
# 6 32.7550 30.3516 17.2289 -4.7762 2.2444 45.7020
#
#
#
# Elastic Compliance Matrix: (Units=1/GPa)
#
#
# Indices 1 2 3 4 5 6 
#
# 1 0.026685 0.000732 0.000274 -0.007541 0.016043 -0.021291
# 2 0.000732 0.008322 -0.003302 -0.002427 0.002505 -0.005183
# 3 0.000274 -0.003302 0.015206 -0.000472 0.003904 -0.003977
# 4 -0.007541 -0.002427 -0.000472 0.023605 -0.010385 0.010172
# 5 0.016043 0.002505 0.003904 -0.010385 0.035592 -0.017467
# 6 -0.021291 -0.005183 -0.003977 0.010172 -0.017467 0.044003
#
#
# Mechanical properties :
#
#
# Convention : Reuss Voigt Hill
#
# Bulk Modulus (GPa) = 21.92004 56.41791 39.16898
# Shear Modulus (GPa) = 28.86658 43.27478 36.07068
#
# Velocity S-wave (km/s) = 3.31557 4.05955 3.70627
# Velocity P-wave (km/s) = 4.79634 6.59229 5.76468
#
# Compressibility (1/GPa) = 0.04562035
#
# Stress axis : x y z
#
# Youngs Moduli (GPa) = 37.47444 120.16582 65.76406
#
# Poissons Ratio (x) = -0.08798 -0.01799
# Poissons Ratio (y) = -0.02744 0.21714
# Poissons Ratio (z) = -0.01025 0.39677
#
# Static dielectric constant tensor:
#      x y z
#    x 2.169950 0.020760 -0.005050 
#    y 0.020760 2.051810 -0.017400 
#    z -0.005050 -0.017400 2.217460 
# 
# From -- ./inp_files/345399.got.cif
#   From: 2010.05.17/outbox.cif.g08.bks.cpg/sg2_173_cif.got.tgz:345399.got - 2010.06.03 11:33:40.
