data_PCOD9089146
_publ_section_title
;
Structure prediction by ZEFSAII (Michael W. Deem and Ramdas Pophale) SiO2 
 PCOD9089146
Probable space group: P -1
;
_chemical_formula_sum "Si O2"
_cell_formula_units_Z 16
_cell_length_a 12.467924
_cell_length_b 8.914369
_cell_length_c 19.704579
_cell_angle_alpha 57.902311
_cell_angle_beta 36.625444
_cell_angle_gamma 33.429851
_cell_volume 652.847389
_symmetry_space_group_name_H-M "P -1"
_symmetry_group_IT_number 2
_symmetry_cell_setting 'triclinic'
loop_
_space_group_symop_operation_xyz
x,y,z
-x,-y,-z
loop_
_atom_site_type_symbol
_atom_site_label
_atom_site_fract_x
_atom_site_fract_y
_atom_site_fract_z
Si Si1 0.330601 0.305285 0.480590
Si Si2 0.173292 0.813419 0.118097
Si Si3 0.712667 0.684584 0.271332
Si Si4 0.357621 0.219252 0.869579
Si Si5 0.810502 0.007988 0.795384
Si Si6 0.739597 0.607428 0.763091
Si Si7 0.338281 0.878833 0.780038
Si Si8 0.353007 0.787947 0.537208
O O1 0.478668 0.334347 0.446883
O O2 0.976541 0.548436 0.618257
O O3 0.500000 0.000000 0.500000
O O4 0.419468 0.281048 0.365021
O O5 0.213853 0.925857 0.128823
O O6 0.068274 0.704970 0.227240
O O7 0.919301 0.049902 0.133277
O O8 0.500000 0.500000 0.000000
O O9 0.608442 0.731682 0.235971
O O10 0.806363 0.814558 0.199996
O O11 0.450482 0.862912 0.417906
O O12 0.982351 0.333287 0.234275
O O13 0.519333 0.200332 0.851522
O O14 0.532820 0.890141 0.850593
O O15 0.000000 0.500000 0.000000
O O16 0.000134 0.024406 0.666238
O O17 0.517593 0.689086 0.802530
O O18 0.500000 0.500000 0.500000
#
# Coordination Sequence:
#
# PCOD9089146 Si02
#       8
#     2   2   2   2   2   2   2   2
#     4  12  19  40  71  98 134 172 221 271 336 403
#     4  12  27  43  68  98 137 179 219 275 340 390
#     4  10  23  42  71  96 129 176 220 270 326 399
#     4  11  27  46  68  95 130 180 233 266 318 401
#     4  11  24  44  66  97 133 174 215 278 334 385
#     4  11  25  45  68  98 135 175 225 278 324 400
#     4  11  23  43  69 101 130 179 222 270 335 395
#     4  10  19  37  65  95 131 165 210 267 333 388
#
# _framework density 24.508023999999999
#
# number of rings (size 3 to 8) (size 9 to 14) (size 15 to 20)
#    0.000    1.000    3.750    2.625    5.250    2.500 
#    0.000    0.000    0.000    0.000    0.000    0.000 
#    0.000    0.000    0.000    0.000    0.000    0.000 
#
# Total GULP energy -89480.109631 kJ/mol
# GULP energy per Si atom -5592.506852 kJ/mol
# Density = 2.445224 g / cm^3
# Si number density = 24.508024 Si / 1000 Ang^3
#
#
#
# Elastic Constant Matrix: (Units=GPa)
#
#
# Indices 1 2 3 4 5 6 
#
# 1 190.8824 6.9881 35.8906 19.7611 -22.3935 -5.0496
# 2 6.9881 50.1273 -3.9253 12.3840 2.7131 -4.2247
# 3 35.8906 -3.9253 104.1023 25.0681 -4.6647 -2.1245
# 4 19.7611 12.3840 25.0681 29.4526 -3.6076 7.2566
# 5 -22.3935 2.7131 -4.6647 -3.6076 34.2963 14.7266
# 6 -5.0496 -4.2247 -2.1245 7.2566 14.7266 30.3622
#
#
#
# Elastic Compliance Matrix: (Units=1/GPa)
#
#
# Indices 1 2 3 4 5 6 
#
# 1 0.006204 -0.000812 -0.001564 -0.001826 0.004011 -0.000700
# 2 -0.000812 0.027454 0.006197 -0.020963 -0.010085 0.014020
# 3 -0.001564 0.006197 0.014206 -0.016091 -0.004558 0.007653
# 4 -0.001826 -0.020963 -0.016091 0.067004 0.017769 -0.028979
# 5 0.004011 -0.010085 -0.004558 0.017769 0.045596 -0.027418
# 6 -0.000700 0.014020 0.007653 -0.028979 -0.027418 0.055530
#
#
# Mechanical properties :
#
#
# Convention : Reuss Voigt Hill
#
# Bulk Modulus (GPa) = 18.01638 47.00208 32.50923
# Shear Modulus (GPa) = 22.04058 39.23278 30.63668
#
# Velocity S-wave (km/s) = 3.00212 4.00536 3.53946
# Velocity P-wave (km/s) = 4.40274 6.37263 5.47698
#
# Compressibility (1/GPa) = 0.05550504
#
# Stress axis : x y z
#
# Youngs Moduli (GPa) = 161.19412 36.42434 70.39453
#
# Poissons Ratio (x) = 0.02959 0.11012
# Poissons Ratio (y) = 0.13095 -0.43627
# Poissons Ratio (z) = 0.25217 -0.22574
#
# Static dielectric constant tensor:
#      x y z
#    x 1.189770 0.064130 0.110880 
#    y 0.064130 1.975850 -0.076740 
#    z 0.110880 -0.076740 2.027640 
# 
# From -- ./inp_files/346482.got.cif
#   From: 2010.05.17/outbox.cif.g08.bks.cpg/sg2_174_cif.got.tgz:346482.got - 2010.06.03 11:33:40.
