data_PCOD9089731
_publ_section_title
;
Structure prediction by ZEFSAII (Michael W. Deem and Ramdas Pophale) SiO2 
 PCOD9089731
Probable space group: P -1
;
_chemical_formula_sum "Si O2"
_cell_formula_units_Z 16
_cell_length_a 5.437373
_cell_length_b 5.589225
_cell_length_c 25.056598
_cell_angle_alpha 126.428120
_cell_angle_beta 72.274304
_cell_angle_gamma 101.125090
_cell_volume 583.533665
_symmetry_space_group_name_H-M "P -1"
_symmetry_group_IT_number 2
_symmetry_cell_setting 'triclinic'
loop_
_space_group_symop_operation_xyz
x,y,z
-x,-y,-z
loop_
_atom_site_type_symbol
_atom_site_label
_atom_site_fract_x
_atom_site_fract_y
_atom_site_fract_z
Si Si1 0.486824 0.862273 0.541874
Si Si2 0.923443 0.796330 0.576051
Si Si3 0.724121 0.635091 0.680708
Si Si4 0.203189 0.328645 0.081051
Si Si5 0.327681 0.703491 0.214179
Si Si6 0.143867 0.490023 0.709937
Si Si7 0.192364 0.222376 0.954843
Si Si8 0.190005 0.155413 0.830694
O O1 0.500000 0.500000 0.500000
O O2 0.742543 0.971180 0.570465
O O3 0.200713 0.938077 0.592394
O O4 0.500000 0.000000 0.500000
O O5 0.751179 0.711372 0.626779
O O6 0.000000 0.500000 0.500000
O O7 0.453887 0.457211 0.683436
O O8 0.002191 0.520674 0.665922
O O9 0.692872 0.949162 0.755997
O O10 0.338007 0.405126 0.137766
O O11 0.055915 0.638902 0.124627
O O12 0.342148 0.253620 0.005706
O O13 0.989634 0.070100 0.067795
O O14 0.628566 0.726891 0.214275
O O15 0.083414 0.680043 0.265406
O O16 0.129978 0.816302 0.781243
O O17 0.326392 0.206159 0.886410
O O18 0.000000 0.500000 0.000000
#
# Coordination Sequence:
#
# PCOD9089731 Si02
#       8
#     2   2   2   2   2   2   2   2
#     4  10  21  42  72 105 146 190 235 287 358 433
#     4  10  22  45  71 102 143 184 236 291 361 426
#     4  11  25  46  68 100 138 178 233 287 340 418
#     4  10  19  38  61  85 129 163 222 273 342 405
#     4  11  24  39  65  95 125 180 225 280 341 413
#     4  11  24  42  68  96 136 179 229 283 345 405
#     4   9  19  36  60  91 122 167 216 279 339 407
#     4  10  21  38  62  88 130 168 222 278 344 405
#
# _framework density 27.419157999999999
#
# number of rings (size 3 to 8) (size 9 to 14) (size 15 to 20)
#    0.000    1.750    2.500    1.125    1.750    0.500 
#   13.500    5.625    0.000    0.000    0.000    0.000 
#    0.000    0.000    0.000    0.000    0.000    0.000 
#
# Total GULP energy -89354.373531 kJ/mol
# GULP energy per Si atom -5584.648346 kJ/mol
# Density = 2.735675 g / cm^3
# Si number density = 27.419158 Si / 1000 Ang^3
#
#
#
# Elastic Constant Matrix: (Units=GPa)
#
#
# Indices 1 2 3 4 5 6 
#
# 1 102.9786 25.4814 26.6875 -23.5178 -16.8439 7.3643
# 2 25.4814 91.2513 32.0925 -5.6098 -7.1506 19.5811
# 3 26.6875 32.0925 104.1533 -5.6991 -9.2311 6.9773
# 4 -23.5178 -5.6098 -5.6991 54.6173 0.1313 -10.7549
# 5 -16.8439 -7.1506 -9.2311 0.1313 34.3502 -5.5751
# 6 7.3643 19.5811 6.9773 -10.7549 -5.5751 53.6301
#
#
#
# Elastic Compliance Matrix: (Units=1/GPa)
#
#
# Indices 1 2 3 4 5 6 
#
# 1 0.012794 -0.002386 -0.001840 0.005250 0.005420 0.000970
# 2 -0.002386 0.013703 -0.003356 -0.000837 0.000070 -0.004400
# 3 -0.001840 -0.003356 0.011226 0.000066 0.001445 0.000181
# 4 0.005250 -0.000837 0.000066 0.021303 0.003012 0.004161
# 5 0.005420 0.000070 0.001445 0.003012 0.032655 0.003041
# 6 0.000970 -0.004400 0.000181 0.004161 0.003041 0.021246
#
#
# Mechanical properties :
#
#
# Convention : Reuss Voigt Hill
#
# Bulk Modulus (GPa) = 44.32773 51.87845 48.10309
# Shear Modulus (GPa) = 36.86975 42.79430 39.83202
#
# Velocity S-wave (km/s) = 3.67095 3.95491 3.81558
# Velocity P-wave (km/s) = 5.84548 6.31005 6.08220
#
# Compressibility (1/GPa) = 0.02255924
#
# Stress axis : x y z
#
# Youngs Moduli (GPa) = 78.16014 72.97450 89.07564
#
# Poissons Ratio (x) = 0.17413 0.16394
# Poissons Ratio (y) = 0.18650 0.29892
# Poissons Ratio (z) = 0.14385 0.24489
#
# Static dielectric constant tensor:
#      x y z
#    x 2.207340 0.053800 0.138810 
#    y 0.053800 2.585500 0.136200 
#    z 0.138810 0.136200 2.510450 
# 
# From -- ./inp_files/603426.got.cif
#   From: 2010.05.17/outbox.cif.g08.bks.cpg/sg2_302_cif.got.tgz:603426.got - 2010.06.03 11:33:40.
