data_PCOD9089298
_publ_section_title
;
Structure prediction by ZEFSAII (Michael W. Deem and Ramdas Pophale) SiO2 
 PCOD9089298
Probable space group: P -1
;
_chemical_formula_sum "Si O2"
_cell_formula_units_Z 15
_cell_length_a 9.000204
_cell_length_b 9.489015
_cell_length_c 12.373252
_cell_angle_alpha 85.130776
_cell_angle_beta 116.204483
_cell_angle_gamma 137.625041
_cell_volume 585.912666
_symmetry_space_group_name_H-M "P -1"
_symmetry_group_IT_number 2
_symmetry_cell_setting 'triclinic'
loop_
_space_group_symop_operation_xyz
x,y,z
-x,-y,-z
loop_
_atom_site_type_symbol
_atom_site_label
_atom_site_fract_x
_atom_site_fract_y
_atom_site_fract_z
Si Si1 0.978659 0.775752 0.952708
Si Si2 0.420225 0.223922 0.176111
Si Si3 0.089224 0.059677 0.689701
Si Si4 0.633305 0.359082 0.736007
Si Si5 0.918904 0.715800 0.509016
Si Si6 0.534066 0.045329 0.378939
Si Si7 0.500000 0.500000 0.500000
Si Si8 0.219504 0.368684 0.874532
O O1 0.766742 0.762610 0.868257
O O2 0.904290 0.607385 0.853193
O O3 0.921536 0.675442 0.060051
O O4 0.269752 0.039023 0.040845
O O5 0.704611 0.470540 0.205732
O O6 0.445083 0.127269 0.285409
O O7 0.393490 0.215071 0.756631
O O8 0.021738 0.131185 0.573547
O O9 0.077553 0.137795 0.790322
O O10 0.905610 0.801510 0.614387
O O11 0.627125 0.194203 0.708212
O O12 0.535623 0.387552 0.603076
O O13 0.613496 0.474105 0.433130
O O14 0.156192 0.767312 0.571852
O O15 0.500000 0.000000 0.500000
O O16 0.500000 0.500000 0.000000
#
# Coordination Sequence:
#
# PCOD9089298 Si02
#       8
#     2   2   2   2   2   2   1   2
#     4  10  22  42  71  97 131 186 248 288 325 416
#     4  10  23  42  65 102 135 185 234 284 352 418
#     4   9  17  37  63  92 123 168 234 279 334 397
#     4  10  21  41  66  97 133 180 233 288 344 409
#     4   9  21  39  64  96 131 183 225 288 345 409
#     4  11  26  44  64 100 151 184 220 291 366 418
#     4  10  22  40  70 104 128 174 246 288 330 428
#     4  10  19  37  67  95 128 174 232 296 331 397
#
# _framework density 25.601085000000001
#
# number of rings (size 3 to 8) (size 9 to 14) (size 15 to 20)
#    0.000    2.133    2.667    0.800    3.733    3.733 
#    2.400    2.000    0.000    0.000    0.000    0.000 
#    0.000    0.000    0.000    0.000    0.000    0.000 
#
# Total GULP energy -83660.184435 kJ/mol
# GULP energy per Si atom -5577.345629 kJ/mol
# Density = 2.554282 g / cm^3
# Si number density = 25.601085 Si / 1000 Ang^3
#
#
#
# Elastic Constant Matrix: (Units=GPa)
#
#
# Indices 1 2 3 4 5 6 
#
# 1 96.7708 48.4509 54.7868 -9.3547 8.9306 -3.5459
# 2 48.4509 136.4997 63.5893 -3.7834 -19.1248 -20.6729
# 3 54.7868 63.5893 108.5911 -17.4036 0.3309 -23.9839
# 4 -9.3547 -3.7834 -17.4036 55.2543 0.8613 -17.1223
# 5 8.9306 -19.1248 0.3309 0.8613 32.6501 9.4993
# 6 -3.5459 -20.6729 -23.9839 -17.1223 9.4993 43.2345
#
#
#
# Elastic Compliance Matrix: (Units=1/GPa)
#
#
# Indices 1 2 3 4 5 6 
#
# 1 0.016571 -0.004061 -0.006765 -0.000518 -0.005884 -0.003248
# 2 -0.004061 0.012518 -0.005586 -0.001725 0.008548 -0.000007
# 3 -0.006765 -0.005586 0.020112 0.008809 -0.005534 0.012636
# 4 -0.000518 -0.001725 0.008809 0.025563 -0.006140 0.015492
# 5 -0.005884 0.008548 -0.005534 -0.006140 0.040610 -0.010820
# 6 -0.003248 -0.000007 0.012636 0.015492 -0.010820 0.038382
#
#
# Mechanical properties :
#
#
# Convention : Reuss Voigt Hill
#
# Bulk Modulus (GPa) = 61.05634 75.05729 68.05681
# Shear Modulus (GPa) = 26.03633 37.89676 31.96654
#
# Velocity S-wave (km/s) = 3.19251 3.85161 3.53744
# Velocity P-wave (km/s) = 6.12294 7.01153 6.58225
#
# Compressibility (1/GPa) = 0.01637832
#
# Stress axis : x y z
#
# Youngs Moduli (GPa) = 60.34743 79.88243 49.72116
#
# Poissons Ratio (x) = 0.32441 0.33634
# Poissons Ratio (y) = 0.24508 0.27773
# Poissons Ratio (z) = 0.40822 0.44621
#
# Static dielectric constant tensor:
#      x y z
#    x 1.597210 -0.746470 -0.541430 
#    y -0.746470 0.801590 -0.739600 
#    z -0.541430 -0.739600 1.555400 
# 
# From -- ./inp_files/382091.got.cif
#   From: 2010.05.17/outbox.cif.g08.bks.cpg/sg2_192_cif.got.tgz:382091.got - 2010.06.03 11:33:40.
