data_PCOD9089729
_publ_section_title
;
Structure prediction by ZEFSAII (Michael W. Deem and Ramdas Pophale) SiO2 
 PCOD9089729
Probable space group: P -1
;
_chemical_formula_sum "Si O2"
_cell_formula_units_Z 14
_cell_length_a 16.356724
_cell_length_b 5.281751
_cell_length_c 8.084621
_cell_angle_alpha 85.613078
_cell_angle_beta 122.882181
_cell_angle_gamma 103.952235
_cell_volume 567.973623
_symmetry_space_group_name_H-M "P -1"
_symmetry_group_IT_number 2
_symmetry_cell_setting 'triclinic'
loop_
_space_group_symop_operation_xyz
x,y,z
-x,-y,-z
loop_
_atom_site_type_symbol
_atom_site_label
_atom_site_fract_x
_atom_site_fract_y
_atom_site_fract_z
Si Si1 0.552524 0.347352 0.439983
Si Si2 0.060909 0.601651 0.728482
Si Si3 0.151749 0.157351 0.946943
Si Si4 0.278072 0.888920 0.295260
Si Si5 0.281526 0.220332 0.593951
Si Si6 0.555169 0.793047 0.990131
Si Si7 0.888410 0.616916 0.780246
O O1 0.500000 0.500000 0.500000
O O2 0.617645 0.181937 0.615244
O O3 0.637534 0.545541 0.416195
O O4 0.471200 0.200887 0.229363
O O5 0.142924 0.426711 0.839629
O O6 0.000000 0.500000 0.500000
O O7 0.982180 0.545821 0.798151
O O8 0.105652 0.912494 0.788455
O O9 0.096705 0.172638 0.064625
O O10 0.254054 0.104064 0.134590
O O11 0.185463 0.635772 0.204927
O O12 0.280670 0.980765 0.483287
O O13 0.330201 0.167778 0.823366
O O14 0.174337 0.284767 0.442573
O O15 0.500000 0.500000 0.000000
O O16 0.500000 0.000000 0.000000
#
# Coordination Sequence:
#
# PCOD9089729 Si02
#       7
#     2   2   2   2   2   2   2
#     4  10  21  38  63  93 127 165 212 265 313 368
#     4  12  26  43  66  97 132 163 207 266 324 372
#     4  11  23  43  68  92 127 171 214 256 310 387
#     4  10  20  39  66  94 125 163 224 255 310 375
#     4   9  20  37  62  90 124 165 211 259 303 375
#     4  10  19  38  61  85 121 163 206 247 306 368
#     4  10  22  40  70  93 123 168 220 254 305 384
#
# _framework density 24.649032999999999
#
# number of rings (size 3 to 8) (size 9 to 14) (size 15 to 20)
#    0.000    1.714    2.857    1.286    4.000    0.571 
#    2.571    0.000    0.000    0.000    0.000    0.000 
#    0.000    0.000    0.000    0.000    0.000    0.000 
#
# Total GULP energy -78219.079619 kJ/mol
# GULP energy per Si atom -5587.077116 kJ/mol
# Density = 2.459293 g / cm^3
# Si number density = 24.649033 Si / 1000 Ang^3
#
#
#
# Elastic Constant Matrix: (Units=GPa)
#
#
# Indices 1 2 3 4 5 6 
#
# 1 55.1399 30.3012 16.6257 -10.8385 -0.4214 -15.5108
# 2 30.3012 156.9780 55.4080 -0.1240 2.2383 -29.8087
# 3 16.6257 55.4080 98.7358 20.5299 6.0071 -27.6297
# 4 -10.8385 -0.1240 20.5299 51.9055 -18.0381 10.0680
# 5 -0.4214 2.2383 6.0071 -18.0381 31.4499 -6.1815
# 6 -15.5108 -29.8087 -27.6297 10.0680 -6.1815 43.4551
#
#
#
# Elastic Compliance Matrix: (Units=1/GPa)
#
#
# Indices 1 2 3 4 5 6 
#
# 1 0.023157 -0.002711 -0.003428 0.007705 0.006231 0.003328
# 2 -0.002711 0.008771 -0.004078 0.001011 0.001167 0.002388
# 3 -0.003428 -0.004078 0.019112 -0.013385 -0.009131 0.009933
# 4 0.007705 0.001011 -0.013385 0.035426 0.020881 -0.010304
# 5 0.006231 0.001167 -0.009131 0.020881 0.045286 -0.001176
# 6 0.003328 0.002388 0.009933 -0.010304 -0.001176 0.034373
#
#
# Mechanical properties :
#
#
# Convention : Reuss Voigt Hill
#
# Bulk Modulus (GPa) = 32.67406 57.28039 44.97722
# Shear Modulus (GPa) = 25.41137 39.26335 32.33736
#
# Velocity S-wave (km/s) = 3.21429 3.99544 3.62596
# Velocity P-wave (km/s) = 5.20193 6.67634 5.98471
#
# Compressibility (1/GPa) = 0.03060532
#
# Stress axis : x y z
#
# Youngs Moduli (GPa) = 43.18303 114.01636 52.32304
#
# Poissons Ratio (x) = 0.30908 0.17936
# Poissons Ratio (y) = 0.11706 0.21340
# Poissons Ratio (z) = 0.14803 0.46501
#
# Static dielectric constant tensor:
#      x y z
#    x 1.901220 0.054390 0.033900 
#    y 0.054390 2.089740 0.017350 
#    z 0.033900 0.017350 2.054380 
# 
# From -- ./inp_files/322818.got.cif
#   From: 2010.05.17/outbox.cif.g08.bks.cpg/sg2_162_cif.got.tgz:322818.got - 2010.06.03 11:33:40.
