data_PCOD9089965
_publ_section_title
;
Structure prediction by ZEFSAII (Michael W. Deem and Ramdas Pophale) SiO2 
 PCOD9089965
Probable space group: P -1
;
_chemical_formula_sum "Si O2"
_cell_formula_units_Z 14
_cell_length_a 11.377606
_cell_length_b 12.461242
_cell_length_c 13.763192
_cell_angle_alpha 133.971740
_cell_angle_beta 29.959130
_cell_angle_gamma 143.418375
_cell_volume 580.740352
_symmetry_space_group_name_H-M "P -1"
_symmetry_group_IT_number 2
_symmetry_cell_setting 'triclinic'
loop_
_space_group_symop_operation_xyz
x,y,z
-x,-y,-z
loop_
_atom_site_type_symbol
_atom_site_label
_atom_site_fract_x
_atom_site_fract_y
_atom_site_fract_z
Si Si1 0.005741 0.477390 0.612950
Si Si2 0.539779 0.162365 0.011740
Si Si3 0.047457 0.456863 0.094967
Si Si4 0.489655 0.613545 0.207753
Si Si5 0.247439 0.987816 0.735270
Si Si6 0.426352 0.921783 0.762002
Si Si7 0.969075 0.117552 0.378655
O O1 0.295735 0.609310 0.431474
O O2 0.048573 0.501309 0.710041
O O3 0.754810 0.498419 0.768858
O O4 0.928525 0.280816 0.516561
O O5 0.271236 0.171271 0.233663
O O6 0.821720 0.362966 0.948700
O O7 0.500000 0.000000 0.000000
O O8 0.520080 0.092726 0.870793
O O9 0.775986 0.257135 0.141008
O O10 0.316960 0.447890 0.926431
O O11 0.676390 0.817371 0.166771
O O12 0.500000 0.000000 0.500000
O O13 0.238098 0.897365 0.786464
O O14 0.025345 0.919516 0.763493
O O15 0.713450 0.960891 0.529292
#
# Coordination Sequence:
#
# PCOD9089965 Si02
#       7
#     2   2   2   2   2   2   2
#     4  11  21  36  62  99 139 179 214 258 334 410
#     4  12  28  50  70  93 130 181 237 289 332 382
#     4  12  25  41  67  99 133 173 230 277 329 399
#     4  11  21  35  60  98 143 181 209 262 326 408
#     4  10  19  38  63 101 143 173 205 262 333 414
#     4  11  25  45  68 104 136 173 224 269 343 403
#     4  11  22  44  68  99 142 176 215 273 336 402
#
# _framework density 24.107158999999999
#
# number of rings (size 3 to 8) (size 9 to 14) (size 15 to 20)
#    0.000    0.857    5.714    3.000    2.000    4.571 
#    0.000    0.714    0.000    0.000    0.000    0.000 
#    0.000    0.000    0.000    0.000    0.000    0.000 
#
# Total GULP energy -78201.261751 kJ/mol
# GULP energy per Si atom -5585.804411 kJ/mol
# Density = 2.405229 g / cm^3
# Si number density = 24.107159 Si / 1000 Ang^3
#
#
#
# Elastic Constant Matrix: (Units=GPa)
#
#
# Indices 1 2 3 4 5 6 
#
# 1 28.6469 16.0344 13.2162 -5.5050 16.3701 -10.5036
# 2 16.0344 147.0131 16.9618 -27.4979 1.2003 -14.8879
# 3 13.2162 16.9618 74.4771 -19.9551 9.8770 -0.5679
# 4 -5.5050 -27.4979 -19.9551 34.4374 1.0369 6.8907
# 5 16.3701 1.2003 9.8770 1.0369 14.9958 -1.1432
# 6 -10.5036 -14.8879 -0.5679 6.8907 -1.1432 42.0199
#
#
#
# Elastic Compliance Matrix: (Units=1/GPa)
#
#
# Indices 1 2 3 4 5 6 
#
# 1 0.133870 -0.008302 0.001788 0.015386 -0.145882 0.024054
# 2 -0.008302 0.008666 -0.000200 0.005157 0.008173 0.000369
# 3 0.001788 -0.000200 0.018172 0.011434 -0.014821 -0.001656
# 4 0.015386 0.005157 0.011434 0.043494 -0.027904 -0.002064
# 5 -0.145882 0.008173 -0.014821 -0.027904 0.235237 -0.022795
# 6 0.024054 0.000369 -0.001656 -0.002064 -0.022795 0.029638
#
#
# Mechanical properties :
#
#
# Convention : Reuss Voigt Hill
#
# Bulk Modulus (GPa) = 6.78986 38.06242 22.42614
# Shear Modulus (GPa) = 9.40562 31.88561 20.64561
#
# Velocity S-wave (km/s) = 1.97739 3.64079 2.92962
# Velocity P-wave (km/s) = 2.83479 5.78765 4.55702
#
# Compressibility (1/GPa) = 0.14727849
#
# Stress axis : x y z
#
# Youngs Moduli (GPa) = 7.46995 115.39538 55.03078
#
# Poissons Ratio (x) = 0.95805 -0.09837
# Poissons Ratio (y) = 0.06202 0.01099
# Poissons Ratio (z) = -0.01335 0.02304
#
# Static dielectric constant tensor:
#      x y z
#    x 1.946890 0.020470 0.004990 
#    y 0.020470 2.007000 -0.043850 
#    z 0.004990 -0.043850 1.928160 
# 
# From -- ./inp_files/249662.got.cif
#   From: 2010.05.17/outbox.cif.g08.bks.cpg/sg2_125_cif.got.tgz:249662.got - 2010.06.03 11:33:40.
