data_PCOD9089222
_publ_section_title
;
Structure prediction by ZEFSAII (Michael W. Deem and Ramdas Pophale) SiO2 
 PCOD9089222
Probable space group: P -1
;
_chemical_formula_sum "Si O2"
_cell_formula_units_Z 16
_cell_length_a 9.764875
_cell_length_b 13.854343
_cell_length_c 9.957458
_cell_angle_alpha 33.306020
_cell_angle_beta 105.409838
_cell_angle_gamma 124.242631
_cell_volume 545.883615
_symmetry_space_group_name_H-M "P -1"
_symmetry_group_IT_number 2
_symmetry_cell_setting 'triclinic'
loop_
_space_group_symop_operation_xyz
x,y,z
-x,-y,-z
loop_
_atom_site_type_symbol
_atom_site_label
_atom_site_fract_x
_atom_site_fract_y
_atom_site_fract_z
Si Si1 0.773643 0.807585 0.180488
Si Si2 0.720799 0.026053 0.156248
Si Si3 0.233807 0.470506 0.282612
Si Si4 0.845672 0.672719 0.028123
Si Si5 0.676104 0.725562 0.707784
Si Si6 0.398718 0.060378 0.199139
Si Si7 0.778067 0.348541 0.593725
Si Si8 0.866614 0.344434 0.265888
O O1 0.699269 0.882201 0.189941
O O2 0.720189 0.584954 0.499397
O O3 0.682408 0.816054 0.013785
O O4 0.000000 0.000000 0.000000
O O5 0.631382 0.870188 0.447843
O O6 0.692095 0.195413 0.884921
O O7 0.936530 0.178112 0.069915
O O8 0.250950 0.339667 0.320249
O O9 0.024574 0.371327 0.363875
O O10 0.383012 0.736076 0.970975
O O11 0.762115 0.531942 0.311296
O O12 0.794285 0.472840 0.148172
O O13 0.816424 0.823709 0.756542
O O14 0.500000 0.500000 0.000000
O O15 0.313097 0.851333 0.312633
O O16 0.305397 0.922576 0.472395
O O17 0.000000 0.500000 0.500000
O O18 0.000000 0.500000 0.000000
#
# Coordination Sequence:
#
# PCOD9089222 Si02
#       8
#     2   2   2   2   2   2   2   2
#     4  10  19  37  66  93 125 167 212 266 322 380
#     4   9  20  38  64  86 120 165 213 255 315 382
#     4  11  23  41  64  97 130 163 218 267 322 386
#     4  10  20  40  64  88 124 163 210 260 319 384
#     4  11  24  41  59  90 130 166 211 264 314 380
#     4  10  21  37  63  95 127 164 208 268 319 376
#     4   8  17  38  65  86 121 161 204 258 314 378
#     4  11  22  40  63  91 126 172 214 261 324 378
#
# _framework density 29.310276999999999
#
# number of rings (size 3 to 8) (size 9 to 14) (size 15 to 20)
#    0.000    2.000    2.500    0.750    0.000    2.500 
#    4.500    0.625    0.000    0.000    0.000    0.000 
#    0.000    0.000    0.000    0.000    0.000    0.000 
#
# Total GULP energy -89450.638817 kJ/mol
# GULP energy per Si atom -5590.664926 kJ/mol
# Density = 2.924357 g / cm^3
# Si number density = 29.310277 Si / 1000 Ang^3
#
#
#
# Elastic Constant Matrix: (Units=GPa)
#
#
# Indices 1 2 3 4 5 6 
#
# 1 84.5576 39.4346 54.7170 5.8389 3.4584 6.2517
# 2 39.4346 77.8208 51.2968 28.3450 -10.2860 4.2779
# 3 54.7170 51.2968 271.9465 37.1399 -9.7226 6.4654
# 4 5.8389 28.3450 37.1399 75.8455 3.7807 -13.9745
# 5 3.4584 -10.2860 -9.7226 3.7807 52.4160 -4.7242
# 6 6.2517 4.2779 6.4654 -13.9745 -4.7242 50.0930
#
#
#
# Elastic Compliance Matrix: (Units=1/GPa)
#
#
# Indices 1 2 3 4 5 6 
#
# 1 0.017503 -0.008918 -0.002399 0.003239 -0.003633 -0.000552
# 2 -0.008918 0.021561 -0.001013 -0.007534 0.004974 -0.002230
# 3 -0.002399 -0.001013 0.004656 -0.001882 0.000900 -0.000655
# 4 0.003239 -0.007534 -0.001882 0.017768 -0.002857 0.005169
# 5 -0.003633 0.004974 0.000900 -0.002857 0.020764 0.001074
# 6 -0.000552 -0.002230 -0.000655 0.005169 0.001074 0.021850
#
#
# Mechanical properties :
#
#
# Convention : Reuss Voigt Hill
#
# Bulk Modulus (GPa) = 52.46423 80.58018 66.52221
# Shear Modulus (GPa) = 37.00565 54.92932 45.96749
#
# Velocity S-wave (km/s) = 3.55709 4.33374 3.96448
# Velocity P-wave (km/s) = 5.89991 7.25214 6.61069
#
# Compressibility (1/GPa) = 0.01906060
#
# Stress axis : x y z
#
# Youngs Moduli (GPa) = 57.13199 46.37982 214.79163
#
# Poissons Ratio (x) = 0.41362 0.51522
# Poissons Ratio (y) = 0.50951 0.21755
# Poissons Ratio (z) = 0.13704 0.04698
#
# Static dielectric constant tensor:
#      x y z
#    x 2.375960 -0.220620 0.046000 
#    y -0.220620 2.241400 0.005770 
#    z 0.046000 0.005770 2.317050 
# 
# From -- ./inp_files/436404.got.cif
#   From: 2010.05.17/outbox.cif.g08.bks.cpg/sg2_219_cif.got.tgz:436404.got - 2010.06.03 11:33:40.
