data_PCOD9089822
_publ_section_title
;
Structure prediction by ZEFSAII (Michael W. Deem and Ramdas Pophale) SiO2 
 PCOD9089822
Probable space group: P -1
;
_chemical_formula_sum "Si O2"
_cell_formula_units_Z 16
_cell_length_a 15.843100
_cell_length_b 9.010073
_cell_length_c 8.528635
_cell_angle_alpha 99.125576
_cell_angle_beta 141.545895
_cell_angle_gamma 73.038862
_cell_volume 719.168913
_symmetry_space_group_name_H-M "P -1"
_symmetry_group_IT_number 2
_symmetry_cell_setting 'triclinic'
loop_
_space_group_symop_operation_xyz
x,y,z
-x,-y,-z
loop_
_atom_site_type_symbol
_atom_site_label
_atom_site_fract_x
_atom_site_fract_y
_atom_site_fract_z
Si Si1 0.005833 0.540576 0.756904
Si Si2 0.514439 0.818041 0.001609
Si Si3 0.218863 0.344700 0.825115
Si Si4 0.275618 0.745867 0.460521
Si Si5 0.288079 0.112824 0.135799
Si Si6 0.018592 0.248447 0.946450
Si Si7 0.563996 0.228569 0.625071
Si Si8 0.555965 0.570970 0.249440
O O1 0.886665 0.602771 0.464225
O O2 0.989664 0.387564 0.798455
O O3 0.159119 0.483373 0.886349
O O4 0.991159 0.672052 0.885945
O O5 0.361399 0.805329 0.729743
O O6 0.623127 0.708529 0.018710
O O7 0.571455 0.735659 0.234668
O O8 0.500000 0.000000 0.000000
O O9 0.209431 0.188802 0.876358
O O10 0.111199 0.826847 0.253654
O O11 0.347837 0.762560 0.402214
O O12 0.309163 0.559445 0.513940
O O13 0.410624 0.201081 0.356590
O O14 0.357159 0.929809 0.196485
O O15 0.173540 0.144935 0.112802
O O16 0.544060 0.376023 0.736538
O O17 0.500000 0.500000 0.000000
#
# Coordination Sequence:
#
# PCOD9089822 Si02
#       8
#     2   2   2   2   2   2   2   2
#     4   9  21  37  64  92 136 175 216 260 334 398
#     4  11  23  40  67  98 133 175 221 270 331 402
#     4  10  19  38  61  96 122 172 223 265 314 393
#     4  11  24  41  66 100 132 166 222 276 332 386
#     4  10  23  40  66  96 129 176 224 267 326 401
#     4  10  22  40  64  99 130 174 214 273 327 392
#     4  11  23  42  66  96 129 175 223 271 330 397
#     4  10  24  40  62  99 135 167 215 283 331 378
#
# _framework density 22.247903000000001
#
# number of rings (size 3 to 8) (size 9 to 14) (size 15 to 20)
#    0.000    1.750    1.250    1.875    8.750    2.500 
#    0.000    2.500    0.000    6.750    0.000    0.000 
#    0.000    0.000    0.000    0.000    0.000    0.000 
#
# Total GULP energy -89285.278058 kJ/mol
# GULP energy per Si atom -5580.329879 kJ/mol
# Density = 2.219727 g / cm^3
# Si number density = 22.247903 Si / 1000 Ang^3
#
#
#
# Elastic Constant Matrix: (Units=GPa)
#
#
# Indices 1 2 3 4 5 6 
#
# 1 101.4065 7.9099 25.8665 7.8618 18.6818 -15.3865
# 2 7.9099 67.9803 12.8239 -9.1594 1.4848 -9.9880
# 3 25.8665 12.8239 42.2565 0.3314 5.7074 -17.1837
# 4 7.8618 -9.1594 0.3314 18.2347 8.0292 7.1839
# 5 18.6818 1.4848 5.7074 8.0292 49.3345 -9.0901
# 6 -15.3865 -9.9880 -17.1837 7.1839 -9.0901 22.8783
#
#
#
# Elastic Compliance Matrix: (Units=1/GPa)
#
#
# Indices 1 2 3 4 5 6 
#
# 1 0.013076 -0.000630 -0.004862 -0.007555 -0.001950 0.006466
# 2 -0.000630 0.016962 -0.004656 0.009423 -0.001262 0.000025
# 3 -0.004862 -0.004656 0.040758 -0.016613 0.006036 0.032926
# 4 -0.007555 0.009423 -0.016613 0.091427 -0.019581 -0.049934
# 5 -0.001950 -0.001262 0.006036 -0.019581 0.027147 0.019607
# 6 0.006466 0.000025 0.032926 -0.049934 0.019607 0.096269
#
#
# Mechanical properties :
#
#
# Convention : Reuss Voigt Hill
#
# Bulk Modulus (GPa) = 19.80072 33.87153 26.83613
# Shear Modulus (GPa) = 15.49098 29.09236 22.29167
#
# Velocity S-wave (km/s) = 2.64159 3.62006 3.16882
# Velocity P-wave (km/s) = 4.26888 5.72108 5.04748
#
# Compressibility (1/GPa) = 0.05050320
#
# Stress axis : x y z
#
# Youngs Moduli (GPa) = 76.47393 58.95379 24.53490
#
# Poissons Ratio (x) = 0.03713 0.11928
# Poissons Ratio (y) = 0.04816 0.11423
# Poissons Ratio (z) = 0.37178 0.27447
#
# Static dielectric constant tensor:
#      x y z
#    x 1.891830 0.027790 0.005940 
#    y 0.027790 1.839540 0.007880 
#    z 0.005940 0.007880 1.833930 
# 
# From -- ./inp_files/298617.got.cif
#   From: 2010.05.17/outbox.cif.g08.bks.cpg/sg2_150_cif.got.tgz:298617.got - 2010.06.03 11:33:40.
