data_PCOD9089925
_publ_section_title
;
Structure prediction by ZEFSAII (Michael W. Deem and Ramdas Pophale) SiO2 
 PCOD9089925
Probable space group: P -1
;
_chemical_formula_sum "Si O2"
_cell_formula_units_Z 14
_cell_length_a 23.603741
_cell_length_b 15.250325
_cell_length_c 14.621562
_cell_angle_alpha 33.247755
_cell_angle_beta 21.150189
_cell_angle_gamma 19.643852
_cell_volume 598.816726
_symmetry_space_group_name_H-M "P -1"
_symmetry_group_IT_number 2
_symmetry_cell_setting 'triclinic'
loop_
_space_group_symop_operation_xyz
x,y,z
-x,-y,-z
loop_
_atom_site_type_symbol
_atom_site_label
_atom_site_fract_x
_atom_site_fract_y
_atom_site_fract_z
Si Si1 0.578043 0.152308 0.387911
Si Si2 0.168213 0.202636 0.501085
Si Si3 0.989880 0.978512 0.143772
Si Si4 0.134302 0.293078 0.891527
Si Si5 0.364057 0.832577 0.332801
Si Si6 0.866651 0.212942 0.432787
Si Si7 0.256875 0.273253 0.056943
O O1 0.426194 0.134991 0.582261
O O2 0.360377 0.470689 0.466820
O O3 0.718137 0.955117 0.436561
O O4 0.814955 0.060293 0.066531
O O5 0.948105 0.260771 0.740714
O O6 0.000000 0.500000 0.500000
O O7 0.451529 0.983137 0.210645
O O8 0.715832 0.192158 0.430575
O O9 0.000000 0.000000 0.000000
O O10 0.000000 0.500000 0.000000
O O11 0.096034 0.138254 0.107441
O O12 0.962800 0.480080 0.897383
O O13 0.284522 0.779244 0.417923
O O14 0.670000 0.648566 0.047231
O O15 0.202352 0.136478 0.290454
O O16 0.000000 0.000000 0.500000
#
# Coordination Sequence:
#
# PCOD9089925 Si02
#       7
#     2   2   2   2   2   2   2
#     4  10  21  40  65  92 133 172 219 271 326 395
#     4  10  20  36  64  92 130 174 219 267 332 391
#     4   9  21  42  59  92 133 174 215 270 334 388
#     4  10  19  38  62  91 133 171 214 267 328 383
#     4  10  22  39  66  96 135 169 223 277 325 389
#     4  11  23  38  66 103 128 173 221 267 334 398
#     4  10  20  40  60  99 133 168 220 275 323 391
#
# _framework density 23.379441
#
# number of rings (size 3 to 8) (size 9 to 14) (size 15 to 20)
#    0.000    2.000    2.857    1.714    2.000    0.571 
#    0.000    6.429    0.000    0.000    0.000    0.000 
#    0.000    0.000    0.000    0.000    0.000    0.000 
#
# Total GULP energy -77996.070114 kJ/mol
# GULP energy per Si atom -5571.147865 kJ/mol
# Density = 2.332623 g / cm^3
# Si number density = 23.379441 Si / 1000 Ang^3
#
#
#
# Elastic Constant Matrix: (Units=GPa)
#
#
# Indices 1 2 3 4 5 6 
#
# 1 145.0850 43.9797 57.6898 -21.6075 -19.3348 -11.1661
# 2 43.9797 117.6881 51.6857 -24.5199 -2.3388 -13.0963
# 3 57.6898 51.6857 177.4741 -33.3580 -23.9170 -0.3948
# 4 -21.6075 -24.5199 -33.3580 31.0936 4.3476 -0.0944
# 5 -19.3348 -2.3388 -23.9170 4.3476 38.4333 -4.0059
# 6 -11.1661 -13.0963 -0.3948 -0.0944 -4.0059 39.5520
#
#
#
# Elastic Compliance Matrix: (Units=1/GPa)
#
#
# Indices 1 2 3 4 5 6 
#
# 1 0.009081 -0.001859 -0.001395 0.002865 0.003502 0.002296
# 2 -0.001859 0.011593 -0.001850 0.006119 -0.001747 0.003133
# 3 -0.001395 -0.001850 0.008213 0.005881 0.003574 -0.000548
# 4 0.002865 0.006119 0.005881 0.045201 0.000681 0.003071
# 5 0.003502 -0.001747 0.003574 0.000681 0.030187 0.003505
# 6 0.002296 0.003133 -0.000548 0.003071 0.003505 0.027326
#
#
# Mechanical properties :
#
#
# Convention : Reuss Voigt Hill
#
# Bulk Modulus (GPa) = 53.53661 82.99528 68.26594
# Shear Modulus (GPa) = 33.77588 40.94192 37.35890
#
# Velocity S-wave (km/s) = 3.80502 4.18927 4.00176
# Velocity P-wave (km/s) = 6.50023 7.67960 7.11440
#
# Compressibility (1/GPa) = 0.01867881
#
# Stress axis : x y z
#
# Youngs Moduli (GPa) = 110.12296 86.25809 121.76262
#
# Poissons Ratio (x) = 0.16034 0.16983
# Poissons Ratio (y) = 0.20470 0.22530
# Poissons Ratio (z) = 0.15360 0.15960
#
# Static dielectric constant tensor:
#      x y z
#    x 1.993360 0.073910 0.031510 
#    y 0.073910 1.899160 0.013130 
#    z 0.031510 0.013130 1.962120 
# 
# From -- ./inp_files/542992.got.cif
#   From: 2010.05.17/outbox.cif.g08.bks.cpg/sg2_272_cif.got.tgz:542992.got - 2010.06.03 11:33:40.
