data_PCOD9089505
_publ_section_title
;
Structure prediction by ZEFSAII (Michael W. Deem and Ramdas Pophale) SiO2 
 PCOD9089505
Probable space group: P -1
;
_chemical_formula_sum "Si O2"
_cell_formula_units_Z 16
_cell_length_a 6.844327
_cell_length_b 7.134419
_cell_length_c 16.949372
_cell_angle_alpha 125.925929
_cell_angle_beta 95.804402
_cell_angle_gamma 65.398117
_cell_volume 597.740148
_symmetry_space_group_name_H-M "P -1"
_symmetry_group_IT_number 2
_symmetry_cell_setting 'triclinic'
loop_
_space_group_symop_operation_xyz
x,y,z
-x,-y,-z
loop_
_atom_site_type_symbol
_atom_site_label
_atom_site_fract_x
_atom_site_fract_y
_atom_site_fract_z
Si Si1 0.240062 0.728430 0.370527
Si Si2 0.349966 0.240083 0.975234
Si Si3 0.232294 0.642883 0.951334
Si Si4 0.734619 0.908698 0.416026
Si Si5 0.315544 0.315527 0.162615
Si Si6 0.127166 0.636958 0.633157
Si Si7 0.334444 0.332224 0.417621
Si Si8 0.031724 0.852191 0.836501
O O1 0.310281 0.930418 0.463681
O O2 0.319880 0.577131 0.254858
O O3 0.326920 0.490968 0.378038
O O4 0.975713 0.871166 0.389938
O O5 0.251028 0.383849 0.926899
O O6 0.221842 0.329001 0.074038
O O7 0.550012 0.315511 0.018061
O O8 0.452189 0.934887 0.893231
O O9 0.187707 0.661282 0.861736
O O10 0.059956 0.872960 0.055977
O O11 0.548284 0.074026 0.386535
O O12 0.782824 0.621165 0.372184
O O13 0.167131 0.232787 0.193287
O O14 0.276374 0.540924 0.538200
O O15 0.114444 0.843504 0.748888
O O16 0.881206 0.717002 0.611729
#
# Coordination Sequence:
#
# PCOD9089505 Si02
#       8
#     2   2   2   2   2   2   2   2
#     4  10  21  38  56  84 121 153 191 243 280 342
#     4   9  20  38  60  85 111 146 196 239 290 359
#     4   9  20  38  58  85 112 145 190 243 290 348
#     4  10  20  37  56  81 117 155 192 237 283 338
#     4  10  19  38  58  81 118 150 186 242 293 337
#     4  10  21  38  56  87 117 153 194 241 281 342
#     4  10  20  37  58  81 117 155 194 236 283 339
#     4  10  19  38  58  78 122 149 183 243 295 335
#
# _framework density 26.767484
#
# number of rings (size 3 to 8) (size 9 to 14) (size 15 to 20)
#    0.000    2.250    2.500    0.750    0.000    2.500 
#   11.250    0.000    0.000    0.000    0.000    0.000 
#    0.000    0.000    0.000    0.000    0.000    0.000 
#
# Total GULP energy -89578.752419 kJ/mol
# GULP energy per Si atom -5598.672026 kJ/mol
# Density = 2.670656 g / cm^3
# Si number density = 26.767484 Si / 1000 Ang^3
#
#
#
# Elastic Constant Matrix: (Units=GPa)
#
#
# Indices 1 2 3 4 5 6 
#
# 1 62.0996 38.0621 24.9345 -2.5391 -0.9316 -22.5835
# 2 38.0621 148.7900 14.0469 -9.0173 2.9855 -29.5346
# 3 24.9345 14.0469 164.5451 -7.7532 0.4784 -7.2527
# 4 -2.5391 -9.0173 -7.7532 30.5380 2.6960 6.6879
# 5 -0.9316 2.9855 0.4784 2.6960 33.9417 -2.1706
# 6 -22.5835 -29.5346 -7.2527 6.6879 -2.1706 47.8449
#
#
#
# Elastic Compliance Matrix: (Units=1/GPa)
#
#
# Indices 1 2 3 4 5 6 
#
# 1 0.022614 -0.004066 -0.002820 -0.001957 0.001691 0.008087
# 2 -0.004066 0.008472 0.000105 0.001588 -0.000788 0.003069
# 3 -0.002820 0.000105 0.006550 0.001602 -0.000339 -0.000513
# 4 -0.001957 0.001588 0.001602 0.034780 -0.003280 -0.004711
# 5 0.001691 -0.000788 -0.000339 -0.003280 0.029976 0.002078
# 6 0.008087 0.003069 -0.000513 -0.004711 0.002078 0.027288
#
#
# Mechanical properties :
#
#
# Convention : Reuss Voigt Hill
#
# Bulk Modulus (GPa) = 41.53897 58.83575 50.18736
# Shear Modulus (GPa) = 33.05420 42.35766 37.70593
#
# Velocity S-wave (km/s) = 3.51788 3.98229 3.75727
# Velocity P-wave (km/s) = 5.66151 6.57061 6.13293
#
# Compressibility (1/GPa) = 0.02407378
#
# Stress axis : x y z
#
# Youngs Moduli (GPa) = 44.22039 118.03193 152.68047
#
# Poissons Ratio (x) = 0.47991 0.43062
# Poissons Ratio (y) = 0.17980 -0.01607
# Poissons Ratio (z) = 0.12472 -0.01242
#
# Static dielectric constant tensor:
#      x y z
#    x 2.287980 -0.012210 -0.031560 
#    y -0.012210 2.050980 0.004120 
#    z -0.031560 0.004120 2.020580 
# 
# From -- ./inp_files/556574.got.cif
#   From: 2010.05.17/outbox.cif.g08.bks.cpg/sg2_279_cif.got.tgz:556574.got - 2010.06.03 11:33:40.
