data_PCOD9089323
_publ_section_title
;
Structure prediction by ZEFSAII (Michael W. Deem and Ramdas Pophale) SiO2 
 PCOD9089323
Probable space group: P -1
;
_chemical_formula_sum "Si O2"
_cell_formula_units_Z 16
_cell_length_a 5.622203
_cell_length_b 18.015538
_cell_length_c 20.567241
_cell_angle_alpha 18.947390
_cell_angle_beta 86.931673
_cell_angle_gamma 81.072288
_cell_volume 639.356663
_symmetry_space_group_name_H-M "P -1"
_symmetry_group_IT_number 2
_symmetry_cell_setting 'triclinic'
loop_
_space_group_symop_operation_xyz
x,y,z
-x,-y,-z
loop_
_atom_site_type_symbol
_atom_site_label
_atom_site_fract_x
_atom_site_fract_y
_atom_site_fract_z
Si Si1 0.988820 0.869125 0.177968
Si Si2 0.537142 0.742022 0.247411
Si Si3 0.917729 0.110667 0.112670
Si Si4 0.577363 0.789339 0.729097
Si Si5 0.900066 0.431418 0.271829
Si Si6 0.111451 0.712828 0.747443
Si Si7 0.381815 0.654669 0.533782
Si Si8 0.355009 0.033249 0.655588
O O1 0.289399 0.764362 0.275255
O O2 0.808753 0.704969 0.306737
O O3 0.864783 0.042037 0.097021
O O4 0.000000 0.000000 0.000000
O O5 0.537798 0.546114 0.355734
O O6 0.500000 0.000000 0.000000
O O7 0.709739 0.137278 0.149151
O O8 0.149285 0.881412 0.324548
O O9 0.990624 0.350269 0.910496
O O10 0.866353 0.643499 0.829201
O O11 0.351809 0.676022 0.819576
O O12 0.500000 0.000000 0.500000
O O13 0.564727 0.901531 0.708841
O O14 0.703464 0.466798 0.302785
O O15 0.794079 0.407036 0.223482
O O16 0.117939 0.180007 0.493406
O O17 0.000000 0.000000 0.500000
O O18 0.584370 0.767525 0.465292
#
# Coordination Sequence:
#
# PCOD9089323 Si02
#       8
#     2   2   2   2   2   2   2   2
#     4  10  23  45  70  99 137 183 234 288 347 425
#     4  10  23  42  72 100 132 182 237 285 347 423
#     4  11  28  45  68 107 143 182 239 295 356 426
#     4  10  19  38  68  98 136 183 236 286 347 418
#     4  11  23  44  72  98 142 193 233 290 360 425
#     4  10  19  37  68 102 130 184 242 285 344 420
#     4  11  26  44  71 103 143 188 232 297 358 423
#     4  11  25  43  71 101 143 186 234 295 356 423
#
# _framework density 25.025153
#
# number of rings (size 3 to 8) (size 9 to 14) (size 15 to 20)
#    0.000    1.500    2.500    3.000   10.500    2.000 
#    0.000    1.250    0.000    0.000    0.000    0.000 
#    0.000    0.000    0.000    0.000    0.000    0.000 
#
# Total GULP energy -89553.253902 kJ/mol
# GULP energy per Si atom -5597.078369 kJ/mol
# Density = 2.496819 g / cm^3
# Si number density = 25.025153 Si / 1000 Ang^3
#
#
#
# Elastic Constant Matrix: (Units=GPa)
#
#
# Indices 1 2 3 4 5 6 
#
# 1 145.4222 12.2882 33.6431 7.4223 -11.4863 6.4227
# 2 12.2882 168.3060 64.1724 9.4590 -8.3698 6.0464
# 3 33.6431 64.1724 90.8029 34.0610 -20.4468 6.2939
# 4 7.4223 9.4590 34.0610 29.5089 -3.0996 -11.0415
# 5 -11.4863 -8.3698 -20.4468 -3.0996 57.0561 -1.7127
# 6 6.4227 6.0464 6.2939 -11.0415 -1.7127 45.3760
#
#
#
# Elastic Compliance Matrix: (Units=1/GPa)
#
#
# Indices 1 2 3 4 5 6 
#
# 1 0.007756 0.001148 -0.005049 0.003651 0.000129 0.000343
# 2 0.001148 0.009712 -0.012415 0.011862 -0.002057 0.003074
# 3 -0.005049 -0.012415 0.043578 -0.049817 0.009609 -0.015435
# 4 0.003651 0.011862 -0.049817 0.096110 -0.009320 0.027847
# 5 0.000129 -0.002057 0.009609 -0.009320 0.020111 -0.002586
# 6 0.000343 0.003074 -0.015435 0.027847 -0.002586 0.030399
#
#
# Mechanical properties :
#
#
# Convention : Reuss Voigt Hill
#
# Bulk Modulus (GPa) = 35.19433 69.41539 52.30486
# Shear Modulus (GPa) = 20.01845 46.01668 33.01756
#
# Velocity S-wave (km/s) = 2.83138 4.29280 3.63626
# Velocity P-wave (km/s) = 4.97826 7.23666 6.21097
#
# Compressibility (1/GPa) = 0.02841367
#
# Stress axis : x y z
#
# Youngs Moduli (GPa) = 128.92629 102.96626 22.94743
#
# Poissons Ratio (x) = -0.11819 0.11587
# Poissons Ratio (y) = -0.14798 0.28489
# Poissons Ratio (z) = 0.65098 1.27830
#
# Static dielectric constant tensor:
#      x y z
#    x 2.410660 -0.137320 0.162930 
#    y -0.137320 1.965900 -0.002540 
#    z 0.162930 -0.002540 2.055040 
# 
# From -- ./inp_files/120115.got.cif
#   From: 2010.05.17/outbox.cif.g08.bks.cpg/sg2_61_cif.got.tgz:120115.got - 2010.06.03 11:33:40.
