data_PCOD9089399
_publ_section_title
;
Structure prediction by ZEFSAII (Michael W. Deem and Ramdas Pophale) SiO2 
 PCOD9089399
Probable space group: P -1
;
_chemical_formula_sum "Si O2"
_cell_formula_units_Z 16
_cell_length_a 8.142210
_cell_length_b 8.054963
_cell_length_c 11.362811
_cell_angle_alpha 75.724762
_cell_angle_beta 70.621112
_cell_angle_gamma 94.033934
_cell_volume 671.800216
_symmetry_space_group_name_H-M "P -1"
_symmetry_group_IT_number 2
_symmetry_cell_setting 'triclinic'
loop_
_space_group_symop_operation_xyz
x,y,z
-x,-y,-z
loop_
_atom_site_type_symbol
_atom_site_label
_atom_site_fract_x
_atom_site_fract_y
_atom_site_fract_z
Si Si1 0.835734 0.308177 0.182160
Si Si2 0.031732 0.740282 0.509313
Si Si3 0.691179 0.597487 0.707070
Si Si4 0.430991 0.709252 0.362580
Si Si5 0.647967 0.079200 0.860325
Si Si6 0.492460 0.196065 0.431438
Si Si7 0.810146 0.420432 0.906926
Si Si8 0.014056 0.029196 0.289469
O O1 0.675482 0.281950 0.315085
O O2 0.992773 0.465198 0.154107
O O3 0.907641 0.122959 0.202038
O O4 0.772154 0.354685 0.059914
O O5 0.231144 0.710570 0.455385
O O6 0.882956 0.581179 0.609949
O O7 0.017563 0.861186 0.605978
O O8 0.978530 0.834636 0.386726
O O9 0.557921 0.454460 0.693129
O O10 0.649113 0.779184 0.638536
O O11 0.695504 0.552829 0.850132
O O12 0.454641 0.870247 0.239687
O O13 0.547169 0.720042 0.449328
O O14 0.763485 0.252828 0.861799
O O15 0.788892 0.959870 0.809584
O O16 0.500000 0.000000 0.000000
O O17 0.500000 0.000000 0.500000
#
# Coordination Sequence:
#
# PCOD9089399 Si02
#       8
#     2   2   2   2   2   2   2   2
#     4  11  23  45  66  95 138 175 235 268 320 415
#     4  10  19  37  70  95 126 166 226 269 332 400
#     4  11  22  40  65  97 132 174 218 273 345 390
#     4  10  22  42  63  94 131 171 221 270 341 394
#     4  10  24  43  67  98 139 172 224 277 333 400
#     4  12  26  39  67 102 137 170 220 288 337 387
#     4  10  24  45  65  94 132 189 221 267 331 399
#     4  10  20  37  68  94 126 177 215 274 327 390
#
# _framework density 23.816606
#
# number of rings (size 3 to 8) (size 9 to 14) (size 15 to 20)
#    0.000    1.500    2.500    1.500    5.250    3.000 
#    9.000    1.250    0.000    0.000    0.000    0.000 
#    0.000    0.000    0.000    0.000    0.000    0.000 
#
# Total GULP energy -89302.108760 kJ/mol
# GULP energy per Si atom -5581.381797 kJ/mol
# Density = 2.376240 g / cm^3
# Si number density = 23.816606 Si / 1000 Ang^3
#
#
#
# Elastic Constant Matrix: (Units=GPa)
#
#
# Indices 1 2 3 4 5 6 
#
# 1 84.2298 19.8056 60.6789 -9.4965 29.6282 -14.7462
# 2 19.8056 64.6095 26.3442 -0.3160 16.1111 -2.8093
# 3 60.6789 26.3442 184.6150 -18.6720 34.5429 -12.8296
# 4 -9.4965 -0.3160 -18.6720 24.3624 -5.2559 8.6790
# 5 29.6282 16.1111 34.5429 -5.2559 59.5606 -2.7862
# 6 -14.7462 -2.8093 -12.8296 8.6790 -2.7862 35.4557
#
#
#
# Elastic Compliance Matrix: (Units=1/GPa)
#
#
# Indices 1 2 3 4 5 6 
#
# 1 0.018523 -0.002266 -0.004222 0.000793 -0.005833 0.005344
# 2 -0.002266 0.017499 -0.001425 -0.002502 -0.002986 0.000306
# 3 -0.004222 -0.001425 0.007702 0.003948 -0.001641 -0.000177
# 4 0.000793 -0.002502 0.003948 0.048344 0.001785 -0.010134
# 5 -0.005833 -0.002986 -0.001641 0.001785 0.021514 -0.002003
# 6 0.005344 0.000306 -0.000177 -0.010134 -0.002003 0.032710
#
#
# Mechanical properties :
#
#
# Convention : Reuss Voigt Hill
#
# Bulk Modulus (GPa) = 35.84535 60.79021 48.31778
# Shear Modulus (GPa) = 29.16833 38.98410 34.07622
#
# Velocity S-wave (km/s) = 3.50338 4.05018 3.78666
# Velocity P-wave (km/s) = 5.60786 6.88852 6.28092
#
# Compressibility (1/GPa) = 0.02789762
#
# Stress axis : x y z
#
# Youngs Moduli (GPa) = 53.98596 57.14578 129.84151
#
# Poissons Ratio (x) = 0.12949 0.54818
# Poissons Ratio (y) = 0.12233 0.18507
# Poissons Ratio (z) = 0.22792 0.08145
#
# Static dielectric constant tensor:
#      x y z
#    x 1.980060 0.017770 0.026200 
#    y 0.017770 2.025530 -0.037960 
#    z 0.026200 -0.037960 1.869200 
# 
# From -- ./inp_files/378238.got.cif
#   From: 2010.05.17/outbox.cif.g08.bks.cpg/sg2_190_cif.got.tgz:378238.got - 2010.06.03 11:33:40.
