data_PCOD9089601
_publ_section_title
;
Structure prediction by ZEFSAII (Michael W. Deem and Ramdas Pophale) SiO2 
 PCOD9089601
Probable space group: P -1
;
_chemical_formula_sum "Si O2"
_cell_formula_units_Z 16
_cell_length_a 5.908723
_cell_length_b 6.546689
_cell_length_c 20.870385
_cell_angle_alpha 74.803789
_cell_angle_beta 118.175941
_cell_angle_gamma 73.594719
_cell_volume 603.417740
_symmetry_space_group_name_H-M "P -1"
_symmetry_group_IT_number 2
_symmetry_cell_setting 'triclinic'
loop_
_space_group_symop_operation_xyz
x,y,z
-x,-y,-z
loop_
_atom_site_type_symbol
_atom_site_label
_atom_site_fract_x
_atom_site_fract_y
_atom_site_fract_z
Si Si1 0.995026 0.303782 0.603031
Si Si2 0.637842 0.804564 0.106725
Si Si3 0.842894 0.585069 0.877716
Si Si4 0.026003 0.077444 0.763757
Si Si5 0.602088 0.505310 0.345990
Si Si6 0.427446 0.788562 0.520698
Si Si7 0.235049 0.700205 0.989720
Si Si8 0.266078 0.634027 0.759902
O O1 0.066529 0.191201 0.693231
O O2 0.704564 0.558731 0.546878
O O3 0.880629 0.157655 0.556422
O O4 0.251769 0.354653 0.608838
O O5 0.343929 0.881115 0.018882
O O6 0.629105 0.626389 0.174403
O O7 0.905813 0.620617 0.114048
O O8 0.726501 0.977306 0.144500
O O9 0.802539 0.446056 0.944444
O O10 0.536540 0.692443 0.792182
O O11 0.948114 0.772767 0.902521
O O12 0.720811 0.285766 0.732647
O O13 0.031291 0.834815 0.758802
O O14 0.579407 0.304045 0.401197
O O15 0.799880 0.387210 0.320136
O O16 0.500000 0.000000 0.500000
O O17 0.500000 0.500000 0.000000
#
# Coordination Sequence:
#
# PCOD9089601 Si02
#       8
#     2   2   2   2   2   2   2   2
#     4  10  23  45  65  97 132 168 218 270 327 396
#     4  10  19  38  59  91 135 165 220 276 318 389
#     4   9  17  35  61  91 125 174 215 263 335 376
#     4  11  24  40  63  97 133 169 219 273 320 393
#     4  11  23  45  69  94 135 175 216 274 333 389
#     4  10  24  45  70  97 129 169 221 272 325 397
#     4   8  16  31  62  91 124 173 213 268 326 378
#     4  11  23  39  63  95 128 175 222 265 329 392
#
# _framework density 26.515628
#
# number of rings (size 3 to 8) (size 9 to 14) (size 15 to 20)
#    0.000    2.000    2.500    0.375    1.750    1.500 
#    6.750    0.625    0.000   25.500    0.000    0.000 
#    0.000    0.000    0.000    0.000    0.000    0.000 
#
# Total GULP energy -89559.128069 kJ/mol
# GULP energy per Si atom -5597.445504 kJ/mol
# Density = 2.645528 g / cm^3
# Si number density = 26.515628 Si / 1000 Ang^3
#
#
#
# Elastic Constant Matrix: (Units=GPa)
#
#
# Indices 1 2 3 4 5 6 
#
# 1 86.4660 21.1143 30.0962 6.0053 -1.7506 13.2522
# 2 21.1143 112.0167 36.7791 4.7918 4.3172 12.9185
# 3 30.0962 36.7791 103.1962 25.3149 10.2873 6.9526
# 4 6.0053 4.7918 25.3149 37.3666 0.7765 4.9253
# 5 -1.7506 4.3172 10.2873 0.7765 42.2834 7.4432
# 6 13.2522 12.9185 6.9526 4.9253 7.4432 39.8049
#
#
#
# Elastic Compliance Matrix: (Units=1/GPa)
#
#
# Indices 1 2 3 4 5 6 
#
# 1 0.013763 -0.000978 -0.003871 0.001035 0.002323 -0.004151
# 2 -0.000978 0.010569 -0.003736 0.001684 0.000234 -0.002704
# 3 -0.003871 -0.003736 0.014569 -0.008922 -0.003460 0.001707
# 4 0.001035 0.001684 -0.008922 0.032881 0.002106 -0.003795
# 5 0.002323 0.000234 -0.003460 0.002106 0.025452 -0.005265
# 6 -0.004151 -0.002704 0.001707 -0.003795 -0.005265 0.028538
#
#
# Mechanical properties :
#
#
# Convention : Reuss Voigt Hill
#
# Bulk Modulus (GPa) = 46.01739 53.07312 49.54526
# Shear Modulus (GPa) = 33.29212 38.13694 35.71453
#
# Velocity S-wave (km/s) = 3.54724 3.79658 3.67403
# Velocity P-wave (km/s) = 5.84549 6.26721 6.06002
#
# Compressibility (1/GPa) = 0.02173091
#
# Stress axis : x y z
#
# Youngs Moduli (GPa) = 72.65944 94.61612 68.63768
#
# Poissons Ratio (x) = 0.09257 0.26569
# Poissons Ratio (y) = 0.07109 0.25642
# Poissons Ratio (z) = 0.28126 0.35347
#
# Static dielectric constant tensor:
#      x y z
#    x 2.053700 0.044230 0.025200 
#    y 0.044230 2.114630 0.082810 
#    z 0.025200 0.082810 2.106090 
# 
# From -- ./inp_files/603287.got.cif
#   From: 2010.05.17/outbox.cif.g08.bks.cpg/sg2_302_cif.got.tgz:603287.got - 2010.06.03 11:33:40.
