data_PCOD9089276
_publ_section_title
;
Structure prediction by ZEFSAII (Michael W. Deem and Ramdas Pophale) SiO2 
 PCOD9089276
Probable space group: P -1
;
_chemical_formula_sum "Si O2"
_cell_formula_units_Z 16
_cell_length_a 13.369043
_cell_length_b 15.174977
_cell_length_c 5.481582
_cell_angle_alpha 70.646019
_cell_angle_beta 104.161931
_cell_angle_gamma 142.497984
_cell_volume 638.438258
_symmetry_space_group_name_H-M "P -1"
_symmetry_group_IT_number 2
_symmetry_cell_setting 'triclinic'
loop_
_space_group_symop_operation_xyz
x,y,z
-x,-y,-z
loop_
_atom_site_type_symbol
_atom_site_label
_atom_site_fract_x
_atom_site_fract_y
_atom_site_fract_z
Si Si1 0.088767 0.176952 0.644237
Si Si2 0.156074 0.418937 0.674184
Si Si3 0.459800 0.575820 0.980882
Si Si4 0.359603 0.982668 0.920902
Si Si5 0.300166 0.872473 0.488130
Si Si6 0.584392 0.316087 0.774226
Si Si7 0.137217 0.570842 0.819629
Si Si8 0.212227 0.168390 0.235929
O O1 0.086651 0.286593 0.590880
O O2 0.182917 0.211378 0.420585
O O3 0.164988 0.184966 0.932227
O O4 0.909780 0.005166 0.661610
O O5 0.270575 0.452300 0.914532
O O6 0.286963 0.571143 0.459983
O O7 0.061040 0.433006 0.743367
O O8 0.598037 0.728493 0.768658
O O9 0.500000 0.500000 0.000000
O O10 0.480530 0.630755 0.212405
O O11 0.268314 0.909091 0.191895
O O12 0.256476 0.889298 0.703801
O O13 0.500000 0.000000 0.000000
O O14 0.445825 0.143067 0.798898
O O15 0.207446 0.708600 0.588120
O O16 0.500000 0.000000 0.500000
O O17 0.697880 0.350076 0.021453
O O18 0.000000 0.500000 0.000000
#
# Coordination Sequence:
#
# PCOD9089276 Si02
#       8
#     2   2   2   2   2   2   2   2
#     4  10  22  42  69  93 139 182 226 276 355 408
#     4  11  24  41  70  96 139 181 233 290 351 418
#     4  11  23  40  66 101 136 176 234 285 343 406
#     4  10  19  37  67  89 125 168 216 269 335 393
#     4  10  19  39  68  91 125 172 215 270 342 396
#     4  11  24  40  66 100 133 177 230 290 344 417
#     4  11  25  44  65 100 135 180 230 289 353 423
#     4  10  22  42  66  98 134 184 227 284 339 418
#
# _framework density 25.061153999999998
#
# number of rings (size 3 to 8) (size 9 to 14) (size 15 to 20)
#    0.000    1.500    3.750    2.250    5.250    1.500 
#    2.250    0.000    0.000    0.000    0.000    0.000 
#    0.000    0.000    0.000    0.000    0.000    0.000 
#
# Total GULP energy -89458.875034 kJ/mol
# GULP energy per Si atom -5591.179690 kJ/mol
# Density = 2.500411 g / cm^3
# Si number density = 25.061154 Si / 1000 Ang^3
#
#
#
# Elastic Constant Matrix: (Units=GPa)
#
#
# Indices 1 2 3 4 5 6 
#
# 1 79.1396 59.2398 27.6064 16.9599 -23.4944 -20.3736
# 2 59.2398 136.0489 28.8540 7.4860 -5.9788 -30.0163
# 3 27.6064 28.8540 137.2069 8.6244 -19.4321 -20.1120
# 4 16.9599 7.4860 8.6244 41.8511 -6.3355 -7.3753
# 5 -23.4944 -5.9788 -19.4321 -6.3355 43.7342 6.6673
# 6 -20.3736 -30.0163 -20.1120 -7.3753 6.6673 51.2322
#
#
#
# Elastic Compliance Matrix: (Units=1/GPa)
#
#
# Indices 1 2 3 4 5 6 
#
# 1 0.024995 -0.009499 -0.000883 -0.006344 0.010552 0.001741
# 2 -0.009499 0.012226 -0.000791 0.001889 -0.004101 0.003881
# 3 -0.000883 -0.000791 0.008349 -0.000445 0.002752 0.002041
# 4 -0.006344 0.001889 -0.000445 0.026636 0.000173 0.002221
# 5 0.010552 -0.004101 0.002752 0.000173 0.029362 -0.000922
# 6 0.001741 0.003881 0.002041 0.002221 -0.000922 0.023726
#
#
# Mechanical properties :
#
#
# Convention : Reuss Voigt Hill
#
# Bulk Modulus (GPa) = 43.05758 64.86621 53.96189
# Shear Modulus (GPa) = 32.17875 43.14319 37.66097
#
# Velocity S-wave (km/s) = 3.58719 4.15362 3.88075
# Velocity P-wave (km/s) = 5.86307 6.99591 6.45439
#
# Compressibility (1/GPa) = 0.02322472
#
# Stress axis : x y z
#
# Youngs Moduli (GPa) = 40.00796 81.79040 119.77447
#
# Poissons Ratio (x) = 0.77696 0.10576
# Poissons Ratio (y) = 0.38005 0.09468
# Poissons Ratio (z) = 0.03533 0.06466
#
# Static dielectric constant tensor:
#      x y z
#    x 2.048500 0.019330 0.028530 
#    y 0.019330 1.960910 0.033040 
#    z 0.028530 0.033040 2.073150 
# 
# From -- ./inp_files/97014.got.cif
#   From: 2010.05.17/outbox.cif.g08.bks.cpg/sg2_49_cif.got.tgz:97014.got - 2010.06.03 11:33:40.
