data_PCOD9089955
_publ_section_title
;
Structure prediction by ZEFSAII (Michael W. Deem and Ramdas Pophale) SiO2 
 PCOD9089955
Probable space group: P -1
;
_chemical_formula_sum "Si O2"
_cell_formula_units_Z 15
_cell_length_a 11.336515
_cell_length_b 8.184104
_cell_length_c 12.268894
_cell_angle_alpha 56.777150
_cell_angle_beta 138.891995
_cell_angle_gamma 120.440341
_cell_volume 616.903539
_symmetry_space_group_name_H-M "P -1"
_symmetry_group_IT_number 2
_symmetry_cell_setting 'triclinic'
loop_
_space_group_symop_operation_xyz
x,y,z
-x,-y,-z
loop_
_atom_site_type_symbol
_atom_site_label
_atom_site_fract_x
_atom_site_fract_y
_atom_site_fract_z
Si Si1 0.624104 0.071193 0.924758
Si Si2 0.949851 0.732043 0.450447
Si Si3 0.837382 0.793470 0.878113
Si Si4 0.666533 0.448874 0.487430
Si Si5 0.500000 0.000000 0.500000
Si Si6 0.232912 0.897683 0.753807
Si Si7 0.736150 0.468040 0.763655
Si Si8 0.105124 0.188740 0.849036
O O1 0.723769 0.235314 0.853043
O O2 0.408977 0.023595 0.770592
O O3 0.674438 0.161244 0.047901
O O4 0.705585 0.871081 0.039134
O O5 0.775052 0.575854 0.421767
O O6 0.977812 0.712135 0.347677
O O7 0.121837 0.743900 0.647741
O O8 0.896964 0.951808 0.349676
O O9 0.644849 0.870702 0.704720
O O10 0.853922 0.618124 0.870859
O O11 0.862714 0.714440 0.045941
O O12 0.977539 0.982809 0.866042
O O13 0.776763 0.520588 0.648164
O O14 0.468911 0.503747 0.355148
O O15 0.638461 0.212639 0.542150
#
# Coordination Sequence:
#
# PCOD9089955 Si02
#       8
#     2   2   2   2   1   2   2   2
#     4  10  19  38  62  97 123 166 205 262 315 388
#     4  10  20  38  63  95 127 165 207 267 313 381
#     4  10  23  43  61  91 126 174 210 264 310 381
#     4  10  21  38  65  98 120 164 212 266 315 380
#     4  10  22  44  68  86 130 164 214 262 322 372
#     4   9  20  34  63  95 133 154 206 266 327 368
#     4  10  21  36  65  91 125 160 219 259 313 375
#     4  10  23  40  64  88 134 168 207 256 327 371
#
# _framework density 24.314985
#
# number of rings (size 3 to 8) (size 9 to 14) (size 15 to 20)
#    0.000    2.133    1.333    0.800    5.600    2.667 
#    4.800    3.333    5.867    0.000    0.000    0.000 
#    0.000    0.000    0.000    0.000    0.000    0.000 
#
# Total GULP energy -83545.006211 kJ/mol
# GULP energy per Si atom -5569.667081 kJ/mol
# Density = 2.425964 g / cm^3
# Si number density = 24.314985 Si / 1000 Ang^3
#
#
#
# Elastic Constant Matrix: (Units=GPa)
#
#
# Indices 1 2 3 4 5 6 
#
# 1 71.9106 12.8173 47.7271 5.3251 -18.5600 5.7053
# 2 12.8173 70.0833 27.6609 14.7780 -22.2049 -6.7829
# 3 47.7271 27.6609 92.2976 15.4301 -13.9495 -4.4628
# 4 5.3251 14.7780 15.4301 38.7169 -5.4078 0.3887
# 5 -18.5600 -22.2049 -13.9495 -5.4078 46.5042 -7.6634
# 6 5.7053 -6.7829 -4.4628 0.3887 -7.6634 24.3053
#
#
#
# Elastic Compliance Matrix: (Units=1/GPa)
#
#
# Indices 1 2 3 4 5 6 
#
# 1 0.023659 0.001397 -0.012404 0.002007 0.005686 -0.005680
# 2 0.001397 0.020618 -0.004182 -0.005099 0.009848 0.007845
# 3 -0.012404 -0.004182 0.019393 -0.004593 -0.000820 0.005120
# 4 0.002007 -0.005099 -0.004593 0.029343 -0.000134 -0.003249
# 5 0.005686 0.009848 -0.000820 -0.000134 0.029980 0.010718
# 6 -0.005680 0.007845 0.005120 -0.003249 0.010718 0.049037
#
#
# Mechanical properties :
#
#
# Convention : Reuss Voigt Hill
#
# Bulk Modulus (GPa) = 30.03510 45.63356 37.83433
# Shear Modulus (GPa) = 23.41874 31.64435 27.53154
#
# Velocity S-wave (km/s) = 3.10682 3.61145 3.36860
# Velocity P-wave (km/s) = 5.02485 6.01652 5.54291
#
# Compressibility (1/GPa) = 0.03329438
#
# Stress axis : x y z
#
# Youngs Moduli (GPa) = 42.26695 48.50101 51.56469
#
# Poissons Ratio (x) = -0.06777 0.63959
# Poissons Ratio (y) = -0.05906 0.21562
# Poissons Ratio (z) = 0.52427 0.20281
#
# Static dielectric constant tensor:
#      x y z
#    x 1.944400 -0.045640 0.023320 
#    y -0.045640 1.912190 -0.002300 
#    z 0.023320 -0.002300 2.005770 
# 
# From -- ./inp_files/416746.got.cif
#   From: 2010.05.17/outbox.cif.g08.bks.cpg/sg2_209_cif.got.tgz:416746.got - 2010.06.03 11:33:40.
