data_PCOD9089679
_publ_section_title
;
Structure prediction by ZEFSAII (Michael W. Deem and Ramdas Pophale) SiO2 
 PCOD9089679
Probable space group: P -1
;
_chemical_formula_sum "Si O2"
_cell_formula_units_Z 16
_cell_length_a 18.383890
_cell_length_b 8.489370
_cell_length_c 9.578480
_cell_angle_alpha 69.628712
_cell_angle_beta 47.003184
_cell_angle_gamma 40.672430
_cell_volume 666.212643
_symmetry_space_group_name_H-M "P -1"
_symmetry_group_IT_number 2
_symmetry_cell_setting 'triclinic'
loop_
_space_group_symop_operation_xyz
x,y,z
-x,-y,-z
loop_
_atom_site_type_symbol
_atom_site_label
_atom_site_fract_x
_atom_site_fract_y
_atom_site_fract_z
Si Si1 0.680051 0.263127 0.472661
Si Si2 0.645357 0.467262 0.170827
Si Si3 0.172320 0.283728 0.022761
Si Si4 0.328922 0.288020 0.148722
Si Si5 0.131230 0.288182 0.568503
Si Si6 0.102252 0.552254 0.772727
Si Si7 0.652875 0.234641 0.961208
Si Si8 0.752297 0.353751 0.606265
O O1 0.716519 0.314010 0.268295
O O2 0.537370 0.318039 0.626842
O O3 0.646084 0.435552 0.589508
O O4 0.819604 0.966281 0.423195
O O5 0.669361 0.305260 0.064600
O O6 0.696563 0.577252 0.003358
O O7 0.049694 0.468217 0.248655
O O8 0.074912 0.276002 0.054532
O O9 0.176809 0.434279 0.863788
O O10 0.319178 0.998213 0.977231
O O11 0.213578 0.289385 0.341877
O O12 0.314151 0.438428 0.251216
O O13 0.500000 0.000000 0.000000
O O14 0.184679 0.311655 0.635867
O O15 0.118671 0.708484 0.625354
O O16 0.500000 0.500000 0.000000
O O17 0.784309 0.141856 0.715093
#
# Coordination Sequence:
#
# PCOD9089679 Si02
#       8
#     2   2   2   2   2   2   2   2
#     4  11  20  38  60  90 129 163 212 256 322 370
#     4  10  22  35  61  87 127 173 207 253 317 376
#     4   9  19  38  66  90 120 170 217 249 321 382
#     4  10  19  38  60  89 125 170 210 257 313 375
#     4   9  18  36  63  86 119 168 204 258 311 383
#     4   8  18  39  63  91 122 163 215 257 310 376
#     4  11  21  39  62  94 125 164 212 264 310 377
#     4  10  22  38  60  96 127 158 211 270 309 370
#
# _framework density 24.016355000000001
#
# number of rings (size 3 to 8) (size 9 to 14) (size 15 to 20)
#    0.750    1.500    2.500    0.750    0.000    0.500 
#    0.000    6.250    0.000    0.000    0.000    0.000 
#    0.000    0.000    0.000    0.000    0.000    0.000 
#
# Total GULP energy -89180.062702 kJ/mol
# GULP energy per Si atom -5573.753919 kJ/mol
# Density = 2.396169 g / cm^3
# Si number density = 24.016355 Si / 1000 Ang^3
#
#
#
# Elastic Constant Matrix: (Units=GPa)
#
#
# Indices 1 2 3 4 5 6 
#
# 1 58.9158 17.9085 36.5087 -16.8159 26.2205 -6.0084
# 2 17.9085 107.9520 47.0327 -12.0277 17.4742 -13.8580
# 3 36.5087 47.0327 188.1149 -41.6143 20.1062 -8.0532
# 4 -16.8159 -12.0277 -41.6143 30.9231 0.1911 1.1465
# 5 26.2205 17.4742 20.1062 0.1911 37.6692 -4.6919
# 6 -6.0084 -13.8580 -8.0532 1.1465 -4.6919 11.6004
#
#
#
# Elastic Compliance Matrix: (Units=1/GPa)
#
#
# Indices 1 2 3 4 5 6 
#
# 1 0.032405 0.001152 0.000135 0.018113 -0.022329 0.007433
# 2 0.001152 0.012369 -0.001777 0.002618 -0.004081 0.012230
# 3 0.000135 -0.001777 0.008615 0.010949 -0.003758 0.001325
# 4 0.018113 0.002618 0.010949 0.057812 -0.019130 0.006659
# 5 -0.022329 -0.004081 -0.003758 -0.019130 0.046279 0.001560
# 6 0.007433 0.012230 0.001325 0.006659 0.001560 0.105556
#
#
# Mechanical properties :
#
#
# Convention : Reuss Voigt Hill
#
# Bulk Modulus (GPa) = 19.08123 61.98696 40.53409
# Shear Modulus (GPa) = 17.76288 32.94073 25.35181
#
# Velocity S-wave (km/s) = 2.72254 3.70752 3.25253
# Velocity P-wave (km/s) = 4.22437 6.64786 5.56953
#
# Compressibility (1/GPa) = 0.05240753
#
# Stress axis : x y z
#
# Youngs Moduli (GPa) = 30.85939 80.84895 116.08191
#
# Poissons Ratio (x) = -0.09316 -0.01562
# Poissons Ratio (y) = -0.03556 0.20631
# Poissons Ratio (z) = -0.00415 0.14369
#
# Static dielectric constant tensor:
#      x y z
#    x 1.996070 -0.014340 -0.067190 
#    y -0.014340 1.903680 -0.014400 
#    z -0.067190 -0.014400 1.969980 
# 
# From -- ./inp_files/342532.got.cif
#   From: 2010.05.17/outbox.cif.g08.bks.cpg/sg2_172_cif.got.tgz:342532.got - 2010.06.03 11:33:40.
