data_PCOD9089387
_publ_section_title
;
Structure prediction by ZEFSAII (Michael W. Deem and Ramdas Pophale) SiO2 
 PCOD9089387
Probable space group: P -1
;
_chemical_formula_sum "Si O2"
_cell_formula_units_Z 16
_cell_length_a 10.027972
_cell_length_b 12.066311
_cell_length_c 12.197208
_cell_angle_alpha 34.182240
_cell_angle_beta 81.234679
_cell_angle_gamma 104.763427
_cell_volume 596.296772
_symmetry_space_group_name_H-M "P -1"
_symmetry_group_IT_number 2
_symmetry_cell_setting 'triclinic'
loop_
_space_group_symop_operation_xyz
x,y,z
-x,-y,-z
loop_
_atom_site_type_symbol
_atom_site_label
_atom_site_fract_x
_atom_site_fract_y
_atom_site_fract_z
Si Si1 0.884209 0.612027 0.814753
Si Si2 0.532630 0.822638 0.696067
Si Si3 0.324190 0.406721 0.457677
Si Si4 0.275724 0.772433 0.032684
Si Si5 0.261589 0.340528 0.776348
Si Si6 0.680010 0.180474 0.576231
Si Si7 0.845808 0.176854 0.777361
Si Si8 0.155596 0.039509 0.591080
O O1 0.872632 0.419562 0.887331
O O2 0.929262 0.842941 0.542241
O O3 0.672494 0.439886 0.023536
O O4 0.019812 0.744058 0.793872
O O5 0.640005 0.791173 0.624945
O O6 0.500000 0.000000 0.500000
O O7 0.678265 0.015314 0.617580
O O8 0.302439 0.589241 0.243030
O O9 0.275932 0.397531 0.597810
O O10 0.537279 0.548210 0.309358
O O11 0.197756 0.117939 0.648355
O O12 0.247241 0.897730 0.030856
O O13 0.463328 0.014658 0.749957
O O14 0.223983 0.510695 0.700826
O O15 0.120025 0.020654 0.079118
O O16 0.733598 0.134911 0.720608
O O17 0.000000 0.500000 0.500000
#
# Coordination Sequence:
#
# PCOD9089387 Si02
#       8
#     2   2   2   2   2   2   2   2
#     4   9  22  41  67  98 128 175 220 272 329 390
#     4  11  24  42  64  97 133 175 218 271 330 391
#     4  10  19  37  69  98 122 171 220 267 321 386
#     4  10  19  41  67  90 130 169 216 268 325 388
#     4  11  22  40  68  95 127 168 219 264 323 393
#     4  11  23  44  67  94 127 171 220 264 323 392
#     4  12  26  41  63  97 131 170 210 267 333 386
#     4  10  21  42  68  97 131 172 224 270 328 390
#
# _framework density 26.832277999999999
#
# number of rings (size 3 to 8) (size 9 to 14) (size 15 to 20)
#    0.000    1.500    2.500    3.000    1.750    2.000 
#    4.500    0.000    0.000    0.000    0.000    0.000 
#    0.000    0.000    0.000    0.000    0.000    0.000 
#
# Total GULP energy -89613.992759 kJ/mol
# GULP energy per Si atom -5600.874547 kJ/mol
# Density = 2.677121 g / cm^3
# Si number density = 26.832278 Si / 1000 Ang^3
#
#
#
# Elastic Constant Matrix: (Units=GPa)
#
#
# Indices 1 2 3 4 5 6 
#
# 1 54.1149 16.1607 24.4300 8.0458 -4.2322 11.6155
# 2 16.1607 157.0101 23.0693 -6.5868 -16.7075 29.5390
# 3 24.4300 23.0693 83.2892 -26.2485 19.1576 0.5258
# 4 8.0458 -6.5868 -26.2485 31.2465 -1.1862 -5.4501
# 5 -4.2322 -16.7075 19.1576 -1.1862 39.0606 3.4400
# 6 11.6155 29.5390 0.5258 -5.4501 3.4400 51.6026
#
#
#
# Elastic Compliance Matrix: (Units=1/GPa)
#
#
# Indices 1 2 3 4 5 6 
#
# 1 0.041129 0.003841 -0.029303 -0.036467 0.020808 -0.016397
# 2 0.003841 0.009068 -0.007530 -0.006341 0.008430 -0.007210
# 3 -0.029303 -0.007530 0.042682 0.043721 -0.027492 0.016922
# 4 -0.036467 -0.006341 0.043721 0.079510 -0.027597 0.021630
# 5 0.020808 0.008430 -0.027492 -0.027597 0.045444 -0.015174
# 6 -0.016397 -0.007210 0.016922 0.021630 -0.015174 0.030321
#
#
# Mechanical properties :
#
#
# Convention : Reuss Voigt Hill
#
# Bulk Modulus (GPa) = 37.18021 46.85937 42.01979
# Shear Modulus (GPa) = 15.47496 39.76556 27.62026
#
# Velocity S-wave (km/s) = 2.40412 3.85386 3.21186
# Velocity P-wave (km/s) = 4.64683 6.10776 5.42668
#
# Compressibility (1/GPa) = 0.02689603
#
# Stress axis : x y z
#
# Youngs Moduli (GPa) = 24.31346 110.28298 23.42882
#
# Poissons Ratio (x) = -0.42362 0.68653
# Poissons Ratio (y) = -0.09339 0.17642
# Poissons Ratio (z) = 0.71245 0.83044
#
# Static dielectric constant tensor:
#      x y z
#    x 2.059290 0.034450 -0.024040 
#    y 0.034450 2.419260 -0.007280 
#    z -0.024040 -0.007280 2.129320 
# 
# From -- ./inp_files/427394.got.cif
#   From: 2010.05.17/outbox.cif.g08.bks.cpg/sg2_214_cif.got.tgz:427394.got - 2010.06.03 11:33:40.
