data_PCOD9089635
_publ_section_title
;
Structure prediction by ZEFSAII (Michael W. Deem and Ramdas Pophale) SiO2 
 PCOD9089635
Probable space group: P -1
;
_chemical_formula_sum "Si O2"
_cell_formula_units_Z 16
_cell_length_a 8.987290
_cell_length_b 21.008363
_cell_length_c 17.862625
_cell_angle_alpha 18.766884
_cell_angle_beta 39.591010
_cell_angle_gamma 40.796889
_cell_volume 685.297367
_symmetry_space_group_name_H-M "P -1"
_symmetry_group_IT_number 2
_symmetry_cell_setting 'triclinic'
loop_
_space_group_symop_operation_xyz
x,y,z
-x,-y,-z
loop_
_atom_site_type_symbol
_atom_site_label
_atom_site_fract_x
_atom_site_fract_y
_atom_site_fract_z
Si Si1 0.263295 0.586725 0.228094
Si Si2 0.531096 0.784792 0.573843
Si Si3 0.712435 0.568265 0.447661
Si Si4 0.715125 0.256084 0.663211
Si Si5 0.034337 0.766104 0.765976
Si Si6 0.894008 0.570915 0.779817
Si Si7 0.644740 0.761954 0.808832
Si Si8 0.901035 0.988668 0.131799
O O1 0.336628 0.445200 0.428990
O O2 0.992577 0.572771 0.327604
O O3 0.426502 0.635251 0.041495
O O4 0.253877 0.803028 0.028954
O O5 0.308183 0.720243 0.690219
O O6 0.666872 0.628938 0.751541
O O7 0.446574 0.998493 0.412193
O O8 0.729607 0.823700 0.394163
O O9 0.672808 0.377908 0.622548
O O10 0.531278 0.741257 0.286630
O O11 0.881484 0.366357 0.420342
O O12 0.884918 0.056483 0.842539
O O13 0.820309 0.693103 0.886313
O O14 0.045681 0.659215 0.961504
O O15 0.000000 0.000000 0.500000
O O16 0.811623 0.704048 0.737099
O O17 0.000000 0.000000 0.000000
#
# Coordination Sequence:
#
# PCOD9089635 Si02
#       8
#     2   2   2   2   2   2   2   2
#     4  10  21  38  62  84 116 161 193 246 290 354
#     4   9  21  37  60  85 118 158 194 243 295 354
#     4  10  21  39  58  85 118 152 206 237 293 347
#     4  10  22  39  61  87 118 155 194 249 295 345
#     4  10  21  38  56  86 118 155 198 239 290 353
#     4  11  21  38  60  87 121 154 193 244 299 354
#     4  10  21  38  60  85 123 153 197 240 302 344
#     4  10  19  38  60  85 118 154 195 241 298 348
#
# _framework density 23.347529999999999
#
# number of rings (size 3 to 8) (size 9 to 14) (size 15 to 20)
#    0.000    2.000    1.250    1.875    0.000    3.500 
#    2.250    2.500    0.000    0.000    0.000    0.000 
#    0.000    0.000    0.000    0.000    0.000    0.000 
#
# Total GULP energy -89161.608700 kJ/mol
# GULP energy per Si atom -5572.600544 kJ/mol
# Density = 2.329439 g / cm^3
# Si number density = 23.347530 Si / 1000 Ang^3
#
#
#
# Elastic Constant Matrix: (Units=GPa)
#
#
# Indices 1 2 3 4 5 6 
#
# 1 118.5302 12.1166 45.5569 12.5628 18.7100 -43.2281
# 2 12.1166 77.8295 18.7999 0.8252 15.3963 4.8642
# 3 45.5569 18.7999 93.5296 -3.3698 24.1211 -8.8049
# 4 12.5628 0.8252 -3.3698 24.8073 -13.0161 4.0072
# 5 18.7100 15.3963 24.1211 -13.0161 33.6871 -2.2774
# 6 -43.2281 4.8642 -8.8049 4.0072 -2.2774 42.6041
#
#
#
# Elastic Compliance Matrix: (Units=1/GPa)
#
#
# Indices 1 2 3 4 5 6 
#
# 1 0.028032 -0.000159 -0.006709 -0.030541 -0.020543 0.028849
# 2 -0.000159 0.014859 -0.001322 -0.004194 -0.007521 -0.002138
# 3 -0.006709 -0.001322 0.015448 0.003162 -0.005784 -0.004070
# 4 -0.030541 -0.004194 0.003162 0.087221 0.047916 -0.035498
# 5 -0.020543 -0.007521 -0.005784 0.047916 0.065689 -0.022176
# 6 0.028849 -0.002138 -0.004070 -0.035498 -0.022176 0.054300
#
#
# Mechanical properties :
#
#
# Convention : Reuss Voigt Hill
#
# Bulk Modulus (GPa) = 23.83235 49.20400 36.51817
# Shear Modulus (GPa) = 16.89676 34.44743 25.67209
#
# Velocity S-wave (km/s) = 2.69310 3.84529 3.31956
# Velocity P-wave (km/s) = 4.46096 6.39025 5.51070
#
# Compressibility (1/GPa) = 0.04195978
#
# Stress axis : x y z
#
# Youngs Moduli (GPa) = 35.67290 67.30081 64.73461
#
# Poissons Ratio (x) = 0.01070 0.43428
# Poissons Ratio (y) = 0.00567 0.08557
# Poissons Ratio (z) = 0.23932 0.08897
#
# Static dielectric constant tensor:
#      x y z
#    x 1.869060 0.039660 -0.042610 
#    y 0.039660 2.098990 0.035080 
#    z -0.042610 0.035080 2.008410 
# 
# From -- ./inp_files/277620.got.cif
#   From: 2010.05.17/outbox.cif.g08.bks.cpg/sg2_139_cif.got.tgz:277620.got - 2010.06.03 11:33:40.
