data_PCOD9089053
_publ_section_title
;
Structure prediction by ZEFSAII (Michael W. Deem and Ramdas Pophale) SiO2 
 PCOD9089053
Probable space group: P -1
;
_chemical_formula_sum "Si O2"
_cell_formula_units_Z 16
_cell_length_a 10.124405
_cell_length_b 9.472027
_cell_length_c 25.654071
_cell_angle_alpha 133.633336
_cell_angle_beta 150.500548
_cell_angle_gamma 44.443083
_cell_volume 831.263548
_symmetry_space_group_name_H-M "P -1"
_symmetry_group_IT_number 2
_symmetry_cell_setting 'triclinic'
loop_
_space_group_symop_operation_xyz
x,y,z
-x,-y,-z
loop_
_atom_site_type_symbol
_atom_site_label
_atom_site_fract_x
_atom_site_fract_y
_atom_site_fract_z
Si Si1 0.851161 0.827509 0.510214
Si Si2 0.762066 0.482806 0.153433
Si Si3 0.799731 0.563615 0.897142
Si Si4 0.230620 0.822927 0.275894
Si Si5 0.820895 0.264135 0.641981
Si Si6 0.792546 0.254999 0.211193
Si Si7 0.838188 0.571304 0.544784
Si Si8 0.865500 0.245871 0.020242
O O1 0.526524 0.870716 0.392491
O O2 0.870683 0.719011 0.545896
O O3 0.048705 0.659744 0.496857
O O4 0.921175 0.037350 0.593718
O O5 0.726118 0.341194 0.152329
O O6 0.864002 0.338968 0.101190
O O7 0.991915 0.595527 0.273076
O O8 0.463577 0.659850 0.085501
O O9 0.745059 0.367321 0.801747
O O10 0.497287 0.713449 0.849567
O O11 0.952329 0.661616 0.932065
O O12 0.000000 0.500000 0.000000
O O13 0.168772 0.766432 0.299326
O O14 0.987169 0.020461 0.222138
O O15 0.492194 0.365840 0.540193
O O16 0.968964 0.387729 0.333156
O O17 0.000000 0.000000 0.000000
#
# Coordination Sequence:
#
# PCOD9089053 Si02
#       8
#     2   2   2   2   2   2   2   2
#     4  10  19  37  64  98 131 171 219 266 317 392
#     4  11  27  45  65  98 137 172 221 273 328 396
#     4  12  26  45  69 101 128 167 228 280 322 389
#     4  11  22  40  69  97 133 173 222 267 326 389
#     4  11  21  40  64  96 132 178 216 259 327 397
#     4  12  24  41  69  97 134 172 215 278 327 380
#     4  10  20  35  62  96 131 168 215 266 318 389
#     4  11  27  49  68  93 133 177 221 273 334 391
#
# _framework density 19.247807000000002
#
# number of rings (size 3 to 8) (size 9 to 14) (size 15 to 20)
#    0.000    1.000    6.250    0.750    3.500    2.000 
#    0.000    0.625    0.000    0.000    0.000    0.000 
#    0.000    0.000    0.000    0.000    0.000    0.000 
#
# Total GULP energy -89459.103977 kJ/mol
# GULP energy per Si atom -5591.193999 kJ/mol
# Density = 1.920400 g / cm^3
# Si number density = 19.247807 Si / 1000 Ang^3
#
#
#
# Elastic Constant Matrix: (Units=GPa)
#
#
# Indices 1 2 3 4 5 6 
#
# 1 84.3384 35.3248 23.2784 -1.2140 5.0562 -7.7754
# 2 35.3248 101.3790 14.6678 -11.1716 1.9824 -25.5155
# 3 23.2784 14.6678 49.3460 -3.7661 3.3890 3.7513
# 4 -1.2140 -11.1716 -3.7661 25.9600 1.7699 0.6342
# 5 5.0562 1.9824 3.3890 1.7699 26.0050 -5.5762
# 6 -7.7754 -25.5155 3.7513 0.6342 -5.5762 13.4088
#
#
#
# Elastic Compliance Matrix: (Units=1/GPa)
#
#
# Indices 1 2 3 4 5 6 
#
# 1 0.015613 -0.003925 -0.006498 -0.001900 -0.001111 0.003030
# 2 -0.003925 0.028816 -0.011554 0.008208 0.012509 0.060603
# 3 -0.006498 -0.011554 0.030448 0.000774 -0.010137 -0.038523
# 4 -0.001900 0.008208 0.000774 0.041824 -0.000616 0.012066
# 5 -0.001111 0.012509 -0.010137 -0.000616 0.049032 0.046414
# 6 0.003030 0.060603 -0.038523 0.012066 0.046414 0.221165
#
#
# Mechanical properties :
#
#
# Convention : Reuss Voigt Hill
#
# Bulk Modulus (GPa) = 32.33655 42.40060 37.36857
# Shear Modulus (GPa) = 11.33378 23.86091 17.59735
#
# Velocity S-wave (km/s) = 2.42923 3.52471 3.02694
# Velocity P-wave (km/s) = 4.97039 6.21622 5.62789
#
# Compressibility (1/GPa) = 0.03092476
#
# Stress axis : x y z
#
# Youngs Moduli (GPa) = 64.04890 34.70288 32.84254
#
# Poissons Ratio (x) = 0.13621 0.21340
# Poissons Ratio (y) = 0.25140 0.37945
# Poissons Ratio (z) = 0.41617 0.40094
#
# Static dielectric constant tensor:
#      x y z
#    x 1.655600 -0.001940 -0.012030 
#    y -0.001940 1.644020 -0.007730 
#    z -0.012030 -0.007730 1.658140 
# 
# From -- ./inp_files/207163.got.cif
#   From: 2010.05.17/outbox.cif.g08.bks.cpg/sg2_104_cif.got.tgz:207163.got - 2010.06.03 11:33:40.
