data_PCOD9089610
_publ_section_title
;
Structure prediction by ZEFSAII (Michael W. Deem and Ramdas Pophale) SiO2 
 PCOD9089610
Probable space group: P -1
;
_chemical_formula_sum "Si O2"
_cell_formula_units_Z 16
_cell_length_a 10.970097
_cell_length_b 16.198388
_cell_length_c 9.537606
_cell_angle_alpha 129.071795
_cell_angle_beta 79.238176
_cell_angle_gamma 60.250734
_cell_volume 767.066302
_symmetry_space_group_name_H-M "P -1"
_symmetry_group_IT_number 2
_symmetry_cell_setting 'triclinic'
loop_
_space_group_symop_operation_xyz
x,y,z
-x,-y,-z
loop_
_atom_site_type_symbol
_atom_site_label
_atom_site_fract_x
_atom_site_fract_y
_atom_site_fract_z
Si Si1 0.264689 0.623938 0.163672
Si Si2 0.259516 0.133204 0.710186
Si Si3 0.077596 0.775868 0.672103
Si Si4 0.019337 0.599582 0.179473
Si Si5 0.060469 0.823257 0.144405
Si Si6 0.011628 0.511703 0.675316
Si Si7 0.233139 0.851155 0.918200
Si Si8 0.710452 0.501784 0.440072
O O1 0.157398 0.704422 0.423386
O O2 0.227694 0.524600 0.026549
O O3 0.140915 0.776459 0.235666
O O4 0.500000 0.500000 0.000000
O O5 0.160793 0.211827 0.659471
O O6 0.161962 0.085228 0.723738
O O7 0.500000 0.000000 0.500000
O O8 0.158173 0.289041 0.007452
O O9 0.195302 0.795449 0.739168
O O10 0.140445 0.636325 0.611009
O O11 0.839763 0.981752 0.934074
O O12 0.994567 0.588555 0.335438
O O13 0.000000 0.500000 0.000000
O O14 0.084562 0.911476 0.140355
O O15 0.232402 0.625180 0.824304
O O16 0.000000 0.500000 0.500000
O O17 0.225347 0.429207 0.561002
O O18 0.471957 0.672203 0.718902
#
# Coordination Sequence:
#
# PCOD9089610 Si02
#       8
#     2   2   2   2   2   2   2   2
#     4  11  20  35  60  91 120 153 196 253 308 345
#     4   9  19  39  58  81 118 162 195 251 308 356
#     4  10  21  35  56  86 120 151 196 249 292 362
#     4   9  20  39  60  87 121 158 204 241 299 382
#     4   9  19  35  58  82 118 153 199 244 299 367
#     4  10  20  37  58  87 111 151 206 250 291 370
#     4  10  20  38  56  85 117 160 199 240 302 366
#     4  10  19  38  60  77 118 157 193 246 308 348
#
# _framework density 20.858691
#
# number of rings (size 3 to 8) (size 9 to 14) (size 15 to 20)
#    0.000    2.250    0.000    4.500    0.000    0.500 
#   18.000    0.625    0.000    0.000    0.000    0.000 
#    0.000    0.000    0.000    0.000    0.000    0.000 
#
# Total GULP energy -89123.353976 kJ/mol
# GULP energy per Si atom -5570.209623 kJ/mol
# Density = 2.081122 g / cm^3
# Si number density = 20.858691 Si / 1000 Ang^3
#
#
#
# Elastic Constant Matrix: (Units=GPa)
#
#
# Indices 1 2 3 4 5 6 
#
# 1 99.0188 29.1557 35.1574 11.7968 -30.1856 -1.2270
# 2 29.1557 109.8244 31.8845 -20.1956 -5.9250 0.6571
# 3 35.1574 31.8845 70.9925 -10.0195 -16.8713 -7.2228
# 4 11.7968 -20.1956 -10.0195 37.3021 -11.3357 4.4701
# 5 -30.1856 -5.9250 -16.8713 -11.3357 34.1090 -6.1771
# 6 -1.2270 0.6571 -7.2228 4.4701 -6.1771 27.0426
#
#
#
# Elastic Compliance Matrix: (Units=1/GPa)
#
#
# Indices 1 2 3 4 5 6 
#
# 1 0.016727 -0.003568 -0.004674 -0.005628 0.010532 0.002933
# 2 -0.003568 0.012238 -0.003197 0.006977 -0.000773 -0.002643
# 3 -0.004674 -0.003197 0.022028 0.007912 0.010053 0.006738
# 4 -0.005628 0.006977 0.007912 0.038544 0.012629 -0.001798
# 5 0.010532 -0.000773 0.010053 0.012629 0.049937 0.012501
# 6 0.002933 -0.002643 0.006738 -0.001798 0.012501 0.042128
#
#
# Mechanical properties :
#
#
# Convention : Reuss Voigt Hill
#
# Bulk Modulus (GPa) = 35.56944 52.47009 44.01977
# Shear Modulus (GPa) = 23.38062 31.93327 27.65694
#
# Velocity S-wave (km/s) = 3.35162 3.91696 3.64527
# Velocity P-wave (km/s) = 5.66281 6.75769 6.23433
#
# Compressibility (1/GPa) = 0.02811402
#
# Stress axis : x y z
#
# Youngs Moduli (GPa) = 59.78497 81.71251 45.39659
#
# Poissons Ratio (x) = 0.29153 0.21219
# Poissons Ratio (y) = 0.21330 0.14515
# Poissons Ratio (z) = 0.27944 0.26127
#
# Static dielectric constant tensor:
#      x y z
#    x 1.810580 0.008070 0.012690 
#    y 0.008070 1.813380 -0.003760 
#    z 0.012690 -0.003760 1.728520 
# 
# From -- ./inp_files/278259.got.cif
#   From: 2010.05.17/outbox.cif.g08.bks.cpg/sg2_140_cif.got.tgz:278259.got - 2010.06.03 11:33:40.
