data_PCOD9089085
_publ_section_title
;
Structure prediction by ZEFSAII (Michael W. Deem and Ramdas Pophale) SiO2 
 PCOD9089085
Probable space group: P -1
;
_chemical_formula_sum "Si O2"
_cell_formula_units_Z 16
_cell_length_a 8.880265
_cell_length_b 8.969479
_cell_length_c 11.575420
_cell_angle_alpha 119.102722
_cell_angle_beta 95.863694
_cell_angle_gamma 64.369847
_cell_volume 719.441512
_symmetry_space_group_name_H-M "P -1"
_symmetry_group_IT_number 2
_symmetry_cell_setting 'triclinic'
loop_
_space_group_symop_operation_xyz
x,y,z
-x,-y,-z
loop_
_atom_site_type_symbol
_atom_site_label
_atom_site_fract_x
_atom_site_fract_y
_atom_site_fract_z
Si Si1 0.127680 0.926758 0.226753
Si Si2 0.152630 0.298903 0.097470
Si Si3 0.828381 0.483869 0.507866
Si Si4 0.743860 0.787745 0.188468
Si Si5 0.626315 0.888666 0.752318
Si Si6 0.944920 0.277485 0.669401
Si Si7 0.850759 0.266745 0.208316
Si Si8 0.322008 0.578003 0.954256
O O1 0.116163 0.866688 0.332881
O O2 0.257958 0.016516 0.254477
O O3 0.194078 0.731694 0.088433
O O4 0.951623 0.070380 0.209146
O O5 0.317476 0.155106 0.126005
O O6 0.132361 0.511193 0.198695
O O7 0.996468 0.286477 0.148759
O O8 0.166120 0.255366 0.946701
O O9 0.690451 0.682574 0.620323
O O10 0.887864 0.322815 0.550339
O O11 0.779294 0.421551 0.361226
O O12 0.000000 0.500000 0.500000
O O13 0.711463 0.603619 0.140940
O O14 0.860644 0.801710 0.305214
O O15 0.567126 0.972156 0.231026
O O16 0.702728 0.302391 0.120482
O O17 0.500000 0.500000 0.000000
#
# Coordination Sequence:
#
# PCOD9089085 Si02
#       8
#     2   2   2   2   2   2   2   2
#     4  11  22  40  63  99 129 164 221 265 322 376
#     4  10  19  37  65  88 128 168 216 254 316 389
#     4  11  20  45  69  87 128 181 223 253 304 400
#     4  12  21  39  61 102 133 161 211 271 334 378
#     4  10  23  39  64  98 128 176 208 265 330 378
#     4  11  22  37  67  98 124 172 221 263 309 383
#     4  11  23  43  66  92 126 178 219 256 319 388
#     4  12  23  38  63  97 133 165 201 274 338 374
#
# _framework density 22.239473
#
# number of rings (size 3 to 8) (size 9 to 14) (size 15 to 20)
#    0.000    1.000    7.500    1.875    0.000    1.500 
#    2.250    3.750    0.000    1.500    3.250    0.000 
#    0.000    0.000    0.000    0.000    0.000    0.000 
#
# Total GULP energy -89463.580895 kJ/mol
# GULP energy per Si atom -5591.473806 kJ/mol
# Density = 2.218886 g / cm^3
# Si number density = 22.239473 Si / 1000 Ang^3
#
#
#
# Elastic Constant Matrix: (Units=GPa)
#
#
# Indices 1 2 3 4 5 6 
#
# 1 44.1666 43.4770 16.3752 -10.4106 4.9371 -11.8546
# 2 43.4770 149.6148 25.2723 -14.4170 -16.1621 -15.1854
# 3 16.3752 25.2723 62.6495 -10.0447 -13.5897 -16.3428
# 4 -10.4106 -14.4170 -10.0447 41.2635 -1.0036 -7.0541
# 5 4.9371 -16.1621 -13.5897 -1.0036 14.3665 -2.5269
# 6 -11.8546 -15.1854 -16.3428 -7.0541 -2.5269 42.4500
#
#
#
# Elastic Compliance Matrix: (Units=1/GPa)
#
#
# Indices 1 2 3 4 5 6 
#
# 1 0.055693 -0.019606 -0.020732 0.000137 -0.061337 -0.003071
# 2 -0.019606 0.015645 0.008426 0.004434 0.033693 0.006108
# 3 -0.020732 0.008426 0.035351 0.010311 0.053532 0.015734
# 4 0.000137 0.004434 0.010311 0.030813 0.018930 0.011841
# 5 -0.061337 0.033693 0.053532 0.018930 0.185778 0.029737
# 6 -0.003071 0.006108 0.015734 0.011841 0.029737 0.034680
#
#
# Mechanical properties :
#
#
# Convention : Reuss Voigt Hill
#
# Bulk Modulus (GPa) = 23.32901 47.40886 35.36894
# Shear Modulus (GPa) = 11.46600 31.03644 21.25122
#
# Velocity S-wave (km/s) = 2.27308 3.73977 3.09457
# Velocity P-wave (km/s) = 4.17156 6.32547 5.35786
#
# Compressibility (1/GPa) = 0.04286508
#
# Stress axis : x y z
#
# Youngs Moduli (GPa) = 17.95564 63.91908 28.28773
#
# Poissons Ratio (x) = 1.25322 0.58646
# Poissons Ratio (y) = 0.35204 -0.23836
# Poissons Ratio (z) = 0.37225 -0.53861
#
# Static dielectric constant tensor:
#      x y z
#    x 1.847280 0.017320 0.004050 
#    y 0.017320 1.827870 -0.004620 
#    z 0.004050 -0.004620 1.850480 
# 
# From -- ./inp_files/383291.got.cif
#   From: 2010.05.17/outbox.cif.g08.bks.cpg/sg2_192_cif.got.tgz:383291.got - 2010.06.03 11:33:40.
