data_PCOD9089036
_publ_section_title
;
Structure prediction by ZEFSAII (Michael W. Deem and Ramdas Pophale) SiO2 
 PCOD9089036
Probable space group: P -1
;
_chemical_formula_sum "Si O2"
_cell_formula_units_Z 12
_cell_length_a 9.841596
_cell_length_b 4.852596
_cell_length_c 8.946745
_cell_angle_alpha 83.844926
_cell_angle_beta 95.138763
_cell_angle_gamma 88.199302
_cell_volume 422.738488
_symmetry_space_group_name_H-M "P -1"
_symmetry_group_IT_number 2
_symmetry_cell_setting 'triclinic'
loop_
_space_group_symop_operation_xyz
x,y,z
-x,-y,-z
loop_
_atom_site_type_symbol
_atom_site_label
_atom_site_fract_x
_atom_site_fract_y
_atom_site_fract_z
Si Si1 0.621131 0.912033 0.194668
Si Si2 0.320521 0.882916 0.127574
Si Si3 0.558825 0.776202 0.639962
Si Si4 0.968707 0.234865 0.858947
Si Si5 0.975479 0.244418 0.324793
Si Si6 0.229534 0.459492 0.523957
O O1 0.477219 0.766467 0.153314
O O2 0.712622 0.738165 0.327471
O O3 0.564624 0.197920 0.252807
O O4 0.692315 0.968042 0.042516
O O5 0.322686 0.093339 0.254645
O O6 0.192860 0.696589 0.144304
O O7 0.636972 0.527716 0.571396
O O8 0.500000 0.000000 0.500000
O O9 0.999930 0.056939 0.723001
O O10 0.039385 0.524962 0.824109
O O11 0.000000 0.000000 0.000000
O O12 0.842996 0.279972 0.414912
O O13 0.106533 0.334321 0.425859
#
# Coordination Sequence:
#
# PCOD9089036 Si02
#       6
#     2   2   2   2   2   2
#     4   8  16  32  62  95 128 168 214 266 321 379
#     4   9  17  34  62  95 129 169 214 267 318 380
#     4   8  14  30  60  94 126 169 210 264 321 377
#     4  12  25  44  67  96 132 172 215 265 321 383
#     4  11  25  42  66  97 130 172 215 263 318 386
#     4  10  19  37  64  95 131 170 213 266 322 383
#
# _framework density 28.386344999999999
#
# number of rings (size 3 to 8) (size 9 to 14) (size 15 to 20)
#    1.000    1.333    1.667    1.500    0.000    2.667 
#    0.000    0.833    0.000   16.000    0.000    0.000 
#    0.000    0.000    0.000    0.000    0.000    0.000 
#
# Total GULP energy -67156.322252 kJ/mol
# GULP energy per Si atom -5596.360188 kJ/mol
# Density = 2.832174 g / cm^3
# Si number density = 28.386345 Si / 1000 Ang^3
#
#
#
# Elastic Constant Matrix: (Units=GPa)
#
#
# Indices 1 2 3 4 5 6 
#
# 1 129.1914 26.3569 25.9472 14.6401 -8.2594 -12.5163
# 2 26.3569 127.4381 41.5966 -6.6804 -8.8427 -11.9970
# 3 25.9472 41.5966 165.8621 -18.0205 -3.7937 -13.7311
# 4 14.6401 -6.6804 -18.0205 41.3953 -18.3800 4.3224
# 5 -8.2594 -8.8427 -3.7937 -18.3800 49.8170 5.1272
# 6 -12.5163 -11.9970 -13.7311 4.3224 5.1272 34.0270
#
#
#
# Elastic Compliance Matrix: (Units=1/GPa)
#
#
# Indices 1 2 3 4 5 6 
#
# 1 0.009083 -0.001470 -0.001340 -0.004759 -0.000924 0.003026
# 2 -0.001470 0.009059 -0.001674 0.001892 0.001783 0.001469
# 3 -0.001340 -0.001674 0.007196 0.003801 0.001314 0.001140
# 4 -0.004759 0.001892 0.003801 0.034212 0.013062 -0.005864
# 5 -0.000924 0.001783 0.001314 0.013062 0.025640 -0.004704
# 6 0.003026 0.001469 0.001140 -0.005864 -0.004704 0.032933
#
#
# Mechanical properties :
#
#
# Convention : Reuss Voigt Hill
#
# Bulk Modulus (GPa) = 61.08918 67.81034 64.44976
# Shear Modulus (GPa) = 37.72243 46.95394 42.33818
#
# Velocity S-wave (km/s) = 3.64935 4.07148 3.86618
# Velocity P-wave (km/s) = 6.27092 6.78549 6.53327
#
# Compressibility (1/GPa) = 0.01636951
#
# Stress axis : x y z
#
# Youngs Moduli (GPa) = 110.09774 110.39348 138.96836
#
# Poissons Ratio (x) = 0.16227 0.18622
# Poissons Ratio (y) = 0.16183 0.23263
# Poissons Ratio (z) = 0.14753 0.18479
#
# Static dielectric constant tensor:
#      x y z
#    x 2.191820 0.074820 -0.032880 
#    y 0.074820 2.204010 -0.068910 
#    z -0.032880 -0.068910 2.308110 
# 
# From -- ./inp_files/74870.got.cif
#   From: 2010.05.17/outbox.cif.g08.bks.cpg/sg2_38_cif.got.tgz:74870.got - 2010.06.03 11:33:40.
