data_PCOD9089129
_publ_section_title
;
Structure prediction by ZEFSAII (Michael W. Deem and Ramdas Pophale) SiO2 
 PCOD9089129
Probable space group: P -1
;
_chemical_formula_sum "Si O2"
_cell_formula_units_Z 16
_cell_length_a 9.576490
_cell_length_b 8.636139
_cell_length_c 11.439973
_cell_angle_alpha 96.641450
_cell_angle_beta 48.552215
_cell_angle_gamma 88.291632
_cell_volume 697.195640
_symmetry_space_group_name_H-M "P -1"
_symmetry_group_IT_number 2
_symmetry_cell_setting 'triclinic'
loop_
_space_group_symop_operation_xyz
x,y,z
-x,-y,-z
loop_
_atom_site_type_symbol
_atom_site_label
_atom_site_fract_x
_atom_site_fract_y
_atom_site_fract_z
Si Si1 0.043878 0.645523 0.256484
Si Si2 0.057176 0.309957 0.923984
Si Si3 0.123865 0.653261 0.638183
Si Si4 0.526568 0.929556 0.792288
Si Si5 0.651680 0.576226 0.086891
Si Si6 0.701023 0.810971 0.918615
Si Si7 0.829844 0.142194 0.595236
Si Si8 0.666756 0.315959 0.240697
O O1 0.207470 0.548317 0.078384
O O2 0.134088 0.751871 0.304924
O O3 0.916070 0.729370 0.230018
O O4 0.927269 0.521320 0.371734
O O5 0.249961 0.291137 0.885679
O O6 0.000000 0.500000 0.000000
O O7 0.874198 0.245963 0.067682
O O8 0.173223 0.746939 0.506232
O O9 0.279707 0.642407 0.653676
O O10 0.922069 0.746212 0.802631
O O11 0.655752 0.828001 0.808326
O O12 0.461651 0.817399 0.720509
O O13 0.646119 0.057910 0.689072
O O14 0.357293 0.021325 0.972330
O O15 0.585365 0.466855 0.216537
O O16 0.570161 0.688299 0.035187
O O17 0.000000 0.000000 0.500000
#
# Coordination Sequence:
#
# PCOD9089129 Si02
#       8
#     2   2   2   2   2   2   2   2
#     4   9  18  36  65  93 116 157 215 270 296 360
#     4   8  13  30  61  95 120 141 199 265 310 346
#     4  11  20  43  69  92 117 173 216 258 308 378
#     4  11  26  41  55  96 138 167 200 266 320 375
#     4   9  17  37  67 101 122 154 212 272 315 365
#     4  10  22  40  63  94 129 161 215 254 326 370
#     4  12  26  43  60  87 134 179 214 244 312 395
#     4  10  19  37  65  93 131 154 207 267 316 367
#
# _framework density 22.949085
#
# number of rings (size 3 to 8) (size 9 to 14) (size 15 to 20)
#    0.000    2.250    6.250    0.375    7.000    1.500 
#    4.500    0.000    0.000    1.500    0.000    0.000 
#    0.000    0.000    0.000    0.000    0.000    0.000 
#
# Total GULP energy -89150.110535 kJ/mol
# GULP energy per Si atom -5571.881908 kJ/mol
# Density = 2.289685 g / cm^3
# Si number density = 22.949085 Si / 1000 Ang^3
#
#
#
# Elastic Constant Matrix: (Units=GPa)
#
#
# Indices 1 2 3 4 5 6 
#
# 1 85.8832 59.9710 47.5971 -27.4852 18.4416 22.7589
# 2 59.9710 66.4723 32.6858 -22.5471 12.0753 22.2676
# 3 47.5971 32.6858 49.4353 -22.9635 14.9479 9.5217
# 4 -27.4852 -22.5471 -22.9635 26.7945 -9.1497 -8.4822
# 5 18.4416 12.0753 14.9479 -9.1497 29.9703 -5.6376
# 6 22.7589 22.2676 9.5217 -8.4822 -5.6376 40.4975
#
#
#
# Elastic Compliance Matrix: (Units=1/GPa)
#
#
# Indices 1 2 3 4 5 6 
#
# 1 0.047601 -0.027256 -0.023885 0.000610 -0.007540 -0.007071
# 2 -0.027256 0.043945 0.003209 0.008797 -0.001344 -0.007945
# 3 -0.023885 0.003209 0.052489 0.022402 -0.005321 0.003269
# 4 0.000610 0.008797 0.022402 0.068346 0.006675 0.004797
# 5 -0.007540 -0.001344 -0.005321 0.006675 0.045875 0.014012
# 6 -0.007071 -0.007945 0.003269 0.004797 0.014012 0.035222
#
#
# Mechanical properties :
#
#
# Convention : Reuss Voigt Hill
#
# Bulk Modulus (GPa) = 20.75856 53.58874 37.17365
# Shear Modulus (GPa) = 12.33353 23.55492 17.94423
#
# Velocity S-wave (km/s) = 2.32077 3.20722 2.79931
# Velocity P-wave (km/s) = 4.03068 6.09236 5.16543
#
# Compressibility (1/GPa) = 0.04817289
#
# Stress axis : x y z
#
# Youngs Moduli (GPa) = 21.00790 22.75547 19.05172
#
# Poissons Ratio (x) = 0.62021 0.45505
# Poissons Ratio (y) = 0.57258 -0.06115
# Poissons Ratio (z) = 0.50178 -0.07303
#
# Static dielectric constant tensor:
#      x y z
#    x 2.032350 -0.102860 -0.064500 
#    y -0.102860 1.900260 -0.019950 
#    z -0.064500 -0.019950 1.930870 
# 
# From -- ./inp_files/382214.got.cif
#   From: 2010.05.17/outbox.cif.g08.bks.cpg/sg2_192_cif.got.tgz:382214.got - 2010.06.03 11:33:40.
