data_PCOD9089744
_publ_section_title
;
Structure prediction by ZEFSAII (Michael W. Deem and Ramdas Pophale) SiO2 
 PCOD9089744
Probable space group: P -1
;
_chemical_formula_sum "Si O2"
_cell_formula_units_Z 14
_cell_length_a 9.384473
_cell_length_b 9.700247
_cell_length_c 9.946868
_cell_angle_alpha 46.743946
_cell_angle_beta 76.388129
_cell_angle_gamma 76.467039
_cell_volume 637.544736
_symmetry_space_group_name_H-M "P -1"
_symmetry_group_IT_number 2
_symmetry_cell_setting 'triclinic'
loop_
_space_group_symop_operation_xyz
x,y,z
-x,-y,-z
loop_
_atom_site_type_symbol
_atom_site_label
_atom_site_fract_x
_atom_site_fract_y
_atom_site_fract_z
Si Si1 0.665206 0.740953 0.667216
Si Si2 0.029689 0.299324 0.807340
Si Si3 0.210676 0.645189 0.973780
Si Si4 0.714259 0.606760 0.461018
Si Si5 0.229842 0.901053 0.040773
Si Si6 0.573335 0.242228 0.691477
Si Si7 0.670435 0.175695 0.417954
O O1 0.748679 0.688056 0.543830
O O2 0.491542 0.769254 0.649622
O O3 0.704283 0.947559 0.563890
O O4 0.705117 0.562651 0.876275
O O5 0.954767 0.354405 0.930093
O O6 0.137876 0.436566 0.627691
O O7 0.886759 0.249786 0.787693
O O8 0.131976 0.100123 0.920850
O O9 0.222542 0.717356 0.771938
O O10 0.276063 0.805977 0.949362
O O11 0.610791 0.438837 0.619003
O O12 0.597561 0.755840 0.307435
O O13 0.355162 0.907506 0.118438
O O14 0.657284 0.233996 0.536556
#
# Coordination Sequence:
#
# PCOD9089744 Si02
#       7
#     2   2   2   2   2   2   2
#     4  10  20  36  63  86 115 169 199 230 302 362
#     4   9  20  36  61  88 117 154 207 239 284 367
#     4  10  19  38  62  84 116 161 199 237 290 365
#     4  10  19  38  61  87 117 150 205 243 289 363
#     4   9  19  37  60  89 113 153 206 241 292 342
#     4  10  21  37  59  90 117 151 191 261 301 324
#     4  10  22  38  56  90 128 148 198 252 293 356
#
# _framework density 21.959244000000002
#
# number of rings (size 3 to 8) (size 9 to 14) (size 15 to 20)
#    0.857    1.429    1.429    1.286    0.000    2.857 
#    2.571    1.429    0.000    0.000    0.000    0.000 
#    0.000    0.000    0.000    0.000    0.000    0.000 
#
# Total GULP energy -78021.343707 kJ/mol
# GULP energy per Si atom -5572.953122 kJ/mol
# Density = 2.190926 g / cm^3
# Si number density = 21.959244 Si / 1000 Ang^3
#
#
#
# Elastic Constant Matrix: (Units=GPa)
#
#
# Indices 1 2 3 4 5 6 
#
# 1 49.8048 1.1465 15.8109 9.4494 -12.6756 -3.0548
# 2 1.1465 77.0014 20.8777 -7.8227 2.4298 -18.5929
# 3 15.8109 20.8777 71.1462 -0.9822 -0.6219 -7.1934
# 4 9.4494 -7.8227 -0.9822 35.6889 -10.9588 3.0850
# 5 -12.6756 2.4298 -0.6219 -10.9588 39.6581 1.8633
# 6 -3.0548 -18.5929 -7.1934 3.0850 1.8633 20.1499
#
#
#
# Elastic Compliance Matrix: (Units=1/GPa)
#
#
# Indices 1 2 3 4 5 6 
#
# 1 0.024452 0.001166 -0.005486 -0.004718 0.006215 0.002972
# 2 0.001166 0.017913 -0.003973 0.001907 -0.000969 0.015085
# 3 -0.005486 -0.003973 0.016584 0.000556 -0.001164 0.001446
# 4 -0.004718 0.001907 0.000556 0.032401 0.007545 -0.004416
# 5 0.006215 -0.000969 -0.001164 0.007545 0.029528 -0.004253
# 6 0.002972 0.015085 0.001446 -0.004416 -0.004253 0.065584
#
#
# Mechanical properties :
#
#
# Convention : Reuss Voigt Hill
#
# Bulk Modulus (GPa) = 23.60546 30.40252 27.00399
# Shear Modulus (GPa) = 23.02340 29.77386 26.39863
#
# Velocity S-wave (km/s) = 3.24151 3.68621 3.47099
# Velocity P-wave (km/s) = 4.97824 5.65619 5.32801
#
# Compressibility (1/GPa) = 0.04236308
#
# Stress axis : x y z
#
# Youngs Moduli (GPa) = 40.89576 55.82423 60.29823
#
# Poissons Ratio (x) = -0.06507 0.33082
# Poissons Ratio (y) = -0.04767 0.23954
# Poissons Ratio (z) = 0.22437 0.22177
#
# Static dielectric constant tensor:
#      x y z
#    x 1.842900 -0.017770 0.019020 
#    y -0.017770 1.807540 -0.049080 
#    z 0.019020 -0.049080 1.868470 
# 
# From -- ./inp_files/156791.got.cif
#   From: 2010.05.17/outbox.cif.g08.bks.cpg/sg2_79_cif.got.tgz:156791.got - 2010.06.03 11:33:40.
