data_PCOD9089032
_publ_section_title
;
Structure prediction by ZEFSAII (Michael W. Deem and Ramdas Pophale) SiO2 
 PCOD9089032
Probable space group: P -1
;
_chemical_formula_sum "Si O2"
_cell_formula_units_Z 14
_cell_length_a 8.971138
_cell_length_b 9.476584
_cell_length_c 12.105185
_cell_angle_alpha 131.794975
_cell_angle_beta 52.032509
_cell_angle_gamma 97.528774
_cell_volume 532.380988
_symmetry_space_group_name_H-M "P -1"
_symmetry_group_IT_number 2
_symmetry_cell_setting 'triclinic'
loop_
_space_group_symop_operation_xyz
x,y,z
-x,-y,-z
loop_
_atom_site_type_symbol
_atom_site_label
_atom_site_fract_x
_atom_site_fract_y
_atom_site_fract_z
Si Si1 0.285977 0.157530 0.612532
Si Si2 0.623143 0.569602 0.829281
Si Si3 0.438104 0.039847 0.817975
Si Si4 0.659967 0.450305 0.227897
Si Si5 0.784018 0.213702 0.276474
Si Si6 0.045100 0.921578 0.561819
Si Si7 0.201609 0.152810 0.188065
O O1 0.234010 0.401407 0.777097
O O2 0.500000 0.000000 0.500000
O O3 0.355866 0.101946 0.422841
O O4 0.109397 0.084123 0.679806
O O5 0.403934 0.631379 0.896311
O O6 0.751945 0.316671 0.656464
O O7 0.769868 0.635871 0.720242
O O8 0.596813 0.717804 0.026207
O O9 0.257845 0.992523 0.818075
O O10 0.406673 0.990641 0.934833
O O11 0.777155 0.296200 0.197089
O O12 0.425425 0.611046 0.471821
O O13 0.991850 0.186872 0.231842
O O14 0.849975 0.907463 0.702072
O O15 0.000000 0.000000 0.500000
#
# Coordination Sequence:
#
# PCOD9089032 Si02
#       7
#     2   2   2   2   2   2   2
#     4  11  22  44  65  91 134 178 209 257 329 388
#     4  10  22  42  66  92 132 169 216 265 320 381
#     4   9  23  39  69  92 130 169 218 261 324 376
#     4  10  21  36  63  95 126 169 217 258 313 390
#     4  10  19  37  64  95 124 165 219 262 311 378
#     4  12  25  41  66  98 131 169 214 267 330 383
#     4  10  22  42  67  92 130 166 218 269 314 376
#
# _framework density 26.296956000000002
#
# number of rings (size 3 to 8) (size 9 to 14) (size 15 to 20)
#    0.857    0.857    2.857    1.714    2.000    3.429 
#    2.571    0.000    0.000    3.429    0.000    0.000 
#    0.000    0.000    0.000    0.000    0.000    0.000 
#
# Total GULP energy -78315.611490 kJ/mol
# GULP energy per Si atom -5593.972249 kJ/mol
# Density = 2.623710 g / cm^3
# Si number density = 26.296956 Si / 1000 Ang^3
#
#
#
# Elastic Constant Matrix: (Units=GPa)
#
#
# Indices 1 2 3 4 5 6 
#
# 1 148.0376 73.6281 31.9150 5.0934 25.0123 15.8800
# 2 73.6281 155.1088 21.8276 -1.5483 13.9415 16.5760
# 3 31.9150 21.8276 72.9496 8.6596 3.9718 2.2109
# 4 5.0934 -1.5483 8.6596 52.6384 13.8012 11.6655
# 5 25.0123 13.9415 3.9718 13.8012 44.4084 -1.2932
# 6 15.8800 16.5760 2.2109 11.6655 -1.2932 59.1738
#
#
#
# Elastic Compliance Matrix: (Units=1/GPa)
#
#
# Indices 1 2 3 4 5 6 
#
# 1 0.010293 -0.003803 -0.003179 0.001068 -0.004706 -0.001892
# 2 -0.003803 0.008673 -0.000995 0.001414 -0.000980 -0.001672
# 3 -0.003179 -0.000995 0.015625 -0.002990 0.001669 0.001174
# 4 0.001068 0.001414 -0.002990 0.022675 -0.007977 -0.005216
# 5 -0.004706 -0.000980 0.001669 -0.007977 0.027913 0.003658
# 6 -0.001892 -0.001672 0.001174 -0.005216 0.003658 0.018940
#
#
# Mechanical properties :
#
#
# Convention : Reuss Voigt Hill
#
# Bulk Modulus (GPa) = 53.65397 70.09302 61.87350
# Shear Modulus (GPa) = 39.59300 47.82581 43.70941
#
# Velocity S-wave (km/s) = 3.88443 4.26923 4.08137
# Velocity P-wave (km/s) = 6.36913 7.14241 6.76682
#
# Compressibility (1/GPa) = 0.01863795
#
# Stress axis : x y z
#
# Youngs Moduli (GPa) = 97.15341 115.29748 64.00010
#
# Poissons Ratio (x) = 0.43846 0.20342
# Poissons Ratio (y) = 0.36946 0.06370
# Poissons Ratio (z) = 0.30880 0.11475
#
# Static dielectric constant tensor:
#      x y z
#    x 2.078420 -0.000510 0.028270 
#    y -0.000510 2.059330 -0.015900 
#    z 0.028270 -0.015900 2.130970 
# 
# From -- ./inp_files/216184.got.cif
#   From: 2010.05.17/outbox.cif.g08.bks.cpg/sg2_109_cif.got.tgz:216184.got - 2010.06.03 11:33:40.
