data_PCOD9089353
_publ_section_title
;
Structure prediction by ZEFSAII (Michael W. Deem and Ramdas Pophale) SiO2 
 PCOD9089353
Probable space group: P -1
;
_chemical_formula_sum "Si O2"
_cell_formula_units_Z 14
_cell_length_a 14.872485
_cell_length_b 8.699352
_cell_length_c 14.127672
_cell_angle_alpha 138.357940
_cell_angle_beta 38.898678
_cell_angle_gamma 143.509672
_cell_volume 645.358737
_symmetry_space_group_name_H-M "P -1"
_symmetry_group_IT_number 2
_symmetry_cell_setting 'triclinic'
loop_
_space_group_symop_operation_xyz
x,y,z
-x,-y,-z
loop_
_atom_site_type_symbol
_atom_site_label
_atom_site_fract_x
_atom_site_fract_y
_atom_site_fract_z
Si Si1 0.191495 0.753684 0.928335
Si Si2 0.717177 0.656674 0.806221
Si Si3 0.902735 0.438674 0.652781
Si Si4 0.467412 0.697275 0.376579
Si Si5 0.131002 0.537103 0.674890
Si Si6 0.360642 0.436030 0.666722
Si Si7 0.936076 0.975258 0.406842
O O1 0.181959 0.733918 0.813176
O O2 0.327549 0.679807 0.816631
O O3 0.000000 0.500000 0.000000
O O4 0.261973 0.063668 0.045122
O O5 0.759466 0.505908 0.783988
O O6 0.564119 0.432568 0.762460
O O7 0.879426 0.786674 0.664288
O O8 0.000000 0.500000 0.500000
O O9 0.036166 0.601345 0.701929
O O10 0.841596 0.127784 0.587511
O O11 0.292006 0.541294 0.504969
O O12 0.594322 0.655488 0.315974
O O13 0.500000 0.000000 0.500000
O O14 0.032242 0.228277 0.653214
O O15 0.500000 0.500000 0.500000
O O16 0.179538 0.195701 0.665438
#
# Coordination Sequence:
#
# PCOD9089353 Si02
#       7
#     2   2   2   2   2   2   2
#     4  11  23  43  69 101 139 170 224 286 335 393
#     4  11  23  42  66  98 138 174 224 283 332 395
#     4  10  20  34  62  99 129 169 225 276 318 391
#     4  12  25  41  66  99 137 178 225 276 337 399
#     4  11  21  38  68 100 128 173 227 275 328 400
#     4  11  22  40  67  98 132 177 222 274 332 403
#     4  10  19  37  68  96 127 165 232 273 321 388
#
# _framework density 21.693360999999999
#
# number of rings (size 3 to 8) (size 9 to 14) (size 15 to 20)
#    0.000    1.143    8.571    1.286    2.000    1.143 
#    0.000    0.714    0.000    0.000    0.000    0.000 
#    0.000    0.000    0.000    0.000    0.000    0.000 
#
# Total GULP energy -77939.160600 kJ/mol
# GULP energy per Si atom -5567.082900 kJ/mol
# Density = 2.164399 g / cm^3
# Si number density = 21.693361 Si / 1000 Ang^3
#
#
#
# Elastic Constant Matrix: (Units=GPa)
#
#
# Indices 1 2 3 4 5 6 
#
# 1 219.7862 38.1464 58.7341 36.9885 -6.3339 -11.4323
# 2 38.1464 42.5887 25.7325 32.2791 1.0650 0.5317
# 3 58.7341 25.7325 112.9335 49.8842 -9.1827 -4.1369
# 4 36.9885 32.2791 49.8842 48.8845 -1.1165 -4.1888
# 5 -6.3339 1.0650 -9.1827 -1.1165 31.2206 9.2997
# 6 -11.4323 0.5317 -4.1369 -4.1888 9.2997 22.3153
#
#
#
# Elastic Compliance Matrix: (Units=1/GPa)
#
#
# Indices 1 2 3 4 5 6 
#
# 1 0.006014 -0.005260 -0.002688 0.001933 -0.000270 0.003183
# 2 -0.005260 0.054785 0.008329 -0.041590 0.001237 -0.010778
# 3 -0.002688 0.008329 0.018684 -0.022804 0.005210 -0.004564
# 4 0.001933 -0.041590 -0.022804 0.070756 -0.006454 0.013725
# 5 -0.000270 0.001237 0.005210 -0.006454 0.038086 -0.016285
# 6 0.003183 -0.010778 -0.004564 0.013725 -0.016285 0.055217
#
#
# Mechanical properties :
#
#
# Convention : Reuss Voigt Hill
#
# Bulk Modulus (GPa) = 12.46181 68.94826 40.70504
# Shear Modulus (GPa) = 18.55095 37.33045 27.94070
#
# Velocity S-wave (km/s) = 2.92746 4.15278 3.59274
# Velocity P-wave (km/s) = 4.14532 7.40583 6.00125
#
# Compressibility (1/GPa) = 0.08024519
#
# Stress axis : x y z
#
# Youngs Moduli (GPa) = 166.28686 18.25315 53.52057
#
# Poissons Ratio (x) = 0.09601 0.14387
# Poissons Ratio (y) = 0.87468 -0.44578
# Poissons Ratio (z) = 0.44700 -0.15203
#
# Static dielectric constant tensor:
#      x y z
#    x 1.222320 0.644830 -0.119970 
#    y 0.644830 1.128740 0.139950 
#    z -0.119970 0.139950 1.811100 
# 
# From -- ./inp_files/345336.got.cif
#   From: 2010.05.17/outbox.cif.g08.bks.cpg/sg2_173_cif.got.tgz:345336.got - 2010.06.03 11:33:40.
