data_PCOD9089545
_publ_section_title
;
Structure prediction by ZEFSAII (Michael W. Deem and Ramdas Pophale) SiO2 
 PCOD9089545
Probable space group: P -1
;
_chemical_formula_sum "Si O2"
_cell_formula_units_Z 16
_cell_length_a 9.680653
_cell_length_b 14.890057
_cell_length_c 11.161588
_cell_angle_alpha 50.047975
_cell_angle_beta 38.054583
_cell_angle_gamma 44.471489
_cell_volume 682.668270
_symmetry_space_group_name_H-M "P -1"
_symmetry_group_IT_number 2
_symmetry_cell_setting 'triclinic'
loop_
_space_group_symop_operation_xyz
x,y,z
-x,-y,-z
loop_
_atom_site_type_symbol
_atom_site_label
_atom_site_fract_x
_atom_site_fract_y
_atom_site_fract_z
Si Si1 0.925588 0.278941 0.203860
Si Si2 0.991876 0.981050 0.211968
Si Si3 0.960247 0.207618 0.857998
Si Si4 0.594080 0.661286 0.955612
Si Si5 0.453466 0.099005 0.089445
Si Si6 0.739936 0.085284 0.536656
Si Si7 0.001570 0.606562 0.163846
Si Si8 0.320911 0.459448 0.734102
O O1 0.731393 0.227082 0.427301
O O2 0.901339 0.401304 0.194293
O O3 0.209417 0.168359 0.113757
O O4 0.861966 0.329202 0.069426
O O5 0.951344 0.871707 0.258450
O O6 0.794886 0.041748 0.398785
O O7 0.276631 0.919048 0.122400
O O8 0.985775 0.093857 0.030854
O O9 0.669172 0.302969 0.956328
O O10 0.075597 0.302782 0.744916
O O11 0.584205 0.612528 0.141662
O O12 0.609442 0.798549 0.844908
O O13 0.811399 0.546967 0.830219
O O14 0.459450 0.961213 0.239255
O O15 0.000000 0.000000 0.500000
O O16 0.778041 0.615529 0.224102
O O17 0.500000 0.500000 0.500000
#
# Coordination Sequence:
#
# PCOD9089545 Si02
#       8
#     2   2   2   2   2   2   2   2
#     4  10  19  38  58  94 128 157 215 266 319 380
#     4  10  22  42  61  93 134 172 219 257 321 385
#     4  10  22  39  66  90 131 174 208 264 320 391
#     4  10  20  40  64  93 123 170 214 260 329 383
#     4  10  20  38  65  96 126 172 204 269 329 361
#     4  10  22  37  64  98 129 165 218 270 316 381
#     4  11  19  40  67  88 122 170 212 259 327 383
#     4  11  23  38  67  94 128 163 215 280 320 375
#
# _framework density 23.437445
#
# number of rings (size 3 to 8) (size 9 to 14) (size 15 to 20)
#    0.000    1.750    3.750    1.125    0.000    7.000 
#    0.000    6.250   11.000    0.000    0.000    0.000 
#    0.000    0.000    0.000    0.000    0.000    0.000 
#
# Total GULP energy -89316.743983 kJ/mol
# GULP energy per Si atom -5582.296499 kJ/mol
# Density = 2.338410 g / cm^3
# Si number density = 23.437445 Si / 1000 Ang^3
#
#
#
# Elastic Constant Matrix: (Units=GPa)
#
#
# Indices 1 2 3 4 5 6 
#
# 1 93.2696 43.2890 10.2559 -1.1369 -11.9125 27.0663
# 2 43.2890 97.9211 16.4901 -10.0870 -10.9197 24.3381
# 3 10.2559 16.4901 60.9092 -14.6329 -10.0145 9.3598
# 4 -1.1369 -10.0870 -14.6329 32.9912 11.1791 -8.8804
# 5 -11.9125 -10.9197 -10.0145 11.1791 14.8378 -7.9732
# 6 27.0663 24.3381 9.3598 -8.8804 -7.9732 54.9043
#
#
#
# Elastic Compliance Matrix: (Units=1/GPa)
#
#
# Indices 1 2 3 4 5 6 
#
# 1 0.015878 -0.005193 -0.000212 -0.006095 0.010733 -0.004917
# 2 -0.005193 0.013886 -0.001678 0.001907 0.002026 -0.002707
# 3 -0.000212 -0.001678 0.019518 0.005510 0.007336 -0.000523
# 4 -0.006095 0.001907 0.005510 0.044837 -0.031454 0.003904
# 5 0.010733 0.002026 0.007336 -0.031454 0.107837 0.003132
# 6 -0.004917 -0.002707 -0.000523 0.003904 0.003132 0.023013
#
#
# Mechanical properties :
#
#
# Convention : Reuss Voigt Hill
#
# Bulk Modulus (GPa) = 28.47556 43.57445 36.02500
# Shear Modulus (GPa) = 19.93312 32.68432 26.30872
#
# Velocity S-wave (km/s) = 2.91947 3.73840 3.35402
# Velocity P-wave (km/s) = 4.85184 6.10461 5.51392
#
# Compressibility (1/GPa) = 0.03511783
#
# Stress axis : x y z
#
# Youngs Moduli (GPa) = 62.97874 72.01718 51.23470
#
# Poissons Ratio (x) = 0.37396 0.01085
# Poissons Ratio (y) = 0.32703 0.08595
# Poissons Ratio (z) = 0.01333 0.12082
#
# Static dielectric constant tensor:
#      x y z
#    x 1.922560 0.019960 0.000340 
#    y 0.019960 1.941950 -0.017900 
#    z 0.000340 -0.017900 1.905860 
# 
# From -- ./inp_files/398499.got.cif
#   From: 2010.05.17/outbox.cif.g08.bks.cpg/sg2_200_cif.got.tgz:398499.got - 2010.06.03 11:33:40.
