data_PCOD9089770
_publ_section_title
;
Structure prediction by ZEFSAII (Michael W. Deem and Ramdas Pophale) SiO2 
 PCOD9089770
Probable space group: P -1
;
_chemical_formula_sum "Si O2"
_cell_formula_units_Z 12
_cell_length_a 7.523773
_cell_length_b 7.031650
_cell_length_c 11.425884
_cell_angle_alpha 59.180542
_cell_angle_beta 106.270290
_cell_angle_gamma 80.411685
_cell_volume 461.728443
_symmetry_space_group_name_H-M "P -1"
_symmetry_group_IT_number 2
_symmetry_cell_setting 'triclinic'
loop_
_space_group_symop_operation_xyz
x,y,z
-x,-y,-z
loop_
_atom_site_type_symbol
_atom_site_label
_atom_site_fract_x
_atom_site_fract_y
_atom_site_fract_z
Si Si1 0.692590 0.038349 0.895329
Si Si2 0.680402 0.613889 0.384936
Si Si3 0.033259 0.615659 0.085747
Si Si4 0.128176 0.676244 0.701472
Si Si5 0.302048 0.237944 0.401302
Si Si6 0.667499 0.091783 0.149389
O O1 0.555278 0.265623 0.725223
O O2 0.891793 0.839435 0.604754
O O3 0.566001 0.870543 0.897169
O O4 0.687400 0.114377 0.006330
O O5 0.776334 0.389825 0.388237
O O6 0.703212 0.619622 0.525058
O O7 0.766194 0.815058 0.294526
O O8 0.896390 0.564252 0.177552
O O9 0.749889 0.561576 0.773478
O O10 0.000000 0.500000 0.000000
O O11 0.918286 0.894008 0.946448
O O12 0.252894 0.759684 0.793602
O O13 0.500000 0.000000 0.500000
#
# Coordination Sequence:
#
# PCOD9089770 Si02
#       6
#     2   2   2   2   2   2
#     4   9  18  35  60  85 123 146 181 260 285 335
#     4  10  19  38  61  89 118 149 189 252 288 342
#     4  10  20  36  58  85 116 159 194 232 293 346
#     4  10  21  34  65  90 111 159 196 239 290 349
#     4  10  22  38  60  82 122 162 191 234 301 346
#     4   9  18  35  59  93 118 138 202 241 298 333
#
# _framework density 25.989304000000001
#
# number of rings (size 3 to 8) (size 9 to 14) (size 15 to 20)
#    2.000    0.333    1.667    1.500    0.000    3.333 
#    0.000    0.833    3.667    5.000    0.000    0.000 
#    0.000    0.000    0.000    0.000    0.000    0.000 
#
# Total GULP energy -66825.044346 kJ/mol
# GULP energy per Si atom -5568.753696 kJ/mol
# Density = 2.593015 g / cm^3
# Si number density = 25.989304 Si / 1000 Ang^3
#
#
#
# Elastic Constant Matrix: (Units=GPa)
#
#
# Indices 1 2 3 4 5 6 
#
# 1 127.1730 56.5288 24.3506 -3.6433 45.4582 -4.4356
# 2 56.5288 -23.7323 -40.3171 27.2912 28.8172 4.9539
# 3 24.3506 -40.3171 91.9873 32.1567 38.2776 -0.8725
# 4 -3.6433 27.2912 32.1567 45.5109 5.1290 7.2608
# 5 45.4582 28.8172 38.2776 5.1290 41.9334 -2.7183
# 6 -4.4356 4.9539 -0.8725 7.2608 -2.7183 41.7763
#
#
#
# Elastic Compliance Matrix: (Units=1/GPa)
#
#
# Indices 1 2 3 4 5 6 
#
# 1 0.013715 0.000428 0.004811 -0.000412 -0.019484 0.000310
# 2 0.000428 -0.004528 -0.009043 0.008083 0.009890 -0.000368
# 3 0.004811 -0.009043 0.008082 0.000619 -0.006375 0.001229
# 4 -0.000412 0.008083 0.000619 0.018333 -0.008221 -0.004711
# 5 -0.019484 0.009890 -0.006375 -0.008221 0.045061 0.000986
# 6 0.000310 -0.000368 0.001229 -0.004711 0.000986 0.024922
#
#
# Mechanical properties :
#
#
# Convention : Reuss Voigt Hill
#
# Bulk Modulus (GPa) = 103.49091 30.72806 67.10948
# Shear Modulus (GPa) = 42.95059 36.16852 39.55956
#
# Velocity S-wave (km/s) = 4.06966 3.73456 3.90570
# Velocity P-wave (km/s) = 7.87336 5.51769 6.79834
#
# Compressibility (1/GPa) = 0.00966268
#
# Stress axis : x y z
#
# Youngs Moduli (GPa) = 72.91149 -220.82675 123.72831
#
# Poissons Ratio (x) = 0.09451 -0.59530
# Poissons Ratio (y) = -0.03120 1.11881
# Poissons Ratio (z) = -0.35080 -1.99683
#
# Static dielectric constant tensor:
#      x y z
#    x 2.153110 0.074300 -0.071660 
#    y 0.074300 2.083990 -0.128190 
#    z -0.071660 -0.128190 2.102730 
# 
# From -- ./inp_files/144798.got.cif
#   From: 2010.05.17/outbox.cif.g08.bks.cpg/sg2_73_cif.got.tgz:144798.got - 2010.06.03 11:33:40.
