data_PCOD9089162
_publ_section_title
;
Structure prediction by ZEFSAII (Michael W. Deem and Ramdas Pophale) SiO2 
 PCOD9089162
Probable space group: P -1
;
_chemical_formula_sum "Si O2"
_cell_formula_units_Z 16
_cell_length_a 18.343067
_cell_length_b 5.403063
_cell_length_c 11.249732
_cell_angle_alpha 73.472611
_cell_angle_beta 60.728487
_cell_angle_gamma 65.109731
_cell_volume 877.871651
_symmetry_space_group_name_H-M "P -1"
_symmetry_group_IT_number 2
_symmetry_cell_setting 'triclinic'
loop_
_space_group_symop_operation_xyz
x,y,z
-x,-y,-z
loop_
_atom_site_type_symbol
_atom_site_label
_atom_site_fract_x
_atom_site_fract_y
_atom_site_fract_z
Si Si1 0.422903 0.150981 0.796327
Si Si2 0.679282 0.536359 0.370136
Si Si3 0.522748 0.473727 0.124528
Si Si4 0.613625 0.026951 0.545526
Si Si5 0.166360 0.728565 0.557717
Si Si6 0.094683 0.362564 0.503108
Si Si7 0.279468 0.242919 0.260621
Si Si8 0.673992 0.315428 0.751215
O O1 0.340345 0.344973 0.762227
O O2 0.439013 0.305006 0.880342
O O3 0.511255 0.116109 0.651577
O O4 0.423032 0.842737 0.851855
O O5 0.637952 0.292863 0.451898
O O6 0.781274 0.403357 0.347768
O O7 0.637227 0.796215 0.456078
O O8 0.422477 0.546604 0.247743
O O9 0.500000 0.500000 0.000000
O O10 0.673459 0.888404 0.632763
O O11 0.111624 0.550253 0.569238
O O12 0.246391 0.708435 0.401832
O O13 0.111103 0.049070 0.570628
O O14 0.174629 0.337599 0.349770
O O15 0.000000 0.500000 0.500000
O O16 0.311969 0.496908 0.180760
O O17 0.314343 0.991286 0.178663
#
# Coordination Sequence:
#
# PCOD9089162 Si02
#       8
#     2   2   2   2   2   2   2   2
#     4  12  23  33  47  70  90 121 167 199 224 275
#     4  12  20  30  47  70  95 124 154 195 222 276
#     4  12  23  37  49  63  89 126 164 209 241 260
#     4  12  17  32  47  69  96 123 157 188 230 264
#     4  10  17  30  45  64  94 124 147 180 232 262
#     4  10  18  27  42  64  91 126 156 174 208 273
#     4  10  16  28  48  59  94 118 154 178 224 259
#     4  10  16  31  46  63  84 122 156 183 223 273
#
# _framework density 18.225898999999998
#
# number of rings (size 3 to 8) (size 9 to 14) (size 15 to 20)
#    0.000    1.000    7.500    3.000    0.000    0.000 
#    0.000    0.000    0.000    0.000    0.000    0.000 
#    0.000    0.000    0.000   90.000    0.000    0.000 
#
# Total GULP energy -89294.722393 kJ/mol
# GULP energy per Si atom -5580.920150 kJ/mol
# Density = 1.818442 g / cm^3
# Si number density = 18.225899 Si / 1000 Ang^3
#
#
#
# Elastic Constant Matrix: (Units=GPa)
#
#
# Indices 1 2 3 4 5 6 
#
# 1 89.4701 54.8427 8.6970 -5.4917 11.1722 -6.0156
# 2 54.8427 140.8880 14.5873 -16.7713 5.7265 27.0390
# 3 8.6970 14.5873 16.9198 -2.7413 8.0977 -2.9936
# 4 -5.4917 -16.7713 -2.7413 18.3083 0.6170 1.1424
# 5 11.1722 5.7265 8.0977 0.6170 17.5677 -6.7460
# 6 -6.0156 27.0390 -2.9936 1.1424 -6.7460 47.4064
#
#
#
# Elastic Compliance Matrix: (Units=1/GPa)
#
#
# Indices 1 2 3 4 5 6 
#
# 1 0.016937 -0.007889 0.002088 -0.001968 -0.006845 0.005854
# 2 -0.007889 0.014071 -0.008271 0.009889 0.000145 -0.009766
# 3 0.002088 -0.008271 0.084221 0.006549 -0.035741 0.005057
# 4 -0.001968 0.009889 0.006549 0.064958 -0.010553 -0.008544
# 5 -0.006845 0.000145 -0.035741 -0.010553 0.081387 0.008627
# 6 0.005854 -0.009766 0.005057 -0.008544 0.008627 0.029160
#
#
# Mechanical properties :
#
#
# Convention : Reuss Voigt Hill
#
# Bulk Modulus (GPa) = 11.48299 44.83687 28.15993
# Shear Modulus (GPa) = 14.37172 27.93321 21.15246
#
# Velocity S-wave (km/s) = 2.81113 3.91910 3.41041
# Velocity P-wave (km/s) = 4.10495 6.71813 5.56704
#
# Compressibility (1/GPa) = 0.08708537
#
# Stress axis : x y z
#
# Youngs Moduli (GPa) = 59.04202 71.06958 11.87353
#
# Poissons Ratio (x) = 0.56065 -0.02480
# Poissons Ratio (y) = 0.46577 0.09821
# Poissons Ratio (z) = -0.12330 0.58784
#
# Static dielectric constant tensor:
#      x y z
#    x 1.641130 0.046590 -0.001760 
#    y 0.046590 1.709500 0.004840 
#    z -0.001760 0.004840 1.654510 
# 
# From -- ./inp_files/459020.got.cif
#   From: 2010.05.17/outbox.cif.g08.bks.cpg/sg2_230_cif.got.tgz:459020.got - 2010.06.03 11:33:40.
