data_PCOD9089832
_publ_section_title
;
Structure prediction by ZEFSAII (Michael W. Deem and Ramdas Pophale) SiO2 
 PCOD9089832
Probable space group: P -1
;
_chemical_formula_sum "Si O2"
_cell_formula_units_Z 16
_cell_length_a 9.607541
_cell_length_b 18.906802
_cell_length_c 7.567547
_cell_angle_alpha 72.812197
_cell_angle_beta 121.801103
_cell_angle_gamma 143.010536
_cell_volume 681.444122
_symmetry_space_group_name_H-M "P -1"
_symmetry_group_IT_number 2
_symmetry_cell_setting 'triclinic'
loop_
_space_group_symop_operation_xyz
x,y,z
-x,-y,-z
loop_
_atom_site_type_symbol
_atom_site_label
_atom_site_fract_x
_atom_site_fract_y
_atom_site_fract_z
Si Si1 0.276950 0.816145 0.694033
Si Si2 0.579109 0.546002 0.817730
Si Si3 0.301521 0.933219 0.086366
Si Si4 0.230571 0.579347 0.243819
Si Si5 0.147744 0.622825 0.606083
Si Si6 0.753048 0.699082 0.348024
Si Si7 0.714204 0.745212 0.891199
Si Si8 0.189926 0.729815 0.085787
O O1 0.202224 0.730665 0.554438
O O2 0.033684 0.787839 0.565970
O O3 0.541203 0.960577 0.745130
O O4 0.306731 0.781862 0.926243
O O5 0.377720 0.428874 0.651626
O O6 0.500000 0.500000 0.000000
O O7 0.602522 0.641964 0.761258
O O8 0.871257 0.617449 0.933626
O O9 0.254734 0.828664 0.162019
O O10 0.009000 0.867318 0.918267
O O11 0.500000 0.000000 0.000000
O O12 0.524439 0.666769 0.306380
O O13 0.251635 0.672523 0.259229
O O14 0.088769 0.463595 0.342211
O O15 0.000000 0.500000 0.000000
O O16 0.000000 0.500000 0.500000
O O17 0.455474 0.704578 0.776673
O O18 0.783564 0.738228 0.138007
#
# Coordination Sequence:
#
# PCOD9089832 Si02
#       8
#     2   2   2   2   2   2   2   2
#     4  11  23  39  57  89 123 160 207 254 291 356
#     4   9  16  29  52  81 109 143 191 238 292 355
#     4   9  22  40  63  85 118 163 211 248 295 355
#     4  12  20  40  62  90 123 159 197 246 313 371
#     4  12  25  39  61  96 129 153 199 258 311 362
#     4  11  21  34  60  89 121 161 201 244 310 362
#     4  10  20  38  60  84 118 167 203 242 303 363
#     4  10  19  38  62  82 117 160 204 246 298 361
#
# _framework density 23.479547
#
# number of rings (size 3 to 8) (size 9 to 14) (size 15 to 20)
#    0.000    1.500    3.750    1.500    0.000    8.000 
#    0.000    0.625    0.000    0.000    0.000    0.000 
#    0.000    0.000    0.000    0.000    0.000    0.000 
#
# Total GULP energy -89073.963840 kJ/mol
# GULP energy per Si atom -5567.122740 kJ/mol
# Density = 2.342611 g / cm^3
# Si number density = 23.479547 Si / 1000 Ang^3
#
#
#
# Elastic Constant Matrix: (Units=GPa)
#
#
# Indices 1 2 3 4 5 6 
#
# 1 122.9712 35.8613 20.4743 13.0340 29.9353 -3.4650
# 2 35.8613 101.3094 44.8746 31.1101 10.5612 -5.1216
# 3 20.4743 44.8746 54.2470 16.8422 18.6605 0.7040
# 4 13.0340 31.1101 16.8422 43.7207 5.0188 -3.0496
# 5 29.9353 10.5612 18.6605 5.0188 44.7226 10.6199
# 6 -3.4650 -5.1216 0.7040 -3.0496 10.6199 47.5779
#
#
#
# Elastic Compliance Matrix: (Units=1/GPa)
#
#
# Indices 1 2 3 4 5 6 
#
# 1 0.010818 -0.003497 0.001444 -0.000293 -0.007469 0.002038
# 2 -0.003497 0.019058 -0.013489 -0.007766 0.004207 0.000560
# 3 0.001444 -0.013489 0.033862 -0.002481 -0.011779 0.000622
# 4 -0.000293 -0.007766 -0.002481 0.029587 -0.000539 0.001196
# 5 -0.007469 0.004207 -0.011779 -0.000539 0.033083 -0.007336
# 6 0.002038 0.000560 0.000622 0.001196 -0.007336 0.022932
#
#
# Mechanical properties :
#
#
# Convention : Reuss Voigt Hill
#
# Bulk Modulus (GPa) = 30.62457 53.43866 42.03161
# Shear Modulus (GPa) = 26.13583 39.02540 32.58062
#
# Velocity S-wave (km/s) = 3.33998 4.08131 3.72911
# Velocity P-wave (km/s) = 5.28634 6.70959 6.04003
#
# Compressibility (1/GPa) = 0.03265352
#
# Stress axis : x y z
#
# Youngs Moduli (GPa) = 92.43711 52.47157 29.53202
#
# Poissons Ratio (x) = 0.18350 -0.04264
# Poissons Ratio (y) = 0.32327 0.39835
# Poissons Ratio (z) = -0.13345 0.70777
#
# Static dielectric constant tensor:
#      x y z
#    x 1.892780 -0.014910 -0.090870 
#    y -0.014910 1.886940 -0.047780 
#    z -0.090870 -0.047780 1.933960 
# 
# From -- ./inp_files/217528.got.cif
#   From: 2010.05.17/outbox.cif.g08.bks.cpg/sg2_109_cif.got.tgz:217528.got - 2010.06.03 11:33:40.
