data_PCOD9089190
_publ_section_title
;
Structure prediction by ZEFSAII (Michael W. Deem and Ramdas Pophale) SiO2 
 PCOD9089190
Probable space group: P -1
;
_chemical_formula_sum "Si O2"
_cell_formula_units_Z 14
_cell_length_a 22.365928
_cell_length_b 9.423905
_cell_length_c 9.771231
_cell_angle_alpha 120.178757
_cell_angle_beta 132.420377
_cell_angle_gamma 28.475814
_cell_volume 700.657256
_symmetry_space_group_name_H-M "P -1"
_symmetry_group_IT_number 2
_symmetry_cell_setting 'triclinic'
loop_
_space_group_symop_operation_xyz
x,y,z
-x,-y,-z
loop_
_atom_site_type_symbol
_atom_site_label
_atom_site_fract_x
_atom_site_fract_y
_atom_site_fract_z
Si Si1 0.388591 0.910952 0.615032
Si Si2 0.445017 0.134589 0.327231
Si Si3 0.271142 0.109899 0.041412
Si Si4 0.995504 0.794049 0.038534
Si Si5 0.826826 0.845800 0.377003
Si Si6 0.325927 0.785070 0.201046
Si Si7 0.840799 0.161593 0.696287
O O1 0.426072 0.014852 0.644819
O O2 0.329963 0.886598 0.394938
O O3 0.545985 0.570580 0.753458
O O4 0.270731 0.104184 0.649760
O O5 0.367846 0.101149 0.139228
O O6 0.314085 0.497283 0.316092
O O7 0.500000 0.000000 0.500000
O O8 0.361944 0.841138 0.156861
O O9 0.217877 0.103916 0.824014
O O10 0.126718 0.432772 0.057259
O O11 0.842230 0.999735 0.974641
O O12 0.943023 0.919229 0.861648
O O13 0.069162 0.837231 0.226564
O O14 0.000000 0.500000 0.500000
O O15 0.805302 0.070854 0.499901
#
# Coordination Sequence:
#
# PCOD9089190 Si02
#       7
#     2   2   2   2   2   2   2
#     4  11  22  38  66  88 126 168 205 257 319 371
#     4  11  22  42  66  96 121 162 218 263 301 371
#     4  11  24  37  65  96 128 163 206 263 311 368
#     4  10  19  37  66  89 119 165 217 253 302 367
#     4  12  24  42  62  92 133 167 202 257 324 374
#     4  11  20  39  63  97 118 162 221 257 300 375
#     4  10  20  38  64  89 123 166 206 258 310 364
#
# _framework density 19.981238999999999
#
# number of rings (size 3 to 8) (size 9 to 14) (size 15 to 20)
#    0.000    1.143    5.714    1.286    0.000    1.143 
#    0.000    0.714    0.000    0.000    0.000    0.000 
#    0.000    0.000    0.000    0.000    0.000    0.000 
#
# Total GULP energy -78239.851454 kJ/mol
# GULP energy per Si atom -5588.560818 kJ/mol
# Density = 1.993576 g / cm^3
# Si number density = 19.981239 Si / 1000 Ang^3
#
#
#
# Elastic Constant Matrix: (Units=GPa)
#
#
# Indices 1 2 3 4 5 6 
#
# 1 115.3266 47.2046 19.5107 -1.1181 16.1306 -7.4544
# 2 47.2046 27.8247 16.6059 -5.3599 2.5860 5.2586
# 3 19.5107 16.6059 73.3797 8.1058 7.0460 11.4187
# 4 -1.1181 -5.3599 8.1058 26.7554 6.4861 5.0024
# 5 16.1306 2.5860 7.0460 6.4861 37.4658 -10.5187
# 6 -7.4544 5.2586 11.4187 5.0024 -10.5187 30.8656
#
#
#
# Elastic Compliance Matrix: (Units=1/GPa)
#
#
# Indices 1 2 3 4 5 6 
#
# 1 0.050915 -0.101126 0.007921 -0.025085 -0.003848 0.029349
# 2 -0.101126 0.248480 -0.026228 0.065854 0.001001 -0.067386
# 3 0.007921 -0.026228 0.018911 -0.009751 -0.003535 -0.000239
# 4 -0.025085 0.065854 -0.009751 0.059832 -0.009765 -0.026695
# 5 -0.003848 0.001001 -0.003535 -0.009765 0.034431 0.013524
# 6 0.029349 -0.067386 -0.000239 -0.026695 0.013524 0.059991
#
#
# Mechanical properties :
#
#
# Convention : Reuss Voigt Hill
#
# Bulk Modulus (GPa) = 12.58814 42.57480 27.58147
# Shear Modulus (GPa) = 6.77593 27.89802 17.33697
#
# Velocity S-wave (km/s) = 1.84350 3.74064 2.94881
# Velocity P-wave (km/s) = 3.29317 6.32536 5.04258
#
# Compressibility (1/GPa) = 0.07943985
#
# Stress axis : x y z
#
# Youngs Moduli (GPa) = 19.64051 4.02447 52.87948
#
# Poissons Ratio (x) = 0.40698 -0.41883
# Poissons Ratio (y) = 1.98616 1.38691
# Poissons Ratio (z) = -0.15556 0.10555
#
# Static dielectric constant tensor:
#      x y z
#    x 1.729860 -0.005040 0.037600 
#    y -0.005040 1.700060 -0.008250 
#    z 0.037600 -0.008250 1.692510 
# 
# From -- ./inp_files/157463.got.cif
#   From: 2010.05.17/outbox.cif.g08.bks.cpg/sg2_79_cif.got.tgz:157463.got - 2010.06.03 11:33:40.
