data_PCOD9089229
_publ_section_title
;
Structure prediction by ZEFSAII (Michael W. Deem and Ramdas Pophale) SiO2 
 PCOD9089229
Probable space group: P -1
;
_chemical_formula_sum "Si O2"
_cell_formula_units_Z 16
_cell_length_a 19.728653
_cell_length_b 6.626790
_cell_length_c 8.852830
_cell_angle_alpha 74.680476
_cell_angle_beta 96.224295
_cell_angle_gamma 140.171519
_cell_volume 706.551932
_symmetry_space_group_name_H-M "P -1"
_symmetry_group_IT_number 2
_symmetry_cell_setting 'triclinic'
loop_
_space_group_symop_operation_xyz
x,y,z
-x,-y,-z
loop_
_atom_site_type_symbol
_atom_site_label
_atom_site_fract_x
_atom_site_fract_y
_atom_site_fract_z
Si Si1 0.659526 0.329347 0.618976
Si Si2 0.177477 0.581678 0.655612
Si Si3 0.040140 0.942632 0.150893
Si Si4 0.337555 0.183494 0.797520
Si Si5 0.210142 0.234448 0.917320
Si Si6 0.494827 0.718440 0.513596
Si Si7 0.879203 0.715953 0.592900
Si Si8 0.603719 0.098901 0.981522
O O1 0.579294 0.333559 0.609928
O O2 0.785488 0.671362 0.560978
O O3 0.641535 0.168804 0.803356
O O4 0.607769 0.085896 0.511322
O O5 0.178558 0.339433 0.764117
O O6 0.175034 0.583666 0.472268
O O7 0.063436 0.399005 0.725537
O O8 0.272184 0.925909 0.693861
O O9 0.101300 0.227554 0.234786
O O10 0.117653 0.974876 0.070120
O O11 0.000000 0.000000 0.000000
O O12 0.253429 0.122191 0.881837
O O13 0.426150 0.551633 0.683632
O O14 0.398270 0.140467 0.905936
O O15 0.303873 0.566413 0.968613
O O16 0.500000 0.500000 0.500000
O O17 0.000000 0.000000 0.500000
O O18 0.500000 0.000000 0.000000
#
# Coordination Sequence:
#
# PCOD9089229 Si02
#       8
#     2   2   2   2   2   2   2   2
#     4  11  23  41  65  93 129 171 219 262 327 390
#     4   9  20  37  63  89 127 167 215 261 318 384
#     4   9  18  36  64  90 122 173 213 259 328 381
#     4  11  23  39  63  96 128 168 214 267 326 380
#     4  10  20  38  60  88 128 168 210 263 317 386
#     4  11  24  41  64  93 130 172 217 268 327 386
#     4  10  19  37  66  94 123 170 221 264 319 389
#     4  11  23  39  62  92 127 169 215 264 324 388
#
# _framework density 22.645184
#
# number of rings (size 3 to 8) (size 9 to 14) (size 15 to 20)
#    0.000    1.750    1.250    3.000    0.000    7.500 
#    0.000    0.000    2.750   14.250    0.000    0.000 
#    0.000    0.000    0.000    0.000    0.000    0.000 
#
# Total GULP energy -89183.669109 kJ/mol
# GULP energy per Si atom -5573.979319 kJ/mol
# Density = 2.259364 g / cm^3
# Si number density = 22.645184 Si / 1000 Ang^3
#
#
#
# Elastic Constant Matrix: (Units=GPa)
#
#
# Indices 1 2 3 4 5 6 
#
# 1 120.4525 39.9981 37.7849 9.5490 -12.7845 18.8057
# 2 39.9981 50.8860 17.0959 10.1199 13.3997 10.6900
# 3 37.7849 17.0959 104.8766 21.3616 -4.7942 4.0296
# 4 9.5490 10.1199 21.3616 29.8132 3.2136 -3.6626
# 5 -12.7845 13.3997 -4.7942 3.2136 37.6392 4.9965
# 6 18.8057 10.6900 4.0296 -3.6626 4.9965 41.3092
#
#
#
# Elastic Compliance Matrix: (Units=1/GPa)
#
#
# Indices 1 2 3 4 5 6 
#
# 1 0.015107 -0.012550 -0.002716 -0.000261 0.009884 -0.004583
# 2 -0.012550 0.035674 -0.000725 -0.006065 -0.016269 -0.002018
# 3 -0.002716 -0.000725 0.012368 -0.008013 0.001688 -0.000697
# 4 -0.000261 -0.006065 -0.008013 0.042620 -0.003475 0.006669
# 5 0.009884 -0.016269 0.001688 -0.003475 0.036923 -0.005228
# 6 -0.004583 -0.002018 -0.000697 0.006669 -0.005228 0.028108
#
#
# Mechanical properties :
#
#
# Convention : Reuss Voigt Hill
#
# Bulk Modulus (GPa) = 32.08447 51.77478 41.92962
# Shear Modulus (GPa) = 23.45566 33.84140 28.64853
#
# Velocity S-wave (km/s) = 3.22186 3.86997 3.56069
# Velocity P-wave (km/s) = 5.29524 6.54843 5.95490
#
# Compressibility (1/GPa) = 0.03116773
#
# Stress axis : x y z
#
# Youngs Moduli (GPa) = 66.19651 28.03178 80.85578
#
# Poissons Ratio (x) = 0.35179 0.21958
# Poissons Ratio (y) = 0.83074 0.05860
# Poissons Ratio (z) = 0.17977 0.02032
#
# Static dielectric constant tensor:
#      x y z
#    x 1.832960 -0.091160 -0.150710 
#    y -0.091160 1.639160 -0.199410 
#    z -0.150710 -0.199410 1.730190 
# 
# From -- ./inp_files/323715.got.cif
#   From: 2010.05.17/outbox.cif.g08.bks.cpg/sg2_162_cif.got.tgz:323715.got - 2010.06.03 11:33:40.
