data_PCOD9089348
_publ_section_title
;
Structure prediction by ZEFSAII (Michael W. Deem and Ramdas Pophale) SiO2 
 PCOD9089348
Probable space group: P -1
;
_chemical_formula_sum "Si O2"
_cell_formula_units_Z 16
_cell_length_a 6.701123
_cell_length_b 5.922900
_cell_length_c 19.197888
_cell_angle_alpha 79.022069
_cell_angle_beta 69.464914
_cell_angle_gamma 73.892010
_cell_volume 681.854169
_symmetry_space_group_name_H-M "P -1"
_symmetry_group_IT_number 2
_symmetry_cell_setting 'triclinic'
loop_
_space_group_symop_operation_xyz
x,y,z
-x,-y,-z
loop_
_atom_site_type_symbol
_atom_site_label
_atom_site_fract_x
_atom_site_fract_y
_atom_site_fract_z
Si Si1 0.269190 0.917466 0.382999
Si Si2 0.556372 0.011128 0.847506
Si Si3 0.610311 0.231412 0.478121
Si Si4 0.072291 0.247789 0.281392
Si Si5 0.901001 0.802430 0.063223
Si Si6 0.637083 0.181320 0.315584
Si Si7 0.706971 0.614101 0.963271
Si Si8 0.713219 0.399353 0.733947
O O1 0.232877 0.846289 0.469763
O O2 0.234626 0.741536 0.336785
O O3 0.106867 0.155934 0.362166
O O4 0.514791 0.965808 0.343948
O O5 0.697807 0.857610 0.778904
O O6 0.637391 0.856217 0.914463
O O7 0.293906 0.065698 0.870302
O O8 0.627926 0.255751 0.813627
O O9 0.500000 0.500000 0.500000
O O10 0.650941 0.262068 0.389619
O O11 0.500000 0.000000 0.500000
O O12 0.071009 0.520955 0.271275
O O13 0.889915 0.154489 0.267131
O O14 0.092530 0.588203 0.079928
O O15 0.778018 0.681670 0.026645
O O16 0.000000 0.000000 0.000000
O O17 0.487240 0.389524 0.277807
O O18 0.500000 0.500000 0.000000
#
# Coordination Sequence:
#
# PCOD9089348 Si02
#       8
#     2   2   2   2   2   2   2   2
#     4   9  20  41  61  90 133 168 217 283 335 391
#     4  11  25  43  66  96 134 173 214 268 336 395
#     4  10  19  37  68  95 129 180 229 288 355 407
#     4  10  24  41  61  96 130 171 224 272 321 412
#     4  11  25  45  70  98 128 167 210 271 329 386
#     4  10  21  40  64  91 131 175 224 271 339 399
#     4  11  25  45  69  99 132 162 219 269 322 401
#     4  10  22  41  61  89 135 169 214 273 328 391
#
# _framework density 23.465427999999999
#
# number of rings (size 3 to 8) (size 9 to 14) (size 15 to 20)
#    0.000    1.750    2.500    0.375    3.500    2.500 
#    4.500    0.625    0.000    0.000    0.000    0.000 
#    0.000    0.000    0.000    0.000    0.000    0.000 
#
# Total GULP energy -89155.406832 kJ/mol
# GULP energy per Si atom -5572.212927 kJ/mol
# Density = 2.341202 g / cm^3
# Si number density = 23.465428 Si / 1000 Ang^3
#
#
#
# Elastic Constant Matrix: (Units=GPa)
#
#
# Indices 1 2 3 4 5 6 
#
# 1 113.3932 42.0071 19.3912 -2.3309 0.1865 5.1069
# 2 42.0071 86.0970 15.6086 -13.5385 -7.4611 -0.9314
# 3 19.3912 15.6086 63.2814 -16.8326 9.5336 -11.0817
# 4 -2.3309 -13.5385 -16.8326 44.0702 -5.2483 7.7301
# 5 0.1865 -7.4611 9.5336 -5.2483 23.6693 0.1265
# 6 5.1069 -0.9314 -11.0817 7.7301 0.1265 35.6525
#
#
#
# Elastic Compliance Matrix: (Units=1/GPa)
#
#
# Indices 1 2 3 4 5 6 
#
# 1 0.011397 -0.005452 -0.002891 -0.001906 -0.001055 -0.002257
# 2 -0.005452 0.016015 -0.002170 0.004730 0.007017 -0.000526
# 3 -0.002891 -0.002170 0.020797 0.005176 -0.007921 0.005727
# 4 -0.001906 0.004730 0.005176 0.027369 0.005511 -0.003948
# 5 -0.001055 0.007017 -0.007921 0.005511 0.048900 -0.003496
# 6 -0.002257 -0.000526 0.005727 -0.003948 -0.003496 0.031007
#
#
# Mechanical properties :
#
#
# Convention : Reuss Voigt Hill
#
# Bulk Modulus (GPa) = 36.78958 46.30946 41.54952
# Shear Modulus (GPa) = 26.94374 33.06271 30.00323
#
# Velocity S-wave (km/s) = 3.39223 3.75773 3.57965
# Velocity P-wave (km/s) = 5.57272 6.21333 5.90172
#
# Compressibility (1/GPa) = 0.02718161
#
# Stress axis : x y z
#
# Youngs Moduli (GPa) = 87.74083 62.44300 48.08473
#
# Poissons Ratio (x) = 0.34045 0.13901
# Poissons Ratio (y) = 0.47838 0.10436
# Poissons Ratio (z) = 0.25365 0.13552
#
# Static dielectric constant tensor:
#      x y z
#    x 1.968630 0.027590 -0.050890 
#    y 0.027590 2.022580 -0.013370 
#    z -0.050890 -0.013370 1.939570 
# 
# From -- ./inp_files/581010.got.cif
#   From: 2010.05.17/outbox.cif.g08.bks.cpg/sg2_291_cif.got.tgz:581010.got - 2010.06.03 11:33:40.
