data_PCOD9089261
_publ_section_title
;
Structure prediction by ZEFSAII (Michael W. Deem and Ramdas Pophale) SiO2 
 PCOD9089261
Probable space group: P -1
;
_chemical_formula_sum "Si O2"
_cell_formula_units_Z 14
_cell_length_a 11.370421
_cell_length_b 9.320581
_cell_length_c 15.031662
_cell_angle_alpha 57.236533
_cell_angle_beta 146.165793
_cell_angle_gamma 143.230606
_cell_volume 492.692344
_symmetry_space_group_name_H-M "P -1"
_symmetry_group_IT_number 2
_symmetry_cell_setting 'triclinic'
loop_
_space_group_symop_operation_xyz
x,y,z
-x,-y,-z
loop_
_atom_site_type_symbol
_atom_site_label
_atom_site_fract_x
_atom_site_fract_y
_atom_site_fract_z
Si Si1 0.427358 0.725107 0.447478
Si Si2 0.960831 0.800925 0.701851
Si Si3 0.687019 0.431909 0.818729
Si Si4 0.635361 0.046466 0.315273
Si Si5 0.352239 0.555883 0.644482
Si Si6 0.538663 0.779711 0.000083
Si Si7 0.751990 0.739297 0.987297
O O1 0.748110 0.841009 0.563779
O O2 0.152526 0.408515 0.371023
O O3 0.449986 0.747644 0.561831
O O4 0.402276 0.868874 0.314241
O O5 0.813252 0.615026 0.754884
O O6 0.318318 0.060417 0.872244
O O7 0.556634 0.505767 0.772607
O O8 0.385773 0.136507 0.698313
O O9 0.000000 0.500000 0.000000
O O10 0.523674 0.113136 0.147463
O O11 0.978432 0.300990 0.483499
O O12 0.430900 0.619891 0.777046
O O13 0.781065 0.809417 0.085251
O O14 0.261999 0.475071 0.947908
O O15 0.000000 0.000000 0.000000
#
# Coordination Sequence:
#
# PCOD9089261 Si02
#       7
#     2   2   2   2   2   2   2
#     4   9  20  37  66  96 142 173 207 265 344 390
#     4   9  17  37  64  93 129 178 208 261 329 397
#     4  10  19  37  67 100 138 176 210 268 330 395
#     4  11  23  40  68 102 137 175 215 276 337 401
#     4  11  24  43  66 100 137 178 228 264 335 410
#     4  11  24  44  67  97 132 171 234 274 337 381
#     4  11  26  46  70  91 127 181 231 286 325 393
#
# _framework density 28.415298
#
# number of rings (size 3 to 8) (size 9 to 14) (size 15 to 20)
#    0.000    1.714    1.429    3.857    0.000    4.000 
#    2.571    2.857    0.000    0.000    0.000    0.000 
#    0.000    0.000    0.000    0.000    0.000    0.000 
#
# Total GULP energy -78090.923089 kJ/mol
# GULP energy per Si atom -5577.923078 kJ/mol
# Density = 2.835062 g / cm^3
# Si number density = 28.415298 Si / 1000 Ang^3
#
#
#
# Elastic Constant Matrix: (Units=GPa)
#
#
# Indices 1 2 3 4 5 6 
#
# 1 80.9482 10.1799 25.6880 1.2119 -20.7109 6.1497
# 2 10.1799 169.3061 47.4495 -21.9786 -5.5334 18.0084
# 3 25.6880 47.4495 117.6289 7.7019 -12.0673 3.1410
# 4 1.2119 -21.9786 7.7019 59.4947 12.8255 -13.7534
# 5 -20.7109 -5.5334 -12.0673 12.8255 51.3550 -4.4961
# 6 6.1497 18.0084 3.1410 -13.7534 -4.4961 35.4945
#
#
#
# Elastic Compliance Matrix: (Units=1/GPa)
#
#
# Indices 1 2 3 4 5 6 
#
# 1 0.014774 0.000013 -0.002483 -0.001714 0.005603 -0.002301
# 2 0.000013 0.007395 -0.003186 0.002746 -0.000853 -0.002516
# 3 -0.002483 -0.003186 0.010706 -0.002871 0.001908 0.000228
# 4 -0.001714 0.002746 -0.002871 0.020983 -0.005736 0.006562
# 5 0.005603 -0.000853 0.001908 -0.005736 0.023525 0.000050
# 6 -0.002301 -0.002516 0.000228 0.006562 0.000050 0.032377
#
#
# Mechanical properties :
#
#
# Convention : Reuss Voigt Hill
#
# Bulk Modulus (GPa) = 46.37578 59.39087 52.88332
# Shear Modulus (GPa) = 38.98333 48.23989 43.61161
#
# Velocity S-wave (km/s) = 3.70795 4.12475 3.92189
# Velocity P-wave (km/s) = 5.88965 6.60539 6.25776
#
# Compressibility (1/GPa) = 0.02156298
#
# Stress axis : x y z
#
# Youngs Moduli (GPa) = 67.68682 135.23015 93.40289
#
# Poissons Ratio (x) = -0.00174 0.23193
# Poissons Ratio (y) = -0.00087 0.29757
# Poissons Ratio (z) = 0.16807 0.43082
#
# Static dielectric constant tensor:
#      x y z
#    x 3.073890 -0.557240 0.978940 
#    y -0.557240 2.547150 -0.476880 
#    z 0.978940 -0.476880 3.736310 
# 
# From -- ./inp_files/573589.got.cif
#   From: 2010.05.17/outbox.cif.g08.bks.cpg/sg2_287_cif.got.tgz:573589.got - 2010.06.03 11:33:40.
