data_PCOD9089609
_publ_section_title
;
Structure prediction by ZEFSAII (Michael W. Deem and Ramdas Pophale) SiO2 
 PCOD9089609
Probable space group: P -1
;
_chemical_formula_sum "Si O2"
_cell_formula_units_Z 16
_cell_length_a 9.743218
_cell_length_b 9.454705
_cell_length_c 13.063578
_cell_angle_alpha 54.381471
_cell_angle_beta 48.725786
_cell_angle_gamma 81.489303
_cell_volume 678.064966
_symmetry_space_group_name_H-M "P -1"
_symmetry_group_IT_number 2
_symmetry_cell_setting 'triclinic'
loop_
_space_group_symop_operation_xyz
x,y,z
-x,-y,-z
loop_
_atom_site_type_symbol
_atom_site_label
_atom_site_fract_x
_atom_site_fract_y
_atom_site_fract_z
Si Si1 0.059545 0.294862 0.986465
Si Si2 0.893082 0.929843 0.749157
Si Si3 0.520737 0.211276 0.921953
Si Si4 0.334649 0.697005 0.743876
Si Si5 0.432870 0.737891 0.364192
Si Si6 0.068528 0.702518 0.332606
Si Si7 0.319192 0.987617 0.453927
Si Si8 0.800074 0.681248 0.301698
O O1 0.259548 0.485171 0.824397
O O2 0.058808 0.229825 0.899452
O O3 0.059992 0.144695 0.133258
O O4 0.858646 0.328597 0.083472
O O5 0.085754 0.949503 0.579684
O O6 0.884947 0.135170 0.674188
O O7 0.659467 0.788251 0.919127
O O8 0.530319 0.279222 0.768666
O O9 0.739821 0.292025 0.827228
O O10 0.500000 0.000000 0.000000
O O11 0.338766 0.840591 0.590614
O O12 0.536813 0.803938 0.663570
O O13 0.395065 0.920937 0.341831
O O14 0.613128 0.730224 0.347129
O O15 0.257076 0.544196 0.566803
O O16 0.000000 0.500000 0.500000
O O17 0.907177 0.743955 0.328639
#
# Coordination Sequence:
#
# PCOD9089609 Si02
#       8
#     2   2   2   2   2   2   2   2
#     4  10  19  38  59  97 134 165 204 273 328 380
#     4  10  23  40  66  95 127 176 214 266 330 387
#     4  10  22  44  63  90 130 176 211 261 328 380
#     4   9  20  33  58  91 142 165 198 261 346 381
#     4  11  22  39  66 100 133 164 217 276 319 384
#     4  11  24  42  65  93 129 173 223 265 324 392
#     4  10  21  37  62  98 133 168 216 266 325 391
#     4  11  23  36  66 101 129 165 223 271 325 375
#
# _framework density 23.596558000000002
#
# number of rings (size 3 to 8) (size 9 to 14) (size 15 to 20)
#    0.000    1.750    3.750    0.000    5.250    3.500 
#    0.000    2.500    0.000    0.750    0.000    0.000 
#    0.000    0.000    0.000    0.000    0.000    0.000 
#
# Total GULP energy -89136.593150 kJ/mol
# GULP energy per Si atom -5571.037072 kJ/mol
# Density = 2.354285 g / cm^3
# Si number density = 23.596558 Si / 1000 Ang^3
#
#
#
# Elastic Constant Matrix: (Units=GPa)
#
#
# Indices 1 2 3 4 5 6 
#
# 1 67.2143 -6.2154 0.1303 -10.5457 10.8218 2.1549
# 2 -6.2154 53.9346 16.5017 -6.8126 5.4261 -5.4537
# 3 0.1303 16.5017 56.1336 -10.4271 -7.4357 -1.7805
# 4 -10.5457 -6.8126 -10.4271 32.7146 -8.2859 -3.7650
# 5 10.8218 5.4261 -7.4357 -8.2859 24.0315 0.8332
# 6 2.1549 -5.4537 -1.7805 -3.7650 0.8332 26.4310
#
#
#
# Elastic Compliance Matrix: (Units=1/GPa)
#
#
# Indices 1 2 3 4 5 6 
#
# 1 0.017050 0.003654 -0.001393 0.003897 -0.007593 0.000065
# 2 0.003654 0.022758 -0.007331 0.001929 -0.008541 0.004448
# 3 -0.001393 -0.007331 0.023273 0.008713 0.012453 0.001017
# 4 0.003897 0.001929 0.008713 0.039169 0.013809 0.005811
# 5 -0.007593 -0.008541 0.012453 0.013809 0.055577 -0.000089
# 6 0.000065 0.004448 0.001017 0.005811 -0.000089 0.039646
#
#
# Mechanical properties :
#
#
# Convention : Reuss Voigt Hill
#
# Bulk Modulus (GPa) = 18.88903 22.01287 20.45095
# Shear Modulus (GPa) = 22.19654 27.75981 24.97818
#
# Velocity S-wave (km/s) = 3.07036 3.43364 3.25707
# Velocity P-wave (km/s) = 4.53782 5.00689 4.77812
#
# Compressibility (1/GPa) = 0.05294078
#
# Stress axis : x y z
#
# Youngs Moduli (GPa) = 58.65025 43.94138 42.96794
#
# Poissons Ratio (x) = -0.16056 0.05987
# Poissons Ratio (y) = -0.21430 0.31498
# Poissons Ratio (z) = 0.08173 0.32211
#
# Static dielectric constant tensor:
#      x y z
#    x 1.897490 0.044860 -0.007280 
#    y 0.044860 1.921200 0.010690 
#    z -0.007280 0.010690 1.928560 
# 
# From -- ./inp_files/514073.got.cif
#   From: 2010.05.17/outbox.cif.g08.bks.cpg/sg2_258_cif.got.tgz:514073.got - 2010.06.03 11:33:40.
