data_PCOD9089639
_publ_section_title
;
Structure prediction by ZEFSAII (Michael W. Deem and Ramdas Pophale) SiO2 
 PCOD9089639
Probable space group: P -1
;
_chemical_formula_sum "Si O2"
_cell_formula_units_Z 12
_cell_length_a 12.156537
_cell_length_b 8.844953
_cell_length_c 9.755006
_cell_angle_alpha 96.313552
_cell_angle_beta 143.596623
_cell_angle_gamma 105.048125
_cell_volume 499.457358
_symmetry_space_group_name_H-M "P -1"
_symmetry_group_IT_number 2
_symmetry_cell_setting 'triclinic'
loop_
_space_group_symop_operation_xyz
x,y,z
-x,-y,-z
loop_
_atom_site_type_symbol
_atom_site_label
_atom_site_fract_x
_atom_site_fract_y
_atom_site_fract_z
Si Si1 0.169302 0.932521 0.711917
Si Si2 0.051180 0.599310 0.854588
Si Si3 0.647560 0.250264 0.278304
Si Si4 0.229568 0.387451 0.180449
Si Si5 0.534009 0.963630 0.375274
Si Si6 0.036890 0.982114 0.288793
O O1 0.274337 0.820641 0.772998
O O2 0.050799 0.906790 0.444353
O O3 0.020186 0.881196 0.693676
O O4 0.383483 0.154830 0.966876
O O5 0.850806 0.464360 0.532390
O O6 0.924760 0.643160 0.845801
O O7 0.149940 0.487481 0.009662
O O8 0.288431 0.787240 0.066209
O O9 0.620394 0.142751 0.383410
O O10 0.500000 0.500000 0.500000
O O11 0.147526 0.190436 0.008561
O O12 0.500000 0.000000 0.500000
O O13 0.723912 0.925295 0.539701
#
# Coordination Sequence:
#
# PCOD9089639 Si02
#       6
#     2   2   2   2   2   2
#     4   9  19  37  64  81 115 166 195 237 287 353
#     4  11  21  39  61  88 122 151 194 249 296 347
#     4  10  20  40  63  84 116 160 197 235 302 345
#     4  11  21  37  61  88 118 158 195 241 299 350
#     4  11  20  37  60  87 122 151 187 247 305 341
#     4  10  19  38  60  85 120 153 199 242 290 351
#
# _framework density 24.026074000000001
#
# number of rings (size 3 to 8) (size 9 to 14) (size 15 to 20)
#    0.000    1.667    5.000    2.000    0.000    0.000 
#    3.000   10.000    0.000    0.000    0.000    0.000 
#    0.000    0.000    0.000    0.000    0.000    0.000 
#
# Total GULP energy -66983.266585 kJ/mol
# GULP energy per Si atom -5581.938882 kJ/mol
# Density = 2.397139 g / cm^3
# Si number density = 24.026074 Si / 1000 Ang^3
#
#
#
# Elastic Constant Matrix: (Units=GPa)
#
#
# Indices 1 2 3 4 5 6 
#
# 1 208.7236 44.0855 83.4466 7.1123 2.2176 -35.2101
# 2 44.0855 35.3157 27.1710 2.3274 2.8656 -2.7964
# 3 83.4466 27.1710 213.0878 12.4283 5.1038 -13.3733
# 4 7.1123 2.3274 12.4283 37.4909 -6.1430 1.7003
# 5 2.2176 2.8656 5.1038 -6.1430 44.0326 -5.0422
# 6 -35.2101 -2.7964 -13.3733 1.7003 -5.0422 31.3747
#
#
#
# Elastic Compliance Matrix: (Units=1/GPa)
#
#
# Indices 1 2 3 4 5 6 
#
# 1 0.008892 -0.009110 -0.001765 -0.000726 0.001239 0.008653
# 2 -0.009110 0.040899 -0.002060 -0.000245 -0.002904 -0.007910
# 3 -0.001765 -0.002060 0.005771 -0.001567 -0.000633 0.000279
# 4 -0.000726 -0.000245 -0.001567 0.028090 0.003878 -0.002403
# 5 0.001239 -0.002904 -0.000633 0.003878 0.023967 0.004504
# 6 0.008653 -0.007910 0.000279 -0.002403 0.004504 0.041852
#
#
# Mechanical properties :
#
#
# Convention : Reuss Voigt Hill
#
# Bulk Modulus (GPa) = 33.67951 85.17036 59.42494
# Shear Modulus (GPa) = 26.99248 42.74125 34.86687
#
# Velocity S-wave (km/s) = 3.35545 4.22234 3.81361
# Velocity P-wave (km/s) = 5.39077 7.70045 6.64670
#
# Compressibility (1/GPa) = 0.02969164
#
# Stress axis : x y z
#
# Youngs Moduli (GPa) = 112.45998 24.45077 173.28819
#
# Poissons Ratio (x) = 0.22274 0.30583
# Poissons Ratio (y) = 1.02450 0.35699
# Poissons Ratio (z) = 0.19848 0.05037
#
# Static dielectric constant tensor:
#      x y z
#    x 1.924480 -0.014240 0.030600 
#    y -0.014240 2.111150 -0.093850 
#    z 0.030600 -0.093850 1.945390 
# 
# From -- ./inp_files/425168.got.cif
#   From: 2010.05.17/outbox.cif.g08.bks.cpg/sg2_213_cif.got.tgz:425168.got - 2010.06.03 11:33:40.
