data_PCOD9089227
_publ_section_title
;
Structure prediction by ZEFSAII (Michael W. Deem and Ramdas Pophale) SiO2 
 PCOD9089227
Probable space group: P -1
;
_chemical_formula_sum "Si O2"
_cell_formula_units_Z 16
_cell_length_a 7.307365
_cell_length_b 8.517388
_cell_length_c 22.061502
_cell_angle_alpha 49.575967
_cell_angle_beta 111.779942
_cell_angle_gamma 74.049585
_cell_volume 664.359522
_symmetry_space_group_name_H-M "P -1"
_symmetry_group_IT_number 2
_symmetry_cell_setting 'triclinic'
loop_
_space_group_symop_operation_xyz
x,y,z
-x,-y,-z
loop_
_atom_site_type_symbol
_atom_site_label
_atom_site_fract_x
_atom_site_fract_y
_atom_site_fract_z
Si Si1 0.122859 0.358732 0.700435
Si Si2 0.136136 0.601018 0.893270
Si Si3 0.298371 0.759052 0.462316
Si Si4 0.613418 0.288585 0.257911
Si Si5 0.719029 0.670635 0.141055
Si Si6 0.482388 0.766265 0.315231
Si Si7 0.409235 0.082795 0.583291
Si Si8 0.523794 0.265413 0.128087
O O1 0.124891 0.364392 0.771320
O O2 0.404650 0.241488 0.732893
O O3 0.869498 0.659085 0.556937
O O4 0.177209 0.081257 0.758833
O O5 0.077844 0.528707 0.841908
O O6 0.391932 0.561538 0.914745
O O7 0.283483 0.375208 0.024207
O O8 0.853778 0.935816 0.794622
O O9 0.500000 0.500000 0.500000
O O10 0.419938 0.544508 0.588353
O O11 0.359749 0.953422 0.414799
O O12 0.955900 0.991863 0.360597
O O13 0.582095 0.559773 0.179097
O O14 0.434616 0.322155 0.172486
O O15 0.552116 0.190438 0.332516
O O16 0.500000 0.000000 0.000000
O O17 0.620436 0.787815 0.384970
#
# Coordination Sequence:
#
# PCOD9089227 Si02
#       8
#     2   2   2   2   2   2   2   2
#     4  12  22  38  69  98 130 173 217 268 334 389
#     4  10  22  41  66  91 131 172 226 264 323 390
#     4  10  20  36  64  99 135 161 210 276 327 376
#     4  11  22  42  66  96 133 170 222 270 328 390
#     4  11  24  44  63  93 135 178 213 269 336 389
#     4  11  21  39  66 104 133 165 218 283 320 383
#     4  11  21  38  67  97 132 169 218 267 330 389
#     4  10  19  37  66  94 119 174 228 261 311 394
#
# _framework density 24.083345999999999
#
# number of rings (size 3 to 8) (size 9 to 14) (size 15 to 20)
#    0.000    1.250    3.750    5.625    0.000    1.000 
#    0.000    2.500    5.500    9.750    0.000    0.000 
#    0.000    0.000    0.000    0.000    0.000    0.000 
#
# Total GULP energy -89238.041099 kJ/mol
# GULP energy per Si atom -5577.377569 kJ/mol
# Density = 2.402853 g / cm^3
# Si number density = 24.083346 Si / 1000 Ang^3
#
#
#
# Elastic Constant Matrix: (Units=GPa)
#
#
# Indices 1 2 3 4 5 6 
#
# 1 100.5033 7.5844 36.5095 -7.0803 -17.2404 0.8809
# 2 7.5844 39.4048 24.1619 8.9043 -6.9388 -1.8919
# 3 36.5095 24.1619 172.5585 1.9805 -30.5894 3.2939
# 4 -7.0803 8.9043 1.9805 36.2055 7.0890 -9.5934
# 5 -17.2404 -6.9388 -30.5894 7.0890 33.7477 -11.3186
# 6 0.8809 -1.8919 3.2939 -9.5934 -11.3186 24.6467
#
#
#
# Elastic Compliance Matrix: (Units=1/GPa)
#
#
# Indices 1 2 3 4 5 6 
#
# 1 0.011539 -0.000821 -0.001563 0.002364 0.004766 0.002842
# 2 -0.000821 0.030257 -0.003051 -0.007923 0.005427 0.002168
# 3 -0.001563 -0.003051 0.007616 -0.000824 0.006077 0.001274
# 4 0.002364 -0.007923 -0.000824 0.033758 -0.004785 0.010360
# 5 0.004766 0.005427 0.006077 -0.004785 0.045961 0.018678
# 6 0.002842 0.002168 0.001274 0.010360 0.018678 0.053078
#
#
# Mechanical properties :
#
#
# Convention : Reuss Voigt Hill
#
# Bulk Modulus (GPa) = 25.94658 49.88647 37.91652
# Shear Modulus (GPa) = 24.28066 35.20069 29.74067
#
# Velocity S-wave (km/s) = 3.17865 3.82726 3.51794
# Velocity P-wave (km/s) = 4.92634 6.34741 5.68148
#
# Compressibility (1/GPa) = 0.03854073
#
# Stress axis : x y z
#
# Youngs Moduli (GPa) = 86.66398 33.05047 131.31043
#
# Poissons Ratio (x) = 0.02714 0.20523
# Poissons Ratio (y) = 0.07116 0.40066
# Poissons Ratio (z) = 0.13545 0.10084
#
# Static dielectric constant tensor:
#      x y z
#    x 1.970800 0.057000 -0.048240 
#    y 0.057000 2.013340 -0.004090 
#    z -0.048240 -0.004090 2.032300 
# 
# From -- ./inp_files/606671.got.cif
#   From: 2010.05.17/outbox.cif.g08.bks.cpg/sg2_304_cif.got.tgz:606671.got - 2010.06.03 11:33:40.
