data_PCOD9089874
_publ_section_title
;
Structure prediction by ZEFSAII (Michael W. Deem and Ramdas Pophale) SiO2 
 PCOD9089874
Probable space group: P -1
;
_chemical_formula_sum "Si O2"
_cell_formula_units_Z 16
_cell_length_a 8.461114
_cell_length_b 25.407876
_cell_length_c 19.094923
_cell_angle_alpha 161.071904
_cell_angle_beta 41.036757
_cell_angle_gamma 147.100958
_cell_volume 704.438716
_symmetry_space_group_name_H-M "P -1"
_symmetry_group_IT_number 2
_symmetry_cell_setting 'triclinic'
loop_
_space_group_symop_operation_xyz
x,y,z
-x,-y,-z
loop_
_atom_site_type_symbol
_atom_site_label
_atom_site_fract_x
_atom_site_fract_y
_atom_site_fract_z
Si Si1 0.004978 0.325436 0.816842
Si Si2 0.897038 0.340445 0.034179
Si Si3 0.391513 0.984116 0.168750
Si Si4 0.159836 0.756356 0.537047
Si Si5 0.172603 0.066246 0.099693
Si Si6 0.718802 0.714001 0.444709
Si Si7 0.634140 0.012562 0.375663
Si Si8 0.671430 0.715874 0.910652
O O1 0.691971 0.103640 0.628307
O O2 0.262733 0.324731 0.692469
O O3 0.022117 0.354786 0.932222
O O4 0.000000 0.500000 0.000000
O O5 0.576258 0.300542 0.077988
O O6 0.080195 0.546802 0.275414
O O7 0.845851 0.168600 0.886323
O O8 0.679021 0.163872 0.342348
O O9 0.297619 0.102481 0.305984
O O10 0.500714 0.873482 0.948146
O O11 0.881884 0.774094 0.651656
O O12 0.386869 0.917753 0.606583
O O13 0.000000 0.000000 0.000000
O O14 0.988870 0.867924 0.960078
O O15 0.455015 0.508683 0.309922
O O16 0.048846 0.791571 0.458386
O O17 0.662555 0.830041 0.124916
#
# Coordination Sequence:
#
# PCOD9089874 Si02
#       8
#     2   2   2   2   2   2   2   2
#     4  11  20  39  65  89 114 160 206 240 285 367
#     4  11  20  38  62  86 119 156 207 243 285 364
#     4  11  24  41  55  95 127 150 196 261 296 344
#     4  10  19  39  66  85 114 166 199 239 296 357
#     4   9  18  38  64  86 119 159 203 243 291 357
#     4  12  24  37  63  90 126 155 194 254 308 332
#     4  10  19  38  64  86 113 157 205 240 286 363
#     4  10  19  38  62  87 119 155 208 248 275 365
#
# _framework density 22.713118000000001
#
# number of rings (size 3 to 8) (size 9 to 14) (size 15 to 20)
#    0.000    1.500    8.750    0.375    0.000    2.500 
#    0.000    3.125    0.000    0.000    0.000    0.000 
#    0.000    0.000    0.000    0.000    0.000    0.000 
#
# Total GULP energy -89236.328754 kJ/mol
# GULP energy per Si atom -5577.270547 kJ/mol
# Density = 2.266142 g / cm^3
# Si number density = 22.713118 Si / 1000 Ang^3
#
#
#
# Elastic Constant Matrix: (Units=GPa)
#
#
# Indices 1 2 3 4 5 6 
#
# 1 23.3328 10.3490 11.2665 11.0306 -2.7904 -1.8426
# 2 10.3490 71.3751 1.9896 -3.1054 -4.7946 -23.5488
# 3 11.2665 1.9896 91.5770 16.7565 -0.5680 -6.4031
# 4 11.0306 -3.1054 16.7565 23.5152 -2.8181 -2.6841
# 5 -2.7904 -4.7946 -0.5680 -2.8181 33.3007 4.2505
# 6 -1.8426 -23.5488 -6.4031 -2.6841 4.2505 21.3293
#
#
#
# Elastic Compliance Matrix: (Units=1/GPa)
#
#
# Indices 1 2 3 4 5 6 
#
# 1 0.066229 -0.016873 -0.003033 -0.032928 0.002642 -0.018488
# 2 -0.016873 0.027150 0.001021 0.014248 -0.000195 0.030656
# 3 -0.003033 0.001021 0.012878 -0.007282 -0.001017 0.004018
# 4 -0.032928 0.014248 -0.007282 0.067475 0.002492 0.018695
# 5 0.002642 -0.000195 -0.001017 0.002492 0.031207 -0.006197
# 6 -0.018488 0.030656 0.004018 0.018695 -0.006197 0.083926
#
#
# Mechanical properties :
#
#
# Convention : Reuss Voigt Hill
#
# Bulk Modulus (GPa) = 14.60144 25.94391 20.27267
# Shear Modulus (GPa) = 14.30766 26.47435 20.39100
#
# Velocity S-wave (km/s) = 2.51256 3.41779 2.99952
# Velocity P-wave (km/s) = 3.85485 5.19829 4.57614
#
# Compressibility (1/GPa) = 0.06848641
#
# Stress axis : x y z
#
# Youngs Moduli (GPa) = 15.09914 36.83294 77.65312
#
# Poissons Ratio (x) = 0.62149 0.23550
# Poissons Ratio (y) = 0.25477 -0.07929
# Poissons Ratio (z) = 0.04579 -0.03761
#
# Static dielectric constant tensor:
#      x y z
#    x 1.926200 0.014570 0.046570 
#    y 0.014570 1.880710 -0.014950 
#    z 0.046570 -0.014950 1.888230 
# 
# From -- ./inp_files/203366.got.cif
#   From: 2010.05.17/outbox.cif.g08.bks.cpg/sg2_102_cif.got.tgz:203366.got - 2010.06.03 11:33:40.
