data_PCOD9089789
_publ_section_title
;
Structure prediction by ZEFSAII (Michael W. Deem and Ramdas Pophale) SiO2 
 PCOD9089789
Probable space group: P -1
;
_chemical_formula_sum "Si O2"
_cell_formula_units_Z 16
_cell_length_a 9.462938
_cell_length_b 14.501162
_cell_length_c 11.308560
_cell_angle_alpha 42.632257
_cell_angle_beta 59.873038
_cell_angle_gamma 58.891385
_cell_volume 879.798002
_symmetry_space_group_name_H-M "P -1"
_symmetry_group_IT_number 2
_symmetry_cell_setting 'triclinic'
loop_
_space_group_symop_operation_xyz
x,y,z
-x,-y,-z
loop_
_atom_site_type_symbol
_atom_site_label
_atom_site_fract_x
_atom_site_fract_y
_atom_site_fract_z
Si Si1 0.638474 0.227408 0.492411
Si Si2 0.943995 0.502028 0.385859
Si Si3 0.892919 0.058305 0.373754
Si Si4 0.607062 0.942104 0.127033
Si Si5 0.053287 0.799241 0.423666
Si Si6 0.016521 0.213708 0.969107
Si Si7 0.580356 0.497260 0.597706
Si Si8 0.753716 0.185484 0.905986
O O1 0.720559 0.155736 0.404849
O O2 0.505543 0.144862 0.675305
O O3 0.790658 0.219385 0.531526
O O4 0.540675 0.390709 0.373268
O O5 0.985168 0.349081 0.452017
O O6 0.744680 0.547445 0.445856
O O7 0.000000 0.500000 0.500000
O O8 0.006968 0.618693 0.177955
O O9 0.989307 0.147989 0.168038
O O10 0.000000 0.000000 0.500000
O O11 0.898099 0.918627 0.427008
O O12 0.794544 0.852306 0.096734
O O13 0.500000 0.000000 0.000000
O O14 0.641485 0.073690 0.061314
O O15 0.121635 0.851491 0.224795
O O16 0.873578 0.185334 0.967482
O O17 0.500000 0.500000 0.500000
O O18 0.641375 0.342423 0.774550
#
# Coordination Sequence:
#
# PCOD9089789 Si02
#       8
#     2   2   2   2   2   2   2   2
#     4  11  21  38  61  89 122 162 199 254 305 357
#     4  11  21  35  64  97 119 152 205 258 307 356
#     4  10  23  43  59  84 128 172 199 243 313 378
#     4  12  21  35  62  95 115 152 213 261 294 354
#     4  10  19  38  61  90 129 155 200 254 308 359
#     4  12  23  39  64  92 123 163 207 253 305 369
#     4  11  19  37  61  91 126 151 196 261 307 342
#     4  11  22  36  61  96 123 154 205 260 309 354
#
# _framework density 18.185991000000001
#
# number of rings (size 3 to 8) (size 9 to 14) (size 15 to 20)
#    0.000    1.000    8.750    1.125    0.000    0.000 
#    0.000    5.000    0.000    0.000    0.000    0.000 
#    0.000    0.000    0.000    0.000    0.000    0.000 
#
# Total GULP energy -89225.234668 kJ/mol
# GULP energy per Si atom -5576.577167 kJ/mol
# Density = 1.814460 g / cm^3
# Si number density = 18.185991 Si / 1000 Ang^3
#
#
#
# Elastic Constant Matrix: (Units=GPa)
#
#
# Indices 1 2 3 4 5 6 
#
# 1 107.5460 28.7047 34.4768 -8.4018 -7.8661 7.4998
# 2 28.7047 165.6332 52.8826 -10.8619 -10.3893 -2.5238
# 3 34.4768 52.8826 107.9128 -13.9674 -6.7968 9.9972
# 4 -8.4018 -10.8619 -13.9674 28.1971 4.8766 -5.9113
# 5 -7.8661 -10.3893 -6.7968 4.8766 26.5313 -6.6239
# 6 7.4998 -2.5238 9.9972 -5.9113 -6.6239 24.0311
#
#
#
# Elastic Compliance Matrix: (Units=1/GPa)
#
#
# Indices 1 2 3 4 5 6 
#
# 1 0.010673 -0.000886 -0.002601 0.000927 0.001560 -0.001684
# 2 -0.000886 0.007578 -0.003436 0.001259 0.002465 0.003491
# 3 -0.002601 -0.003436 0.012562 0.003358 -0.000539 -0.004097
# 4 0.000927 0.001259 0.003358 0.040084 -0.003937 0.007221
# 5 0.001560 0.002465 -0.000539 -0.003937 0.042378 0.010709
# 6 -0.001684 0.003491 -0.004097 0.007221 0.010709 0.048937
#
#
# Mechanical properties :
#
#
# Convention : Reuss Voigt Hill
#
# Bulk Modulus (GPa) = 58.93995 68.13557 63.53776
# Shear Modulus (GPa) = 27.51566 33.42040 30.46803
#
# Velocity S-wave (km/s) = 3.89397 4.29149 4.09755
# Velocity P-wave (km/s) = 7.25928 7.88056 7.57629
#
# Compressibility (1/GPa) = 0.01696642
#
# Stress axis : x y z
#
# Youngs Moduli (GPa) = 93.69666 131.95498 79.60584
#
# Poissons Ratio (x) = 0.11692 0.20708
# Poissons Ratio (y) = 0.08302 0.27352
# Poissons Ratio (z) = 0.24374 0.45338
#
# Static dielectric constant tensor:
#      x y z
#    x 1.627020 -0.007660 0.015940 
#    y -0.007660 1.664390 -0.043150 
#    z 0.015940 -0.043150 1.638450 
# 
# From -- ./inp_files/398364.got.cif
#   From: 2010.05.17/outbox.cif.g08.bks.cpg/sg2_200_cif.got.tgz:398364.got - 2010.06.03 11:33:40.
