data_PCOD9089317
_publ_section_title
;
Structure prediction by ZEFSAII (Michael W. Deem and Ramdas Pophale) SiO2 
 PCOD9089317
Probable space group: P -1
;
_chemical_formula_sum "Si O2"
_cell_formula_units_Z 12
_cell_length_a 8.246911
_cell_length_b 16.813700
_cell_length_c 19.726140
_cell_angle_alpha 21.110571
_cell_angle_beta 30.056011
_cell_angle_gamma 27.624439
_cell_volume 444.163257
_symmetry_space_group_name_H-M "P -1"
_symmetry_group_IT_number 2
_symmetry_cell_setting 'triclinic'
loop_
_space_group_symop_operation_xyz
x,y,z
-x,-y,-z
loop_
_atom_site_type_symbol
_atom_site_label
_atom_site_fract_x
_atom_site_fract_y
_atom_site_fract_z
Si Si1 0.149835 0.057356 0.535054
Si Si2 0.737735 0.140995 0.751375
Si Si3 0.198427 0.432572 0.553003
Si Si4 0.510630 0.266884 0.142483
Si Si5 0.467408 0.505003 0.825871
Si Si6 0.395826 0.952028 0.921490
O O1 0.197996 0.787601 0.709457
O O2 0.132841 0.813451 0.405720
O O3 0.500000 0.000000 0.500000
O O4 0.205775 0.196484 0.339284
O O5 0.616079 0.390001 0.639032
O O6 0.463935 0.034874 0.906235
O O7 0.099033 0.950558 0.808671
O O8 0.000000 0.500000 0.500000
O O9 0.863263 0.492488 0.678652
O O10 0.446602 0.141435 0.699299
O O11 0.500000 0.500000 0.000000
O O12 0.477885 0.347084 0.013377
O O13 0.393723 0.342455 0.924357
O O14 0.000000 0.000000 0.000000
#
# Coordination Sequence:
#
# PCOD9089317 Si02
#       6
#     2   2   2   2   2   2
#     4  10  19  37  67  99 132 170 216 279 345 389
#     4  11  21  42  69  99 137 176 226 272 341 405
#     4  11  22  43  69  95 134 181 225 278 334 401
#     4  11  19  37  69 101 130 171 214 276 348 400
#     4  11  21  42  66  97 141 165 224 282 335 398
#     4  10  25  42  63  97 137 184 228 276 322 397
#
# _framework density 27.017094
#
# number of rings (size 3 to 8) (size 9 to 14) (size 15 to 20)
#    0.000    1.333    6.667    1.500    0.000    0.667 
#    0.000   20.833    0.000    0.000    0.000    0.000 
#    0.000    0.000    0.000    0.000    0.000    0.000 
#
# Total GULP energy -67038.299103 kJ/mol
# GULP energy per Si atom -5586.524925 kJ/mol
# Density = 2.695560 g / cm^3
# Si number density = 27.017094 Si / 1000 Ang^3
#
#
#
# Elastic Constant Matrix: (Units=GPa)
#
#
# Indices 1 2 3 4 5 6 
#
# 1 112.9723 25.5706 48.8990 -18.8642 -19.7744 13.7366
# 2 25.5706 81.9071 49.7924 -23.2416 0.8286 16.0778
# 3 48.8990 49.7924 179.4650 -25.6415 -6.7764 26.9605
# 4 -18.8642 -23.2416 -25.6415 77.5995 15.0714 -0.5450
# 5 -19.7744 0.8286 -6.7764 15.0714 64.1004 -11.0758
# 6 13.7366 16.0778 26.9605 -0.5450 -11.0758 41.7191
#
#
#
# Elastic Compliance Matrix: (Units=1/GPa)
#
#
# Indices 1 2 3 4 5 6 
#
# 1 0.010905 -0.001730 -0.002143 0.000871 0.002820 -0.000779
# 2 -0.001730 0.016659 -0.002977 0.004102 -0.002827 -0.004624
# 3 -0.002143 -0.002977 0.007615 0.001209 -0.000660 -0.003227
# 4 0.000871 0.004102 0.001209 0.015458 -0.003892 -0.003480
# 5 0.002820 -0.002827 -0.000660 -0.003892 0.018284 0.005390
# 6 -0.000779 -0.004624 -0.003227 -0.003480 0.005390 0.029479
#
#
# Mechanical properties :
#
#
# Convention : Reuss Voigt Hill
#
# Bulk Modulus (GPa) = 46.55834 69.20762 57.88298
# Shear Modulus (GPa) = 41.92564 53.35596 47.64080
#
# Velocity S-wave (km/s) = 3.94359 4.44880 4.20379
# Velocity P-wave (km/s) = 6.16491 7.21533 6.71071
#
# Compressibility (1/GPa) = 0.02147843
#
# Stress axis : x y z
#
# Youngs Moduli (GPa) = 91.70236 60.02877 131.32569
#
# Poissons Ratio (x) = 0.10384 0.28148
# Poissons Ratio (y) = 0.15863 0.39091
# Poissons Ratio (z) = 0.19655 0.17869
#
# Static dielectric constant tensor:
#      x y z
#    x 2.210140 -0.084780 -0.117830 
#    y -0.084780 2.599990 0.191980 
#    z -0.117830 0.191980 2.293670 
# 
# From -- ./inp_files/140064.got.cif
#   From: 2010.05.17/outbox.cif.g08.bks.cpg/sg2_71_cif.got.tgz:140064.got - 2010.06.03 11:33:40.
