data_PCOD9089234
_publ_section_title
;
Structure prediction by ZEFSAII (Michael W. Deem and Ramdas Pophale) SiO2 
 PCOD9089234
Probable space group: P -1
;
_chemical_formula_sum "Si O2"
_cell_formula_units_Z 16
_cell_length_a 11.723475
_cell_length_b 12.034157
_cell_length_c 18.160359
_cell_angle_alpha 148.538201
_cell_angle_beta 50.345434
_cell_angle_gamma 107.639125
_cell_volume 823.218575
_symmetry_space_group_name_H-M "P -1"
_symmetry_group_IT_number 2
_symmetry_cell_setting 'triclinic'
loop_
_space_group_symop_operation_xyz
x,y,z
-x,-y,-z
loop_
_atom_site_type_symbol
_atom_site_label
_atom_site_fract_x
_atom_site_fract_y
_atom_site_fract_z
Si Si1 0.333481 0.841021 0.013948
Si Si2 0.366670 0.070091 0.873815
Si Si3 0.679634 0.069990 0.665471
Si Si4 0.900182 0.183022 0.028033
Si Si5 0.649928 0.457727 0.018720
Si Si6 0.579784 0.804352 0.769498
Si Si7 0.246766 0.696821 0.688913
Si Si8 0.945322 0.492923 0.851702
O O1 0.193705 0.858953 0.023495
O O2 0.514255 0.744529 0.836521
O O3 0.360634 0.653913 0.963112
O O4 0.286983 0.112566 0.221037
O O5 0.546817 0.015716 0.730745
O O6 0.402829 0.047276 0.933487
O O7 0.338421 0.850747 0.737048
O O8 0.187061 0.351954 0.077541
O O9 0.702773 0.242062 0.811226
O O10 0.873553 0.801946 0.409056
O O11 0.549429 0.271869 0.767795
O O12 0.766435 0.352861 0.247950
O O13 0.990220 0.328047 0.048907
O O14 0.048049 0.904061 0.849833
O O15 0.810593 0.495773 0.967443
O O16 0.659022 0.563310 0.545174
#
# Coordination Sequence:
#
# PCOD9089234 Si02
#       8
#     2   2   2   2   2   2   2   2
#     4  11  24  40  58  92 132 162 193 262 316 365
#     4  10  19  37  66  95 119 148 212 264 289 368
#     4  10  20  39  67  90 117 165 211 254 308 360
#     4  10  22  39  62  92 127 156 209 259 302 369
#     4  10  22  41  59  90 129 158 208 260 299 369
#     4  11  22  39  63  91 126 165 201 248 321 369
#     4  10  21  39  64  92 120 167 208 249 301 376
#     4  10  22  38  65  93 115 162 215 255 300 360
#
# _framework density 19.435907
#
# number of rings (size 3 to 8) (size 9 to 14) (size 15 to 20)
#    0.000    1.750    2.500    1.500    1.750    1.000 
#    2.250    1.875    0.000    0.000    0.000    0.000 
#    0.000    0.000    0.000    0.000    0.000    0.000 
#
# Total GULP energy -89283.208526 kJ/mol
# GULP energy per Si atom -5580.200533 kJ/mol
# Density = 1.939167 g / cm^3
# Si number density = 19.435907 Si / 1000 Ang^3
#
#
#
# Elastic Constant Matrix: (Units=GPa)
#
#
# Indices 1 2 3 4 5 6 
#
# 1 114.0584 63.7331 45.4117 5.6336 5.7847 0.3793
# 2 63.7331 152.9324 27.0640 2.3881 -0.9495 -0.0952
# 3 45.4117 27.0640 85.8383 8.3758 -12.3682 -9.6118
# 4 5.6336 2.3881 8.3758 15.9576 2.2074 2.3555
# 5 5.7847 -0.9495 -12.3682 2.2074 25.4041 2.9599
# 6 0.3793 -0.0952 -9.6118 2.3555 2.9599 32.9509
#
#
#
# Elastic Compliance Matrix: (Units=1/GPa)
#
#
# Indices 1 2 3 4 5 6 
#
# 1 0.014878 -0.004907 -0.007629 0.000742 -0.007138 -0.001823
# 2 -0.004907 0.008576 0.000077 0.000212 0.001462 -0.000043
# 3 -0.007629 0.000077 0.018772 -0.009480 0.011092 0.005245
# 4 0.000742 0.000212 -0.009480 0.069749 -0.010038 -0.006857
# 5 -0.007138 0.001462 0.011092 -0.010038 0.047341 -0.000213
# 6 -0.001823 -0.000043 0.005245 -0.006857 -0.000213 0.032408
#
#
# Mechanical properties :
#
#
# Convention : Reuss Voigt Hill
#
# Bulk Modulus (GPa) = 57.77518 69.47184 63.62351
# Shear Modulus (GPa) = 22.48085 29.30388 25.89236
#
# Velocity S-wave (km/s) = 3.40467 3.88715 3.65388
# Velocity P-wave (km/s) = 6.72653 7.48119 7.11388
#
# Compressibility (1/GPa) = 0.01730847
#
# Stress axis : x y z
#
# Youngs Moduli (GPa) = 67.21156 116.60491 53.27098
#
# Poissons Ratio (x) = 0.57223 0.40640
# Poissons Ratio (y) = 0.32983 -0.00413
# Poissons Ratio (z) = 0.51276 -0.00903
#
# Static dielectric constant tensor:
#      x y z
#    x 1.701290 0.014650 -0.030960 
#    y 0.014650 1.702030 0.011140 
#    z -0.030960 0.011140 1.711130 
# 
# From -- ./inp_files/568968.got.cif
#   From: 2010.05.17/outbox.cif.g08.bks.cpg/sg2_285_cif.got.tgz:568968.got - 2010.06.03 11:33:40.
