data_PCOD9089776
_publ_section_title
;
Structure prediction by ZEFSAII (Michael W. Deem and Ramdas Pophale) SiO2 
 PCOD9089776
Probable space group: P -1
;
_chemical_formula_sum "Si O2"
_cell_formula_units_Z 14
_cell_length_a 11.485782
_cell_length_b 8.046570
_cell_length_c 13.253769
_cell_angle_alpha 79.903392
_cell_angle_beta 126.653917
_cell_angle_gamma 61.044209
_cell_volume 644.876370
_symmetry_space_group_name_H-M "P -1"
_symmetry_group_IT_number 2
_symmetry_cell_setting 'triclinic'
loop_
_space_group_symop_operation_xyz
x,y,z
-x,-y,-z
loop_
_atom_site_type_symbol
_atom_site_label
_atom_site_fract_x
_atom_site_fract_y
_atom_site_fract_z
Si Si1 0.057178 0.975088 0.823996
Si Si2 0.763935 0.649997 0.828459
Si Si3 0.660852 0.546387 0.500440
Si Si4 0.314511 0.119064 0.608175
Si Si5 0.596539 0.431874 0.806557
Si Si6 0.734799 0.963768 0.630306
Si Si7 0.195749 0.912912 0.675693
O O1 0.168618 0.897141 0.780633
O O2 0.946321 0.886075 0.779220
O O3 0.227082 0.839617 0.017676
O O4 0.857419 0.279426 0.684508
O O5 0.722709 0.487010 0.824810
O O6 0.733624 0.776913 0.694749
O O7 0.576539 0.888805 0.779167
O O8 0.000000 0.500000 0.000000
O O9 0.747493 0.637583 0.477228
O O10 0.543281 0.533081 0.357069
O O11 0.468903 0.765295 0.453745
O O12 0.276749 0.040929 0.495159
O O13 0.201309 0.109932 0.637254
O O14 0.422128 0.645481 0.777027
O O15 0.000000 0.000000 0.500000
#
# Coordination Sequence:
#
# PCOD9089776 Si02
#       7
#     2   2   2   2   2   2   2
#     4  12  23  41  68  96 127 173 214 266 326 376
#     4  10  19  38  61  89 126 162 211 259 312 381
#     4  11  24  42  62  97 136 166 212 268 328 382
#     4  10  23  43  66  91 128 173 216 263 318 389
#     4  11  24  43  66  98 132 165 219 270 318 383
#     4  11  22  42  65  92 129 174 215 259 327 390
#     4  11  21  44  71  90 125 175 222 264 313 385
#
# _framework density 21.709588
#
# number of rings (size 3 to 8) (size 9 to 14) (size 15 to 20)
#    0.000    1.143    4.286    3.429    0.000    2.286 
#   10.286    0.714    0.000    0.000    0.000    0.000 
#    0.000    0.000    0.000    0.000    0.000    0.000 
#
# Total GULP energy -78311.589468 kJ/mol
# GULP energy per Si atom -5593.684962 kJ/mol
# Density = 2.166018 g / cm^3
# Si number density = 21.709588 Si / 1000 Ang^3
#
#
#
# Elastic Constant Matrix: (Units=GPa)
#
#
# Indices 1 2 3 4 5 6 
#
# 1 137.9858 25.2311 29.7372 -9.3672 -9.9350 11.8221
# 2 25.2311 61.4351 22.2522 -6.6738 -6.1158 0.3107
# 3 29.7372 22.2522 136.4796 -13.6243 -8.2514 1.3046
# 4 -9.3672 -6.6738 -13.6243 8.8176 4.6045 -5.7098
# 5 -9.9350 -6.1158 -8.2514 4.6045 37.1307 -1.8465
# 6 11.8221 0.3107 1.3046 -5.7098 -1.8465 35.7339
#
#
#
# Elastic Compliance Matrix: (Units=1/GPa)
#
#
# Indices 1 2 3 4 5 6 
#
# 1 0.008432 -0.002607 -0.000972 0.003562 0.001064 -0.002107
# 2 -0.002607 0.019104 -0.001460 0.010551 0.000940 0.002484
# 3 -0.000972 -0.001460 0.009081 0.013281 -0.000024 0.002124
# 4 0.003562 0.010551 0.013281 0.168926 -0.014087 0.024509
# 5 0.001064 0.000940 -0.000024 -0.014087 0.029058 -0.001109
# 6 -0.002107 0.002484 0.002124 0.024509 -0.001109 0.032442
#
#
# Mechanical properties :
#
#
# Convention : Reuss Voigt Hill
#
# Bulk Modulus (GPa) = 37.68195 54.48238 46.08217
# Shear Modulus (GPa) = 17.48438 33.58179 25.53308
#
# Velocity S-wave (km/s) = 2.84099 3.93729 3.43318
# Velocity P-wave (km/s) = 5.30628 6.76906 6.08181
#
# Compressibility (1/GPa) = 0.02653790
#
# Stress axis : x y z
#
# Youngs Moduli (GPa) = 118.59025 52.34405 110.11936
#
# Poissons Ratio (x) = 0.13649 0.10705
# Poissons Ratio (y) = 0.30922 0.16081
# Poissons Ratio (z) = 0.11528 0.07644
#
# Static dielectric constant tensor:
#      x y z
#    x 1.796490 0.011670 -0.009270 
#    y 0.011670 1.802170 -0.024790 
#    z -0.009270 -0.024790 1.829280 
# 
# From -- ./inp_files/469164.got.cif
#   From: 2010.05.17/outbox.cif.g08.bks.cpg/sg2_235_cif.got.tgz:469164.got - 2010.06.03 11:33:40.
