data_PCOD9089586
_publ_section_title
;
Structure prediction by ZEFSAII (Michael W. Deem and Ramdas Pophale) SiO2 
 PCOD9089586
Probable space group: P -1
;
_chemical_formula_sum "Si O2"
_cell_formula_units_Z 14
_cell_length_a 10.218368
_cell_length_b 15.242976
_cell_length_c 11.700843
_cell_angle_alpha 29.910771
_cell_angle_beta 63.741314
_cell_angle_gamma 82.957942
_cell_volume 661.932967
_symmetry_space_group_name_H-M "P -1"
_symmetry_group_IT_number 2
_symmetry_cell_setting 'triclinic'
loop_
_space_group_symop_operation_xyz
x,y,z
-x,-y,-z
loop_
_atom_site_type_symbol
_atom_site_label
_atom_site_fract_x
_atom_site_fract_y
_atom_site_fract_z
Si Si1 0.608126 0.217343 0.785560
Si Si2 0.259937 0.471884 0.231484
Si Si3 0.283812 0.736662 0.729441
Si Si4 0.345221 0.163363 0.559219
Si Si5 0.351893 0.545543 0.716884
Si Si6 0.929456 0.270603 0.733503
Si Si7 0.402590 0.189465 0.125948
O O1 0.658840 0.406450 0.464141
O O2 0.777518 0.230160 0.751915
O O3 0.491355 0.201800 0.955484
O O4 0.500000 0.000000 0.000000
O O5 0.315516 0.323816 0.322315
O O6 0.099321 0.307228 0.564075
O O7 0.193222 0.569487 0.056738
O O8 0.427789 0.667353 0.016126
O O9 0.497765 0.845646 0.543781
O O10 0.246652 0.607362 0.770800
O O11 0.274602 0.938575 0.495314
O O12 0.442603 0.287520 0.501770
O O13 0.168814 0.927553 0.916632
O O14 0.307039 0.310881 0.018352
O O15 0.000000 0.500000 0.500000
#
# Coordination Sequence:
#
# PCOD9089586 Si02
#       7
#     2   2   2   2   2   2   2
#     4  12  19  40  62  83 120 158 201 242 285 351
#     4  11  22  35  57  93 121 155 190 248 305 342
#     4  10  19  38  59  89 119 156 195 244 289 356
#     4   9  19  37  59  81 120 155 196 236 287 353
#     4   9  21  35  62  87 110 155 206 241 280 346
#     4  12  22  37  58  90 122 153 194 249 296 342
#     4  11  20  35  62  88 116 152 206 241 287 349
#
# _framework density 21.150179000000001
#
# number of rings (size 3 to 8) (size 9 to 14) (size 15 to 20)
#    0.857    0.571    5.714    1.714    0.000    0.000 
#    0.000    0.714    0.000    0.857    0.000    0.000 
#    0.000    0.000    0.000    0.000    0.000    0.000 
#
# Total GULP energy -78104.986512 kJ/mol
# GULP energy per Si atom -5578.927608 kJ/mol
# Density = 2.110204 g / cm^3
# Si number density = 21.150179 Si / 1000 Ang^3
#
#
#
# Elastic Constant Matrix: (Units=GPa)
#
#
# Indices 1 2 3 4 5 6 
#
# 1 36.6523 6.2345 3.8135 -18.1518 14.8255 4.7258
# 2 6.2345 48.9418 35.6827 -16.3375 10.0405 5.7711
# 3 3.8135 35.6827 82.2573 -16.3607 21.8770 -7.7557
# 4 -18.1518 -16.3375 -16.3607 36.2426 -13.0507 9.0829
# 5 14.8255 10.0405 21.8770 -13.0507 27.5875 0.8783
# 6 4.7258 5.7711 -7.7557 9.0829 0.8783 30.1863
#
#
#
# Elastic Compliance Matrix: (Units=1/GPa)
#
#
# Indices 1 2 3 4 5 6 
#
# 1 0.047606 0.004436 0.004385 0.024660 -0.018562 -0.014054
# 2 0.004436 0.039628 -0.017014 0.019411 0.006463 -0.018671
# 3 0.004385 -0.017014 0.024241 -0.003341 -0.017296 0.010303
# 4 0.024660 0.019411 -0.003341 0.057420 0.010324 -0.026008
# 5 -0.018562 0.006463 -0.017296 0.010324 0.062716 -0.007705
# 6 -0.014054 -0.018671 0.010303 -0.026008 -0.007705 0.049594
#
#
# Mechanical properties :
#
#
# Convention : Reuss Voigt Hill
#
# Bulk Modulus (GPa) = 10.51662 28.81253 19.66458
# Shear Modulus (GPa) = 15.18427 26.94464 21.06446
#
# Velocity S-wave (km/s) = 2.68232 3.57314 3.15929
# Velocity P-wave (km/s) = 3.81789 5.53855 4.75667
#
# Compressibility (1/GPa) = 0.09508761
#
# Stress axis : x y z
#
# Youngs Moduli (GPa) = 21.00592 25.23498 41.25170
#
# Poissons Ratio (x) = -0.11194 -0.18089
# Poissons Ratio (y) = -0.09318 0.70187
# Poissons Ratio (z) = -0.09211 0.42936
#
# Static dielectric constant tensor:
#      x y z
#    x 1.762830 -0.024660 0.037430 
#    y -0.024660 1.815540 0.016960 
#    z 0.037430 0.016960 1.787190 
# 
# From -- ./inp_files/431124.got.cif
#   From: 2010.05.17/outbox.cif.g08.bks.cpg/sg2_216_cif.got.tgz:431124.got - 2010.06.03 11:33:40.
