data_PCOD9089793
_publ_section_title
;
Structure prediction by ZEFSAII (Michael W. Deem and Ramdas Pophale) SiO2 
 PCOD9089793
Probable space group: P -1
;
_chemical_formula_sum "Si O2"
_cell_formula_units_Z 16
_cell_length_a 12.312699
_cell_length_b 16.391938
_cell_length_c 9.679472
_cell_angle_alpha 146.595489
_cell_angle_beta 65.824041
_cell_angle_gamma 130.463220
_cell_volume 776.466173
_symmetry_space_group_name_H-M "P -1"
_symmetry_group_IT_number 2
_symmetry_cell_setting 'triclinic'
loop_
_space_group_symop_operation_xyz
x,y,z
-x,-y,-z
loop_
_atom_site_type_symbol
_atom_site_label
_atom_site_fract_x
_atom_site_fract_y
_atom_site_fract_z
Si Si1 0.265617 0.096156 0.209996
Si Si2 0.888725 0.239043 0.791225
Si Si3 0.779735 0.465112 0.072249
Si Si4 0.176211 0.120416 0.594814
Si Si5 0.324663 0.407044 0.447052
Si Si6 0.607474 0.313824 0.401045
Si Si7 0.630122 0.475199 0.896365
Si Si8 0.879477 0.307292 0.211289
O O1 0.246802 0.161627 0.462251
O O2 0.241360 0.195089 0.240008
O O3 0.439689 0.174253 0.229355
O O4 0.150622 0.872909 0.955076
O O5 0.050941 0.349969 0.790129
O O6 0.799871 0.016082 0.530786
O O7 0.797614 0.303326 0.859102
O O8 0.920724 0.310236 0.034385
O O9 0.721471 0.502080 0.291270
O O10 0.669461 0.426708 0.951150
O O11 0.229811 0.311132 0.907242
O O12 0.000000 0.000000 0.500000
O O13 0.500000 0.500000 0.500000
O O14 0.314829 0.477291 0.403965
O O15 0.597721 0.329834 0.592082
O O16 0.718310 0.266415 0.238679
O O17 0.500000 0.500000 0.000000
O O18 0.000000 0.500000 0.500000
#
# Coordination Sequence:
#
# PCOD9089793 Si02
#       8
#     2   2   2   2   2   2   2   2
#     4  10  21  39  64  87 121 167 206 249 318 376
#     4  10  22  38  65  91 124 170 212 251 320 377
#     4  11  20  40  63  92 126 169 209 261 310 377
#     4  11  20  38  64  92 119 166 214 254 306 384
#     4  10  19  38  61  91 120 166 207 250 314 371
#     4  11  22  39  61  91 127 162 202 261 313 371
#     4  12  22  39  63  94 125 162 217 262 308 369
#     4  11  23  39  61  95 124 161 209 259 313 378
#
# _framework density 20.606176999999999
#
# number of rings (size 3 to 8) (size 9 to 14) (size 15 to 20)
#    0.000    1.250    5.000    1.875    1.750    0.000 
#    0.000    5.000    0.000    0.000    0.000    0.000 
#    0.000    0.000    0.000    0.000    0.000    0.000 
#
# Total GULP energy -89319.929326 kJ/mol
# GULP energy per Si atom -5582.495583 kJ/mol
# Density = 2.055928 g / cm^3
# Si number density = 20.606177 Si / 1000 Ang^3
#
#
#
# Elastic Constant Matrix: (Units=GPa)
#
#
# Indices 1 2 3 4 5 6 
#
# 1 88.2639 21.2114 -0.2712 -0.6810 -11.8128 -4.9224
# 2 21.2114 72.7586 2.5549 3.2922 -4.6102 -4.5623
# 3 -0.2712 2.5549 47.2787 9.1660 2.3249 -6.5259
# 4 -0.6810 3.2922 9.1660 35.1309 -1.2487 -20.1071
# 5 -11.8128 -4.6102 2.3249 -1.2487 26.4179 -0.7983
# 6 -4.9224 -4.5623 -6.5259 -20.1071 -0.7983 49.1241
#
#
#
# Elastic Compliance Matrix: (Units=1/GPa)
#
#
# Indices 1 2 3 4 5 6 
#
# 1 0.012981 -0.003410 -0.000109 0.001822 0.005359 0.001802
# 2 -0.003410 0.014909 -0.000619 -0.000917 0.001106 0.000603
# 3 -0.000109 -0.000619 0.022459 -0.005540 -0.002377 0.000609
# 4 0.001822 -0.000917 -0.005540 0.038944 0.003447 0.015358
# 5 0.005359 0.001106 -0.002377 0.003447 0.040887 0.002399
# 6 0.001802 0.000603 0.000609 0.015358 0.002399 0.026999
#
#
# Mechanical properties :
#
#
# Convention : Reuss Voigt Hill
#
# Bulk Modulus (GPa) = 23.76820 28.36570 26.06695
# Shear Modulus (GPa) = 27.85823 34.45498 31.15660
#
# Velocity S-wave (km/s) = 3.68086 4.09353 3.89267
# Velocity P-wave (km/s) = 5.44284 6.01150 5.73422
#
# Compressibility (1/GPa) = 0.04207302
#
# Stress axis : x y z
#
# Youngs Moduli (GPa) = 77.03742 67.07160 44.52567
#
# Poissons Ratio (x) = 0.22873 0.00486
# Poissons Ratio (y) = 0.26272 0.02754
# Poissons Ratio (z) = 0.00841 0.04149
#
# Static dielectric constant tensor:
#      x y z
#    x 1.835020 -0.005740 0.028310 
#    y -0.005740 1.763190 0.072440 
#    z 0.028310 0.072440 1.897880 
# 
# From -- ./inp_files/274631.got.cif
#   From: 2010.05.17/outbox.cif.g08.bks.cpg/sg2_138_cif.got.tgz:274631.got - 2010.06.03 11:33:40.
