data_PCOD9089591
_publ_section_title
;
Structure prediction by ZEFSAII (Michael W. Deem and Ramdas Pophale) SiO2 
 PCOD9089591
Probable space group: P -1
;
_chemical_formula_sum "Si O2"
_cell_formula_units_Z 16
_cell_length_a 11.543396
_cell_length_b 7.803067
_cell_length_c 13.227441
_cell_angle_alpha 145.753540
_cell_angle_beta 102.772304
_cell_angle_gamma 80.521311
_cell_volume 653.546629
_symmetry_space_group_name_H-M "P -1"
_symmetry_group_IT_number 2
_symmetry_cell_setting 'triclinic'
loop_
_space_group_symop_operation_xyz
x,y,z
-x,-y,-z
loop_
_atom_site_type_symbol
_atom_site_label
_atom_site_fract_x
_atom_site_fract_y
_atom_site_fract_z
Si Si1 0.333693 0.089785 0.585195
Si Si2 0.802017 0.556043 0.014630
Si Si3 0.783721 0.239352 0.295268
Si Si4 0.028922 0.624309 0.209293
Si Si5 0.371589 0.105624 0.057982
Si Si6 0.363239 0.486720 0.430134
Si Si7 0.588198 0.284885 0.763736
Si Si8 0.922680 0.689962 0.424784
O O1 0.446591 0.275231 0.746561
O O2 0.204286 0.231330 0.616543
O O3 0.332057 0.778296 0.497246
O O4 0.377169 0.005482 0.438460
O O5 0.908519 0.472734 0.068149
O O6 0.784948 0.917443 0.197059
O O7 0.682387 0.350791 0.903233
O O8 0.861204 0.512015 0.893553
O O9 0.715829 0.474469 0.467045
O O10 0.899954 0.418366 0.365669
O O11 0.716707 0.138240 0.129795
O O12 0.019130 0.604609 0.317911
O O13 0.036585 0.985543 0.362815
O O14 0.349587 0.193461 0.212193
O O15 0.375964 0.424540 0.155128
O O16 0.500000 0.000000 0.000000
O O17 0.500000 0.500000 0.500000
#
# Coordination Sequence:
#
# PCOD9089591 Si02
#       8
#     2   2   2   2   2   2   2   2
#     4  10  20  37  62  95 127 170 210 257 321 394
#     4  10  21  44  65  97 128 167 217 273 324 377
#     4  11  24  41  64  95 129 168 219 271 322 386
#     4  10  23  43  69  88 129 171 219 271 320 385
#     4  10  19  38  59  89 134 172 210 259 321 386
#     4  11  23  38  61  92 136 178 211 258 323 391
#     4   9  19  34  65  90 126 169 207 259 320 385
#     4  11  23  43  67  95 124 175 218 264 329 387
#
# _framework density 24.481804
#
# number of rings (size 3 to 8) (size 9 to 14) (size 15 to 20)
#    0.000    1.750    2.500    1.500    3.500    1.000 
#    6.750    3.125    0.000    0.000    0.000    0.000 
#    0.000    0.000    0.000    0.000    0.000    0.000 
#
# Total GULP energy -89367.849223 kJ/mol
# GULP energy per Si atom -5585.490576 kJ/mol
# Density = 2.442608 g / cm^3
# Si number density = 24.481804 Si / 1000 Ang^3
#
#
#
# Elastic Constant Matrix: (Units=GPa)
#
#
# Indices 1 2 3 4 5 6 
#
# 1 77.1066 2.1121 63.8806 -23.6973 3.2000 -8.0353
# 2 2.1121 52.8911 27.4626 8.2639 -1.4096 1.0301
# 3 63.8806 27.4626 123.6265 -24.0502 4.0793 16.4888
# 4 -23.6973 8.2639 -24.0502 20.8446 6.8789 2.9316
# 5 3.2000 -1.4096 4.0793 6.8789 63.8176 -13.2356
# 6 -8.0353 1.0301 16.4888 2.9316 -13.2356 34.9164
#
#
#
# Elastic Compliance Matrix: (Units=1/GPa)
#
#
# Indices 1 2 3 4 5 6 
#
# 1 0.033168 0.006440 -0.018688 0.010721 0.001851 0.016069
# 2 0.006440 0.034602 -0.020320 -0.035091 0.008921 0.016385
# 3 -0.018688 -0.020320 0.031852 0.030401 -0.010030 -0.025097
# 4 0.010721 -0.035091 0.030401 0.120679 -0.022375 -0.029468
# 5 0.001851 0.008921 -0.010030 -0.022375 0.021959 0.015102
# 6 0.016069 0.016385 -0.025097 -0.029468 0.015102 0.051905
#
#
# Mechanical properties :
#
#
# Convention : Reuss Voigt Hill
#
# Bulk Modulus (GPa) = 28.99833 48.94831 38.97332
# Shear Modulus (GPa) = 13.48456 34.59365 24.03911
#
# Velocity S-wave (km/s) = 2.34946 3.76311 3.13696
# Velocity P-wave (km/s) = 4.38526 6.23847 5.39208
#
# Compressibility (1/GPa) = 0.03448475
#
# Stress axis : x y z
#
# Youngs Moduli (GPa) = 30.14997 28.90017 31.39567
#
# Poissons Ratio (x) = -0.18611 0.58671
# Poissons Ratio (y) = -0.19416 0.63797
# Poissons Ratio (z) = 0.56343 0.58726
#
# Static dielectric constant tensor:
#      x y z
#    x 1.845090 -0.065950 0.134740 
#    y -0.065950 2.036130 -0.058720 
#    z 0.134740 -0.058720 1.844620 
# 
# From -- ./inp_files/516484.got.cif
#   From: 2010.05.17/outbox.cif.g08.bks.cpg/sg2_259_cif.got.tgz:516484.got - 2010.06.03 11:33:40.
