data_PCOD9089647
_publ_section_title
;
Structure prediction by ZEFSAII (Michael W. Deem and Ramdas Pophale) SiO2 
 PCOD9089647
Probable space group: P -1
;
_chemical_formula_sum "Si O2"
_cell_formula_units_Z 16
_cell_length_a 11.962899
_cell_length_b 25.728606
_cell_length_c 11.835920
_cell_angle_alpha 146.637230
_cell_angle_beta 33.995006
_cell_angle_gamma 156.070917
_cell_volume 776.579650
_symmetry_space_group_name_H-M "P -1"
_symmetry_group_IT_number 2
_symmetry_cell_setting 'triclinic'
loop_
_space_group_symop_operation_xyz
x,y,z
-x,-y,-z
loop_
_atom_site_type_symbol
_atom_site_label
_atom_site_fract_x
_atom_site_fract_y
_atom_site_fract_z
Si Si1 0.186020 0.015057 0.468779
Si Si2 0.168512 0.289952 0.186376
Si Si3 0.788416 0.199854 0.918739
Si Si4 0.989908 0.390463 0.690264
Si Si5 0.738586 0.023341 0.194065
Si Si6 0.614302 0.903638 0.317331
Si Si7 0.294922 0.842931 0.847379
Si Si8 0.834943 0.544849 0.091739
O O1 0.130941 0.883642 0.284761
O O2 0.177352 0.047855 0.664066
O O3 0.512589 0.141801 0.381025
O O4 0.000000 0.000000 0.500000
O O5 0.504883 0.408619 0.095153
O O6 0.089939 0.358840 0.446678
O O7 0.037941 0.162483 0.144038
O O8 0.989298 0.222286 0.097756
O O9 0.021010 0.328866 0.879548
O O10 0.474005 0.098722 0.939398
O O11 0.770825 0.234196 0.122671
O O12 0.651440 0.258311 0.760124
O O13 0.149042 0.418260 0.723779
O O14 0.021619 0.512520 0.864822
O O15 0.552188 0.054942 0.435396
O O16 0.758799 0.973579 0.203446
O O17 0.500000 0.000000 0.000000
#
# Coordination Sequence:
#
# PCOD9089647 Si02
#       8
#     2   2   2   2   2   2   2   2
#     4  10  20  36  61  92 118 158 205 259 310 365
#     4  11  21  40  64  91 124 165 205 257 312 366
#     4  10  20  39  60  86 121 163 203 253 307 366
#     4  10  21  41  61  90 128 165 203 250 315 372
#     4   9  16  33  64  87 112 155 205 258 314 353
#     4   9  16  33  62  85 113 156 203 258 303 360
#     4  10  19  38  60  86 120 162 201 253 316 360
#     4  11  24  39  63  90 128 169 202 252 310 371
#
# _framework density 20.603166000000002
#
# number of rings (size 3 to 8) (size 9 to 14) (size 15 to 20)
#    0.000    2.000    6.250    0.375    1.750    2.500 
#    2.250    2.500    0.000    0.000    0.000    0.000 
#    0.000    0.000    0.000    0.000    0.000    0.000 
#
# Total GULP energy -89298.179157 kJ/mol
# GULP energy per Si atom -5581.136197 kJ/mol
# Density = 2.055627 g / cm^3
# Si number density = 20.603166 Si / 1000 Ang^3
#
#
#
# Elastic Constant Matrix: (Units=GPa)
#
#
# Indices 1 2 3 4 5 6 
#
# 1 161.7901 61.2149 24.0512 4.7480 25.5868 -1.1172
# 2 61.2149 113.4543 5.5954 -6.9254 3.2306 0.0859
# 3 24.0512 5.5954 54.4660 0.9535 7.7483 -5.6245
# 4 4.7480 -6.9254 0.9535 22.7810 3.7340 5.0053
# 5 25.5868 3.2306 7.7483 3.7340 24.3563 6.5326
# 6 -1.1172 0.0859 -5.6245 5.0053 6.5326 30.1466
#
#
#
# Elastic Compliance Matrix: (Units=1/GPa)
#
#
# Indices 1 2 3 4 5 6 
#
# 1 0.010076 -0.005215 -0.002276 -0.002580 -0.009426 0.002435
# 2 -0.005215 0.011782 0.000332 0.004436 0.003580 -0.001677
# 3 -0.002276 0.000332 0.020642 -0.000495 -0.005495 0.005039
# 4 -0.002580 0.004436 -0.000495 0.047953 -0.003061 -0.007499
# 5 -0.009426 0.003580 -0.005495 -0.003061 0.056204 -0.013056
# 6 0.002435 -0.001677 0.005039 -0.007499 -0.013056 0.038281
#
#
# Mechanical properties :
#
#
# Convention : Reuss Voigt Hill
#
# Bulk Modulus (GPa) = 35.48367 56.82594 46.15481
# Shear Modulus (GPa) = 23.96392 31.38005 27.67198
#
# Velocity S-wave (km/s) = 3.41415 3.90689 3.66880
# Velocity P-wave (km/s) = 5.72728 6.92768 6.35588
#
# Compressibility (1/GPa) = 0.02818198
#
# Stress axis : x y z
#
# Youngs Moduli (GPa) = 99.24957 84.87775 48.44562
#
# Poissons Ratio (x) = 0.44264 0.11026
# Poissons Ratio (y) = 0.51759 -0.01610
# Poissons Ratio (z) = 0.22588 -0.02821
#
# Static dielectric constant tensor:
#      x y z
#    x 1.772760 0.018740 -0.013720 
#    y 0.018740 1.716760 -0.011100 
#    z -0.013720 -0.011100 1.834460 
# 
# From -- ./inp_files/243426.got.cif
#   From: 2010.05.17/outbox.cif.g08.bks.cpg/sg2_122_cif.got.tgz:243426.got - 2010.06.03 11:33:40.
