data_PCOD9089263
_publ_section_title
;
Structure prediction by ZEFSAII (Michael W. Deem and Ramdas Pophale) SiO2 
 PCOD9089263
Probable space group: P -1
;
_chemical_formula_sum "Si O2"
_cell_formula_units_Z 14
_cell_length_a 9.015897
_cell_length_b 12.882173
_cell_length_c 7.941199
_cell_angle_alpha 101.640133
_cell_angle_beta 107.246835
_cell_angle_gamma 44.433486
_cell_volume 616.600854
_symmetry_space_group_name_H-M "P -1"
_symmetry_group_IT_number 2
_symmetry_cell_setting 'triclinic'
loop_
_space_group_symop_operation_xyz
x,y,z
-x,-y,-z
loop_
_atom_site_type_symbol
_atom_site_label
_atom_site_fract_x
_atom_site_fract_y
_atom_site_fract_z
Si Si1 0.405646 0.869243 0.879785
Si Si2 0.383522 0.085945 0.777961
Si Si3 0.898153 0.323023 0.792127
Si Si4 0.058879 0.945215 0.311224
Si Si5 0.745693 0.563012 0.063489
Si Si6 0.862076 0.533433 0.632051
Si Si7 0.472290 0.222063 0.628384
O O1 0.415578 0.945669 0.750036
O O2 0.432691 0.939879 0.065440
O O3 0.602031 0.694737 0.919075
O O4 0.167235 0.932095 0.823841
O O5 0.369457 0.157543 0.624104
O O6 0.159102 0.212875 0.843730
O O7 0.867588 0.212725 0.729444
O O8 0.834014 0.424402 0.640993
O O9 0.786890 0.428638 0.952348
O O10 0.269731 0.910411 0.322911
O O11 0.000000 0.000000 0.500000
O O12 0.603917 0.656440 0.213538
O O13 0.984005 0.492032 0.176958
O O14 0.628126 0.687970 0.548936
O O15 0.000000 0.500000 0.500000
#
# Coordination Sequence:
#
# PCOD9089263 Si02
#       7
#     2   2   2   2   2   2   2
#     4   9  19  38  64  90 125 162 210 256 306 377
#     4   9  18  37  67  95 120 164 210 257 313 366
#     4  11  21  40  68  96 123 166 214 256 321 373
#     4  11  27  44  59  86 134 180 208 250 318 386
#     4  10  21  37  72 102 120 158 213 272 317 358
#     4  10  19  37  67 102 129 151 207 275 312 366
#     4  10  22  40  65  95 134 163 210 259 312 376
#
# _framework density 22.705124999999999
#
# number of rings (size 3 to 8) (size 9 to 14) (size 15 to 20)
#    0.000    2.000    4.286    0.429    2.000    3.429 
#    0.000    4.286   22.000    0.000    0.000    0.000 
#    0.000    0.000    0.000    0.000    0.000    0.000 
#
# Total GULP energy -78034.848639 kJ/mol
# GULP energy per Si atom -5573.917760 kJ/mol
# Density = 2.265345 g / cm^3
# Si number density = 22.705125 Si / 1000 Ang^3
#
#
#
# Elastic Constant Matrix: (Units=GPa)
#
#
# Indices 1 2 3 4 5 6 
#
# 1 50.1322 21.9428 13.3378 -2.8581 4.1003 -19.4376
# 2 21.9428 144.5308 49.5063 3.4688 2.1856 -3.4763
# 3 13.3378 49.5063 92.2762 -19.4671 -3.7276 -2.8815
# 4 -2.8581 3.4688 -19.4671 50.4609 -4.8080 2.2694
# 5 4.1003 2.1856 -3.7276 -4.8080 29.1574 -9.4489
# 6 -19.4376 -3.4763 -2.8815 2.2694 -9.4489 43.8281
#
#
#
# Elastic Compliance Matrix: (Units=1/GPa)
#
#
# Indices 1 2 3 4 5 6 
#
# 1 0.026137 -0.003164 -0.001603 0.000583 0.000090 0.011224
# 2 -0.003164 0.009266 -0.005250 -0.002958 -0.001814 -0.001252
# 3 -0.001603 -0.005250 0.015436 0.006570 0.003794 0.000365
# 4 0.000583 -0.002958 0.006570 0.023039 0.004881 0.000315
# 5 0.000090 -0.001814 0.003794 0.004881 0.038355 0.008162
# 6 0.011224 -0.001252 0.000365 0.000315 0.008162 0.029462
#
#
# Mechanical properties :
#
#
# Convention : Reuss Voigt Hill
#
# Bulk Modulus (GPa) = 32.46362 50.72366 41.59364
# Shear Modulus (GPa) = 29.06993 38.16609 33.61801
#
# Velocity S-wave (km/s) = 3.58204 4.10438 3.85208
# Velocity P-wave (km/s) = 5.60687 6.69701 6.17604
#
# Compressibility (1/GPa) = 0.03080372
#
# Stress axis : x y z
#
# Youngs Moduli (GPa) = 38.26045 107.92015 64.78226
#
# Poissons Ratio (x) = 0.34151 0.10384
# Poissons Ratio (y) = 0.12107 0.34013
# Poissons Ratio (z) = 0.06133 0.56662
#
# Static dielectric constant tensor:
#      x y z
#    x 1.886990 -0.004640 -0.046750 
#    y -0.004640 1.891830 -0.001820 
#    z -0.046750 -0.001820 1.938490 
# 
# From -- ./inp_files/196928.got.cif
#   From: 2010.05.17/outbox.cif.g08.bks.cpg/sg2_99_cif.got.tgz:196928.got - 2010.06.03 11:33:40.
