data_PCOD9089144
_publ_section_title
;
Structure prediction by ZEFSAII (Michael W. Deem and Ramdas Pophale) SiO2 
 PCOD9089144
Probable space group: P -1
;
_chemical_formula_sum "Si O2"
_cell_formula_units_Z 16
_cell_length_a 9.168078
_cell_length_b 17.850568
_cell_length_c 5.185801
_cell_angle_alpha 89.364964
_cell_angle_beta 58.549683
_cell_angle_gamma 88.257875
_cell_volume 723.660581
_symmetry_space_group_name_H-M "P -1"
_symmetry_group_IT_number 2
_symmetry_cell_setting 'triclinic'
loop_
_space_group_symop_operation_xyz
x,y,z
-x,-y,-z
loop_
_atom_site_type_symbol
_atom_site_label
_atom_site_fract_x
_atom_site_fract_y
_atom_site_fract_z
Si Si1 0.698198 0.968959 0.347333
Si Si2 0.845328 0.721081 0.926801
Si Si3 0.831332 0.215793 0.445760
Si Si4 0.368869 0.424319 0.920058
Si Si5 0.005526 0.936393 0.705880
Si Si6 0.285766 0.196153 0.462897
Si Si7 0.400375 0.585551 0.790795
Si Si8 0.657902 0.247263 0.105137
O O1 0.701031 0.894672 0.530238
O O2 0.500000 0.000000 0.500000
O O3 0.824561 0.036864 0.297599
O O4 0.817260 0.936659 0.005055
O O5 0.755094 0.769225 0.779850
O O6 0.043972 0.714907 0.666207
O O7 0.758811 0.641365 0.020168
O O8 0.834382 0.766956 0.204596
O O9 0.943775 0.144804 0.439253
O O10 0.776005 0.204418 0.204304
O O11 0.681455 0.225381 0.787698
O O12 0.301012 0.509837 0.942481
O O13 0.520393 0.417181 0.568430
O O14 0.447973 0.415040 0.133402
O O15 0.000000 0.000000 0.500000
O O16 0.468884 0.228628 0.365733
O O17 0.306485 0.665198 0.905242
#
# Coordination Sequence:
#
# PCOD9089144 Si02
#       8
#     2   2   2   2   2   2   2   2
#     4  11  26  45  68  98 129 176 225 278 338 406
#     4  12  22  43  65  97 127 175 215 265 326 395
#     4  12  27  42  66  93 139 172 214 272 345 390
#     4  10  19  37  65  95 129 170 212 274 322 386
#     4  11  26  47  67  93 138 176 219 283 344 402
#     4  12  24  42  69  94 129 164 231 270 314 397
#     4  10  20  37  63  97 130 165 220 269 324 380
#     4  12  24  43  65 100 130 174 219 278 323 396
#
# _framework density 22.109812999999999
#
# number of rings (size 3 to 8) (size 9 to 14) (size 15 to 20)
#    0.000    0.750    3.750    3.750    5.250    0.500 
#    0.000    1.250    0.000    0.000    0.000    0.000 
#    0.000    0.000    0.000    0.000    0.000    0.000 
#
# Total GULP energy -89256.014058 kJ/mol
# GULP energy per Si atom -5578.500879 kJ/mol
# Density = 2.205949 g / cm^3
# Si number density = 22.109813 Si / 1000 Ang^3
#
#
#
# Elastic Constant Matrix: (Units=GPa)
#
#
# Indices 1 2 3 4 5 6 
#
# 1 51.4530 -4.5335 16.7850 -1.3799 1.2418 -4.3755
# 2 -4.5335 108.2120 15.0412 -14.7140 17.9324 2.4659
# 3 16.7850 15.0412 90.8072 -1.4931 -2.6397 -7.6054
# 4 -1.3799 -14.7140 -1.4931 30.5925 -3.9808 6.1054
# 5 1.2418 17.9324 -2.6397 -3.9808 17.1514 6.4160
# 6 -4.3755 2.4659 -7.6054 6.1054 6.4160 23.8796
#
#
#
# Elastic Compliance Matrix: (Units=1/GPa)
#
#
# Indices 1 2 3 4 5 6 
#
# 1 0.021526 0.002475 -0.004235 0.000373 -0.006171 0.003903
# 2 0.002475 0.012409 -0.002761 0.004130 -0.012880 0.000698
# 3 -0.004235 -0.002761 0.012577 -0.000938 0.003899 0.002707
# 4 0.000373 0.004130 -0.000938 0.038445 0.009290 -0.012982
# 5 -0.006171 -0.012880 0.003899 0.009290 0.083740 -0.023434
# 6 0.003903 0.000698 0.002707 -0.012982 -0.023434 0.052997
#
#
# Mechanical properties :
#
#
# Convention : Reuss Voigt Hill
#
# Bulk Modulus (GPa) = 26.68865 33.89528 30.29197
# Shear Modulus (GPa) = 20.55699 29.20332 24.88015
#
# Velocity S-wave (km/s) = 3.05252 3.63827 3.35819
# Velocity P-wave (km/s) = 4.95187 5.74569 5.36349
#
# Compressibility (1/GPa) = 0.03746910
#
# Stress axis : x y z
#
# Youngs Moduli (GPa) = 46.45608 80.58887 79.50938
#
# Poissons Ratio (x) = -0.19945 0.33674
# Poissons Ratio (y) = -0.11498 0.21952
# Poissons Ratio (z) = 0.19675 0.22250
#
# Static dielectric constant tensor:
#      x y z
#    x 1.777460 0.122860 -0.026390 
#    y 0.122860 1.760230 0.044900 
#    z -0.026390 0.044900 1.765010 
# 
# From -- ./inp_files/47267.got.cif
#   From: 2010.05.17/outbox.cif.g08.bks.cpg/sg2_24_cif.got.tgz:47267.got - 2010.06.03 11:33:40.
