data_PCOD9089842
_publ_section_title
;
Structure prediction by ZEFSAII (Michael W. Deem and Ramdas Pophale) SiO2 
 PCOD9089842
Probable space group: P -1
;
_chemical_formula_sum "Si O2"
_cell_formula_units_Z 16
_cell_length_a 8.387999
_cell_length_b 13.864819
_cell_length_c 8.387771
_cell_angle_alpha 62.362175
_cell_angle_beta 129.454064
_cell_angle_gamma 104.781667
_cell_volume 666.139168
_symmetry_space_group_name_H-M "P -1"
_symmetry_group_IT_number 2
_symmetry_cell_setting 'triclinic'
loop_
_space_group_symop_operation_xyz
x,y,z
-x,-y,-z
loop_
_atom_site_type_symbol
_atom_site_label
_atom_site_fract_x
_atom_site_fract_y
_atom_site_fract_z
Si Si1 0.747507 0.099368 0.400070
Si Si2 0.487563 0.097649 0.689228
Si Si3 0.046621 0.653655 0.816746
Si Si4 0.271423 0.435162 0.071411
Si Si5 0.849347 0.838886 0.315370
Si Si6 0.635824 0.281025 0.427505
Si Si7 0.093411 0.251237 0.896361
Si Si8 0.870572 0.149510 0.086956
O O1 0.960349 0.082466 0.648979
O O2 0.653369 0.213577 0.324277
O O3 0.587023 0.006389 0.371023
O O4 0.841922 0.099877 0.281168
O O5 0.494611 0.203999 0.502832
O O6 0.711376 0.093366 0.915038
O O7 0.332452 0.115707 0.724150
O O8 0.202023 0.561267 0.912909
O O9 0.949033 0.735439 0.558584
O O10 0.163230 0.722399 0.973897
O O11 0.854474 0.600337 0.823338
O O12 0.183528 0.360362 0.934356
O O13 0.513057 0.397893 0.260047
O O14 0.778509 0.801358 0.127815
O O15 0.861946 0.277681 0.655795
O O16 0.071110 0.166256 0.093212
#
# Coordination Sequence:
#
# PCOD9089842 Si02
#       8
#     2   2   2   2   2   2   2   2
#     4  10  21  37  58  81 117 151 189 236 284 338
#     4  11  20  36  59  85 112 153 191 232 288 337
#     4   9  19  38  59  83 115 149 185 239 284 339
#     4  10  19  38  62  84 115 153 188 230 295 335
#     4  10  20  37  56  83 117 149 188 236 283 336
#     4  10  21  38  60  87 116 149 191 236 284 339
#     4   9  21  38  56  82 121 148 188 240 274 336
#     4   9  20  38  55  81 116 147 187 243 275 332
#
# _framework density 24.019003999999999
#
# number of rings (size 3 to 8) (size 9 to 14) (size 15 to 20)
#    0.000    2.250    1.250    1.125    1.750    0.500 
#    2.250    8.750    0.000    0.000    0.000    0.000 
#    0.000    0.000    0.000    0.000    0.000    0.000 
#
# Total GULP energy -89329.202226 kJ/mol
# GULP energy per Si atom -5583.075139 kJ/mol
# Density = 2.396434 g / cm^3
# Si number density = 24.019004 Si / 1000 Ang^3
#
#
#
# Elastic Constant Matrix: (Units=GPa)
#
#
# Indices 1 2 3 4 5 6 
#
# 1 69.1777 19.8443 12.4689 3.5081 -6.2770 -19.2481
# 2 19.8443 62.5344 13.8765 -3.7229 -11.2715 -7.7388
# 3 12.4689 13.8765 65.8401 2.4550 6.6078 -5.1984
# 4 3.5081 -3.7229 2.4550 35.7884 -10.3821 4.4465
# 5 -6.2770 -11.2715 6.6078 -10.3821 39.7161 9.5537
# 6 -19.2481 -7.7388 -5.1984 4.4465 9.5537 41.3601
#
#
#
# Elastic Compliance Matrix: (Units=1/GPa)
#
#
# Indices 1 2 3 4 5 6 
#
# 1 0.018491 -0.004919 -0.001583 -0.003540 -0.001088 0.008118
# 2 -0.004919 0.019956 -0.004298 0.005123 0.007259 -0.001323
# 3 -0.001583 -0.004298 0.017292 -0.003457 -0.005815 0.002347
# 4 -0.003540 0.005123 -0.003457 0.033480 0.012026 -0.007500
# 5 -0.001088 0.007259 -0.005815 0.012026 0.033311 -0.008866
# 6 0.008118 -0.001323 0.002347 -0.007500 -0.008866 0.030858
#
#
# Mechanical properties :
#
#
# Convention : Reuss Voigt Hill
#
# Bulk Modulus (GPa) = 29.29251 32.21460 30.75355
# Shear Modulus (GPa) = 26.82882 33.46377 30.14629
#
# Velocity S-wave (km/s) = 3.34576 3.73664 3.54658
# Velocity P-wave (km/s) = 5.21032 5.66196 5.44083
#
# Compressibility (1/GPa) = 0.03413842
#
# Stress axis : x y z
#
# Youngs Moduli (GPa) = 54.07894 50.11142 57.83070
#
# Poissons Ratio (x) = 0.24650 0.09155
# Poissons Ratio (y) = 0.26601 0.24857
# Poissons Ratio (z) = 0.08561 0.21539
#
# Static dielectric constant tensor:
#      x y z
#    x 1.954900 0.015520 -0.002720 
#    y 0.015520 1.932290 -0.045570 
#    z -0.002720 -0.045570 1.972970 
# 
# From -- ./inp_files/177386.got.cif
#   From: 2010.05.17/outbox.cif.g08.bks.cpg/sg2_89_cif.got.tgz:177386.got - 2010.06.03 11:33:40.
