data_PCOD9089801
_publ_section_title
;
Structure prediction by ZEFSAII (Michael W. Deem and Ramdas Pophale) SiO2 
 PCOD9089801
Probable space group: P -1
;
_chemical_formula_sum "Si O2"
_cell_formula_units_Z 15
_cell_length_a 11.338947
_cell_length_b 24.930554
_cell_length_c 7.392305
_cell_angle_alpha 46.212112
_cell_angle_beta 57.451693
_cell_angle_gamma 23.459557
_cell_volume 565.486457
_symmetry_space_group_name_H-M "P -1"
_symmetry_group_IT_number 2
_symmetry_cell_setting 'triclinic'
loop_
_space_group_symop_operation_xyz
x,y,z
-x,-y,-z
loop_
_atom_site_type_symbol
_atom_site_label
_atom_site_fract_x
_atom_site_fract_y
_atom_site_fract_z
Si Si1 0.277712 0.906141 0.288253
Si Si2 0.222774 0.157235 0.125786
Si Si3 0.657754 0.615565 0.885930
Si Si4 0.636666 0.353695 0.227909
Si Si5 0.873263 0.850776 0.168784
Si Si6 0.608595 0.320941 0.690299
Si Si7 0.000000 0.000000 0.000000
Si Si8 0.817816 0.650884 0.181112
O O1 0.507993 0.761459 0.583236
O O2 0.445501 0.814819 0.156078
O O3 0.994428 0.988223 0.270423
O O4 0.208113 0.024507 0.113213
O O5 0.166420 0.268607 0.975713
O O6 0.594602 0.962331 0.275494
O O7 0.139243 0.192776 0.897226
O O8 0.005439 0.197943 0.298844
O O9 0.462530 0.646109 0.862830
O O10 0.018852 0.435715 0.945595
O O11 0.595593 0.623323 0.124142
O O12 0.454279 0.406913 0.426095
O O13 0.500000 0.500000 0.000000
O O14 0.216627 0.690536 0.346754
O O15 0.895902 0.133403 0.823925
O O16 0.000000 0.500000 0.500000
#
# Coordination Sequence:
#
# PCOD9089801 Si02
#       8
#     2   2   2   2   2   2   1   2
#     4   9  19  37  65  91 125 164 202 257 310 365
#     4  10  19  38  61  91 126 160 203 256 311 365
#     4  11  21  40  64  92 124 164 210 257 304 366
#     4  12  24  40  63  89 128 170 203 258 312 364
#     4   9  20  37  63  95 122 161 208 251 311 374
#     4  11  24  39  63  96 123 166 211 252 314 371
#     4  10  20  38  62  92 126 156 206 256 300 372
#     4   9  19  37  64  87 120 167 204 251 313 360
#
# _framework density 26.525835000000001
#
# number of rings (size 3 to 8) (size 9 to 14) (size 15 to 20)
#    0.000    1.867    4.000    0.000    0.000    4.267 
#    0.000    0.667    0.000    1.600    0.000    0.000 
#    0.000    0.000    0.000    0.000    0.000    0.000 
#
# Total GULP energy -83555.700319 kJ/mol
# GULP energy per Si atom -5570.380021 kJ/mol
# Density = 2.646546 g / cm^3
# Si number density = 26.525835 Si / 1000 Ang^3
#
#
#
# Elastic Constant Matrix: (Units=GPa)
#
#
# Indices 1 2 3 4 5 6 
#
# 1 136.7154 13.9148 10.5656 7.5559 -8.4552 -10.9962
# 2 13.9148 142.3088 44.3360 31.0096 -9.7489 -6.4325
# 3 10.5656 44.3360 78.7010 33.4092 -12.5851 6.7274
# 4 7.5559 31.0096 33.4092 40.2936 0.1801 -11.0476
# 5 -8.4552 -9.7489 -12.5851 0.1801 23.1828 -2.1502
# 6 -10.9962 -6.4325 6.7274 -11.0476 -2.1502 38.3243
#
#
#
# Elastic Compliance Matrix: (Units=1/GPa)
#
#
# Indices 1 2 3 4 5 6 
#
# 1 0.007750 -0.000251 -0.000675 -0.000045 0.002580 0.002432
# 2 -0.000251 0.009105 -0.003033 -0.004209 0.002207 0.000899
# 3 -0.000675 -0.003033 0.027525 -0.023608 0.012525 -0.011637
# 4 -0.000045 -0.004209 -0.023608 0.052590 -0.013356 0.017835
# 5 0.002580 0.002207 0.012525 -0.013356 0.051719 -0.002036
# 6 0.002432 0.000899 -0.011637 0.017835 -0.002036 0.034012
#
#
# Mechanical properties :
#
#
# Convention : Reuss Voigt Hill
#
# Bulk Modulus (GPa) = 27.42584 55.03981 41.23282
# Shear Modulus (GPa) = 24.65821 39.62072 32.13946
#
# Velocity S-wave (km/s) = 3.05223 3.86899 3.48462
# Velocity P-wave (km/s) = 4.77318 6.38383 5.63633
#
# Compressibility (1/GPa) = 0.03646197
#
# Stress axis : x y z
#
# Youngs Moduli (GPa) = 129.03475 109.82465 36.33064
#
# Poissons Ratio (x) = 0.02756 0.02453
# Poissons Ratio (y) = 0.03238 0.11019
# Poissons Ratio (z) = 0.08712 0.33311
#
# Static dielectric constant tensor:
#      x y z
#    x 1.926110 -0.227030 0.428570 
#    y -0.227030 2.824260 -0.866490 
#    z 0.428570 -0.866490 3.407150 
# 
# From -- ./inp_files/84218.got.cif
#   From: 2010.05.17/outbox.cif.g08.bks.cpg/sg2_43_cif.got.tgz:84218.got - 2010.06.03 11:33:40.
