data_PCOD9089599
_publ_section_title
;
Structure prediction by ZEFSAII (Michael W. Deem and Ramdas Pophale) SiO2 
 PCOD9089599
Probable space group: P -1
;
_chemical_formula_sum "Si O2"
_cell_formula_units_Z 16
_cell_length_a 16.669421
_cell_length_b 16.525568
_cell_length_c 7.393353
_cell_angle_alpha 70.531116
_cell_angle_beta 45.705533
_cell_angle_gamma 33.023173
_cell_volume 606.006828
_symmetry_space_group_name_H-M "P -1"
_symmetry_group_IT_number 2
_symmetry_cell_setting 'triclinic'
loop_
_space_group_symop_operation_xyz
x,y,z
-x,-y,-z
loop_
_atom_site_type_symbol
_atom_site_label
_atom_site_fract_x
_atom_site_fract_y
_atom_site_fract_z
Si Si1 0.406296 0.200930 0.058832
Si Si2 0.926731 0.010297 0.300935
Si Si3 0.870031 0.193222 0.484031
Si Si4 0.894423 0.836349 0.393554
Si Si5 0.844279 0.399938 0.486993
Si Si6 0.717474 0.788862 0.234443
Si Si7 0.959529 0.421050 0.791095
Si Si8 0.446893 0.824482 0.765859
O O1 0.154343 0.318708 0.405313
O O2 0.522257 0.148869 0.108109
O O3 0.306934 0.356687 0.006963
O O4 0.607657 0.009296 0.771056
O O5 0.098823 0.865011 0.316741
O O6 0.862962 0.959009 0.369733
O O7 0.746309 0.205225 0.541421
O O8 0.000000 0.000000 0.000000
O O9 0.783813 0.351295 0.517494
O O10 0.150041 0.009012 0.088092
O O11 0.099160 0.667308 0.347766
O O12 0.995126 0.711752 0.160114
O O13 0.617470 0.622500 0.651949
O O14 0.103350 0.274296 0.122490
O O15 0.924941 0.616239 0.185384
O O16 0.554682 0.813528 0.449780
O O17 0.500000 0.000000 0.500000
#
# Coordination Sequence:
#
# PCOD9089599 Si02
#       8
#     2   2   2   2   2   2   2   2
#     4  10  19  38  59  91 125 160 203 249 308 381
#     4  10  23  42  69  93 120 164 223 276 324 384
#     4  10  22  45  66  91 127 168 213 273 330 371
#     4  11  21  40  66  86 119 168 206 259 324 371
#     4  11  21  38  63  91 126 169 207 250 317 383
#     4  11  22  39  59  94 135 168 205 253 304 384
#     4  10  22  36  59  90 126 160 202 249 304 380
#     4  11  20  39  64  90 131 170 206 254 318 383
#
# _framework density 26.402342000000001
#
# number of rings (size 3 to 8) (size 9 to 14) (size 15 to 20)
#    0.000    1.500    5.000    1.500    1.750    0.000 
#    4.500    6.875    0.000    7.500    0.000    0.000 
#    0.000    0.000    0.000    0.000    0.000    0.000 
#
# Total GULP energy -89317.338625 kJ/mol
# GULP energy per Si atom -5582.333664 kJ/mol
# Density = 2.634225 g / cm^3
# Si number density = 26.402342 Si / 1000 Ang^3
#
#
#
# Elastic Constant Matrix: (Units=GPa)
#
#
# Indices 1 2 3 4 5 6 
#
# 1 102.6259 37.8038 24.8368 -14.4168 14.5281 17.9914
# 2 37.8038 150.4113 46.2095 5.9694 3.8503 34.7187
# 3 24.8368 46.2095 63.7686 -3.7420 6.1456 15.6989
# 4 -14.4168 5.9694 -3.7420 46.3278 3.8555 1.4621
# 5 14.5281 3.8503 6.1456 3.8555 36.4054 -7.9533
# 6 17.9914 34.7187 15.6989 1.4621 -7.9533 40.1542
#
#
#
# Elastic Compliance Matrix: (Units=1/GPa)
#
#
# Indices 1 2 3 4 5 6 
#
# 1 0.013321 -0.001583 -0.001800 0.004918 -0.006538 -0.005370
# 2 -0.001583 0.010176 -0.005316 -0.001987 -0.000663 -0.006070
# 3 -0.001800 -0.005316 0.021643 0.002281 -0.003450 -0.003825
# 4 0.004918 -0.001987 0.002281 0.024112 -0.005418 -0.003328
# 5 -0.006538 -0.000663 -0.003450 -0.005418 0.033873 0.011758
# 6 -0.005370 -0.006070 -0.003825 -0.003328 0.011758 0.036504
#
#
# Mechanical properties :
#
#
# Convention : Reuss Voigt Hill
#
# Bulk Modulus (GPa) = 36.04724 59.38954 47.71839
# Shear Modulus (GPa) = 30.07067 38.44120 34.25593
#
# Velocity S-wave (km/s) = 3.37848 3.81987 3.60593
# Velocity P-wave (km/s) = 5.37601 6.48059 5.95397
#
# Compressibility (1/GPa) = 0.02774138
#
# Stress axis : x y z
#
# Youngs Moduli (GPa) = 75.07046 98.26565 46.20404
#
# Poissons Ratio (x) = 0.15557 0.08318
# Poissons Ratio (y) = 0.11885 0.24562
# Poissons Ratio (z) = 0.13515 0.52238
#
# Static dielectric constant tensor:
#      x y z
#    x 2.213480 0.067120 -0.017650 
#    y 0.067120 2.072800 -0.083650 
#    z -0.017650 -0.083650 2.187550 
# 
# From -- ./inp_files/348399.got.cif
#   From: 2010.05.17/outbox.cif.g08.bks.cpg/sg2_175_cif.got.tgz:348399.got - 2010.06.03 11:33:40.
