data_PCOD9089706
_publ_section_title
;
Structure prediction by ZEFSAII (Michael W. Deem and Ramdas Pophale) SiO2 
 PCOD9089706
Probable space group: P -1
;
_chemical_formula_sum "Si O2"
_cell_formula_units_Z 16
_cell_length_a 14.439778
_cell_length_b 11.952960
_cell_length_c 8.466550
_cell_angle_alpha 144.037046
_cell_angle_beta 107.070868
_cell_angle_gamma 87.111399
_cell_volume 773.405357
_symmetry_space_group_name_H-M "P -1"
_symmetry_group_IT_number 2
_symmetry_cell_setting 'triclinic'
loop_
_space_group_symop_operation_xyz
x,y,z
-x,-y,-z
loop_
_atom_site_type_symbol
_atom_site_label
_atom_site_fract_x
_atom_site_fract_y
_atom_site_fract_z
Si Si1 0.871647 0.599335 0.106147
Si Si2 0.088617 0.040459 0.219994
Si Si3 0.499533 0.755748 0.619812
Si Si4 0.539138 0.428902 0.096721
Si Si5 0.715604 0.776743 0.676323
Si Si6 0.923206 0.220392 0.782113
Si Si7 0.562352 0.924446 0.181186
Si Si8 0.232742 0.176564 0.884225
O O1 0.904589 0.760361 0.448429
O O2 0.777120 0.641696 0.020231
O O3 0.963768 0.666005 0.099813
O O4 0.861747 0.377641 0.908152
O O5 0.196480 0.090691 0.240860
O O6 0.072727 0.859646 0.130423
O O7 0.000000 0.000000 0.000000
O O8 0.484642 0.523367 0.314425
O O9 0.618809 0.856567 0.738466
O O10 0.430839 0.846465 0.581818
O O11 0.497777 0.813069 0.866274
O O12 0.659161 0.552168 0.321509
O O13 0.500000 0.500000 0.000000
O O14 0.500889 0.192577 0.835250
O O15 0.756615 0.768292 0.863332
O O16 0.867771 0.018013 0.422071
O O17 0.671764 0.893235 0.196697
#
# Coordination Sequence:
#
# PCOD9089706 Si02
#       8
#     2   2   2   2   2   2   2   2
#     4  10  22  40  61  88 115 149 198 237 289 347
#     4  11  21  39  65  88 123 153 183 238 294 348
#     4   8  20  38  56  82 112 149 202 237 278 341
#     4  10  22  36  55  81 119 156 190 241 288 347
#     4   9  21  40  54  87 119 154 194 234 299 345
#     4  10  22  40  61  87 115 152 192 242 288 344
#     4  10  19  38  61  80 111 155 201 238 284 330
#     4  10  20  37  62  85 113 152 200 244 282 339
#
# _framework density 20.687728
#
# number of rings (size 3 to 8) (size 9 to 14) (size 15 to 20)
#    0.750    1.500    0.000    3.375    3.500    2.000 
#    6.750    0.000    0.000    0.000    0.000    0.000 
#    0.000    0.000    0.000    0.000    0.000    0.000 
#
# Total GULP energy -89225.281945 kJ/mol
# GULP energy per Si atom -5576.580122 kJ/mol
# Density = 2.064064 g / cm^3
# Si number density = 20.687728 Si / 1000 Ang^3
#
#
#
# Elastic Constant Matrix: (Units=GPa)
#
#
# Indices 1 2 3 4 5 6 
#
# 1 63.7612 42.1363 4.3390 3.1892 5.2638 -8.1541
# 2 42.1363 148.2525 42.4577 3.4773 2.2815 -16.0921
# 3 4.3390 42.4577 48.1319 -3.3351 0.8882 -3.3920
# 4 3.1892 3.4773 -3.3351 33.4884 -4.3738 -4.6684
# 5 5.2638 2.2815 0.8882 -4.3738 27.9584 6.5911
# 6 -8.1541 -16.0921 -3.3920 -4.6684 6.5911 38.7616
#
#
#
# Elastic Compliance Matrix: (Units=1/GPa)
#
#
# Indices 1 2 3 4 5 6 
#
# 1 0.020534 -0.006686 0.004229 -0.001041 -0.004208 0.002504
# 2 -0.006686 0.011704 -0.009627 -0.001212 -0.000168 0.002493
# 3 0.004229 -0.009627 0.029126 0.003437 -0.000379 -0.000080
# 4 -0.001041 -0.001212 0.003437 0.031375 0.004482 0.002596
# 5 -0.004208 -0.000168 -0.000379 0.004482 0.038954 -0.007072
# 6 0.002504 0.002493 -0.000080 0.002596 -0.007072 0.028869
#
#
# Mechanical properties :
#
#
# Convention : Reuss Voigt Hill
#
# Bulk Modulus (GPa) = 26.88435 48.66794 37.77614
# Shear Modulus (GPa) = 25.36401 31.45584 28.40992
#
# Velocity S-wave (km/s) = 3.50529 3.90360 3.70979
# Velocity P-wave (km/s) = 5.42275 6.62522 6.05391
#
# Compressibility (1/GPa) = 0.03719636
#
# Stress axis : x y z
#
# Youngs Moduli (GPa) = 48.69961 85.43926 34.33301
#
# Poissons Ratio (x) = 0.57128 -0.14520
# Poissons Ratio (y) = 0.32562 0.33052
# Poissons Ratio (z) = -0.20595 0.82251
#
# Static dielectric constant tensor:
#      x y z
#    x 1.771220 -0.002560 -0.005630 
#    y -0.002560 1.732670 -0.004370 
#    z -0.005630 -0.004370 1.753070 
# 
# From -- ./inp_files/308836.got.cif
#   From: 2010.05.17/outbox.cif.g08.bks.cpg/sg2_155_cif.got.tgz:308836.got - 2010.06.03 11:33:40.
