data_PCOD9089050
_publ_section_title
;
Structure prediction by ZEFSAII (Michael W. Deem and Ramdas Pophale) SiO2 
 PCOD9089050
Probable space group: P -1
;
_chemical_formula_sum "Si O2"
_cell_formula_units_Z 16
_cell_length_a 21.657460
_cell_length_b 10.647088
_cell_length_c 9.101341
_cell_angle_alpha 75.987083
_cell_angle_beta 52.638057
_cell_angle_gamma 120.874655
_cell_volume 836.729047
_symmetry_space_group_name_H-M "P -1"
_symmetry_group_IT_number 2
_symmetry_cell_setting 'triclinic'
loop_
_space_group_symop_operation_xyz
x,y,z
-x,-y,-z
loop_
_atom_site_type_symbol
_atom_site_label
_atom_site_fract_x
_atom_site_fract_y
_atom_site_fract_z
Si Si1 0.463876 0.585602 0.952300
Si Si2 0.455739 0.789034 0.145021
Si Si3 0.222283 0.231336 0.948186
Si Si4 0.070492 0.740499 0.851353
Si Si5 0.565799 0.788224 0.247225
Si Si6 0.893658 0.754677 0.124848
Si Si7 0.238886 0.128156 0.243407
Si Si8 0.724689 0.953298 0.248062
O O1 0.567580 0.740372 0.617870
O O2 0.500000 0.500000 0.000000
O O3 0.498381 0.753734 0.960618
O O4 0.295419 0.324187 0.212301
O O5 0.540691 0.867195 0.147875
O O6 0.278082 0.506101 0.498557
O O7 0.500000 0.000000 0.000000
O O8 0.398618 0.523211 0.627933
O O9 0.127112 0.208573 0.015830
O O10 0.234466 0.132146 0.841121
O O11 0.158769 0.081770 0.233628
O O12 0.161301 0.854495 0.840315
O O13 0.163207 0.916605 0.521684
O O14 0.000000 0.500000 0.000000
O O15 0.960812 0.706741 0.037559
O O16 0.691647 0.984026 0.136238
O O17 0.625598 0.754836 0.069231
O O18 0.000000 0.000000 0.000000
#
# Coordination Sequence:
#
# PCOD9089050 Si02
#       8
#     2   2   2   2   2   2   2   2
#     4  12  18  34  66  97 111 150 213 258 307 357
#     4  11  25  40  62  93 128 168 204 263 324 369
#     4  10  19  38  64 101 120 155 208 270 317 352
#     4  12  27  40  59  90 128 175 208 246 312 382
#     4  10  19  37  64  98 123 150 208 266 320 358
#     4  11  23  43  62  87 130 167 211 256 311 381
#     4  11  20  36  66  93 123 154 215 263 299 371
#     4  11  19  36  65  91 123 153 204 261 303 369
#
# _framework density 19.122081999999999
#
# number of rings (size 3 to 8) (size 9 to 14) (size 15 to 20)
#    0.000    1.000    6.250    2.250    3.500    0.500 
#    0.000    5.625    0.000    0.000    0.000    0.000 
#    0.000    0.000    0.000    0.000    0.000    0.000 
#
# Total GULP energy -89133.686301 kJ/mol
# GULP energy per Si atom -5570.855394 kJ/mol
# Density = 1.907856 g / cm^3
# Si number density = 19.122082 Si / 1000 Ang^3
#
#
#
# Elastic Constant Matrix: (Units=GPa)
#
#
# Indices 1 2 3 4 5 6 
#
# 1 169.8004 84.3203 31.9211 -11.2287 11.9740 13.5087
# 2 84.3203 126.1783 29.5380 -9.7043 21.4654 4.3257
# 3 31.9211 29.5380 13.1756 9.2222 5.6370 6.4651
# 4 -11.2287 -9.7043 9.2222 22.6400 1.6648 1.8552
# 5 11.9740 21.4654 5.6370 1.6648 24.7202 0.0213
# 6 13.5087 4.3257 6.4651 1.8552 0.0213 36.4568
#
#
#
# Elastic Compliance Matrix: (Units=1/GPa)
#
#
# Indices 1 2 3 4 5 6 
#
# 1 0.001576 -0.018385 0.062352 -0.032088 0.003151 -0.007829
# 2 -0.018385 -0.006502 0.101782 -0.052350 -0.005125 -0.007799
# 3 0.062352 0.101782 -0.511271 0.280979 -0.020956 0.041201
# 4 -0.032088 -0.052350 0.280979 -0.106788 0.004142 -0.026295
# 5 0.003151 -0.005125 -0.020956 0.004142 0.047875 0.002918
# 6 -0.007829 -0.007799 0.041201 -0.026295 0.002918 0.025286
#
#
# Mechanical properties :
#
#
# Convention : Reuss Voigt Hill
#
# Bulk Modulus (GPa) = -4.45040 66.74591 31.14776
# Shear Modulus (GPa) = -5.45718 27.65505 11.09893
#
# Velocity S-wave (km/s) = -1.69117 3.80707 2.41181
# Velocity P-wave (km/s) = 2.47908 7.36926 4.90714
#
# Compressibility (1/GPa) = -0.22469915
#
# Stress axis : x y z
#
# Youngs Moduli (GPa) = 634.47219 -153.78808 -1.95591
#
# Poissons Ratio (x) = -2.82742 0.12196
# Poissons Ratio (y) = 11.66488 0.19908
# Poissons Ratio (z) = -39.56072 15.65290
#
# Static dielectric constant tensor:
#      x y z
#    x 2.745760 0.350490 0.304850 
#    y 0.350490 1.791200 0.107850 
#    z 0.304850 0.107850 1.816450 
# 
# From -- ./inp_files/207815.got.cif
#   From: 2010.05.17/outbox.cif.g08.bks.cpg/sg2_104_cif.got.tgz:207815.got - 2010.06.03 11:33:40.
