data_PCOD9089037
_publ_section_title
;
Structure prediction by ZEFSAII (Michael W. Deem and Ramdas Pophale) SiO2 
 PCOD9089037
Probable space group: P -1
;
_chemical_formula_sum "Si O2"
_cell_formula_units_Z 14
_cell_length_a 20.689267
_cell_length_b 9.426260
_cell_length_c 8.992755
_cell_angle_alpha 50.923744
_cell_angle_beta 150.196466
_cell_angle_gamma 124.129731
_cell_volume 676.241604
_symmetry_space_group_name_H-M "P -1"
_symmetry_group_IT_number 2
_symmetry_cell_setting 'triclinic'
loop_
_space_group_symop_operation_xyz
x,y,z
-x,-y,-z
loop_
_atom_site_type_symbol
_atom_site_label
_atom_site_fract_x
_atom_site_fract_y
_atom_site_fract_z
Si Si1 0.796928 0.482600 0.415080
Si Si2 0.374209 0.604709 0.623746
Si Si3 0.879947 0.068911 0.807714
Si Si4 0.887405 0.883827 0.269118
Si Si5 0.498266 0.507135 0.315231
Si Si6 0.385379 0.012092 0.379167
Si Si7 0.612619 0.878537 0.361346
O O1 0.754966 0.491582 0.500656
O O2 0.863721 0.288898 0.644117
O O3 0.883357 0.662588 0.421153
O O4 0.652766 0.487092 0.044339
O O5 0.412135 0.627738 0.511007
O O6 0.367483 0.807510 0.542545
O O7 0.500000 0.500000 0.000000
O O8 0.748742 0.980562 0.533566
O O9 0.890238 0.966894 0.054219
O O10 0.000000 0.000000 0.000000
O O11 0.000000 0.000000 0.500000
O O12 0.742775 0.932775 0.000976
O O13 0.500000 0.500000 0.500000
O O14 0.584490 0.693545 0.338733
O O15 0.500000 0.000000 0.500000
O O16 0.399635 0.138147 0.471113
O O17 0.500000 0.000000 0.000000
#
# Coordination Sequence:
#
# PCOD9089037 Si02
#       7
#     2   2   2   2   2   2   2
#     4  11  22  46  69  91 140 181 223 285 338 406
#     4  10  19  37  64  95 133 179 214 268 344 393
#     4  11  25  47  67  97 141 181 223 283 345 403
#     4  11  26  46  67  97 132 178 238 280 333 411
#     4  11  21  36  65 108 134 168 223 278 339 404
#     4  11  21  40  65  98 137 169 217 281 329 396
#     4  11  20  39  64  96 132 166 220 273 326 404
#
# _framework density 20.702660000000002
#
# number of rings (size 3 to 8) (size 9 to 14) (size 15 to 20)
#    0.000    1.143    4.286    5.143    0.000    3.429 
#    5.143    0.000    0.000    0.000    0.000    0.000 
#    0.000    0.000    0.000    0.000    0.000    0.000 
#
# Total GULP energy -77977.176795 kJ/mol
# GULP energy per Si atom -5569.798342 kJ/mol
# Density = 2.065554 g / cm^3
# Si number density = 20.702660 Si / 1000 Ang^3
#
#
#
# Elastic Constant Matrix: (Units=GPa)
#
#
# Indices 1 2 3 4 5 6 
#
# 1 109.6116 34.0758 47.6118 -2.2741 20.4642 -1.8601
# 2 34.0758 176.0647 45.2898 -2.3763 13.2035 9.9430
# 3 47.6118 45.2898 90.0364 13.3796 18.2154 5.0594
# 4 -2.2741 -2.3763 13.3796 38.2614 -0.4848 -0.5596
# 5 20.4642 13.2035 18.2154 -0.4848 32.2830 -5.0726
# 6 -1.8601 9.9430 5.0594 -0.5596 -5.0726 30.3364
#
#
#
# Elastic Compliance Matrix: (Units=1/GPa)
#
#
# Indices 1 2 3 4 5 6 
#
# 1 0.012842 -0.000637 -0.006126 0.002833 -0.004165 0.001374
# 2 -0.000637 0.006765 -0.002970 0.001381 -0.000965 -0.001897
# 3 -0.006126 -0.002970 0.018281 -0.007068 -0.005883 -0.003565
# 4 0.002833 0.001381 -0.007068 0.028918 0.002348 0.001826
# 5 -0.004165 -0.000965 -0.005883 0.002348 0.038549 0.007531
# 6 0.001374 -0.001897 -0.003565 0.001826 0.007531 0.035557
#
#
# Mechanical properties :
#
#
# Convention : Reuss Voigt Hill
#
# Bulk Modulus (GPa) = 54.28063 69.96306 62.12184
# Shear Modulus (GPa) = 30.02687 36.75853 33.39270
#
# Velocity S-wave (km/s) = 3.81253 4.21829 4.02053
# Velocity P-wave (km/s) = 6.75696 7.58900 7.18504
#
# Compressibility (1/GPa) = 0.01842278
#
# Stress axis : x y z
#
# Youngs Moduli (GPa) = 77.87126 147.82072 54.70212
#
# Poissons Ratio (x) = 0.09409 0.33512
# Poissons Ratio (y) = 0.04957 0.16245
# Poissons Ratio (z) = 0.47705 0.43898
#
# Static dielectric constant tensor:
#      x y z
#    x 1.805320 0.125240 -0.042160 
#    y 0.125240 1.581700 -0.060400 
#    z -0.042160 -0.060400 1.742890 
# 
# From -- ./inp_files/343465.got.cif
#   From: 2010.05.17/outbox.cif.g08.bks.cpg/sg2_172_cif.got.tgz:343465.got - 2010.06.03 11:33:40.
