data_PCOD9089683
_publ_section_title
;
Structure prediction by ZEFSAII (Michael W. Deem and Ramdas Pophale) SiO2 
 PCOD9089683
Probable space group: P -1
;
_chemical_formula_sum "Si O2"
_cell_formula_units_Z 16
_cell_length_a 9.652475
_cell_length_b 11.764356
_cell_length_c 11.845127
_cell_angle_alpha 74.734591
_cell_angle_beta 115.578035
_cell_angle_gamma 59.404865
_cell_volume 817.644005
_symmetry_space_group_name_H-M "P -1"
_symmetry_group_IT_number 2
_symmetry_cell_setting 'triclinic'
loop_
_space_group_symop_operation_xyz
x,y,z
-x,-y,-z
loop_
_atom_site_type_symbol
_atom_site_label
_atom_site_fract_x
_atom_site_fract_y
_atom_site_fract_z
Si Si1 0.661334 0.633850 0.791274
Si Si2 0.224755 0.952327 0.595101
Si Si3 0.175208 0.983380 0.314627
Si Si4 0.995088 0.829874 0.346389
Si Si5 0.107964 0.263960 0.105501
Si Si6 0.291363 0.073545 0.979620
Si Si7 0.508286 0.483206 0.373792
Si Si8 0.266266 0.850205 0.148076
O O1 0.440328 0.761432 0.755413
O O2 0.737710 0.726767 0.778427
O O3 0.590847 0.588241 0.676296
O O4 0.871389 0.454143 0.963641
O O5 0.266285 0.962131 0.476495
O O6 0.179289 0.078032 0.637317
O O7 0.000000 0.000000 0.500000
O O8 0.021124 0.953510 0.287226
O O9 0.323058 0.858004 0.294659
O O10 0.078863 0.156463 0.186483
O O11 0.230767 0.660522 0.521034
O O12 0.913089 0.811309 0.210018
O O13 0.216115 0.179790 0.041331
O O14 0.500000 0.000000 0.000000
O O15 0.343540 0.910448 0.077041
O O16 0.500000 0.500000 0.500000
O O17 0.371350 0.663744 0.220396
O O18 0.000000 0.000000 0.000000
#
# Coordination Sequence:
#
# PCOD9089683 Si02
#       8
#     2   2   2   2   2   2   2   2
#     4  11  21  39  59  90 124 164 204 258 315 367
#     4  10  20  38  56  85 124 155 208 250 320 365
#     4  10  19  38  60  90 118 160 214 256 296 383
#     4  11  21  38  62  91 123 165 208 257 319 366
#     4  10  24  38  62  91 126 163 212 254 318 380
#     4  11  23  42  65  92 131 166 205 265 321 374
#     4  12  20  36  63  93 122 160 216 265 300 371
#     4  11  20  37  65  97 117 164 215 252 308 379
#
# _framework density 19.568418999999999
#
# number of rings (size 3 to 8) (size 9 to 14) (size 15 to 20)
#    0.000    1.250    5.000    3.000    0.000    0.500 
#    0.000    8.125    0.000    0.000    0.000    0.000 
#    0.000    0.000    0.000    0.000    0.000    0.000 
#
# Total GULP energy -89102.874253 kJ/mol
# GULP energy per Si atom -5568.929641 kJ/mol
# Density = 1.952388 g / cm^3
# Si number density = 19.568419 Si / 1000 Ang^3
#
#
#
# Elastic Constant Matrix: (Units=GPa)
#
#
# Indices 1 2 3 4 5 6 
#
# 1 82.8978 29.7717 44.6550 -17.6906 -0.5655 -2.8730
# 2 29.7717 105.3793 51.4799 -10.3164 2.0007 -1.9819
# 3 44.6550 51.4799 97.9652 -6.7053 8.5317 -3.4470
# 4 -17.6906 -10.3164 -6.7053 42.9856 -1.9007 -0.5447
# 5 -0.5655 2.0007 8.5317 -1.9007 31.0732 -0.1379
# 6 -2.8730 -1.9819 -3.4470 -0.5447 -0.1379 30.3974
#
#
#
# Elastic Compliance Matrix: (Units=1/GPa)
#
#
# Indices 1 2 3 4 5 6 
#
# 1 0.017708 -0.000809 -0.007443 0.006067 0.002793 0.000898
# 2 -0.000809 0.013024 -0.006436 0.001835 0.001026 0.000080
# 3 -0.007443 -0.006436 0.017265 -0.002108 -0.004587 0.000776
# 4 0.006067 0.001835 -0.002108 0.025980 0.002164 0.000929
# 5 0.002793 0.001026 -0.004587 0.002164 0.033559 0.000002
# 6 0.000898 0.000080 0.000776 0.000929 0.000002 0.033092
#
#
# Mechanical properties :
#
#
# Convention : Reuss Voigt Hill
#
# Bulk Modulus (GPa) = 53.70359 59.78395 56.74377
# Shear Modulus (GPa) = 28.37509 31.58028 29.97769
#
# Velocity S-wave (km/s) = 3.81208 4.02162 3.91825
# Velocity P-wave (km/s) = 6.84686 7.22372 7.03781
#
# Compressibility (1/GPa) = 0.01862073
#
# Stress axis : x y z
#
# Youngs Moduli (GPa) = 56.47203 76.78149 57.92032
#
# Poissons Ratio (x) = 0.06211 0.43110
# Poissons Ratio (y) = 0.04568 0.37279
# Poissons Ratio (z) = 0.42032 0.49418
#
# Static dielectric constant tensor:
#      x y z
#    x 1.716630 -0.004230 0.022780 
#    y -0.004230 1.768060 -0.002920 
#    z 0.022780 -0.002920 1.773740 
# 
# From -- ./inp_files/263423.got.cif
#   From: 2010.05.17/outbox.cif.g08.bks.cpg/sg2_132_cif.got.tgz:263423.got - 2010.06.03 11:33:40.
