data_PCOD9089154
_publ_section_title
;
Structure prediction by ZEFSAII (Michael W. Deem and Ramdas Pophale) SiO2 
 PCOD9089154
Probable space group: P -1
;
_chemical_formula_sum "Si O2"
_cell_formula_units_Z 16
_cell_length_a 22.000087
_cell_length_b 13.295322
_cell_length_c 9.646433
_cell_angle_alpha 144.642231
_cell_angle_beta 135.242490
_cell_angle_gamma 27.674498
_cell_volume 757.566098
_symmetry_space_group_name_H-M "P -1"
_symmetry_group_IT_number 2
_symmetry_cell_setting 'triclinic'
loop_
_space_group_symop_operation_xyz
x,y,z
-x,-y,-z
loop_
_atom_site_type_symbol
_atom_site_label
_atom_site_fract_x
_atom_site_fract_y
_atom_site_fract_z
Si Si1 0.560744 0.879748 0.815296
Si Si2 0.086953 0.793511 0.172647
Si Si3 0.310479 0.389310 0.866602
Si Si4 0.807525 0.977052 0.344753
Si Si5 0.405850 0.629457 0.358739
Si Si6 0.160720 0.437461 0.141654
Si Si7 0.365748 0.594583 0.680144
Si Si8 0.806126 0.342174 0.311914
O O1 0.680831 0.824247 0.916946
O O2 0.630896 0.588810 0.607163
O O3 0.436542 0.073264 0.729541
O O4 0.500000 0.000000 0.000000
O O5 0.125952 0.935807 0.425027
O O6 0.096272 0.666115 0.183632
O O7 0.189550 0.551232 0.959224
O O8 0.937897 0.033913 0.149420
O O9 0.255459 0.486655 0.733393
O O10 0.369606 0.486061 0.113884
O O11 0.722428 0.079227 0.463043
O O12 0.722053 0.139414 0.249342
O O13 0.888133 0.682338 0.109248
O O14 0.500000 0.500000 0.500000
O O15 0.484062 0.572891 0.285418
O O16 0.157593 0.551349 0.407640
O O17 0.298192 0.629718 0.750384
#
# Coordination Sequence:
#
# PCOD9089154 Si02
#       8
#     2   2   2   2   2   2   2   2
#     4  11  17  34  62  93 116 154 211 254 313 363
#     4  11  22  44  65  89 126 172 221 251 295 381
#     4  11  23  39  67  90 127 171 201 265 321 371
#     4  10  19  37  65  97 118 160 218 258 306 357
#     4   9  18  35  60  92 118 156 209 255 305 368
#     4  11  22  37  69  94 122 167 210 267 307 366
#     4  10  20  35  59  90 131 156 196 268 308 368
#     4  11  25  41  58  93 133 172 204 250 328 371
#
# _framework density 21.120270000000001
#
# number of rings (size 3 to 8) (size 9 to 14) (size 15 to 20)
#    0.000    1.500    3.750    4.500    0.000    3.000 
#    0.000    1.250    0.000    2.250    0.000    0.000 
#    0.000    0.000    0.000    0.000    0.000    0.000 
#
# Total GULP energy -89168.356420 kJ/mol
# GULP energy per Si atom -5573.022276 kJ/mol
# Density = 2.107220 g / cm^3
# Si number density = 21.120270 Si / 1000 Ang^3
#
#
#
# Elastic Constant Matrix: (Units=GPa)
#
#
# Indices 1 2 3 4 5 6 
#
# 1 38.6287 24.0396 33.8851 10.3554 -1.1855 8.5613
# 2 24.0396 83.5206 -20.3776 4.2028 -4.7747 3.0490
# 3 33.8851 -20.3776 -10.6106 6.9645 15.3933 -13.3561
# 4 10.3554 4.2028 6.9645 23.9009 7.6889 -15.7933
# 5 -1.1855 -4.7747 15.3933 7.6889 23.7145 7.4876
# 6 8.5613 3.0490 -13.3561 -15.7933 7.4876 24.9070
#
#
#
# Elastic Compliance Matrix: (Units=1/GPa)
#
#
# Indices 1 2 3 4 5 6 
#
# 1 0.011922 -0.000392 0.015190 -0.002509 -0.010298 0.005600
# 2 -0.000392 0.014581 0.000577 -0.018436 0.013958 -0.017227
# 3 0.015190 0.000577 0.002672 -0.036559 0.021581 -0.033528
# 4 -0.002509 -0.018436 -0.036559 0.112698 -0.037570 0.066270
# 5 -0.010298 0.013958 0.021581 -0.037570 0.050743 -0.025674
# 6 0.005600 -0.017227 -0.033528 0.066270 -0.025674 0.072094
#
#
# Mechanical properties :
#
#
# Convention : Reuss Voigt Hill
#
# Bulk Modulus (GPa) = 16.68711 20.73698 18.71204
# Shear Modulus (GPa) = 19.69006 19.43726 19.56366
#
# Velocity S-wave (km/s) = 3.05664 3.03696 3.04682
# Velocity P-wave (km/s) = 4.51393 4.70503 4.61047
#
# Compressibility (1/GPa) = 0.05992650
#
# Stress axis : x y z
#
# Youngs Moduli (GPa) = 83.87834 68.58109 374.19758
#
# Poissons Ratio (x) = 0.02689 -5.68421
# Poissons Ratio (y) = 0.03289 -0.21597
# Poissons Ratio (z) = -1.27415 -0.03958
#
# Static dielectric constant tensor:
#      x y z
#    x 1.894850 -0.075690 0.033080 
#    y -0.075690 1.784050 0.012310 
#    z 0.033080 0.012310 1.766360 
# 
# From -- ./inp_files/346517.got.cif
#   From: 2010.05.17/outbox.cif.g08.bks.cpg/sg2_174_cif.got.tgz:346517.got - 2010.06.03 11:33:40.
