data_PCOD9089083
_publ_section_title
;
Structure prediction by ZEFSAII (Michael W. Deem and Ramdas Pophale) SiO2 
 PCOD9089083
Probable space group: P -1
;
_chemical_formula_sum "Si O2"
_cell_formula_units_Z 12
_cell_length_a 17.702695
_cell_length_b 20.533743
_cell_length_c 12.677270
_cell_angle_alpha 149.930141
_cell_angle_beta 21.242418
_cell_angle_gamma 160.423307
_cell_volume 556.338995
_symmetry_space_group_name_H-M "P -1"
_symmetry_group_IT_number 2
_symmetry_cell_setting 'triclinic'
loop_
_space_group_symop_operation_xyz
x,y,z
-x,-y,-z
loop_
_atom_site_type_symbol
_atom_site_label
_atom_site_fract_x
_atom_site_fract_y
_atom_site_fract_z
Si Si1 0.237373 0.396209 0.543679
Si Si2 0.406602 0.311416 0.674887
Si Si3 0.091453 0.541902 0.605828
Si Si4 0.172017 0.795354 0.684762
Si Si5 0.486524 0.295327 0.197866
Si Si6 0.545073 0.157330 0.105995
O O1 0.440714 0.492601 0.308218
O O2 0.224699 0.247195 0.402505
O O3 0.409128 0.561727 0.641677
O O4 0.917476 0.320734 0.828329
O O5 0.611878 0.367535 0.586216
O O6 0.450063 0.217580 0.401820
O O7 0.054117 0.186377 0.981736
O O8 0.181354 0.714596 0.666987
O O9 0.986089 0.378712 0.435415
O O10 0.793465 0.424499 0.906451
O O11 0.500000 0.000000 0.500000
O O12 0.394398 0.122661 0.140021
O O13 0.500000 0.000000 0.000000
#
# Coordination Sequence:
#
# PCOD9089083 Si02
#       6
#     2   2   2   2   2   2
#     4  10  19  37  65  92 122 164 205 245 323 390
#     4  11  21  43  68  90 129 171 211 263 325 386
#     4  11  22  44  69  91 128 175 215 266 328 380
#     4  11  27  44  64  96 126 169 228 272 316 376
#     4  10  19  37  65  88 121 166 204 251 316 388
#     4  11  23  36  60 103 131 159 208 260 320 390
#
# _framework density 21.569582
#
# number of rings (size 3 to 8) (size 9 to 14) (size 15 to 20)
#    0.000    1.333    5.000    1.500    0.000    4.000 
#    0.000    0.000    0.000    0.000    0.000    0.000 
#    0.000    0.000    0.000    0.000    0.000    0.000 
#
# Total GULP energy -66996.399742 kJ/mol
# GULP energy per Si atom -5583.033312 kJ/mol
# Density = 2.152049 g / cm^3
# Si number density = 21.569582 Si / 1000 Ang^3
#
#
#
# Elastic Constant Matrix: (Units=GPa)
#
#
# Indices 1 2 3 4 5 6 
#
# 1 157.7354 25.2710 72.7542 6.2301 -9.4968 -36.9987
# 2 25.2710 46.9404 40.9612 -2.0232 4.5783 -31.0259
# 3 72.7542 40.9612 120.7976 -27.8033 -24.5478 -7.4722
# 4 6.2301 -2.0232 -27.8033 24.4385 -8.2527 -3.8883
# 5 -9.4968 4.5783 -24.5478 -8.2527 31.0162 1.3061
# 6 -36.9987 -31.0259 -7.4722 -3.8883 1.3061 31.4317
#
#
#
# Elastic Compliance Matrix: (Units=1/GPa)
#
#
# Indices 1 2 3 4 5 6 
#
# 1 0.002783 -0.017709 0.009010 0.011008 0.014001 -0.011283
# 2 -0.017709 -0.013244 0.032530 0.049246 0.036292 -0.021601
# 3 0.009010 0.032530 -0.012108 -0.012813 -0.016675 0.038946
# 4 0.011008 0.049246 -0.012813 0.035187 -0.007337 0.063180
# 5 0.014001 0.036292 -0.016675 -0.007337 0.014049 0.046849
# 6 -0.011283 -0.021601 0.038946 0.063180 0.046849 0.012339
#
#
# Mechanical properties :
#
#
# Convention : Reuss Voigt Hill
#
# Bulk Modulus (GPa) = 39.85082 67.04957 53.45019
# Shear Modulus (GPa) = -17195.04560 29.80974 -8582.61793
#
# Velocity S-wave (km/s) = -89.38234 3.72160 -63.14805
# Velocity P-wave (km/s) = 103.12009 7.04413 72.74659
#
# Compressibility (1/GPa) = 0.02509359
#
# Stress axis : x y z
#
# Youngs Moduli (GPa) = 359.35925 -75.50794 -82.59326
#
# Poissons Ratio (x) = -1.33721 0.74417
# Poissons Ratio (y) = 6.36407 2.68679
# Poissons Ratio (z) = -3.23785 2.45631
#
# Static dielectric constant tensor:
#      x y z
#    x 1.822580 -0.092320 -0.031590 
#    y -0.092320 1.929760 -0.000830 
#    z -0.031590 -0.000830 1.786030 
# 
# From -- ./inp_files/261381.got.cif
#   From: 2010.05.17/outbox.cif.g08.bks.cpg/sg2_131_cif.got.tgz:261381.got - 2010.06.03 11:33:40.
