data_PCOD9089847
_publ_section_title
;
Structure prediction by ZEFSAII (Michael W. Deem and Ramdas Pophale) SiO2 
 PCOD9089847
Probable space group: P -1
;
_chemical_formula_sum "Si O2"
_cell_formula_units_Z 14
_cell_length_a 9.214708
_cell_length_b 7.977563
_cell_length_c 11.308390
_cell_angle_alpha 41.457020
_cell_angle_beta 74.653223
_cell_angle_gamma 88.667231
_cell_volume 510.388836
_symmetry_space_group_name_H-M "P -1"
_symmetry_group_IT_number 2
_symmetry_cell_setting 'triclinic'
loop_
_space_group_symop_operation_xyz
x,y,z
-x,-y,-z
loop_
_atom_site_type_symbol
_atom_site_label
_atom_site_fract_x
_atom_site_fract_y
_atom_site_fract_z
Si Si1 0.116661 0.615746 0.305773
Si Si2 0.937558 0.829447 0.945322
Si Si3 0.611165 0.121342 0.757584
Si Si4 0.354353 0.133216 0.448403
Si Si5 0.297751 0.367449 0.087572
Si Si6 0.850478 0.338016 0.372635
Si Si7 0.696101 0.036045 0.211823
O O1 0.300019 0.700947 0.248480
O O2 0.000000 0.500000 0.500000
O O3 0.031941 0.409590 0.334774
O O4 0.088820 0.899942 0.149543
O O5 0.877940 0.751835 0.864774
O O6 0.121047 0.871669 0.898935
O O7 0.838782 0.597717 0.171747
O O8 0.723436 0.249897 0.552790
O O9 0.624844 0.820196 0.910887
O O10 0.430685 0.095133 0.790184
O O11 0.199994 0.896285 0.582935
O O12 0.333210 0.186855 0.561952
O O13 0.500000 0.000000 0.500000
O O14 0.346001 0.311017 0.241591
O O15 0.336841 0.681673 0.897606
#
# Coordination Sequence:
#
# PCOD9089847 Si02
#       7
#     2   2   2   2   2   2   2
#     4   9  20  41  63  82 113 167 212 236 289 369
#     4  11  23  37  61  93 122 156 199 257 304 346
#     4   9  20  38  63  85 118 163 203 242 289 360
#     4  11  22  37  64  93 120 158 204 243 298 363
#     4  10  21  37  58  88 125 166 195 234 300 375
#     4  10  19  38  62  85 114 161 204 238 286 369
#     4  12  22  39  59  97 129 148 197 260 306 345
#
# _framework density 27.430067999999999
#
# number of rings (size 3 to 8) (size 9 to 14) (size 15 to 20)
#    0.000    1.714    4.286    2.143    0.000    0.571 
#    7.714    3.571    0.000    0.000    0.000    0.000 
#    0.000    0.000    0.000    0.000    0.000    0.000 
#
# Total GULP energy -78163.037963 kJ/mol
# GULP energy per Si atom -5583.074140 kJ/mol
# Density = 2.736764 g / cm^3
# Si number density = 27.430068 Si / 1000 Ang^3
#
#
#
# Elastic Constant Matrix: (Units=GPa)
#
#
# Indices 1 2 3 4 5 6 
#
# 1 191.8702 74.7549 47.4598 -15.3786 -14.9618 57.7781
# 2 74.7549 74.8872 26.3834 -8.1370 6.6958 36.0918
# 3 47.4598 26.3834 142.2341 -8.5693 21.7153 -6.1305
# 4 -15.3786 -8.1370 -8.5693 44.5860 -1.3262 -1.1784
# 5 -14.9618 6.6958 21.7153 -1.3262 35.2819 -6.0783
# 6 57.7781 36.0918 -6.1305 -1.1784 -6.0783 58.8222
#
#
#
# Elastic Compliance Matrix: (Units=1/GPa)
#
#
# Indices 1 2 3 4 5 6 
#
# 1 0.012021 -0.008029 -0.003898 0.002000 0.007989 -0.006423
# 2 -0.008029 0.027829 -0.001378 0.001489 -0.009555 -0.010290
# 3 -0.003898 -0.001378 0.009819 0.000229 -0.006561 0.005025
# 4 0.002000 0.001489 0.000229 0.023401 0.000910 -0.002291
# 5 0.007989 -0.009555 -0.006561 0.000910 0.037833 0.001259
# 6 -0.006423 -0.010290 0.005025 -0.002291 0.001259 0.030230
#
#
# Mechanical properties :
#
#
# Convention : Reuss Voigt Hill
#
# Bulk Modulus (GPa) = 43.36639 78.46529 60.91584
# Shear Modulus (GPa) = 28.50145 45.09758 36.79951
#
# Velocity S-wave (km/s) = 3.22694 4.05914 3.66673
# Velocity P-wave (km/s) = 5.45237 7.11593 6.33896
#
# Compressibility (1/GPa) = 0.02305933
#
# Stress axis : x y z
#
# Youngs Moduli (GPa) = 83.18486 35.93414 101.84357
#
# Poissons Ratio (x) = 0.28850 0.39700
# Poissons Ratio (y) = 0.66786 0.14036
# Poissons Ratio (z) = 0.32426 0.04952
#
# Static dielectric constant tensor:
#      x y z
#    x 1.876880 0.144430 0.181530 
#    y 0.144430 2.117610 0.029260 
#    z 0.181530 0.029260 2.099970 
# 
# From -- ./inp_files/331905.got.cif
#   From: 2010.05.17/outbox.cif.g08.bks.cpg/sg2_166_cif.got.tgz:331905.got - 2010.06.03 11:33:40.
