data_PCOD9089179
_publ_section_title
;
Structure prediction by ZEFSAII (Michael W. Deem and Ramdas Pophale) SiO2 
 PCOD9089179
Probable space group: P -1
;
_chemical_formula_sum "Si O2"
_cell_formula_units_Z 16
_cell_length_a 8.012538
_cell_length_b 18.481386
_cell_length_c 21.755589
_cell_angle_alpha 19.580999
_cell_angle_beta 60.864740
_cell_angle_gamma 50.728109
_cell_volume 757.723925
_symmetry_space_group_name_H-M "P -1"
_symmetry_group_IT_number 2
_symmetry_cell_setting 'triclinic'
loop_
_space_group_symop_operation_xyz
x,y,z
-x,-y,-z
loop_
_atom_site_type_symbol
_atom_site_label
_atom_site_fract_x
_atom_site_fract_y
_atom_site_fract_z
Si Si1 0.986999 0.610284 0.331637
Si Si2 0.386359 0.157367 0.457480
Si Si3 0.820525 0.138944 0.671773
Si Si4 0.609389 0.251147 0.133565
Si Si5 0.130520 0.454153 0.728242
Si Si6 0.441168 0.094589 0.067205
Si Si7 0.048633 0.822209 0.256991
Si Si8 0.441469 0.613210 0.102477
O O1 0.977055 0.594507 0.273282
O O2 0.051769 0.332268 0.570107
O O3 0.132768 0.692363 0.278116
O O4 0.714933 0.846916 0.208199
O O5 0.471391 0.337181 0.318015
O O6 0.101383 0.354079 0.341907
O O7 0.500000 0.000000 0.500000
O O8 0.431942 0.954280 0.665280
O O9 0.104659 0.911057 0.795104
O O10 0.768476 0.386713 0.442987
O O11 0.774760 0.220063 0.687662
O O12 0.680962 0.013826 0.785184
O O13 0.500000 0.500000 0.000000
O O14 0.501411 0.348610 0.007412
O O15 0.320265 0.200836 0.937349
O O16 0.423913 0.334129 0.913719
O O17 0.836343 0.135229 0.039679
#
# Coordination Sequence:
#
# PCOD9089179 Si02
#       8
#     2   2   2   2   2   2   2   2
#     4   9  18  35  58  89 116 156 198 238 285 342
#     4  11  22  39  66  85 109 150 204 248 291 335
#     4   9  20  36  57  85 117 156 188 236 292 343
#     4  10  19  37  66  85 107 143 202 246 280 338
#     4  10  21  37  58  86 119 153 198 241 286 348
#     4  11  22  37  58  84 131 157 183 230 301 361
#     4   8  16  34  58  82 116 148 199 238 275 331
#     4  10  21  38  58  90 116 154 190 243 294 340
#
# _framework density 21.115870000000001
#
# number of rings (size 3 to 8) (size 9 to 14) (size 15 to 20)
#    0.000    2.250    1.250    2.625    0.000    3.000 
#    0.000    9.375    0.000    0.000    0.000    0.000 
#    0.000    0.000    0.000    0.000    0.000    0.000 
#
# Total GULP energy -89329.841786 kJ/mol
# GULP energy per Si atom -5583.115112 kJ/mol
# Density = 2.106781 g / cm^3
# Si number density = 21.115870 Si / 1000 Ang^3
#
#
#
# Elastic Constant Matrix: (Units=GPa)
#
#
# Indices 1 2 3 4 5 6 
#
# 1 45.4982 36.3475 39.3440 4.5684 -17.5839 2.3363
# 2 36.3475 84.4567 45.2114 -3.9880 -8.4130 5.4776
# 3 39.3440 45.2114 116.1631 7.2466 -25.2170 4.2742
# 4 4.5684 -3.9880 7.2466 30.9288 5.7058 -5.7258
# 5 -17.5839 -8.4130 -25.2170 5.7058 41.6978 -0.1439
# 6 2.3363 5.4776 4.2742 -5.7258 -0.1439 19.7875
#
#
#
# Elastic Compliance Matrix: (Units=1/GPa)
#
#
# Indices 1 2 3 4 5 6 
#
# 1 0.046213 -0.015768 -0.005622 -0.010724 0.014364 -0.002876
# 2 -0.015768 0.020815 -0.004495 0.007023 -0.006133 -0.000942
# 3 -0.005622 -0.004495 0.013869 -0.004487 0.005716 -0.002345
# 4 -0.010724 0.007023 -0.004487 0.040142 -0.011271 0.011825
# 5 0.014364 -0.006133 0.005716 -0.011271 0.033786 -0.004249
# 6 -0.002876 -0.000942 -0.002345 0.011825 -0.004249 0.055035
#
#
# Mechanical properties :
#
#
# Convention : Reuss Voigt Hill
#
# Bulk Modulus (GPa) = 34.33358 54.21375 44.27366
# Shear Modulus (GPa) = 18.42708 26.83049 22.62878
#
# Velocity S-wave (km/s) = 2.95730 3.56846 3.27716
# Velocity P-wave (km/s) = 5.28731 6.53519 5.94409
#
# Compressibility (1/GPa) = 0.02912601
#
# Stress axis : x y z
#
# Youngs Moduli (GPa) = 21.63889 48.04291 72.10104
#
# Poissons Ratio (x) = 0.75754 0.40537
# Poissons Ratio (y) = 0.34120 0.32413
# Poissons Ratio (z) = 0.12166 0.21597
#
# Static dielectric constant tensor:
#      x y z
#    x 1.801430 0.030840 -0.015580 
#    y 0.030840 1.784820 -0.005390 
#    z -0.015580 -0.005390 1.770410 
# 
# From -- ./inp_files/332559.got.cif
#   From: 2010.05.17/outbox.cif.g08.bks.cpg/sg2_167_cif.got.tgz:332559.got - 2010.06.03 11:33:40.
