data_PCOD9089157
_publ_section_title
;
Structure prediction by ZEFSAII (Michael W. Deem and Ramdas Pophale) SiO2 
 PCOD9089157
Probable space group: P -1
;
_chemical_formula_sum "Si O2"
_cell_formula_units_Z 14
_cell_length_a 11.296098
_cell_length_b 8.061887
_cell_length_c 8.846895
_cell_angle_alpha 68.921678
_cell_angle_beta 67.093221
_cell_angle_gamma 96.378907
_cell_volume 662.269059
_symmetry_space_group_name_H-M "P -1"
_symmetry_group_IT_number 2
_symmetry_cell_setting 'triclinic'
loop_
_space_group_symop_operation_xyz
x,y,z
-x,-y,-z
loop_
_atom_site_type_symbol
_atom_site_label
_atom_site_fract_x
_atom_site_fract_y
_atom_site_fract_z
Si Si1 0.225330 0.598044 0.224499
Si Si2 0.918898 0.880095 0.218672
Si Si3 0.723731 0.798678 0.600384
Si Si4 0.193223 0.431050 0.855062
Si Si5 0.857680 0.110617 0.648586
Si Si6 0.992067 0.355771 0.237864
Si Si7 0.436370 0.616311 0.876155
O O1 0.246253 0.402761 0.336162
O O2 0.222627 0.744605 0.307559
O O3 0.083027 0.533736 0.227512
O O4 0.337394 0.685831 0.013213
O O5 0.806465 0.912302 0.380313
O O6 0.830992 0.693099 0.240365
O O7 0.040054 0.881555 0.269958
O O8 0.000000 0.000000 0.000000
O O9 0.563395 0.757535 0.687284
O O10 0.768790 0.913016 0.696383
O O11 0.136187 0.603059 0.786526
O O12 0.338484 0.493342 0.838578
O O13 0.089012 0.323695 0.070574
O O14 0.949020 0.197066 0.432554
O O15 0.500000 0.500000 0.000000
#
# Coordination Sequence:
#
# PCOD9089157 Si02
#       7
#     2   2   2   2   2   2   2
#     4  10  20  40  69  95 121 168 217 255 320 382
#     4  12  25  37  62 101 133 162 217 275 319 370
#     4  11  24  42  66  94 133 171 212 258 319 397
#     4  10  21  38  65  96 129 166 216 266 318 376
#     4  12  23  40  67  97 130 168 212 267 329 372
#     4  10  19  37  65  97 127 162 211 273 319 374
#     4   9  22  41  65  92 129 176 211 254 320 390
#
# _framework density 21.139444999999998
#
# number of rings (size 3 to 8) (size 9 to 14) (size 15 to 20)
#    0.000    1.429    2.857    2.571    6.000    1.143 
#    0.000    0.714    0.000    0.000    0.000    0.000 
#    0.000    0.000    0.000    0.000    0.000    0.000 
#
# Total GULP energy -78081.493690 kJ/mol
# GULP energy per Si atom -5577.249549 kJ/mol
# Density = 2.109133 g / cm^3
# Si number density = 21.139445 Si / 1000 Ang^3
#
#
#
# Elastic Constant Matrix: (Units=GPa)
#
#
# Indices 1 2 3 4 5 6 
#
# 1 113.2103 44.2517 36.2742 -6.3353 -0.2736 36.0469
# 2 44.2517 142.9198 32.3464 24.1294 -7.0744 19.0141
# 3 36.2742 32.3464 120.6911 4.1523 1.3071 12.4762
# 4 -6.3353 24.1294 4.1523 19.8372 6.9144 8.0940
# 5 -0.2736 -7.0744 1.3071 6.9144 33.5588 0.0574
# 6 36.0469 19.0141 12.4762 8.0940 0.0574 26.4735
#
#
#
# Elastic Compliance Matrix: (Units=1/GPa)
#
#
# Indices 1 2 3 4 5 6 
#
# 1 0.034332 -0.012474 -0.003237 0.052702 -0.012993 -0.052347
# 2 -0.012474 0.014697 -0.000911 -0.031747 0.009545 0.016544
# 3 -0.003237 -0.000911 0.009447 -0.002422 -0.000090 0.001350
# 4 0.052702 -0.031747 -0.002422 0.159233 -0.038812 -0.096417
# 5 -0.012993 0.009545 -0.000090 -0.038812 0.039666 0.022658
# 6 -0.052347 0.016544 0.001350 -0.096417 0.022658 0.125961
#
#
# Mechanical properties :
#
#
# Convention : Reuss Voigt Hill
#
# Bulk Modulus (GPa) = 39.63192 66.95176 53.29184
# Shear Modulus (GPa) = 11.76497 33.57048 22.66773
#
# Velocity S-wave (km/s) = 2.36167 3.98936 3.27814
# Velocity P-wave (km/s) = 5.12106 7.27738 6.29227
#
# Compressibility (1/GPa) = 0.02523219
#
# Stress axis : x y z
#
# Youngs Moduli (GPa) = 29.12772 68.04229 105.85014
#
# Poissons Ratio (x) = 0.84877 0.34258
# Poissons Ratio (y) = 0.36334 0.09644
# Poissons Ratio (z) = 0.09427 0.06199
#
# Static dielectric constant tensor:
#      x y z
#    x 1.774660 -0.036540 0.003210 
#    y -0.036540 1.834840 -0.030360 
#    z 0.003210 -0.030360 1.803180 
# 
# From -- ./inp_files/184916.got.cif
#   From: 2010.05.17/outbox.cif.g08.bks.cpg/sg2_93_cif.got.tgz:184916.got - 2010.06.03 11:33:40.
