data_PCOD9089097
_publ_section_title
;
Structure prediction by ZEFSAII (Michael W. Deem and Ramdas Pophale) SiO2 
 PCOD9089097
Probable space group: P -1
;
_chemical_formula_sum "Si O2"
_cell_formula_units_Z 14
_cell_length_a 11.500217
_cell_length_b 9.701063
_cell_length_c 9.374491
_cell_angle_alpha 133.219605
_cell_angle_beta 108.317947
_cell_angle_gamma 92.000210
_cell_volume 674.585731
_symmetry_space_group_name_H-M "P -1"
_symmetry_group_IT_number 2
_symmetry_cell_setting 'triclinic'
loop_
_space_group_symop_operation_xyz
x,y,z
-x,-y,-z
loop_
_atom_site_type_symbol
_atom_site_label
_atom_site_fract_x
_atom_site_fract_y
_atom_site_fract_z
Si Si1 0.906752 0.689031 0.851553
Si Si2 0.159511 0.018023 0.172916
Si Si3 0.490286 0.477935 0.246096
Si Si4 0.312650 0.032295 0.761273
Si Si5 0.657279 0.363515 0.453574
Si Si6 0.388906 0.097155 0.522196
Si Si7 0.040258 0.028250 0.698897
O O1 0.838942 0.833649 0.850354
O O2 0.813185 0.468377 0.616368
O O3 0.912577 0.739618 0.058113
O O4 0.059253 0.790566 0.936300
O O5 0.297504 0.033929 0.301680
O O6 0.079991 0.077584 0.314445
O O7 0.609341 0.440213 0.347109
O O8 0.412930 0.562653 0.392447
O O9 0.546111 0.659253 0.283919
O O10 0.396036 0.262397 0.999055
O O11 0.304851 0.023170 0.580139
O O12 0.166900 0.968351 0.721861
O O13 0.379220 0.876144 0.727419
O O14 0.500000 0.000000 0.500000
O O15 0.000000 0.000000 0.500000
#
# Coordination Sequence:
#
# PCOD9089097 Si02
#       7
#     2   2   2   2   2   2   2
#     4   9  18  39  66  89 120 172 206 259 324 371
#     4   9  19  38  67  89 125 174 206 260 328 375
#     4  11  23  41  61  90 132 174 205 264 324 374
#     4  12  23  40  63  96 127 163 223 263 312 387
#     4  11  22  39  66  93 125 168 216 262 320 382
#     4  12  23  40  64  94 133 171 212 260 326 389
#     4  10  19  37  65  90 126 163 204 273 323 365
#
# _framework density 20.753477
#
# number of rings (size 3 to 8) (size 9 to 14) (size 15 to 20)
#    0.857    0.571    5.714    0.857    0.000    0.000 
#    2.571    5.000    0.000    0.000    0.000    0.000 
#    0.000    0.000    0.000    0.000    0.000    0.000 
#
# Total GULP energy -78031.836966 kJ/mol
# GULP energy per Si atom -5573.702640 kJ/mol
# Density = 2.070624 g / cm^3
# Si number density = 20.753477 Si / 1000 Ang^3
#
#
#
# Elastic Constant Matrix: (Units=GPa)
#
#
# Indices 1 2 3 4 5 6 
#
# 1 54.4909 22.4405 23.2433 2.0766 11.4888 -4.3345
# 2 22.4405 92.0337 29.0245 8.5251 -0.4038 -8.0848
# 3 23.2433 29.0245 71.1980 -7.7459 20.1857 -16.9835
# 4 2.0766 8.5251 -7.7459 33.6887 3.6066 -3.6502
# 5 11.4888 -0.4038 20.1857 3.6066 30.7935 -8.9057
# 6 -4.3345 -8.0848 -16.9835 -3.6502 -8.9057 26.8611
#
#
#
# Elastic Compliance Matrix: (Units=1/GPa)
#
#
# Indices 1 2 3 4 5 6 
#
# 1 0.023354 -0.004330 -0.004883 -0.001105 -0.006263 -0.002849
# 2 -0.004330 0.014834 -0.007163 -0.005832 0.007453 0.000916
# 3 -0.004883 -0.007163 0.026079 0.010701 -0.013585 0.010495
# 4 -0.001105 -0.005832 0.010701 0.035364 -0.008886 0.006692
# 5 -0.006263 0.007453 -0.013585 -0.008886 0.046873 0.006976
# 6 -0.002849 0.000916 0.010495 0.006692 0.006976 0.046902
#
#
# Mechanical properties :
#
#
# Convention : Reuss Voigt Hill
#
# Bulk Modulus (GPa) = 31.73073 40.79326 36.26200
# Shear Modulus (GPa) = 21.12721 27.80295 24.46508
#
# Velocity S-wave (km/s) = 3.19409 3.66413 3.43715
# Velocity P-wave (km/s) = 5.37824 6.13188 5.76738
#
# Compressibility (1/GPa) = 0.03151519
#
# Stress axis : x y z
#
# Youngs Moduli (GPa) = 42.81980 67.41437 38.34533
#
# Poissons Ratio (x) = 0.29189 0.18724
# Poissons Ratio (y) = 0.18540 0.27466
# Poissons Ratio (z) = 0.20908 0.48287
#
# Static dielectric constant tensor:
#      x y z
#    x 1.774650 0.025660 0.023610 
#    y 0.025660 1.725370 0.000630 
#    z 0.023610 0.000630 1.774610 
# 
# From -- ./inp_files/37020.got.cif
#   From: 2010.05.17/outbox.cif.g08.bks.cpg/sg2_19_cif.got.tgz:37020.got - 2010.06.03 11:33:40.
