data_PCOD9089983
_publ_section_title
;
Structure prediction by ZEFSAII (Michael W. Deem and Ramdas Pophale) SiO2 
 PCOD9089983
Probable space group: P -1
;
_chemical_formula_sum "Si O2"
_cell_formula_units_Z 16
_cell_length_a 14.173655
_cell_length_b 11.562964
_cell_length_c 13.431395
_cell_angle_alpha 31.245097
_cell_angle_beta 41.883728
_cell_angle_gamma 34.940267
_cell_volume 646.833772
_symmetry_space_group_name_H-M "P -1"
_symmetry_group_IT_number 2
_symmetry_cell_setting 'triclinic'
loop_
_space_group_symop_operation_xyz
x,y,z
-x,-y,-z
loop_
_atom_site_type_symbol
_atom_site_label
_atom_site_fract_x
_atom_site_fract_y
_atom_site_fract_z
Si Si1 0.276090 0.860854 0.070734
Si Si2 0.170109 0.565604 0.936536
Si Si3 0.384056 0.888399 0.386547
Si Si4 0.076501 0.727474 0.201416
Si Si5 0.376999 0.407966 0.065074
Si Si6 0.082524 0.425471 0.716285
Si Si7 0.522125 0.315072 0.759082
Si Si8 0.014628 0.033351 0.580419
O O1 0.127597 0.806596 0.205839
O O2 0.350222 0.834928 0.141398
O O3 0.440498 0.644968 0.040029
O O4 0.217493 0.142424 0.861005
O O5 0.334073 0.372315 0.883463
O O6 0.030877 0.794674 0.807783
O O7 0.268955 0.618268 0.907294
O O8 0.067605 0.486011 0.148598
O O9 0.496841 0.602994 0.557124
O O10 0.408295 0.831680 0.291454
O O11 0.409992 0.122343 0.220357
O O12 0.197936 0.978719 0.498168
O O13 0.253539 0.507435 0.179982
O O14 0.962550 0.619685 0.327873
O O15 0.000000 0.000000 0.000000
O O16 0.113553 0.661117 0.522008
O O17 0.000000 0.000000 0.500000
#
# Coordination Sequence:
#
# PCOD9089983 Si02
#       8
#     2   2   2   2   2   2   2   2
#     4  10  21  35  63  91 114 158 208 245 288 365
#     4   9  20  38  58  83 118 161 194 243 295 352
#     4  10  20  39  58  83 126 162 189 252 302 348
#     4   9  18  37  64  85 119 156 196 251 303 345
#     4  10  19  38  63  85 117 159 199 241 306 353
#     4  10  21  40  59  86 125 156 198 247 303 348
#     4   9  21  36  58  87 121 159 204 240 294 356
#     4  11  23  36  58  89 119 159 200 246 294 359
#
# _framework density 24.735875
#
# number of rings (size 3 to 8) (size 9 to 14) (size 15 to 20)
#    0.000    2.250    2.500    0.375    1.750    6.500 
#    0.000    0.625    5.500    6.750    0.000    0.000 
#    0.000    0.000    0.000    0.000    0.000    0.000 
#
# Total GULP energy -89191.776005 kJ/mol
# GULP energy per Si atom -5574.486000 kJ/mol
# Density = 2.467957 g / cm^3
# Si number density = 24.735875 Si / 1000 Ang^3
#
#
#
# Elastic Constant Matrix: (Units=GPa)
#
#
# Indices 1 2 3 4 5 6 
#
# 1 103.2740 6.9476 49.3426 -28.9896 18.8814 -8.8183
# 2 6.9476 68.4786 9.8141 -4.9580 9.1872 -9.7925
# 3 49.3426 9.8141 96.4123 -22.2962 23.7384 1.7797
# 4 -28.9896 -4.9580 -22.2962 39.5857 -2.6541 -2.8282
# 5 18.8814 9.1872 23.7384 -2.6541 36.3634 -4.8097
# 6 -8.8183 -9.7925 1.7797 -2.8282 -4.8097 41.6536
#
#
#
# Elastic Compliance Matrix: (Units=1/GPa)
#
#
# Indices 1 2 3 4 5 6 
#
# 1 0.015533 0.000845 -0.005201 0.008576 -0.003747 0.003859
# 2 0.000845 0.015754 -0.000798 0.002188 -0.003250 0.003690
# 3 -0.005201 -0.000798 0.016060 0.004446 -0.007595 -0.002550
# 4 0.008576 0.002188 0.004446 0.034271 -0.004891 0.003902
# 5 -0.003747 -0.003250 -0.007595 -0.004891 0.035199 0.002499
# 6 0.003859 0.003690 -0.002550 0.003902 0.002499 0.026354
#
#
# Mechanical properties :
#
#
# Convention : Reuss Voigt Hill
#
# Bulk Modulus (GPa) = 26.99811 44.48595 35.74203
# Shear Modulus (GPa) = 30.15214 36.99125 33.57169
#
# Velocity S-wave (km/s) = 3.49515 3.87130 3.68803
# Velocity P-wave (km/s) = 5.21789 6.16490 5.71106
#
# Compressibility (1/GPa) = 0.03703963
#
# Stress axis : x y z
#
# Youngs Moduli (GPa) = 64.37892 63.47648 62.26549
#
# Poissons Ratio (x) = -0.05363 0.32384
# Poissons Ratio (y) = -0.05440 0.04968
# Poissons Ratio (z) = 0.33483 0.05064
#
# Static dielectric constant tensor:
#      x y z
#    x 1.985750 -0.006190 0.002400 
#    y -0.006190 2.045960 0.037030 
#    z 0.002400 0.037030 2.008720 
# 
# From -- ./inp_files/417166.got.cif
#   From: 2010.05.17/outbox.cif.g08.bks.cpg/sg2_209_cif.got.tgz:417166.got - 2010.06.03 11:33:40.
