data_PCOD9089597
_publ_section_title
;
Structure prediction by ZEFSAII (Michael W. Deem and Ramdas Pophale) SiO2 
 PCOD9089597
Probable space group: P -1
;
_chemical_formula_sum "Si O2"
_cell_formula_units_Z 16
_cell_length_a 9.084618
_cell_length_b 22.192350
_cell_length_c 11.709621
_cell_angle_alpha 45.856235
_cell_angle_beta 55.855536
_cell_angle_gamma 28.657091
_cell_volume 803.845483
_symmetry_space_group_name_H-M "P -1"
_symmetry_group_IT_number 2
_symmetry_cell_setting 'triclinic'
loop_
_space_group_symop_operation_xyz
x,y,z
-x,-y,-z
loop_
_atom_site_type_symbol
_atom_site_label
_atom_site_fract_x
_atom_site_fract_y
_atom_site_fract_z
Si Si1 0.110344 0.333801 0.100581
Si Si2 0.203672 0.678338 0.891756
Si Si3 0.642008 0.154367 0.931842
Si Si4 0.887495 0.450346 0.638613
Si Si5 0.389416 0.646595 0.404391
Si Si6 0.034312 0.632195 0.616276
Si Si7 0.288828 0.158280 0.922311
Si Si8 0.718423 0.589362 0.763583
O O1 0.015392 0.279730 0.161698
O O2 0.066396 0.341502 0.244070
O O3 0.438063 0.233266 0.033493
O O4 0.872012 0.494673 0.938292
O O5 0.355070 0.710183 0.760629
O O6 0.500000 0.500000 0.000000
O O7 0.007160 0.759374 0.985556
O O8 0.628733 0.247502 0.747463
O O9 0.492800 0.139780 0.938286
O O10 0.000000 0.000000 0.000000
O O11 0.579002 0.555888 0.559305
O O12 0.846342 0.478090 0.755963
O O13 0.000000 0.500000 0.500000
O O14 0.131065 0.281495 0.735772
O O15 0.071073 0.716217 0.455881
O O16 0.614802 0.531409 0.353998
O O17 0.823716 0.644282 0.627298
O O18 0.500000 0.000000 0.000000
#
# Coordination Sequence:
#
# PCOD9089597 Si02
#       8
#     2   2   2   2   2   2   2   2
#     4  10  19  38  59  90 126 163 212 258 319 384
#     4   9  18  36  61  87 124 161 214 257 317 373
#     4  11  23  44  62  86 131 178 206 256 331 403
#     4  12  19  40  66  85 131 170 207 265 322 385
#     4  11  24  39  60  96 128 170 214 261 331 373
#     4  11  22  34  58  95 130 149 212 275 301 375
#     4  11  23  39  63 102 124 158 217 273 319 370
#     4  11  19  35  62  94 122 161 221 263 314 371
#
# _framework density 19.904323999999999
#
# number of rings (size 3 to 8) (size 9 to 14) (size 15 to 20)
#    0.000    1.250    7.500    1.125    1.750    3.000 
#    0.000    0.625    0.000    2.250    0.000    0.000 
#    0.000    0.000    0.000    0.000    0.000    0.000 
#
# Total GULP energy -89110.982736 kJ/mol
# GULP energy per Si atom -5569.436421 kJ/mol
# Density = 1.985902 g / cm^3
# Si number density = 19.904324 Si / 1000 Ang^3
#
#
#
# Elastic Constant Matrix: (Units=GPa)
#
#
# Indices 1 2 3 4 5 6 
#
# 1 109.2090 45.5013 46.6674 11.5604 -32.6444 -11.6627
# 2 45.5013 92.7187 53.9417 5.9837 -11.9041 1.5870
# 3 46.6674 53.9417 82.6516 10.1159 -19.8666 3.4690
# 4 11.5604 5.9837 10.1159 27.4993 -4.9649 -2.2977
# 5 -32.6444 -11.9041 -19.8666 -4.9649 41.4611 8.0608
# 6 -11.6627 1.5870 3.4690 -2.2977 8.0608 36.4237
#
#
#
# Elastic Compliance Matrix: (Units=1/GPa)
#
#
# Indices 1 2 3 4 5 6 
#
# 1 0.015749 -0.004256 -0.003980 -0.002434 0.008275 0.003622
# 2 -0.004256 0.018558 -0.010500 0.001062 -0.002834 -0.000477
# 3 -0.003980 -0.010500 0.023154 -0.003968 0.005337 -0.004453
# 4 -0.002434 0.001062 -0.003968 0.038912 0.000791 0.001832
# 5 0.008275 -0.002834 0.005337 0.000791 0.033463 -0.005091
# 6 0.003622 -0.000477 -0.004453 0.001832 -0.005091 0.030302
#
#
# Mechanical properties :
#
#
# Convention : Reuss Voigt Hill
#
# Bulk Modulus (GPa) = 50.02470 64.08891 57.05681
# Shear Modulus (GPa) = 24.47720 30.30809 27.39264
#
# Velocity S-wave (km/s) = 3.51057 3.90640 3.71376
# Velocity P-wave (km/s) = 6.45130 7.25362 6.86419
#
# Compressibility (1/GPa) = 0.01999013
#
# Stress axis : x y z
#
# Youngs Moduli (GPa) = 63.49807 53.88422 43.18863
#
# Poissons Ratio (x) = 0.22931 0.17188
# Poissons Ratio (y) = 0.27023 0.45348
# Poissons Ratio (z) = 0.25270 0.56579
#
# Static dielectric constant tensor:
#      x y z
#    x 1.784160 0.000000 -0.022870 
#    y 0.000000 1.699640 0.052620 
#    z -0.022870 0.052620 1.775870 
# 
# From -- ./inp_files/404768.got.cif
#   From: 2010.05.17/outbox.cif.g08.bks.cpg/sg2_203_cif.got.tgz:404768.got - 2010.06.03 11:33:40.
