data_PCOD9089491
_publ_section_title
;
Structure prediction by ZEFSAII (Michael W. Deem and Ramdas Pophale) SiO2 
 PCOD9089491
Probable space group: P -1
;
_chemical_formula_sum "Si O2"
_cell_formula_units_Z 16
_cell_length_a 8.055513
_cell_length_b 17.385056
_cell_length_c 8.023184
_cell_angle_alpha 135.723202
_cell_angle_beta 52.517261
_cell_angle_gamma 116.397765
_cell_volume 622.386685
_symmetry_space_group_name_H-M "P -1"
_symmetry_group_IT_number 2
_symmetry_cell_setting 'triclinic'
loop_
_space_group_symop_operation_xyz
x,y,z
-x,-y,-z
loop_
_atom_site_type_symbol
_atom_site_label
_atom_site_fract_x
_atom_site_fract_y
_atom_site_fract_z
Si Si1 0.493049 0.662668 0.187905
Si Si2 0.781604 0.428414 0.229759
Si Si3 0.304531 0.083867 0.951914
Si Si4 0.923354 0.716380 0.984458
Si Si5 0.693054 0.200814 0.732920
Si Si6 0.604832 0.553719 0.264366
Si Si7 0.133731 0.889476 0.935691
Si Si8 0.866880 0.888875 0.569341
O O1 0.341333 0.756974 0.368084
O O2 0.573307 0.654242 0.314200
O O3 0.706916 0.679213 0.974550
O O4 0.381320 0.549775 0.028820
O O5 0.782544 0.531050 0.259122
O O6 0.608832 0.454093 0.512636
O O7 0.991425 0.387557 0.125925
O O8 0.704824 0.316286 0.007972
O O9 0.287692 0.145288 0.236658
O O10 0.504647 0.124560 0.794222
O O11 0.093557 0.101667 0.002157
O O12 0.293863 0.956901 0.821741
O O13 0.851930 0.818531 0.303150
O O14 0.112502 0.768468 0.841160
O O15 0.906802 0.140022 0.539727
O O16 0.148894 0.978587 0.219709
#
# Coordination Sequence:
#
# PCOD9089491 Si02
#       8
#     2   2   2   2   2   2   2   2
#     4  10  21  35  60  79 114 140 186 233 279 341
#     4   9  21  37  60  78 113 141 186 232 279 345
#     4   9  19  36  56  78 117 155 181 231 268 323
#     4  11  20  36  56  87 108 146 187 229 276 331
#     4  10  19  38  57  87 108 156 189 221 275 334
#     4   9  20  41  54  81 109 146 177 238 291 328
#     4   9  19  37  53  80 119 149 182 234 267 324
#     4   9  21  35  57  80 119 152 182 230 271 324
#
# _framework density 25.707491000000001
#
# number of rings (size 3 to 8) (size 9 to 14) (size 15 to 20)
#    0.750    1.750    1.250    0.375    1.750    2.500 
#    0.000    2.500    0.000    0.000    0.000    0.000 
#    0.000    0.000    0.000    0.000    0.000    0.000 
#
# Total GULP energy -89263.299488 kJ/mol
# GULP energy per Si atom -5578.956218 kJ/mol
# Density = 2.564898 g / cm^3
# Si number density = 25.707491 Si / 1000 Ang^3
#
#
#
# Elastic Constant Matrix: (Units=GPa)
#
#
# Indices 1 2 3 4 5 6 
#
# 1 38.6969 23.3972 -12.7916 8.8519 1.3048 -4.6201
# 2 23.3972 129.1199 1.5868 -15.5392 6.3045 -10.5683
# 3 -12.7916 1.5868 45.8735 -0.1317 16.9806 -1.2523
# 4 8.8519 -15.5392 -0.1317 33.2140 -2.1523 -3.9792
# 5 1.3048 6.3045 16.9806 -2.1523 12.8134 2.8271
# 6 -4.6201 -10.5683 -1.2523 -3.9792 2.8271 33.6895
#
#
#
# Elastic Compliance Matrix: (Units=1/GPa)
#
#
# Indices 1 2 3 4 5 6 
#
# 1 0.047864 -0.008508 0.030899 -0.018810 -0.046275 0.006705
# 2 -0.008508 0.010477 -0.002494 0.007488 -0.000375 0.002943
# 3 0.030899 -0.002494 0.065460 -0.013759 -0.093654 0.012122
# 4 -0.018810 0.007488 -0.013759 0.040297 0.022769 0.002107
# 5 -0.046275 -0.000375 -0.093654 0.022769 0.216486 -0.025422
# 6 0.006705 0.002943 0.012122 0.002107 -0.025422 0.034358
#
#
# Mechanical properties :
#
#
# Convention : Reuss Voigt Hill
#
# Bulk Modulus (GPa) = 6.11271 26.45277 16.28274
# Shear Modulus (GPa) = 11.63653 29.37658 20.50656
#
# Velocity S-wave (km/s) = 2.12987 3.38409 2.82740
# Velocity P-wave (km/s) = 2.90369 5.05783 4.12390
#
# Compressibility (1/GPa) = 0.16359364
#
# Stress axis : x y z
#
# Youngs Moduli (GPa) = 20.89269 95.44290 15.27652
#
# Poissons Ratio (x) = 0.81206 -0.47203
# Poissons Ratio (y) = 0.17776 0.03811
# Poissons Ratio (z) = -0.64556 0.23807
#
# Static dielectric constant tensor:
#      x y z
#    x 2.007790 -0.047530 0.008670 
#    y -0.047530 2.070710 -0.044190 
#    z 0.008670 -0.044190 2.083250 
# 
# From -- ./inp_files/213490.got.cif
#   From: 2010.05.17/outbox.cif.g08.bks.cpg/sg2_107_cif.got.tgz:213490.got - 2010.06.03 11:33:40.
