data_PCOD9089029
_publ_section_title
;
Structure prediction by ZEFSAII (Michael W. Deem and Ramdas Pophale) SiO2 
 PCOD9089029
Probable space group: P -1
;
_chemical_formula_sum "Si O2"
_cell_formula_units_Z 16
_cell_length_a 12.262550
_cell_length_b 19.337929
_cell_length_c 21.798123
_cell_angle_alpha 19.255142
_cell_angle_beta 152.299195
_cell_angle_gamma 141.955919
_cell_volume 752.005641
_symmetry_space_group_name_H-M "P -1"
_symmetry_group_IT_number 2
_symmetry_cell_setting 'triclinic'
loop_
_space_group_symop_operation_xyz
x,y,z
-x,-y,-z
loop_
_atom_site_type_symbol
_atom_site_label
_atom_site_fract_x
_atom_site_fract_y
_atom_site_fract_z
Si Si1 0.861943 0.536358 0.033565
Si Si2 0.640446 0.815856 0.584510
Si Si3 0.803264 0.914357 0.780883
Si Si4 0.737281 0.419876 0.640294
Si Si5 0.430551 0.400634 0.390752
Si Si6 0.995878 0.943460 0.473765
Si Si7 0.438915 0.872539 0.978754
Si Si8 0.856015 0.852595 0.287581
O O1 0.846448 0.311758 0.243189
O O2 0.155648 0.481794 0.214649
O O3 0.728946 0.590233 0.856639
O O4 0.757437 0.753539 0.840652
O O5 0.565377 0.772504 0.515144
O O6 0.419717 0.989448 0.364577
O O7 0.875921 0.902343 0.626765
O O8 0.882259 0.115374 0.622387
O O9 0.040491 0.757295 0.066742
O O10 0.500000 0.500000 0.500000
O O11 0.635455 0.330938 0.603917
O O12 0.828648 0.627471 0.491113
O O13 0.468982 0.617766 0.197601
O O14 0.000000 0.000000 0.500000
O O15 0.720929 0.989495 0.271608
O O16 0.276845 0.958192 0.887921
O O17 0.699572 0.893719 0.111835
#
# Coordination Sequence:
#
# PCOD9089029 Si02
#       8
#     2   2   2   2   2   2   2   2
#     4  12  23  42  67  90 126 169 217 258 309 379
#     4  12  27  43  60  94 137 167 208 262 323 375
#     4  12  25  42  65  95 131 170 204 265 323 377
#     4  11  22  40  68  99 126 162 218 265 308 376
#     4  11  21  41  66  93 125 165 212 266 308 370
#     4  12  24  38  65  94 122 168 216 261 311 373
#     4  10  19  37  64  95 120 154 215 265 303 362
#     4  10  21  37  64  94 124 159 208 265 315 367
#
# _framework density 21.276434999999999
#
# number of rings (size 3 to 8) (size 9 to 14) (size 15 to 20)
#    0.000    0.750    5.000    3.750    1.750    2.000 
#    0.000    2.500    0.000    0.000    0.000    0.000 
#    0.000    0.000    0.000    0.000    0.000    0.000 
#
# Total GULP energy -89470.275519 kJ/mol
# GULP energy per Si atom -5591.892220 kJ/mol
# Density = 2.122801 g / cm^3
# Si number density = 21.276435 Si / 1000 Ang^3
#
#
#
# Elastic Constant Matrix: (Units=GPa)
#
#
# Indices 1 2 3 4 5 6 
#
# 1 53.8711 29.8127 13.8725 -8.5014 1.8380 -7.9138
# 2 29.8127 97.4414 15.2076 -9.1572 -6.0961 -19.8022
# 3 13.8725 15.2076 58.2810 5.0965 -18.5478 -1.3686
# 4 -8.5014 -9.1572 5.0965 32.3021 -6.0344 -7.4422
# 5 1.8380 -6.0961 -18.5478 -6.0344 37.8675 1.0883
# 6 -7.9138 -19.8022 -1.3686 -7.4422 1.0883 27.6670
#
#
#
# Elastic Compliance Matrix: (Units=1/GPa)
#
#
# Indices 1 2 3 4 5 6 
#
# 1 0.025042 -0.005331 -0.006391 0.006416 -0.004323 0.004927
# 2 -0.005331 0.015155 -0.002249 0.006155 0.002268 0.010777
# 3 -0.006391 -0.002249 0.022950 -0.004904 0.010523 -0.004036
# 4 0.006416 0.006155 -0.004904 0.039745 0.004136 0.016526
# 5 -0.004323 0.002268 0.010523 0.004136 0.032775 0.000730
# 6 0.004927 0.010777 -0.004036 0.016526 0.000730 0.049484
#
#
# Mechanical properties :
#
#
# Convention : Reuss Voigt Hill
#
# Bulk Modulus (GPa) = 28.40460 36.37546 32.39003
# Shear Modulus (GPa) = 22.23923 29.61403 25.92663
#
# Velocity S-wave (km/s) = 3.23654 3.73482 3.49458
# Velocity P-wave (km/s) = 5.22936 5.97765 5.61598
#
# Compressibility (1/GPa) = 0.03520557
#
# Stress axis : x y z
#
# Youngs Moduli (GPa) = 39.93231 65.98486 43.57393
#
# Poissons Ratio (x) = 0.35174 0.27848
# Poissons Ratio (y) = 0.21286 0.09800
# Poissons Ratio (z) = 0.25521 0.14840
#
# Static dielectric constant tensor:
#      x y z
#    x 1.745180 0.012930 -0.047290 
#    y 0.012930 1.797390 -0.007450 
#    z -0.047290 -0.007450 1.764520 
# 
# From -- ./inp_files/272844.got.cif
#   From: 2010.05.17/outbox.cif.g08.bks.cpg/sg2_137_cif.got.tgz:272844.got - 2010.06.03 11:33:40.
