data_PCOD9089243
_publ_section_title
;
Structure prediction by ZEFSAII (Michael W. Deem and Ramdas Pophale) SiO2 
 PCOD9089243
Probable space group: P -1
;
_chemical_formula_sum "Si O2"
_cell_formula_units_Z 16
_cell_length_a 9.248169
_cell_length_b 9.244052
_cell_length_c 12.705916
_cell_angle_alpha 113.426924
_cell_angle_beta 48.922438
_cell_angle_gamma 104.034201
_cell_volume 751.053665
_symmetry_space_group_name_H-M "P -1"
_symmetry_group_IT_number 2
_symmetry_cell_setting 'triclinic'
loop_
_space_group_symop_operation_xyz
x,y,z
-x,-y,-z
loop_
_atom_site_type_symbol
_atom_site_label
_atom_site_fract_x
_atom_site_fract_y
_atom_site_fract_z
Si Si1 0.973296 0.703660 0.773457
Si Si2 0.889988 0.735948 0.049369
Si Si3 0.338950 0.297633 0.245111
Si Si4 0.235512 0.625170 0.001470
Si Si5 0.791728 0.919320 0.571922
Si Si6 0.475556 0.105155 0.645491
Si Si7 0.765738 0.352185 0.557003
Si Si8 0.035972 0.659569 0.313935
O O1 0.766218 0.715653 0.820536
O O2 0.019067 0.520689 0.725145
O O3 0.118349 0.734257 0.617530
O O4 0.966519 0.786440 0.912589
O O5 0.785045 0.565613 0.039335
O O6 0.739429 0.864942 0.203434
O O7 0.066099 0.697387 0.031132
O O8 0.561760 0.323360 0.125584
O O9 0.280332 0.153948 0.305473
O O10 0.253481 0.458890 0.386348
O O11 0.193250 0.689333 0.157948
O O12 0.848863 0.771656 0.426533
O O13 0.621578 0.026282 0.637307
O O14 0.000000 0.000000 0.500000
O O15 0.560103 0.276824 0.633878
O O16 0.500000 0.000000 0.500000
O O17 0.872002 0.323989 0.609524
#
# Coordination Sequence:
#
# PCOD9089243 Si02
#       8
#     2   2   2   2   2   2   2   2
#     4  10  20  37  70  96 126 158 219 276 317 365
#     4  10  23  43  60  94 133 174 210 269 325 374
#     4  11  21  39  67 103 123 167 223 264 313 381
#     4  10  22  39  67  95 127 166 226 270 307 372
#     4  12  23  41  65  96 136 166 209 263 322 391
#     4  12  26  43  63  91 134 178 209 256 337 393
#     4  11  20  41  67  98 126 165 223 268 312 384
#     4  10  19  37  66  96 128 163 208 269 320 369
#
# _framework density 21.303404
#
# number of rings (size 3 to 8) (size 9 to 14) (size 15 to 20)
#    0.000    1.250    5.000    1.500    1.750    2.500 
#    0.000    7.500    0.000    0.000    0.000    0.000 
#    0.000    0.000    0.000    0.000    0.000    0.000 
#
# Total GULP energy -89340.066299 kJ/mol
# GULP energy per Si atom -5583.754144 kJ/mol
# Density = 2.125492 g / cm^3
# Si number density = 21.303404 Si / 1000 Ang^3
#
#
#
# Elastic Constant Matrix: (Units=GPa)
#
#
# Indices 1 2 3 4 5 6 
#
# 1 50.6618 28.5994 54.2315 -7.1120 -6.3422 -16.8336
# 2 28.5994 59.2368 21.6185 -8.2422 1.8844 -15.6782
# 3 54.2315 21.6185 178.9680 -9.7045 0.5559 -18.0469
# 4 -7.1120 -8.2422 -9.7045 31.3505 -0.7851 -9.2961
# 5 -6.3422 1.8844 0.5559 -0.7851 35.9728 1.1545
# 6 -16.8336 -15.6782 -18.0469 -9.2961 1.1545 18.4128
#
#
#
# Elastic Compliance Matrix: (Units=1/GPa)
#
#
# Indices 1 2 3 4 5 6 
#
# 1 0.051709 -0.008948 -0.009738 0.018052 0.008889 0.038667
# 2 -0.008948 0.029563 0.002683 0.014545 -0.003723 0.027198
# 3 -0.009738 0.002683 0.008629 0.001999 -0.002043 0.002978
# 4 0.018052 0.014545 0.001999 0.058325 0.001731 0.060186
# 5 0.008889 -0.003723 -0.002043 0.001731 0.029567 0.001974
# 6 0.038667 0.027198 0.002978 0.060186 0.001974 0.146000
#
#
# Mechanical properties :
#
#
# Convention : Reuss Voigt Hill
#
# Bulk Modulus (GPa) = 17.27242 55.30727 36.28984
# Shear Modulus (GPa) = 13.32989 29.44169 21.38579
#
# Velocity S-wave (km/s) = 2.50415 3.72158 3.17182
# Velocity P-wave (km/s) = 4.06035 6.66971 5.52139
#
# Compressibility (1/GPa) = 0.05789578
#
# Stress axis : x y z
#
# Youngs Moduli (GPa) = 19.33907 33.82594 115.88521
#
# Poissons Ratio (x) = 0.30268 1.12846
# Poissons Ratio (y) = 0.17305 -0.31096
# Poissons Ratio (z) = 0.18832 -0.09077
#
# Static dielectric constant tensor:
#      x y z
#    x 1.749960 0.017410 0.019560 
#    y 0.017410 1.825650 0.008500 
#    z 0.019560 0.008500 1.798620 
# 
# From -- ./inp_files/205076.got.cif
#   From: 2010.05.17/outbox.cif.g08.bks.cpg/sg2_103_cif.got.tgz:205076.got - 2010.06.03 11:33:40.
