data_PCOD9089103
_publ_section_title
;
Structure prediction by ZEFSAII (Michael W. Deem and Ramdas Pophale) SiO2 
 PCOD9089103
Probable space group: P -1
;
_chemical_formula_sum "Si O2"
_cell_formula_units_Z 16
_cell_length_a 10.595760
_cell_length_b 9.643811
_cell_length_c 8.951632
_cell_angle_alpha 119.244632
_cell_angle_beta 115.704330
_cell_angle_gamma 68.923823
_cell_volume 706.335811
_symmetry_space_group_name_H-M "P -1"
_symmetry_group_IT_number 2
_symmetry_cell_setting 'triclinic'
loop_
_space_group_symop_operation_xyz
x,y,z
-x,-y,-z
loop_
_atom_site_type_symbol
_atom_site_label
_atom_site_fract_x
_atom_site_fract_y
_atom_site_fract_z
Si Si1 0.521196 0.140314 0.472899
Si Si2 0.445907 0.349987 0.966442
Si Si3 0.607426 0.459866 0.670321
Si Si4 0.110427 0.995585 0.743920
Si Si5 0.827039 0.960985 0.526168
Si Si6 0.143740 0.615763 0.474194
Si Si7 0.820189 0.622664 0.366963
Si Si8 0.613321 0.001189 0.926546
O O1 0.543499 0.312012 0.635515
O O2 0.500000 0.000000 0.500000
O O3 0.681623 0.073972 0.466454
O O4 0.412867 0.131074 0.277876
O O5 0.298705 0.347140 0.804955
O O6 0.559454 0.181923 0.926337
O O7 0.500000 0.500000 0.000000
O O8 0.408920 0.397124 0.144120
O O9 0.500000 0.500000 0.500000
O O10 0.761710 0.417366 0.644981
O O11 0.137072 0.802114 0.619579
O O12 0.942136 0.038705 0.717167
O O13 0.115899 0.086964 0.637093
O O14 0.228950 0.024428 0.936704
O O15 0.807847 0.802648 0.522759
O O16 0.208175 0.502644 0.587512
O O17 0.982436 0.579270 0.365707
O O18 0.500000 0.000000 0.000000
#
# Coordination Sequence:
#
# PCOD9089103 Si02
#       8
#     2   2   2   2   2   2   2   2
#     4  12  25  41  62  93 126 162 204 259 312 364
#     4  12  24  39  64  91 125 162 210 254 309 368
#     4  12  25  40  61  91 128 163 201 262 315 361
#     4  10  19  37  65  91 117 161 209 253 297 375
#     4  10  20  38  64  89 120 160 207 247 310 364
#     4  10  21  39  63  90 128 159 209 249 315 368
#     4  10  21  39  64  93 119 168 204 254 302 380
#     4  12  21  40  64  93 118 157 212 251 300 371
#
# _framework density 22.652114999999998
#
# number of rings (size 3 to 8) (size 9 to 14) (size 15 to 20)
#    0.000    1.000    3.750    3.750    1.750    0.500 
#    0.000    0.625    2.750    0.000    0.000    0.000 
#    0.000    0.000    0.000    0.000    0.000    0.000 
#
# Total GULP energy -89307.987046 kJ/mol
# GULP energy per Si atom -5581.749190 kJ/mol
# Density = 2.260056 g / cm^3
# Si number density = 22.652115 Si / 1000 Ang^3
#
#
#
# Elastic Constant Matrix: (Units=GPa)
#
#
# Indices 1 2 3 4 5 6 
#
# 1 83.8224 1.2681 53.0512 -4.1469 22.1323 2.9823
# 2 1.2681 95.0464 7.0054 -10.6250 6.7054 23.8876
# 3 53.0512 7.0054 110.8659 -20.1682 29.2175 -11.6482
# 4 -4.1469 -10.6250 -20.1682 35.3489 -9.7827 6.0156
# 5 22.1323 6.7054 29.2175 -9.7827 41.4830 -7.7837
# 6 2.9823 23.8876 -11.6482 6.0156 -7.7837 40.2593
#
#
#
# Elastic Compliance Matrix: (Units=1/GPa)
#
#
# Indices 1 2 3 4 5 6 
#
# 1 0.019173 0.001990 -0.008833 -0.002880 -0.006118 -0.005909
# 2 0.001990 0.013832 -0.001196 0.004507 -0.003270 -0.010006
# 3 -0.008833 -0.001196 0.015920 0.005812 -0.004129 0.004303
# 4 -0.002880 0.004507 0.005812 0.034584 0.003896 -0.005193
# 5 -0.006118 -0.003270 -0.004129 0.003896 0.033040 0.007005
# 6 -0.005909 -0.010006 0.004303 -0.005193 0.007005 0.034589
#
#
# Mechanical properties :
#
#
# Convention : Reuss Voigt Hill
#
# Bulk Modulus (GPa) = 30.44391 45.82047 38.13219
# Shear Modulus (GPa) = 28.06382 38.64557 33.35469
#
# Velocity S-wave (km/s) = 3.52363 4.13491 3.84145
# Velocity P-wave (km/s) = 5.47937 6.56266 6.04533
#
# Compressibility (1/GPa) = 0.03284729
#
# Stress axis : x y z
#
# Youngs Moduli (GPa) = 52.15566 72.29585 62.81509
#
# Poissons Ratio (x) = -0.14387 0.55484
# Poissons Ratio (y) = -0.10379 0.07513
# Poissons Ratio (z) = 0.46069 0.08647
#
# Static dielectric constant tensor:
#      x y z
#    x 2.027750 -0.016350 0.030780 
#    y -0.016350 1.977840 0.046100 
#    z 0.030780 0.046100 1.846280 
# 
# From -- ./inp_files/245654.got.cif
#   From: 2010.05.17/outbox.cif.g08.bks.cpg/sg2_123_cif.got.tgz:245654.got - 2010.06.03 11:33:40.
