data_PCOD9089304
_publ_section_title
;
Structure prediction by ZEFSAII (Michael W. Deem and Ramdas Pophale) SiO2 
 PCOD9089304
Probable space group: P -1
;
_chemical_formula_sum "Si O2"
_cell_formula_units_Z 14
_cell_length_a 11.900017
_cell_length_b 17.409121
_cell_length_c 12.650157
_cell_angle_alpha 29.931885
_cell_angle_beta 40.445149
_cell_angle_gamma 28.828690
_cell_volume 630.525861
_symmetry_space_group_name_H-M "P -1"
_symmetry_group_IT_number 2
_symmetry_cell_setting 'triclinic'
loop_
_space_group_symop_operation_xyz
x,y,z
-x,-y,-z
loop_
_atom_site_type_symbol
_atom_site_label
_atom_site_fract_x
_atom_site_fract_y
_atom_site_fract_z
Si Si1 0.060584 0.283153 0.197020
Si Si2 0.565684 0.937272 0.149629
Si Si3 0.133921 0.121561 0.560159
Si Si4 0.744388 0.368580 0.128076
Si Si5 0.002309 0.128773 0.009658
Si Si6 0.720199 0.543119 0.605631
Si Si7 0.326145 0.279063 0.353150
O O1 0.014567 0.226501 0.408635
O O2 0.916137 0.294333 0.191162
O O3 0.329384 0.094949 0.197797
O O4 0.000000 0.500000 0.000000
O O5 0.691501 0.695830 0.358832
O O6 0.743074 0.959070 0.041516
O O7 0.500000 0.000000 0.000000
O O8 0.144370 0.266217 0.451962
O O9 0.411141 0.934774 0.564464
O O10 0.024392 0.036402 0.792655
O O11 0.535938 0.380925 0.293550
O O12 0.861255 0.239551 0.089492
O O13 0.651022 0.591914 0.896482
O O14 0.891691 0.296556 0.794912
O O15 0.763889 0.611067 0.601406
#
# Coordination Sequence:
#
# PCOD9089304 Si02
#       7
#     2   2   2   2   2   2   2
#     4  12  25  43  66  96 136 179 217 266 326 393
#     4  12  26  43  64  97 138 174 215 269 336 386
#     4  11  21  38  68  97 128 171 218 268 324 388
#     4  11  20  39  69  97 128 168 225 265 318 389
#     4  11  22  41  66 100 130 165 221 278 325 384
#     4  11  22  42  69 100 125 174 222 272 320 393
#     4  10  19  37  67  96 128 162 224 268 313 380
#
# _framework density 22.203688
#
# number of rings (size 3 to 8) (size 9 to 14) (size 15 to 20)
#    0.000    0.857    7.143    1.286    2.000    1.143 
#    0.000    1.429    6.286    0.000    0.000    0.000 
#    0.000    0.000    0.000    0.000    0.000    0.000 
#
# Total GULP energy -78300.097393 kJ/mol
# GULP energy per Si atom -5592.864099 kJ/mol
# Density = 2.215315 g / cm^3
# Si number density = 22.203688 Si / 1000 Ang^3
#
#
#
# Elastic Constant Matrix: (Units=GPa)
#
#
# Indices 1 2 3 4 5 6 
#
# 1 116.5238 29.2642 55.6772 -1.2031 -4.3811 -7.7348
# 2 29.2642 55.0989 16.0270 -7.1561 1.2508 -6.9952
# 3 55.6772 16.0270 154.6946 -13.6148 4.0501 3.6444
# 4 -1.2031 -7.1561 -13.6148 25.1413 -3.2595 -2.6454
# 5 -4.3811 1.2508 4.0501 -3.2595 39.7676 -8.8286
# 6 -7.7348 -6.9952 3.6444 -2.6454 -8.8286 26.2886
#
#
#
# Elastic Compliance Matrix: (Units=1/GPa)
#
#
# Indices 1 2 3 4 5 6 
#
# 1 0.012193 -0.005204 -0.004214 -0.002504 0.002478 0.003367
# 2 -0.005204 0.022448 0.000006 0.006756 0.000444 0.005270
# 3 -0.004214 0.000006 0.008424 0.003891 -0.001568 -0.002541
# 4 -0.002504 0.006756 0.003891 0.044914 0.004231 0.006462
# 5 0.002478 0.000444 -0.001568 0.004231 0.028357 0.011014
# 6 0.003367 0.005270 -0.002541 0.006462 0.011014 0.045134
#
#
# Mechanical properties :
#
#
# Convention : Reuss Voigt Hill
#
# Bulk Modulus (GPa) = 41.25281 58.69490 49.97386
# Shear Modulus (GPa) = 26.54293 33.26275 29.90284
#
# Velocity S-wave (km/s) = 3.46125 3.87469 3.67379
# Velocity P-wave (km/s) = 5.88160 6.81981 6.36801
#
# Compressibility (1/GPa) = 0.02424077
#
# Stress axis : x y z
#
# Youngs Moduli (GPa) = 82.01179 44.54755 118.71167
#
# Poissons Ratio (x) = 0.23184 0.50025
# Poissons Ratio (y) = 0.42682 -0.00074
# Poissons Ratio (z) = 0.34560 -0.00028
#
# Static dielectric constant tensor:
#      x y z
#    x 1.781340 0.024240 -0.004860 
#    y 0.024240 1.879650 -0.036190 
#    z -0.004860 -0.036190 1.844540 
# 
# From -- ./inp_files/153736.got.cif
#   From: 2010.05.17/outbox.cif.g08.bks.cpg/sg2_77_cif.got.tgz:153736.got - 2010.06.03 11:33:40.
