data_PCOD9089565
_publ_section_title
;
Structure prediction by ZEFSAII (Michael W. Deem and Ramdas Pophale) SiO2 
 PCOD9089565
Probable space group: P -1
;
_chemical_formula_sum "Si O2"
_cell_formula_units_Z 14
_cell_length_a 20.481382
_cell_length_b 7.045529
_cell_length_c 10.165735
_cell_angle_alpha 44.028227
_cell_angle_beta 40.456699
_cell_angle_gamma 44.696961
_cell_volume 616.398635
_symmetry_space_group_name_H-M "P -1"
_symmetry_group_IT_number 2
_symmetry_cell_setting 'triclinic'
loop_
_space_group_symop_operation_xyz
x,y,z
-x,-y,-z
loop_
_atom_site_type_symbol
_atom_site_label
_atom_site_fract_x
_atom_site_fract_y
_atom_site_fract_z
Si Si1 0.929913 0.295264 0.826980
Si Si2 0.406148 0.365383 0.595467
Si Si3 0.255146 0.100515 0.850121
Si Si4 0.736896 0.112873 0.322851
Si Si5 0.154131 0.120385 0.467971
Si Si6 0.912996 0.851060 0.717647
Si Si7 0.470705 0.702544 0.818739
O O1 0.957744 0.505335 0.786509
O O2 0.877273 0.529222 0.674671
O O3 0.839299 0.189693 0.076864
O O4 0.044448 0.077896 0.706875
O O5 0.373913 0.603126 0.641249
O O6 0.454931 0.434162 0.352412
O O7 0.289453 0.347725 0.743679
O O8 0.475541 0.023334 0.687168
O O9 0.266157 0.113504 0.671165
O O10 0.347726 0.799966 0.907331
O O11 0.143573 0.109670 0.075127
O O12 0.758142 0.998622 0.495575
O O13 0.172108 0.019903 0.338130
O O14 0.000000 0.000000 0.500000
O O15 0.500000 0.500000 0.000000
#
# Coordination Sequence:
#
# PCOD9089565 Si02
#       7
#     2   2   2   2   2   2   2
#     4   9  19  39  54  81 124 158 201 249 282 339
#     4   9  21  41  60  87 121 149 194 254 293 354
#     4  10  22  39  60  93 119 155 204 243 295 361
#     4  12  21  38  61  87 122 155 197 247 299 352
#     4   9  21  36  57  79 119 165 196 244 296 334
#     4  10  19  38  59  86 123 160 201 244 288 351
#     4   9  20  43  65  84 120 154 192 251 301 354
#
# _framework density 22.712575999999999
#
# number of rings (size 3 to 8) (size 9 to 14) (size 15 to 20)
#    1.714    0.571    1.429    1.286    2.000    0.571 
#    5.143    2.143    0.000    0.000    0.000    0.000 
#    0.000    0.000    0.000    0.000    0.000    0.000 
#
# Total GULP energy -77999.490820 kJ/mol
# GULP energy per Si atom -5571.392201 kJ/mol
# Density = 2.266088 g / cm^3
# Si number density = 22.712576 Si / 1000 Ang^3
#
#
#
# Elastic Constant Matrix: (Units=GPa)
#
#
# Indices 1 2 3 4 5 6 
#
# 1 49.9105 7.6422 1.1142 -6.2589 26.8347 5.7856
# 2 7.6422 40.4375 10.6131 15.7156 18.9796 12.4173
# 3 1.1142 10.6131 63.4320 8.3005 18.3636 0.3386
# 4 -6.2589 15.7156 8.3005 28.2914 -0.7583 10.8264
# 5 26.8347 18.9796 18.3636 -0.7583 45.3180 -0.3640
# 6 5.7856 12.4173 0.3386 10.8264 -0.3640 29.9423
#
#
#
# Elastic Compliance Matrix: (Units=1/GPa)
#
#
# Indices 1 2 3 4 5 6 
#
# 1 0.034526 0.004001 0.004712 0.007788 -0.023991 -0.011491
# 2 0.004001 0.046412 0.001635 -0.021141 -0.022925 -0.012674
# 3 0.004712 0.001635 0.019514 -0.005981 -0.011480 0.000214
# 4 0.007788 -0.021141 -0.005981 0.055625 0.007495 -0.012691
# 5 -0.023991 -0.022925 -0.011480 0.007495 0.050749 0.012179
# 6 -0.011491 -0.012674 0.000214 -0.012691 0.012179 0.045608
#
#
# Mechanical properties :
#
#
# Convention : Reuss Voigt Hill
#
# Bulk Modulus (GPa) = 8.25449 21.39102 14.82275
# Shear Modulus (GPa) = 18.37425 29.67105 24.02265
#
# Velocity S-wave (km/s) = 2.84736 3.61830 3.25573
# Velocity P-wave (km/s) = 3.80160 5.18601 4.54680
#
# Compressibility (1/GPa) = 0.12114624
#
# Stress axis : x y z
#
# Youngs Moduli (GPa) = 28.96409 21.54615 51.24627
#
# Poissons Ratio (x) = -0.08620 -0.24146
# Poissons Ratio (y) = -0.11588 -0.08379
# Poissons Ratio (z) = -0.13647 -0.03523
#
# Static dielectric constant tensor:
#      x y z
#    x 1.913980 -0.021390 -0.022260 
#    y -0.021390 1.878250 -0.007900 
#    z -0.022260 -0.007900 1.823220 
# 
# From -- ./inp_files/473541.got.cif
#   From: 2010.05.17/outbox.cif.g08.bks.cpg/sg2_237_cif.got.tgz:473541.got - 2010.06.03 11:33:40.
