data_PCOD9089481
_publ_section_title
;
Structure prediction by ZEFSAII (Michael W. Deem and Ramdas Pophale) SiO2 
 PCOD9089481
Probable space group: P -1
;
_chemical_formula_sum "Si O2"
_cell_formula_units_Z 12
_cell_length_a 11.515876
_cell_length_b 5.351377
_cell_length_c 11.337240
_cell_angle_alpha 76.234824
_cell_angle_beta 67.736766
_cell_angle_gamma 103.762650
_cell_volume 584.695480
_symmetry_space_group_name_H-M "P -1"
_symmetry_group_IT_number 2
_symmetry_cell_setting 'triclinic'
loop_
_space_group_symop_operation_xyz
x,y,z
-x,-y,-z
loop_
_atom_site_type_symbol
_atom_site_label
_atom_site_fract_x
_atom_site_fract_y
_atom_site_fract_z
Si Si1 0.003653 0.850821 0.700116
Si Si2 0.080345 0.832395 0.928108
Si Si3 0.549948 0.462769 0.114697
Si Si4 0.123268 0.786174 0.423421
Si Si5 0.236507 0.664935 0.062468
Si Si6 0.399571 0.828750 0.218115
O O1 0.897102 0.537608 0.796832
O O2 0.089852 0.922169 0.778413
O O3 0.104958 0.900283 0.545902
O O4 0.906647 0.018552 0.685645
O O5 0.206069 0.868638 0.960094
O O6 0.000000 0.500000 0.000000
O O7 0.000000 0.000000 0.000000
O O8 0.486888 0.632458 0.204091
O O9 0.485015 0.133770 0.196786
O O10 0.500000 0.500000 0.000000
O O11 0.706556 0.521797 0.022229
O O12 0.261580 0.739180 0.355455
O O13 0.000000 0.500000 0.500000
O O14 0.343331 0.819901 0.105537
#
# Coordination Sequence:
#
# PCOD9089481 Si02
#       6
#     2   2   2   2   2   2
#     4  10  22  36  55  88 113 147 188 227 289 332
#     4  10  22  36  56  84 117 148 180 230 282 340
#     4  10  21  33  55  81 112 145 181 231 277 329
#     4  11  21  35  59  79 116 149 185 237 275 331
#     4  10  19  38  57  83 117 143 181 233 287 335
#     4  11  21  35  54  84 111 143 189 225 278 331
#
# _framework density 20.523505
#
# number of rings (size 3 to 8) (size 9 to 14) (size 15 to 20)
#    0.000    1.667    1.667    5.000    4.667    5.333 
#    0.000    0.000    0.000    2.000    0.000    0.000 
#    0.000    0.000    0.000    0.000    0.000    0.000 
#
# Total GULP energy -66899.951712 kJ/mol
# GULP energy per Si atom -5574.995976 kJ/mol
# Density = 2.047679 g / cm^3
# Si number density = 20.523505 Si / 1000 Ang^3
#
#
#
# Elastic Constant Matrix: (Units=GPa)
#
#
# Indices 1 2 3 4 5 6 
#
# 1 77.9189 22.3125 36.5633 17.5399 6.5416 -25.6697
# 2 22.3125 110.2059 30.5960 12.8509 -7.1978 -26.6789
# 3 36.5633 30.5960 89.4140 11.3244 -6.2281 -15.2026
# 4 17.5399 12.8509 11.3244 25.0068 -5.9403 -15.0687
# 5 6.5416 -7.1978 -6.2281 -5.9403 47.6319 7.4804
# 6 -25.6697 -26.6789 -15.2026 -15.0687 7.4804 38.5330
#
#
#
# Elastic Compliance Matrix: (Units=1/GPa)
#
#
# Indices 1 2 3 4 5 6 
#
# 1 0.021432 0.000458 -0.006660 -0.007588 -0.006297 0.010222
# 2 0.000458 0.011529 -0.002861 -0.000812 0.000134 0.006815
# 3 -0.006660 -0.002861 0.014941 -0.000828 0.002543 -0.001341
# 4 -0.007588 -0.000812 -0.000828 0.056497 0.005488 0.015085
# 5 -0.006297 0.000134 0.002543 0.005488 0.023771 -0.005567
# 6 0.010222 0.006815 -0.001341 0.015085 -0.005567 0.043931
#
#
# Mechanical properties :
#
#
# Convention : Reuss Voigt Hill
#
# Bulk Modulus (GPa) = 33.58622 50.72026 42.15324
# Shear Modulus (GPa) = 24.98094 34.77213 29.87654
#
# Velocity S-wave (km/s) = 3.49261 4.12060 3.81953
# Velocity P-wave (km/s) = 5.71530 6.88521 6.32735
#
# Compressibility (1/GPa) = 0.02977412
#
# Stress axis : x y z
#
# Youngs Moduli (GPa) = 46.65829 86.73963 66.93156
#
# Poissons Ratio (x) = -0.03973 0.44579
# Poissons Ratio (y) = -0.02137 0.19152
# Poissons Ratio (z) = 0.31077 0.24820
#
# Static dielectric constant tensor:
#      x y z
#    x 1.814890 -0.031270 -0.045380 
#    y -0.031270 1.896680 0.025650 
#    z -0.045380 0.025650 1.769750 
# 
# From -- ./inp_files/407643.got.cif
#   From: 2010.05.17/outbox.cif.g08.bks.cpg/sg2_204_cif.got.tgz:407643.got - 2010.06.03 11:33:40.
