data_PCOD9089466
_publ_section_title
;
Structure prediction by ZEFSAII (Michael W. Deem and Ramdas Pophale) SiO2 
 PCOD9089466
Probable space group: P -1
;
_chemical_formula_sum "Si O2"
_cell_formula_units_Z 14
_cell_length_a 11.376569
_cell_length_b 23.952396
_cell_length_c 8.267425
_cell_angle_alpha 147.991480
_cell_angle_beta 138.316494
_cell_angle_gamma 30.644402
_cell_volume 607.400257
_symmetry_space_group_name_H-M "P -1"
_symmetry_group_IT_number 2
_symmetry_cell_setting 'triclinic'
loop_
_space_group_symop_operation_xyz
x,y,z
-x,-y,-z
loop_
_atom_site_type_symbol
_atom_site_label
_atom_site_fract_x
_atom_site_fract_y
_atom_site_fract_z
Si Si1 0.513007 0.711793 0.702361
Si Si2 0.233784 0.037382 0.704335
Si Si3 0.061218 0.856501 0.763986
Si Si4 0.278844 0.219751 0.424894
Si Si5 0.918970 0.691334 0.219549
Si Si6 0.222115 0.446072 0.706519
Si Si7 0.146855 0.954521 0.730368
O O1 0.324061 0.735642 0.686715
O O2 0.590110 0.609763 0.379826
O O3 0.377179 0.859793 0.839154
O O4 0.722908 0.685020 0.945734
O O5 0.991954 0.102188 0.530703
O O6 0.479769 0.915123 0.576939
O O7 0.223475 0.953304 0.628373
O O8 0.230753 0.149742 0.066641
O O9 0.896662 0.822315 0.466480
O O10 0.000000 0.000000 0.000000
O O11 0.020864 0.889392 0.994782
O O12 0.095153 0.303683 0.587520
O O13 0.291813 0.322555 0.590734
O O14 0.144561 0.565733 0.045349
O O15 0.000000 0.500000 0.500000
#
# Coordination Sequence:
#
# PCOD9089466 Si02
#       7
#     2   2   2   2   2   2   2
#     4  10  22  41  64  91 131 163 211 254 311 377
#     4  10  21  34  66  90 127 158 203 256 326 364
#     4  10  22  37  61  95 126 161 208 255 317 372
#     4  11  21  41  65  95 124 165 211 261 320 373
#     4  11  23  41  64  92 129 169 210 262 310 368
#     4  10  23  41  65  89 124 171 217 253 309 377
#     4  10  19  38  56  95 126 160 198 259 309 379
#
# _framework density 23.049053000000001
#
# number of rings (size 3 to 8) (size 9 to 14) (size 15 to 20)
#    0.000    1.714    2.857    1.286    0.000    7.429 
#    0.000    1.429    0.000    6.000    0.000    0.000 
#    0.000    0.000    0.000    0.000    0.000    0.000 
#
# Total GULP energy -77962.677958 kJ/mol
# GULP energy per Si atom -5568.762711 kJ/mol
# Density = 2.299659 g / cm^3
# Si number density = 23.049053 Si / 1000 Ang^3
#
#
#
# Elastic Constant Matrix: (Units=GPa)
#
#
# Indices 1 2 3 4 5 6 
#
# 1 60.6136 3.2179 24.7835 15.5623 -30.1979 -19.1967
# 2 3.2179 36.9571 20.9237 10.8067 -6.3921 -11.6283
# 3 24.7835 20.9237 118.2549 17.2750 -13.9602 -15.1160
# 4 15.5623 10.8067 17.2750 22.3946 -14.6200 -7.0537
# 5 -30.1979 -6.3921 -13.9602 -14.6200 45.3136 13.0196
# 6 -19.1967 -11.6283 -15.1160 -7.0537 13.0196 35.1447
#
#
#
# Elastic Compliance Matrix: (Units=1/GPa)
#
#
# Indices 1 2 3 4 5 6 
#
# 1 0.030305 0.007843 -0.003299 -0.009771 0.014104 0.010543
# 2 0.007843 0.037187 -0.004362 -0.016013 0.000737 0.011225
# 3 -0.003299 -0.004362 0.010505 -0.004205 -0.001183 0.000867
# 4 -0.009771 -0.016013 -0.004205 0.070200 0.013553 -0.003376
# 5 0.014104 0.000737 -0.001183 0.013553 0.036552 -0.003382
# 6 0.010543 0.011225 0.000867 -0.003376 -0.003382 0.038875
#
#
# Mechanical properties :
#
#
# Convention : Reuss Voigt Hill
#
# Bulk Modulus (GPa) = 12.76161 34.85287 23.80724
# Shear Modulus (GPa) = 20.04973 31.69727 25.87350
#
# Velocity S-wave (km/s) = 2.95256 3.71240 3.35407
# Velocity P-wave (km/s) = 4.14394 5.79050 5.03498
#
# Compressibility (1/GPa) = 0.07836001
#
# Stress axis : x y z
#
# Youngs Moduli (GPa) = 32.99815 26.89107 95.19237
#
# Poissons Ratio (x) = -0.21090 0.31403
# Poissons Ratio (y) = -0.25880 0.41527
# Poissons Ratio (z) = 0.10886 0.11731
#
# Static dielectric constant tensor:
#      x y z
#    x 1.970650 0.012050 -0.089890 
#    y 0.012050 1.970390 -0.068420 
#    z -0.089890 -0.068420 1.951960 
# 
# From -- ./inp_files/285881.got.cif
#   From: 2010.05.17/outbox.cif.g08.bks.cpg/sg2_143_cif.got.tgz:285881.got - 2010.06.03 11:33:40.
