data_PCOD9089272
_publ_section_title
;
Structure prediction by ZEFSAII (Michael W. Deem and Ramdas Pophale) SiO2 
 PCOD9089272
Probable space group: P -1
;
_chemical_formula_sum "Si O2"
_cell_formula_units_Z 12
_cell_length_a 15.514264
_cell_length_b 8.574948
_cell_length_c 9.439143
_cell_angle_alpha 130.516362
_cell_angle_beta 131.554817
_cell_angle_gamma 32.918906
_cell_volume 497.191107
_symmetry_space_group_name_H-M "P -1"
_symmetry_group_IT_number 2
_symmetry_cell_setting 'triclinic'
loop_
_space_group_symop_operation_xyz
x,y,z
-x,-y,-z
loop_
_atom_site_type_symbol
_atom_site_label
_atom_site_fract_x
_atom_site_fract_y
_atom_site_fract_z
Si Si1 0.168417 0.759583 0.820243
Si Si2 0.461648 0.386732 0.156688
Si Si3 0.768730 0.893498 0.870238
Si Si4 0.272860 0.303918 0.043880
Si Si5 0.982295 0.675795 0.714829
Si Si6 0.436786 0.313145 0.645558
O O1 0.008542 0.860090 0.774522
O O2 0.255491 0.543603 0.653074
O O3 0.310301 0.574423 0.988255
O O4 0.139727 0.032419 0.915001
O O5 0.536212 0.521840 0.328563
O O6 0.603659 0.041380 0.066454
O O7 0.373219 0.388129 0.194248
O O8 0.823244 0.833485 0.730364
O O9 0.574612 0.191747 0.841834
O O10 0.791963 0.660941 0.848697
O O11 0.128937 0.473973 0.870764
O O12 0.000000 0.500000 0.500000
O O13 0.500000 0.000000 0.500000
#
# Coordination Sequence:
#
# PCOD9089272 Si02
#       6
#     2   2   2   2   2   2
#     4  10  19  38  63  85 117 164 208 243 295 375
#     4   9  18  36  63  91 116 161 201 247 302 358
#     4  11  20  39  64  90 115 166 212 240 294 373
#     4  10  19  37  67  87 124 157 210 246 289 373
#     4  11  24  38  58  89 130 161 196 255 312 353
#     4  11  20  35  63  93 125 154 198 260 309 353
#
# _framework density 24.135587999999998
#
# number of rings (size 3 to 8) (size 9 to 14) (size 15 to 20)
#    0.000    1.667    3.333    3.000    0.000    0.000 
#    0.000    1.667   11.000    0.000    0.000    0.000 
#    0.000    0.000    0.000    0.000    0.000    0.000 
#
# Total GULP energy -66872.636161 kJ/mol
# GULP energy per Si atom -5572.719680 kJ/mol
# Density = 2.408065 g / cm^3
# Si number density = 24.135588 Si / 1000 Ang^3
#
#
#
# Elastic Constant Matrix: (Units=GPa)
#
#
# Indices 1 2 3 4 5 6 
#
# 1 230.4437 24.2525 41.6657 32.6026 5.7986 14.0513
# 2 24.2525 63.8628 -1.4044 14.1418 0.6124 -5.0133
# 3 41.6657 -1.4044 53.3187 28.5661 -1.3755 -0.5383
# 4 32.6026 14.1418 28.5661 37.1095 1.7812 4.5612
# 5 5.7986 0.6124 -1.3755 1.7812 34.6887 15.1918
# 6 14.0513 -5.0133 -0.5383 4.5612 15.1918 36.1848
#
#
#
# Elastic Compliance Matrix: (Units=1/GPa)
#
#
# Indices 1 2 3 4 5 6 
#
# 1 0.005553 -0.002284 -0.004150 -0.000510 0.000068 -0.002499
# 2 -0.002284 0.020365 0.009870 -0.014049 -0.001628 0.006310
# 3 -0.004150 0.009870 0.038967 -0.031028 0.000474 0.007271
# 4 -0.000510 -0.014049 -0.031028 0.057802 0.000360 -0.009647
# 5 0.000068 -0.001628 0.000474 0.000360 0.035500 -0.015195
# 6 -0.002499 0.006310 0.007271 -0.009647 -0.015195 0.037184
#
#
# Mechanical properties :
#
#
# Convention : Reuss Voigt Hill
#
# Bulk Modulus (GPa) = 13.93580 52.96142 33.44861
# Shear Modulus (GPa) = 23.53846 40.47067 32.00456
#
# Velocity S-wave (km/s) = 3.12630 4.09932 3.64542
# Velocity P-wave (km/s) = 4.33799 6.66310 5.62206
#
# Compressibility (1/GPa) = 0.07175761
#
# Stress axis : x y z
#
# Youngs Moduli (GPa) = 180.08571 49.10387 25.66261
#
# Poissons Ratio (x) = 0.11215 0.10649
# Poissons Ratio (y) = 0.41130 -0.25329
# Poissons Ratio (z) = 0.74731 -0.48465
#
# Static dielectric constant tensor:
#      x y z
#    x 2.079980 0.028100 0.043020 
#    y 0.028100 1.944450 0.030420 
#    z 0.043020 0.030420 1.980800 
# 
# From -- ./inp_files/146453.got.cif
#   From: 2010.05.17/outbox.cif.g08.bks.cpg/sg2_74_cif.got.tgz:146453.got - 2010.06.03 11:33:40.
