data_PCOD9089571
_publ_section_title
;
Structure prediction by ZEFSAII (Michael W. Deem and Ramdas Pophale) SiO2 
 PCOD9089571
Probable space group: P -1
;
_chemical_formula_sum "Si O2"
_cell_formula_units_Z 14
_cell_length_a 12.355182
_cell_length_b 12.298660
_cell_length_c 11.808314
_cell_angle_alpha 34.431583
_cell_angle_beta 43.440643
_cell_angle_gamma 60.386671
_cell_volume 671.808675
_symmetry_space_group_name_H-M "P -1"
_symmetry_group_IT_number 2
_symmetry_cell_setting 'triclinic'
loop_
_space_group_symop_operation_xyz
x,y,z
-x,-y,-z
loop_
_atom_site_type_symbol
_atom_site_label
_atom_site_fract_x
_atom_site_fract_y
_atom_site_fract_z
Si Si1 0.096037 0.336429 0.594595
Si Si2 0.654241 0.703192 0.273627
Si Si3 0.768104 0.587809 0.044767
Si Si4 0.109237 0.807326 0.667686
Si Si5 0.546288 0.014455 0.821387
Si Si6 0.993312 0.934793 0.883638
Si Si7 0.432903 0.579090 0.218185
O O1 0.290402 0.447843 0.359774
O O2 0.000000 0.500000 0.500000
O O3 0.066748 0.157762 0.679878
O O4 0.019729 0.221779 0.867712
O O5 0.685677 0.645029 0.172982
O O6 0.641765 0.512055 0.525380
O O7 0.502162 0.786975 0.347540
O O8 0.804296 0.889404 0.032097
O O9 0.830517 0.391262 0.184403
O O10 0.621372 0.563749 0.085549
O O11 0.945138 0.752647 0.763163
O O12 0.077301 0.883746 0.750537
O O13 0.262585 0.957061 0.363481
O O14 0.450706 0.814503 0.001264
O O15 0.500000 0.000000 0.000000
#
# Coordination Sequence:
#
# PCOD9089571 Si02
#       7
#     2   2   2   2   2   2   2
#     4  10  21  42  67  89 114 156 214 255 299 355
#     4  10  19  38  61  86 124 158 199 240 301 371
#     4  10  19  38  59  87 124 159 193 241 303 362
#     4  10  22  38  60  90 128 159 198 244 301 366
#     4  12  22  35  59  95 124 162 197 239 299 366
#     4   9  21  42  65  86 117 164 198 254 305 349
#     4  11  21  35  62  87 119 160 199 250 299 356
#
# _framework density 20.839265999999999
#
# number of rings (size 3 to 8) (size 9 to 14) (size 15 to 20)
#    0.000    1.714    2.857    2.143    0.000    1.714 
#    2.571    1.429    0.000    0.000    0.000    0.000 
#    0.000    0.000    0.000    0.000    0.000    0.000 
#
# Total GULP energy -78056.473337 kJ/mol
# GULP energy per Si atom -5575.462381 kJ/mol
# Density = 2.079183 g / cm^3
# Si number density = 20.839266 Si / 1000 Ang^3
#
#
#
# Elastic Constant Matrix: (Units=GPa)
#
#
# Indices 1 2 3 4 5 6 
#
# 1 95.2550 58.5610 40.3035 -9.6498 -43.1337 -2.8413
# 2 58.5610 107.7491 61.9400 -10.5645 -26.2412 -15.4136
# 3 40.3035 61.9400 116.8097 -6.9434 -45.0163 10.2064
# 4 -9.6498 -10.5645 -6.9434 42.4477 0.9799 -4.1720
# 5 -43.1337 -26.2412 -45.0163 0.9799 45.6171 -9.0614
# 6 -2.8413 -15.4136 10.2064 -4.1720 -9.0614 30.0109
#
#
#
# Elastic Compliance Matrix: (Units=1/GPa)
#
#
# Indices 1 2 3 4 5 6 
#
# 1 0.026945 -0.011386 0.006799 0.004080 0.026115 0.002843
# 2 -0.011386 0.022577 -0.011611 0.002543 -0.006753 0.012781
# 3 0.006799 -0.011611 0.019994 0.000867 0.018168 -0.006514
# 4 0.004080 0.002543 0.000867 0.025797 0.007034 0.007108
# 5 0.026115 -0.006753 0.018168 0.007034 0.063058 0.012843
# 6 0.002843 0.012781 -0.006514 0.007108 0.012843 0.047236
#
#
# Mechanical properties :
#
#
# Convention : Reuss Voigt Hill
#
# Bulk Modulus (GPa) = 26.94008 71.26922 49.10465
# Shear Modulus (GPa) = 19.96991 34.21578 27.09285
#
# Velocity S-wave (km/s) = 3.09897 4.05642 3.60958
# Velocity P-wave (km/s) = 5.07548 7.49754 6.40209
#
# Compressibility (1/GPa) = 0.03711941
#
# Stress axis : x y z
#
# Youngs Moduli (GPa) = 37.11295 44.29319 50.01441
#
# Poissons Ratio (x) = 0.50432 -0.34004
# Poissons Ratio (y) = 0.42257 0.58072
# Poissons Ratio (z) = -0.25232 0.51429
#
# Static dielectric constant tensor:
#      x y z
#    x 1.818510 -0.038430 -0.009040 
#    y -0.038430 1.738720 -0.053220 
#    z -0.009040 -0.053220 1.824920 
# 
# From -- ./inp_files/251460.got.cif
#   From: 2010.05.17/outbox.cif.g08.bks.cpg/sg2_126_cif.got.tgz:251460.got - 2010.06.03 11:33:40.
