data_PCOD9089765
_publ_section_title
;
Structure prediction by ZEFSAII (Michael W. Deem and Ramdas Pophale) SiO2 
 PCOD9089765
Probable space group: P -1
;
_chemical_formula_sum "Si O2"
_cell_formula_units_Z 16
_cell_length_a 18.833672
_cell_length_b 8.279921
_cell_length_c 10.471550
_cell_angle_alpha 132.100209
_cell_angle_beta 52.993495
_cell_angle_gamma 145.537909
_cell_volume 680.887630
_symmetry_space_group_name_H-M "P -1"
_symmetry_group_IT_number 2
_symmetry_cell_setting 'triclinic'
loop_
_space_group_symop_operation_xyz
x,y,z
-x,-y,-z
loop_
_atom_site_type_symbol
_atom_site_label
_atom_site_fract_x
_atom_site_fract_y
_atom_site_fract_z
Si Si1 0.154377 0.078633 0.952388
Si Si2 0.185988 0.172498 0.686615
Si Si3 0.299305 0.784325 0.838610
Si Si4 0.928428 0.532581 0.272641
Si Si5 0.415293 0.261453 0.767398
Si Si6 0.927837 0.836656 0.660542
Si Si7 0.596861 0.967630 0.879597
Si Si8 0.622084 0.865311 0.529986
O O1 0.058653 0.703744 0.851029
O O2 0.147512 0.177543 0.873849
O O3 0.292762 0.206918 0.880606
O O4 0.135421 0.202354 0.158877
O O5 0.296173 0.518525 0.695360
O O6 0.250566 0.054426 0.569239
O O7 0.064265 0.975428 0.625972
O O8 0.171152 0.623040 0.818666
O O9 0.410685 0.102141 0.812214
O O10 0.303678 0.839925 0.012611
O O11 0.046761 0.888053 0.292694
O O12 0.875338 0.569617 0.474592
O O13 0.528178 0.622142 0.808326
O O14 0.400345 0.090548 0.565223
O O15 0.640893 0.044833 0.727468
O O16 0.500000 0.000000 0.000000
O O17 0.500000 0.500000 0.500000
#
# Coordination Sequence:
#
# PCOD9089765 Si02
#       8
#     2   2   2   2   2   2   2   2
#     4  10  19  38  61  88 125 165 202 256 303 362
#     4  10  21  39  58  91 122 156 210 250 301 368
#     4  10  20  40  59  87 126 153 202 254 297 371
#     4   9  21  39  59  88 123 163 207 254 304 367
#     4   9  20  39  60  89 124 156 206 243 307 369
#     4  10  20  39  62  87 125 162 207 252 309 361
#     4  11  21  39  64  90 119 160 200 253 311 366
#     4   9  19  39  61  83 120 158 194 253 300 357
#
# _framework density 23.498737999999999
#
# number of rings (size 3 to 8) (size 9 to 14) (size 15 to 20)
#    0.000    2.250    0.000    3.375    0.000    0.500 
#   31.500    5.625    0.000    0.000    0.000    0.000 
#    0.000    0.000    0.000    0.000    0.000    0.000 
#
# Total GULP energy -89260.679647 kJ/mol
# GULP energy per Si atom -5578.792478 kJ/mol
# Density = 2.344525 g / cm^3
# Si number density = 23.498738 Si / 1000 Ang^3
#
#
#
# Elastic Constant Matrix: (Units=GPa)
#
#
# Indices 1 2 3 4 5 6 
#
# 1 52.4481 15.1561 41.3550 3.4755 17.4236 -10.4132
# 2 15.1561 78.8207 21.8020 16.4326 2.9797 -15.9260
# 3 41.3550 21.8020 173.1676 -12.5850 27.8312 5.6087
# 4 3.4755 16.4326 -12.5850 28.8214 3.7870 -1.4922
# 5 17.4236 2.9797 27.8312 3.7870 29.9383 -2.4850
# 6 -10.4132 -15.9260 5.6087 -1.4922 -2.4850 30.7868
#
#
#
# Elastic Compliance Matrix: (Units=1/GPa)
#
#
# Indices 1 2 3 4 5 6 
#
# 1 0.029548 -0.000978 -0.005837 -0.003692 -0.010415 0.009532
# 2 -0.000978 0.018323 -0.004060 -0.012240 0.004872 0.009687
# 3 -0.005837 -0.004060 0.009472 0.007697 -0.006472 -0.005949
# 4 -0.003692 -0.012240 0.007697 0.046442 -0.010290 -0.007562
# 5 -0.010415 0.004872 -0.006472 -0.010290 0.046582 0.003437
# 6 0.009532 0.009687 -0.005949 -0.007562 0.003437 0.041712
#
#
# Mechanical properties :
#
#
# Convention : Reuss Voigt Hill
#
# Bulk Modulus (GPa) = 28.09372 51.22916 39.66144
# Shear Modulus (GPa) = 22.15409 32.98418 27.56913
#
# Velocity S-wave (km/s) = 3.07380 3.75061 3.42894
# Velocity P-wave (km/s) = 4.95772 6.37214 5.70891
#
# Compressibility (1/GPa) = 0.03559514
#
# Stress axis : x y z
#
# Youngs Moduli (GPa) = 33.84274 54.57623 105.57496
#
# Poissons Ratio (x) = 0.05336 0.61621
# Poissons Ratio (y) = 0.03309 0.42860
# Poissons Ratio (z) = 0.19753 0.22156
#
# Static dielectric constant tensor:
#      x y z
#    x 1.862560 -0.036180 0.015460 
#    y -0.036180 2.038660 0.004110 
#    z 0.015460 0.004110 1.945530 
# 
# From -- ./inp_files/343857.got.cif
#   From: 2010.05.17/outbox.cif.g08.bks.cpg/sg2_172_cif.got.tgz:343857.got - 2010.06.03 11:33:40.
