data_PCOD9089351
_publ_section_title
;
Structure prediction by ZEFSAII (Michael W. Deem and Ramdas Pophale) SiO2 
 PCOD9089351
Probable space group: P -1
;
_chemical_formula_sum "Si O2"
_cell_formula_units_Z 14
_cell_length_a 9.631160
_cell_length_b 9.153915
_cell_length_c 11.004688
_cell_angle_alpha 45.414090
_cell_angle_beta 77.695349
_cell_angle_gamma 69.394120
_cell_volume 645.932909
_symmetry_space_group_name_H-M "P -1"
_symmetry_group_IT_number 2
_symmetry_cell_setting 'triclinic'
loop_
_space_group_symop_operation_xyz
x,y,z
-x,-y,-z
loop_
_atom_site_type_symbol
_atom_site_label
_atom_site_fract_x
_atom_site_fract_y
_atom_site_fract_z
Si Si1 0.300804 0.747093 0.932448
Si Si2 0.619011 0.605198 0.077058
Si Si3 0.103467 0.278662 0.056913
Si Si4 0.341276 0.496037 0.586132
Si Si5 0.849144 0.750812 0.381887
Si Si6 0.046261 0.885253 0.431372
Si Si7 0.964143 0.255425 0.861938
O O1 0.320405 0.621874 0.873480
O O2 0.232197 0.999064 0.778932
O O3 0.455687 0.702989 0.998421
O O4 0.193367 0.661283 0.091840
O O5 0.625361 0.588666 0.231432
O O6 0.727162 0.742751 0.933643
O O7 0.050438 0.077933 0.226195
O O8 0.000000 0.500000 0.000000
O O9 0.083277 0.302644 0.902365
O O10 0.500000 0.500000 0.500000
O O11 0.265898 0.367458 0.579495
O O12 0.210458 0.720005 0.494661
O O13 0.919645 0.770149 0.488995
O O14 0.001258 0.676459 0.316534
O O15 0.000000 0.000000 0.500000
O O16 0.000000 0.000000 0.000000
#
# Coordination Sequence:
#
# PCOD9089351 Si02
#       7
#     2   2   2   2   2   2   2
#     4  10  22  41  69 101 131 175 230 289 329 400
#     4  11  24  43  68  99 139 177 228 278 343 402
#     4  12  21  41  72 100 128 172 237 281 330 398
#     4  12  29  46  65 103 148 182 223 284 352 410
#     4  11  23  45  70  95 135 180 234 279 340 402
#     4  12  27  47  71 101 141 184 228 278 346 421
#     4  10  19  37  68  96 123 162 228 286 317 382
#
# _framework density 21.674078000000002
#
# number of rings (size 3 to 8) (size 9 to 14) (size 15 to 20)
#    0.000    0.857    5.714    2.143    4.000    0.571 
#    5.143    1.429    0.000    0.000    0.000    0.000 
#    0.000    0.000    0.000    0.000    0.000    0.000 
#
# Total GULP energy -78161.487465 kJ/mol
# GULP energy per Si atom -5582.963390 kJ/mol
# Density = 2.162475 g / cm^3
# Si number density = 21.674078 Si / 1000 Ang^3
#
#
#
# Elastic Constant Matrix: (Units=GPa)
#
#
# Indices 1 2 3 4 5 6 
#
# 1 190.8450 66.1439 23.2074 8.2219 -9.6985 6.9391
# 2 66.1439 130.6150 26.4076 8.4936 1.1112 14.3921
# 3 23.2074 26.4076 47.0872 4.3303 -0.3706 3.8342
# 4 8.2219 8.4936 4.3303 39.7049 1.1899 5.0930
# 5 -9.6985 1.1112 -0.3706 1.1899 28.0696 2.9717
# 6 6.9391 14.3921 3.8342 5.0930 2.9717 44.0650
#
#
#
# Elastic Compliance Matrix: (Units=1/GPa)
#
#
# Indices 1 2 3 4 5 6 
#
# 1 0.006621 -0.003031 -0.001486 -0.000631 0.002416 -0.000014
# 2 -0.003031 0.010332 -0.004044 -0.000801 -0.001225 -0.002370
# 3 -0.001486 -0.004044 0.024403 -0.001439 0.000073 -0.000407
# 4 -0.000631 -0.000801 -0.001439 0.025990 -0.001048 -0.002447
# 5 0.002416 -0.001225 0.000073 -0.001048 0.036803 -0.002348
# 6 -0.000014 -0.002370 -0.000407 -0.002447 -0.002348 0.023947
#
#
# Mechanical properties :
#
#
# Convention : Reuss Voigt Hill
#
# Bulk Modulus (GPa) = 41.25968 66.67388 53.96678
# Shear Modulus (GPa) = 32.61678 39.22048 35.91863
#
# Velocity S-wave (km/s) = 3.88348 4.25850 4.07531
# Velocity P-wave (km/s) = 6.25990 7.41678 6.86276
#
# Compressibility (1/GPa) = 0.02423674
#
# Stress axis : x y z
#
# Youngs Moduli (GPa) = 151.02534 96.78572 40.97820
#
# Poissons Ratio (x) = 0.29334 0.06087
# Poissons Ratio (y) = 0.45772 0.16570
# Poissons Ratio (z) = 0.22435 0.39137
#
# Static dielectric constant tensor:
#      x y z
#    x 1.765670 -0.010020 -0.020030 
#    y -0.010020 1.766740 -0.030700 
#    z -0.020030 -0.030700 1.858530 
# 
# From -- ./inp_files/180409.got.cif
#   From: 2010.05.17/outbox.cif.g08.bks.cpg/sg2_91_cif.got.tgz:180409.got - 2010.06.03 11:33:40.
