data_PCOD9089210
_publ_section_title
;
Structure prediction by ZEFSAII (Michael W. Deem and Ramdas Pophale) SiO2 
 PCOD9089210
Probable space group: P -1
;
_chemical_formula_sum "Si O2"
_cell_formula_units_Z 16
_cell_length_a 8.009398
_cell_length_b 10.221351
_cell_length_c 11.153823
_cell_angle_alpha 50.251826
_cell_angle_beta 105.739693
_cell_angle_gamma 118.097155
_cell_volume 618.730117
_symmetry_space_group_name_H-M "P -1"
_symmetry_group_IT_number 2
_symmetry_cell_setting 'triclinic'
loop_
_space_group_symop_operation_xyz
x,y,z
-x,-y,-z
loop_
_atom_site_type_symbol
_atom_site_label
_atom_site_fract_x
_atom_site_fract_y
_atom_site_fract_z
Si Si1 0.680809 0.807680 0.134414
Si Si2 0.949016 0.876974 0.364697
Si Si3 0.780409 0.295727 0.607965
Si Si4 0.476934 0.068290 0.180750
Si Si5 0.885554 0.560262 0.259614
Si Si6 0.799217 0.423635 0.065920
Si Si7 0.701836 0.755231 0.757124
Si Si8 0.606787 0.568312 0.608857
O O1 0.805869 0.892378 0.226360
O O2 0.809829 0.721312 0.137526
O O3 0.480949 0.637717 0.225947
O O4 0.638025 0.941699 0.957189
O O5 0.817832 0.712297 0.523540
O O6 0.094114 0.801895 0.373438
O O7 0.089065 0.080047 0.319748
O O8 0.794545 0.458393 0.426205
O O9 0.891671 0.368177 0.710731
O O10 0.570911 0.142379 0.671524
O O11 0.687071 0.215132 0.122172
O O12 0.401421 0.162991 0.216020
O O13 0.823541 0.430761 0.209411
O O14 0.710953 0.570170 0.924370
O O15 0.000000 0.500000 0.000000
O O16 0.590558 0.689750 0.649287
O O17 0.500000 0.500000 0.500000
#
# Coordination Sequence:
#
# PCOD9089210 Si02
#       8
#     2   2   2   2   2   2   2   2
#     4  10  19  37  66  92 122 161 209 256 306 366
#     4   9  21  35  63  95 121 158 209 261 304 365
#     4   9  22  39  65  90 124 163 204 259 305 374
#     4  11  22  42  67  93 120 162 216 256 302 379
#     4  10  21  41  61  91 126 165 205 250 318 366
#     4  12  26  40  61  89 128 165 201 263 317 368
#     4  11  21  39  65  91 121 165 209 258 303 363
#     4  10  20  36  57  89 123 157 200 255 306 357
#
# _framework density 25.859416
#
# number of rings (size 3 to 8) (size 9 to 14) (size 15 to 20)
#    0.000    1.750    2.500    1.500    3.500    2.000 
#    2.250    0.625    0.000    0.000    0.000    0.000 
#    0.000    0.000    0.000    0.000    0.000    0.000 
#
# Total GULP energy -89465.586704 kJ/mol
# GULP energy per Si atom -5591.599169 kJ/mol
# Density = 2.580056 g / cm^3
# Si number density = 25.859416 Si / 1000 Ang^3
#
#
#
# Elastic Constant Matrix: (Units=GPa)
#
#
# Indices 1 2 3 4 5 6 
#
# 1 64.1818 31.0413 7.6372 8.0167 -16.6472 7.7208
# 2 31.0413 155.9185 45.5313 -9.4560 3.1232 26.5575
# 3 7.6372 45.5313 84.4036 4.6661 1.6455 10.8495
# 4 8.0167 -9.4560 4.6661 46.8928 8.9476 -15.8400
# 5 -16.6472 3.1232 1.6455 8.9476 24.8984 -6.4796
# 6 7.7208 26.5575 10.8495 -15.8400 -6.4796 44.2158
#
#
#
# Elastic Compliance Matrix: (Units=1/GPa)
#
#
# Indices 1 2 3 4 5 6 
#
# 1 0.025310 -0.006217 0.001437 -0.010265 0.020864 -0.001658
# 2 -0.006217 0.009908 -0.004389 0.003707 -0.007362 -0.003540
# 3 0.001437 -0.004389 0.014554 -0.003590 0.001244 -0.002290
# 4 -0.010265 0.003707 -0.003590 0.030195 -0.015605 0.008977
# 5 0.020864 -0.007362 0.001244 -0.015605 0.061580 0.003907
# 6 -0.001658 -0.003540 -0.002290 0.008977 0.003907 0.029382
#
#
# Mechanical properties :
#
#
# Convention : Reuss Voigt Hill
#
# Bulk Modulus (GPa) = 31.81133 52.54704 42.17919
# Shear Modulus (GPa) = 25.03220 37.88768 31.45994
#
# Velocity S-wave (km/s) = 3.11466 3.83187 3.49173
# Velocity P-wave (km/s) = 5.02625 6.31997 5.70987
#
# Compressibility (1/GPa) = 0.03143534
#
# Stress axis : x y z
#
# Youngs Moduli (GPa) = 39.51067 100.92813 68.71049
#
# Poissons Ratio (x) = 0.62743 -0.09875
# Poissons Ratio (y) = 0.24562 0.30155
# Poissons Ratio (z) = -0.05679 0.44295
#
# Static dielectric constant tensor:
#      x y z
#    x 2.145850 0.040670 0.002610 
#    y 0.040670 1.987450 -0.016020 
#    z 0.002610 -0.016020 1.990310 
# 
# From -- ./inp_files/274714.got.cif
#   From: 2010.05.17/outbox.cif.g08.bks.cpg/sg2_138_cif.got.tgz:274714.got - 2010.06.03 11:33:40.
