data_PCOD9089158
_publ_section_title
;
Structure prediction by ZEFSAII (Michael W. Deem and Ramdas Pophale) SiO2 
 PCOD9089158
Probable space group: P -1
;
_chemical_formula_sum "Si O2"
_cell_formula_units_Z 12
_cell_length_a 11.561030
_cell_length_b 11.894596
_cell_length_c 7.673043
_cell_angle_alpha 39.103348
_cell_angle_beta 50.452994
_cell_angle_gamma 52.151511
_cell_volume 497.445567
_symmetry_space_group_name_H-M "P -1"
_symmetry_group_IT_number 2
_symmetry_cell_setting 'triclinic'
loop_
_space_group_symop_operation_xyz
x,y,z
-x,-y,-z
loop_
_atom_site_type_symbol
_atom_site_label
_atom_site_fract_x
_atom_site_fract_y
_atom_site_fract_z
Si Si1 0.807796 0.678938 0.369431
Si Si2 0.681737 0.300008 0.414363
Si Si3 0.523177 0.787342 0.737426
Si Si4 0.655497 0.429231 0.662260
Si Si5 0.176144 0.375002 0.191195
Si Si6 0.142607 0.090667 0.278044
O O1 0.630518 0.713228 0.561682
O O2 0.806628 0.504015 0.461596
O O3 0.882558 0.655253 0.519174
O O4 0.828629 0.833654 0.031772
O O5 0.690184 0.302847 0.611399
O O6 0.507062 0.418744 0.400242
O O7 0.722673 0.086773 0.574746
O O8 0.808972 0.413682 0.094185
O O9 0.638625 0.721379 0.868203
O O10 0.500000 0.000000 0.500000
O O11 0.379682 0.698430 0.994719
O O12 0.116809 0.261375 0.233772
O O13 0.000000 0.000000 0.500000
#
# Coordination Sequence:
#
# PCOD9089158 Si02
#       6
#     2   2   2   2   2   2
#     4  10  22  39  62  93 128 154 209 252 308 376
#     4  10  22  40  65  94 128 160 202 254 312 377
#     4   9  19  33  59  98 127 155 195 250 313 381
#     4  10  19  37  65  97 129 159 192 252 326 374
#     4   9  23  41  59  92 123 158 214 248 306 367
#     4  12  26  44  64  86 123 173 216 257 298 354
#
# _framework density 24.123245000000001
#
# number of rings (size 3 to 8) (size 9 to 14) (size 15 to 20)
#    1.000    1.000    1.667    1.500    2.333    2.000 
#    0.000    0.833    0.000    0.000    0.000    0.000 
#    0.000    0.000    0.000    0.000    0.000    0.000 
#
# Total GULP energy -66823.334685 kJ/mol
# GULP energy per Si atom -5568.611224 kJ/mol
# Density = 2.406834 g / cm^3
# Si number density = 24.123245 Si / 1000 Ang^3
#
#
#
# Elastic Constant Matrix: (Units=GPa)
#
#
# Indices 1 2 3 4 5 6 
#
# 1 73.3888 23.2204 37.3667 -20.2148 1.3209 23.5624
# 2 23.2204 38.1414 11.6790 -56.6297 42.8618 44.8294
# 3 37.3667 11.6790 180.0619 -13.7373 24.8503 24.2915
# 4 -20.2148 -56.6297 -13.7373 -36.5402 55.4436 42.4015
# 5 1.3209 42.8618 24.8503 55.4436 -8.0407 -30.6799
# 6 23.5624 44.8294 24.2915 42.4015 -30.6799 21.9132
#
#
#
# Elastic Compliance Matrix: (Units=1/GPa)
#
#
# Indices 1 2 3 4 5 6 
#
# 1 0.020042 -0.006291 -0.003682 0.004497 0.006329 -0.004440
# 2 -0.006291 0.012540 -0.000877 -0.007500 0.003843 0.001976
# 3 -0.003682 -0.000877 0.006495 -0.002440 -0.002289 0.000069
# 4 0.004497 -0.007500 -0.002440 0.013095 0.014157 0.007694
# 5 0.006329 0.003843 -0.002289 0.014157 0.021838 -0.008947
# 6 -0.004440 0.001976 0.000069 0.007694 -0.008947 0.018875
#
#
# Mechanical properties :
#
#
# Convention : Reuss Voigt Hill
#
# Bulk Modulus (GPa) = 57.54917 48.45827 53.00372
# Shear Modulus (GPa) = 41.53617 10.08819 25.81218
#
# Velocity S-wave (km/s) = 4.15400 2.04720 3.27465
# Velocity P-wave (km/s) = 6.84950 5.07143 6.02641
#
# Compressibility (1/GPa) = 0.01737645
#
# Stress axis : x y z
#
# Youngs Moduli (GPa) = 49.89612 79.74711 153.95756
#
# Poissons Ratio (x) = 0.50165 0.56694
# Poissons Ratio (y) = 0.31387 0.13503
# Poissons Ratio (z) = 0.18374 0.06994
#
# Static dielectric constant tensor:
#      x y z
#    x 1.982870 -0.096000 0.038740 
#    y -0.096000 1.891600 0.014580 
#    z 0.038740 0.014580 1.926030 
# 
# From -- ./inp_files/195023.got.cif
#   From: 2010.05.17/outbox.cif.g08.bks.cpg/sg2_98_cif.got.tgz:195023.got - 2010.06.03 11:33:40.
