data_PCOD9089916
_publ_section_title
;
Structure prediction by ZEFSAII (Michael W. Deem and Ramdas Pophale) SiO2 
 PCOD9089916
Probable space group: P -1
;
_chemical_formula_sum "Si O2"
_cell_formula_units_Z 16
_cell_length_a 8.410825
_cell_length_b 17.426637
_cell_length_c 7.462465
_cell_angle_alpha 46.429163
_cell_angle_beta 94.496686
_cell_angle_gamma 75.428404
_cell_volume 715.826257
_symmetry_space_group_name_H-M "P -1"
_symmetry_group_IT_number 2
_symmetry_cell_setting 'triclinic'
loop_
_space_group_symop_operation_xyz
x,y,z
-x,-y,-z
loop_
_atom_site_type_symbol
_atom_site_label
_atom_site_fract_x
_atom_site_fract_y
_atom_site_fract_z
Si Si1 0.219457 0.858150 0.824595
Si Si2 0.575970 0.564832 0.762241
Si Si3 0.436550 0.137858 0.224466
Si Si4 0.144260 0.652803 0.980190
Si Si5 0.198322 0.736100 0.460695
Si Si6 0.834264 0.810140 0.193316
Si Si7 0.104783 0.980723 0.241884
Si Si8 0.237649 0.291283 0.280690
O O1 0.419929 0.831779 0.915933
O O2 0.167792 0.752281 0.939997
O O3 0.189584 0.933198 0.518486
O O4 0.092732 0.937665 0.839225
O O5 0.396246 0.672789 0.507724
O O6 0.701046 0.610859 0.806314
O O7 0.500000 0.500000 0.000000
O O8 0.700448 0.475809 0.766958
O O9 0.385046 0.204619 0.300819
O O10 0.500000 0.000000 0.500000
O O11 0.268981 0.190975 0.992295
O O12 0.185330 0.678453 0.739877
O O13 0.946707 0.663268 0.919570
O O14 0.137630 0.869032 0.306207
O O15 0.044637 0.731562 0.331077
O O16 0.775618 0.774979 0.431978
O O17 0.812206 0.943096 0.973139
#
# Coordination Sequence:
#
# PCOD9089916 Si02
#       8
#     2   2   2   2   2   2   2   2
#     4  10  21  38  64  95 130 178 227 261 331 402
#     4  10  20  40  70  96 128 174 228 277 328 401
#     4  12  25  41  62  96 140 180 219 270 329 400
#     4   9  19  38  67  92 126 174 220 276 329 382
#     4   9  20  36  58  94 125 174 223 261 330 394
#     4  11  24  40  63  98 140 176 215 279 332 398
#     4  10  19  38  62  90 134 175 215 270 330 399
#     4  11  24  42  67 102 135 171 225 271 342 400
#
# _framework density 22.351792
#
# number of rings (size 3 to 8) (size 9 to 14) (size 15 to 20)
#    0.000    1.750    1.250    3.750    5.250    1.500 
#    0.000    0.000    0.000   33.000    0.000    0.000 
#    0.000    0.000    0.000    0.000    0.000    0.000 
#
# Total GULP energy -89251.087970 kJ/mol
# GULP energy per Si atom -5578.192998 kJ/mol
# Density = 2.230092 g / cm^3
# Si number density = 22.351792 Si / 1000 Ang^3
#
#
#
# Elastic Constant Matrix: (Units=GPa)
#
#
# Indices 1 2 3 4 5 6 
#
# 1 130.6831 28.8024 48.5922 -23.7849 4.5473 12.9363
# 2 28.8024 21.5882 69.3370 -25.6485 8.1599 -11.4880
# 3 48.5922 69.3370 55.6626 0.3377 7.2202 -2.1740
# 4 -23.7849 -25.6485 0.3377 42.6515 -3.7106 3.4488
# 5 4.5473 8.1599 7.2202 -3.7106 38.1111 2.1437
# 6 12.9363 -11.4880 -2.1740 3.4488 2.1437 26.0389
#
#
#
# Elastic Compliance Matrix: (Units=1/GPa)
#
#
# Indices 1 2 3 4 5 6 
#
# 1 0.011815 -0.006073 -0.003327 0.003852 0.001428 -0.009454
# 2 -0.006073 -0.008984 0.016818 -0.009202 -0.001535 0.001803
# 3 -0.003327 0.016818 0.000604 0.007306 -0.003080 0.008409
# 4 0.003852 -0.009202 0.007306 0.020906 0.002632 -0.008349
# 5 0.001428 -0.001535 -0.003080 0.002632 0.027477 -0.004254
# 6 -0.009454 0.001803 0.008409 -0.008349 -0.004254 0.046055
#
#
# Mechanical properties :
#
#
# Convention : Reuss Voigt Hill
#
# Bulk Modulus (GPa) = 54.73233 55.71077 55.22155
# Shear Modulus (GPa) = 56.09981 25.44045 40.77013
#
# Velocity S-wave (km/s) = 5.01528 3.37736 4.27549
# Velocity P-wave (km/s) = 7.62085 6.33935 7.00945
#
# Compressibility (1/GPa) = 0.01827074
#
# Stress axis : x y z
#
# Youngs Moduli (GPa) = 84.63957 -111.31325 1656.31846
#
# Poissons Ratio (x) = -0.67603 5.51006
# Poissons Ratio (y) = 0.51403 -27.85567
# Poissons Ratio (z) = 0.28157 1.87205
#
# Static dielectric constant tensor:
#      x y z
#    x 1.895000 0.025890 0.054660 
#    y 0.025890 1.804620 -0.032170 
#    z 0.054660 -0.032170 1.964360 
# 
# From -- ./inp_files/216764.got.cif
#   From: 2010.05.17/outbox.cif.g08.bks.cpg/sg2_109_cif.got.tgz:216764.got - 2010.06.03 11:33:40.
