data_PCOD9089443
_publ_section_title
;
Structure prediction by ZEFSAII (Michael W. Deem and Ramdas Pophale) SiO2 
 PCOD9089443
Probable space group: P -1
;
_chemical_formula_sum "Si O2"
_cell_formula_units_Z 14
_cell_length_a 12.938724
_cell_length_b 11.787169
_cell_length_c 7.531221
_cell_angle_alpha 59.568829
_cell_angle_beta 101.382965
_cell_angle_gamma 145.250880
_cell_volume 505.458574
_symmetry_space_group_name_H-M "P -1"
_symmetry_group_IT_number 2
_symmetry_cell_setting 'triclinic'
loop_
_space_group_symop_operation_xyz
x,y,z
-x,-y,-z
loop_
_atom_site_type_symbol
_atom_site_label
_atom_site_fract_x
_atom_site_fract_y
_atom_site_fract_z
Si Si1 0.066406 0.858583 0.859001
Si Si2 0.737875 0.675159 0.994777
Si Si3 0.190261 0.386888 0.400187
Si Si4 0.910530 0.260951 0.616866
Si Si5 0.526615 0.211208 0.069843
Si Si6 0.837472 0.359678 0.207348
Si Si7 0.376944 0.314772 0.397836
O O1 0.954741 0.756763 0.709198
O O2 0.294435 0.114494 0.661155
O O3 0.969785 0.876887 0.921318
O O4 0.961108 0.622085 0.109425
O O5 0.614731 0.423850 0.053868
O O6 0.610375 0.563267 0.217962
O O7 0.723763 0.776020 0.762549
O O8 0.296409 0.358896 0.437384
O O9 0.071954 0.320589 0.578351
O O10 0.367571 0.676056 0.175380
O O11 0.812754 0.204171 0.438553
O O12 0.000000 0.500000 0.500000
O O13 0.709407 0.015575 0.851523
O O14 0.619064 0.179050 0.215589
O O15 0.000000 0.500000 0.000000
#
# Coordination Sequence:
#
# PCOD9089443 Si02
#       7
#     2   2   2   2   2   2   2
#     4   9  16  28  51  74 105 136 170 221 265 305
#     4   8  15  25  45  81 105 127 173 217 268 316
#     4   9  18  32  48  78 108 138 176 219 268 319
#     4  12  23  36  55  80 109 147 183 217 268 321
#     4   9  19  34  57  77 109 141 175 226 270 307
#     4  10  19  38  55  79 111 141 182 221 264 319
#     4   9  15  26  47  76 108 133 166 222 269 306
#
# _framework density 27.697620000000001
#
# number of rings (size 3 to 8) (size 9 to 14) (size 15 to 20)
#    0.000    3.143    2.857    3.000    0.000    2.857 
#    0.000    0.000    0.000    0.857    0.000    8.000 
#    0.000    0.000    0.000    0.000    0.000    0.000 
#
# Total GULP energy -78086.057714 kJ/mol
# GULP energy per Si atom -5577.575551 kJ/mol
# Density = 2.763458 g / cm^3
# Si number density = 27.697620 Si / 1000 Ang^3
#
#
#
# Elastic Constant Matrix: (Units=GPa)
#
#
# Indices 1 2 3 4 5 6 
#
# 1 126.8704 17.4981 42.2366 -4.8854 -47.5664 0.5880
# 2 17.4981 64.8189 15.7661 -11.7735 -23.8756 -2.9913
# 3 42.2366 15.7661 187.2115 -20.9761 -33.2745 10.2427
# 4 -4.8854 -11.7735 -20.9761 37.0382 13.7241 -8.5263
# 5 -47.5664 -23.8756 -33.2745 13.7241 61.9778 0.2750
# 6 0.5880 -2.9913 10.2427 -8.5263 0.2750 24.9558
#
#
#
# Elastic Compliance Matrix: (Units=1/GPa)
#
#
# Indices 1 2 3 4 5 6 
#
# 1 0.011476 -0.000107 -0.001296 -0.002634 0.008657 -0.000747
# 2 -0.000107 0.018704 -0.000188 0.004466 0.006017 0.003781
# 3 -0.001296 -0.000188 0.006330 0.002247 0.001842 -0.001842
# 4 -0.002634 0.004466 0.002247 0.034517 -0.006789 0.011543
# 5 0.008657 0.006017 0.001842 -0.006789 0.027602 -0.002862
# 6 -0.000747 0.003781 -0.001842 0.011543 -0.002862 0.045273
#
#
# Mechanical properties :
#
#
# Convention : Reuss Voigt Hill
#
# Bulk Modulus (GPa) = 30.00438 58.87804 44.44121
# Shear Modulus (GPa) = 31.60719 45.02104 38.31411
#
# Velocity S-wave (km/s) = 3.38176 4.03606 3.72331
# Velocity P-wave (km/s) = 5.10928 6.55921 5.87912
#
# Compressibility (1/GPa) = 0.03332847
#
# Stress axis : x y z
#
# Youngs Moduli (GPa) = 87.13869 53.46436 157.98549
#
# Poissons Ratio (x) = 0.00571 0.20469
# Poissons Ratio (y) = 0.00931 0.02973
# Poissons Ratio (z) = 0.11290 0.01006
#
# Static dielectric constant tensor:
#      x y z
#    x 2.298900 -0.125470 0.052410 
#    y -0.125470 2.577960 0.056490 
#    z 0.052410 0.056490 2.268070 
# 
# From -- ./inp_files/312753.got.cif
#   From: 2010.05.17/outbox.cif.g08.bks.cpg/sg2_157_cif.got.tgz:312753.got - 2010.06.03 11:33:40.
