data_PCOD9089192
_publ_section_title
;
Structure prediction by ZEFSAII (Michael W. Deem and Ramdas Pophale) SiO2 
 PCOD9089192
Probable space group: P -1
;
_chemical_formula_sum "Si O2"
_cell_formula_units_Z 16
_cell_length_a 9.696542
_cell_length_b 15.823406
_cell_length_c 8.229473
_cell_angle_alpha 56.972487
_cell_angle_beta 44.569447
_cell_angle_gamma 61.973096
_cell_volume 735.740114
_symmetry_space_group_name_H-M "P -1"
_symmetry_group_IT_number 2
_symmetry_cell_setting 'triclinic'
loop_
_space_group_symop_operation_xyz
x,y,z
-x,-y,-z
loop_
_atom_site_type_symbol
_atom_site_label
_atom_site_fract_x
_atom_site_fract_y
_atom_site_fract_z
Si Si1 0.977586 0.864593 0.508309
Si Si2 0.480638 0.177115 0.439941
Si Si3 0.668454 0.046835 0.712216
Si Si4 0.853967 0.257453 0.012224
Si Si5 0.099478 0.512692 0.674459
Si Si6 0.921718 0.342054 0.193774
Si Si7 0.894903 0.900996 0.189477
Si Si8 0.163044 0.378918 0.469939
O O1 0.801981 0.955734 0.598567
O O2 0.977111 0.840051 0.344418
O O3 0.180188 0.905094 0.347939
O O4 0.960830 0.762191 0.727378
O O5 0.571039 0.133594 0.580095
O O6 0.340371 0.092445 0.601275
O O7 0.328802 0.281706 0.446732
O O8 0.670237 0.205992 0.153326
O O9 0.500000 0.000000 0.000000
O O10 0.968311 0.837979 0.032271
O O11 0.798854 0.307630 0.180507
O O12 0.956290 0.340202 0.741115
O O13 0.184033 0.594340 0.633376
O O14 0.210070 0.461715 0.476613
O O15 0.892134 0.570355 0.711219
O O16 0.060062 0.417845 0.918570
O O17 0.000000 0.000000 0.000000
#
# Coordination Sequence:
#
# PCOD9089192 Si02
#       8
#     2   2   2   2   2   2   2   2
#     4  11  24  42  63  94 128 170 211 260 318 384
#     4  11  22  40  64  95 127 168 212 267 316 382
#     4  11  25  39  65  93 129 167 210 257 325 384
#     4  10  21  38  63  87 126 169 206 263 321 372
#     4   9  19  38  64  96 123 174 213 261 325 385
#     4  10  19  37  66  89 128 168 216 259 319 380
#     4  11  24  39  64  90 127 170 217 262 317 378
#     4   9  20  39  67  91 129 168 213 262 326 378
#
# _framework density 21.74681
#
# number of rings (size 3 to 8) (size 9 to 14) (size 15 to 20)
#    0.000    1.750    1.250    3.000    7.000    3.000 
#    0.000    6.250    0.000    0.000    0.000    0.000 
#    0.000    0.000    0.000    0.000    0.000    0.000 
#
# Total GULP energy -89151.290581 kJ/mol
# GULP energy per Si atom -5571.955661 kJ/mol
# Density = 2.169731 g / cm^3
# Si number density = 21.746810 Si / 1000 Ang^3
#
#
#
# Elastic Constant Matrix: (Units=GPa)
#
#
# Indices 1 2 3 4 5 6 
#
# 1 88.2707 30.1545 40.9940 4.9791 -5.3291 6.8750
# 2 30.1545 91.3796 32.2055 -13.1539 -0.6382 1.8876
# 3 40.9940 32.2055 80.7196 -7.3362 -1.3908 -11.7528
# 4 4.9791 -13.1539 -7.3362 26.8483 -5.2021 5.3218
# 5 -5.3291 -0.6382 -1.3908 -5.2021 31.2692 -4.2092
# 6 6.8750 1.8876 -11.7528 5.3218 -4.2092 46.9402
#
#
#
# Elastic Compliance Matrix: (Units=1/GPa)
#
#
# Indices 1 2 3 4 5 6 
#
# 1 0.017118 -0.003517 -0.008379 -0.006279 0.000935 -0.003668
# 2 -0.003517 0.014434 -0.003562 0.007190 0.000500 -0.001727
# 3 -0.008379 -0.003562 0.019297 0.004088 0.000820 0.005812
# 4 -0.006279 0.007190 0.004088 0.044845 0.006334 -0.002862
# 5 0.000935 0.000500 0.000820 0.006334 0.033555 0.002339
# 6 -0.003668 -0.001727 0.005812 -0.002862 0.002339 0.023900
#
#
# Mechanical properties :
#
#
# Convention : Reuss Voigt Hill
#
# Bulk Modulus (GPa) = 50.16951 51.89752 51.03352
# Shear Modulus (GPa) = 26.21819 31.47929 28.84874
#
# Velocity S-wave (km/s) = 3.47596 3.80878 3.64617
# Velocity P-wave (km/s) = 6.26335 6.57713 6.42216
#
# Compressibility (1/GPa) = 0.01993242
#
# Stress axis : x y z
#
# Youngs Moduli (GPa) = 58.41878 69.28322 51.82236
#
# Poissons Ratio (x) = 0.24369 0.43420
# Poissons Ratio (y) = 0.20548 0.18458
# Poissons Ratio (z) = 0.48947 0.24677
#
# Static dielectric constant tensor:
#      x y z
#    x 1.832760 0.050730 0.025620 
#    y 0.050730 1.852190 0.002760 
#    z 0.025620 0.002760 1.830390 
# 
# From -- ./inp_files/216584.got.cif
#   From: 2010.05.17/outbox.cif.g08.bks.cpg/sg2_109_cif.got.tgz:216584.got - 2010.06.03 11:33:40.
