data_PCOD9089710
_publ_section_title
;
Structure prediction by ZEFSAII (Michael W. Deem and Ramdas Pophale) SiO2 
 PCOD9089710
Probable space group: P -1
;
_chemical_formula_sum "Si O2"
_cell_formula_units_Z 16
_cell_length_a 14.851611
_cell_length_b 8.459756
_cell_length_c 15.362421
_cell_angle_alpha 109.139932
_cell_angle_beta 150.016305
_cell_angle_gamma 59.790332
_cell_volume 807.137242
_symmetry_space_group_name_H-M "P -1"
_symmetry_group_IT_number 2
_symmetry_cell_setting 'triclinic'
loop_
_space_group_symop_operation_xyz
x,y,z
-x,-y,-z
loop_
_atom_site_type_symbol
_atom_site_label
_atom_site_fract_x
_atom_site_fract_y
_atom_site_fract_z
Si Si1 0.940323 0.355713 0.873820
Si Si2 0.240540 0.256610 0.829190
Si Si3 0.691619 0.070908 0.919204
Si Si4 0.248337 0.292173 0.565941
Si Si5 0.923094 0.575173 0.737641
Si Si6 0.083188 0.686000 0.579292
Si Si7 0.138495 0.782748 0.054785
Si Si8 0.659523 0.147901 0.096702
O O1 0.858380 0.459271 0.731614
O O2 0.795911 0.322780 0.816370
O O3 0.000000 0.500000 0.000000
O O4 0.137291 0.148061 0.987984
O O5 0.121055 0.419437 0.826635
O O6 0.086875 0.253597 0.626993
O O7 0.317736 0.060065 0.908202
O O8 0.423406 0.280071 0.943229
O O9 0.458064 0.108298 0.730633
O O10 0.702887 0.205684 0.877170
O O11 0.723719 0.149640 0.051882
O O12 0.226549 0.321969 0.449251
O O13 0.240692 0.474337 0.642399
O O14 0.044393 0.297513 0.436633
O O15 0.996020 0.708032 0.873991
O O16 0.200945 0.806440 0.713706
O O17 0.000000 0.000000 0.000000
#
# Coordination Sequence:
#
# PCOD9089710 Si02
#       8
#     2   2   2   2   2   2   2   2
#     4   9  19  39  62  82 111 153 201 255 305 354
#     4  10  21  36  55  92 121 159 211 236 292 370
#     4  11  20  37  60  91 115 154 205 244 293 371
#     4  10  22  36  55  89 124 158 202 242 296 364
#     4  10  19  38  61  81 121 160 186 255 309 344
#     4  10  21  38  53  84 135 165 193 249 287 351
#     4   9  20  36  61  87 109 146 207 250 300 360
#     4  11  21  34  61  87 123 164 201 243 297 356
#
# _framework density 19.823146999999999
#
# number of rings (size 3 to 8) (size 9 to 14) (size 15 to 20)
#    0.000    2.000    2.500    1.125    1.750    0.500 
#    0.000    6.250    2.750    0.000    0.000    0.000 
#    0.000    0.000    0.000    0.000    0.000    0.000 
#
# Total GULP energy -89129.380200 kJ/mol
# GULP energy per Si atom -5570.586263 kJ/mol
# Density = 1.977803 g / cm^3
# Si number density = 19.823147 Si / 1000 Ang^3
#
#
#
# Elastic Constant Matrix: (Units=GPa)
#
#
# Indices 1 2 3 4 5 6 
#
# 1 109.3323 21.2169 25.2202 8.8221 -19.9994 -0.1956
# 2 21.2169 49.9771 18.4409 15.8238 0.5471 3.2587
# 3 25.2202 18.4409 57.5267 4.7162 -8.7671 -3.5640
# 4 8.8221 15.8238 4.7162 20.6643 5.5484 -3.4277
# 5 -19.9994 0.5471 -8.7671 5.5484 28.3556 -1.9296
# 6 -0.1956 3.2587 -3.5640 -3.4277 -1.9296 12.8972
#
#
#
# Elastic Compliance Matrix: (Units=1/GPa)
#
#
# Indices 1 2 3 4 5 6 
#
# 1 0.012337 -0.002793 -0.002754 -0.004852 0.008865 0.000169
# 2 -0.002793 0.033556 -0.008845 -0.024997 -0.001676 -0.017859
# 3 -0.002754 -0.008845 0.022609 0.003029 0.005309 0.010040
# 4 -0.004852 -0.024997 0.003029 0.077246 -0.015396 0.025305
# 5 0.008865 -0.001676 0.005309 -0.015396 0.046538 0.004896
# 6 0.000169 -0.017859 0.010040 0.025305 0.004896 0.092283
#
#
# Mechanical properties :
#
#
# Convention : Reuss Voigt Hill
#
# Bulk Modulus (GPa) = 25.17770 38.51023 31.84397
# Shear Modulus (GPa) = 15.30959 22.51396 18.91178
#
# Velocity S-wave (km/s) = 2.78206 3.37373 3.09208
# Velocity P-wave (km/s) = 4.80089 5.88601 5.37093
#
# Compressibility (1/GPa) = 0.03971768
#
# Stress axis : x y z
#
# Youngs Moduli (GPa) = 81.05614 29.80099 44.23054
#
# Poissons Ratio (x) = 0.08324 0.12182
# Poissons Ratio (y) = 0.22640 0.39121
# Poissons Ratio (z) = 0.22324 0.26359
#
# Static dielectric constant tensor:
#      x y z
#    x 1.779640 0.031730 -0.016860 
#    y 0.031730 1.702120 -0.028070 
#    z -0.016860 -0.028070 1.682110 
# 
# From -- ./inp_files/203288.got.cif
#   From: 2010.05.17/outbox.cif.g08.bks.cpg/sg2_102_cif.got.tgz:203288.got - 2010.06.03 11:33:40.
