data_PCOD9089151
_publ_section_title
;
Structure prediction by ZEFSAII (Michael W. Deem and Ramdas Pophale) SiO2 
 PCOD9089151
Probable space group: P -1
;
_chemical_formula_sum "Si O2"
_cell_formula_units_Z 16
_cell_length_a 7.268235
_cell_length_b 10.555781
_cell_length_c 15.983687
_cell_angle_alpha 146.303074
_cell_angle_beta 63.735238
_cell_angle_gamma 116.954484
_cell_volume 601.115919
_symmetry_space_group_name_H-M "P -1"
_symmetry_group_IT_number 2
_symmetry_cell_setting 'triclinic'
loop_
_space_group_symop_operation_xyz
x,y,z
-x,-y,-z
loop_
_atom_site_type_symbol
_atom_site_label
_atom_site_fract_x
_atom_site_fract_y
_atom_site_fract_z
Si Si1 0.425426 0.787558 0.503272
Si Si2 0.844383 0.927397 0.184602
Si Si3 0.805181 0.398080 0.903008
Si Si4 0.870064 0.818307 0.862388
Si Si5 0.116183 0.076542 0.427751
Si Si6 0.335205 0.348043 0.387928
Si Si7 0.763390 0.335284 0.691416
Si Si8 0.515077 0.888392 0.076575
O O1 0.654325 0.863256 0.539935
O O2 0.317799 0.537929 0.425312
O O3 0.418028 0.751892 0.385579
O O4 0.277242 0.967750 0.659677
O O5 0.677051 0.913190 0.134779
O O6 0.895410 0.668827 0.043610
O O7 0.040984 0.102452 0.202692
O O8 0.691622 0.384745 0.826593
O O9 0.664803 0.310587 0.962595
O O10 0.929305 0.185970 0.743688
O O11 0.894893 0.570225 0.756572
O O12 0.630758 0.829729 0.937996
O O13 0.000000 0.000000 0.000000
O O14 0.150368 0.238871 0.426739
O O15 0.928075 0.159868 0.560122
O O16 0.500000 0.500000 0.500000
O O17 0.439116 0.132035 0.218991
#
# Coordination Sequence:
#
# PCOD9089151 Si02
#       8
#     2   2   2   2   2   2   2   2
#     4  11  24  40  68 105 134 178 219 288 345 394
#     4  11  20  38  67 100 132 180 230 272 340 407
#     4  11  22  41  69  97 133 188 228 265 339 420
#     4  10  22  36  66  99 129 174 227 280 331 399
#     4  10  23  41  65  96 138 182 220 279 339 400
#     4   9  17  34  62  88 128 171 219 261 336 396
#     4  12  25  41  68 104 138 171 232 279 336 410
#     4  10  19  37  65  96 127 181 226 270 334 403
#
# _framework density 26.617163999999999
#
# number of rings (size 3 to 8) (size 9 to 14) (size 15 to 20)
#    0.000    1.500    6.250    1.500    5.250    2.500 
#    0.000    1.250    0.000    3.000    0.000    0.875 
#    0.000    0.000    0.000    0.000    0.000    0.000 
#
# Total GULP energy -89562.575485 kJ/mol
# GULP energy per Si atom -5597.660968 kJ/mol
# Density = 2.655658 g / cm^3
# Si number density = 26.617164 Si / 1000 Ang^3
#
#
#
# Elastic Constant Matrix: (Units=GPa)
#
#
# Indices 1 2 3 4 5 6 
#
# 1 115.6458 30.5092 39.0926 1.7659 7.6439 -9.3641
# 2 30.5092 178.9175 81.1654 16.7292 -2.5658 20.1198
# 3 39.0926 81.1654 137.3567 24.6039 -22.3669 -1.5268
# 4 1.7659 16.7292 24.6039 73.5613 -14.6346 -2.1892
# 5 7.6439 -2.5658 -22.3669 -14.6346 49.0843 -14.1630
# 6 -9.3641 20.1198 -1.5268 -2.1892 -14.1630 26.8760
#
#
#
# Elastic Compliance Matrix: (Units=1/GPa)
#
#
# Indices 1 2 3 4 5 6 
#
# 1 0.010178 -0.000968 -0.002682 0.000625 -0.001732 0.003257
# 2 -0.000968 0.010085 -0.006516 -0.001659 -0.006141 -0.011628
# 3 -0.002682 -0.006516 0.013579 -0.001010 0.008609 0.009169
# 4 0.000625 -0.001659 -0.001010 0.015581 0.005628 0.005637
# 5 -0.001732 -0.006141 0.008609 0.005628 0.032253 0.021938
# 6 0.003257 -0.011628 0.009169 0.005637 0.021938 0.059589
#
#
# Mechanical properties :
#
#
# Convention : Reuss Voigt Hill
#
# Bulk Modulus (GPa) = 74.02679 81.49492 77.76086
# Shear Modulus (GPa) = 30.10233 48.64785 39.37509
#
# Velocity S-wave (km/s) = 3.36659 4.27978 3.85036
# Velocity P-wave (km/s) = 6.55621 7.42334 7.00321
#
# Compressibility (1/GPa) = 0.01350862
#
# Stress axis : x y z
#
# Youngs Moduli (GPa) = 98.25195 99.15913 73.64503
#
# Poissons Ratio (x) = 0.09602 0.19754
# Poissons Ratio (y) = 0.09514 0.47985
# Poissons Ratio (z) = 0.26354 0.64610
#
# Static dielectric constant tensor:
#      x y z
#    x 2.168280 -0.062470 0.034880 
#    y -0.062470 2.452720 -0.043230 
#    z 0.034880 -0.043230 2.056000 
# 
# From -- ./inp_files/559375.got.cif
#   From: 2010.05.17/outbox.cif.g08.bks.cpg/sg2_280_cif.got.tgz:559375.got - 2010.06.03 11:33:40.
