data_PCOD9089176
_publ_section_title
;
Structure prediction by ZEFSAII (Michael W. Deem and Ramdas Pophale) SiO2 
 PCOD9089176
Probable space group: P -1
;
_chemical_formula_sum "Si O2"
_cell_formula_units_Z 16
_cell_length_a 10.765420
_cell_length_b 14.351305
_cell_length_c 5.687775
_cell_angle_alpha 120.662758
_cell_angle_beta 90.689542
_cell_angle_gamma 74.043318
_cell_volume 717.981525
_symmetry_space_group_name_H-M "P -1"
_symmetry_group_IT_number 2
_symmetry_cell_setting 'triclinic'
loop_
_space_group_symop_operation_xyz
x,y,z
-x,-y,-z
loop_
_atom_site_type_symbol
_atom_site_label
_atom_site_fract_x
_atom_site_fract_y
_atom_site_fract_z
Si Si1 0.922611 0.414651 0.714468
Si Si2 0.249884 0.335439 0.924951
Si Si3 0.707563 0.172605 0.456300
Si Si4 0.728151 0.333580 0.304383
Si Si5 0.942210 0.212107 0.776863
Si Si6 0.520241 0.386050 0.005455
Si Si7 0.827127 0.732293 0.658948
Si Si8 0.892518 0.950878 0.067630
O O1 0.792639 0.393305 0.574524
O O2 0.972266 0.317480 0.790394
O O3 0.042360 0.377932 0.489075
O O4 0.867933 0.545259 0.951749
O O5 0.255060 0.275995 0.589960
O O6 0.381588 0.367784 0.015504
O O7 0.230244 0.272221 0.085306
O O8 0.676941 0.238104 0.296051
O O9 0.850715 0.171962 0.546162
O O10 0.747661 0.039420 0.227351
O O11 0.607606 0.262030 0.740820
O O12 0.608348 0.407989 0.247762
O O13 0.848801 0.269378 0.062529
O O14 0.051131 0.106564 0.755320
O O15 0.500000 0.500000 0.000000
O O16 0.872713 0.844866 0.786194
O O17 0.000000 0.000000 0.000000
#
# Coordination Sequence:
#
# PCOD9089176 Si02
#       8
#     2   2   2   2   2   2   2   2
#     4  11  23  43  72 106 149 189 237 297 374 440
#     4  12  29  48  73 104 157 200 236 300 368 444
#     4  10  22  38  66 106 136 184 237 307 362 407
#     4  10  20  39  70 108 136 175 246 299 353 418
#     4  10  19  37  66 111 144 173 234 302 369 419
#     4  11  26  46  73 105 141 193 254 296 353 433
#     4  12  28  47  70 111 150 193 241 297 381 443
#     4  12  22  43  73 106 143 189 244 308 364 437
#
# _framework density 22.284696
#
# number of rings (size 3 to 8) (size 9 to 14) (size 15 to 20)
#    0.000    1.000    2.500    4.875    5.250    2.000 
#    0.000    1.250    0.000    0.000    0.000    0.000 
#    0.000    0.000    0.000    0.000    0.000    0.000 
#
# Total GULP energy -89210.316584 kJ/mol
# GULP energy per Si atom -5575.644787 kJ/mol
# Density = 2.223398 g / cm^3
# Si number density = 22.284696 Si / 1000 Ang^3
#
#
#
# Elastic Constant Matrix: (Units=GPa)
#
#
# Indices 1 2 3 4 5 6 
#
# 1 77.9480 26.8513 8.7750 -0.5316 0.9222 4.8390
# 2 26.8513 109.2574 33.0079 -12.7920 4.9758 -7.0059
# 3 8.7750 33.0079 84.4847 9.9882 -3.0773 2.6364
# 4 -0.5316 -12.7920 9.9882 47.2241 -7.9942 -1.1080
# 5 0.9222 4.9758 -3.0773 -7.9942 40.5763 2.5748
# 6 4.8390 -7.0059 2.6364 -1.1080 2.5748 37.6880
#
#
#
# Elastic Compliance Matrix: (Units=1/GPa)
#
#
# Indices 1 2 3 4 5 6 
#
# 1 0.014290 -0.003868 0.000229 -0.000973 0.000141 -0.002608
# 2 -0.003868 0.012416 -0.005103 0.004276 -0.001193 0.003369
# 3 0.000229 -0.005103 0.014421 -0.004311 0.001003 -0.002182
# 4 -0.000973 0.004276 -0.004311 0.023913 0.003776 0.001666
# 5 0.000141 -0.001193 0.001003 0.003776 0.025732 -0.001957
# 6 -0.002608 0.003369 -0.002182 0.001666 -0.001957 0.027830
#
#
# Mechanical properties :
#
#
# Convention : Reuss Voigt Hill
#
# Bulk Modulus (GPa) = 42.30018 45.43981 43.86999
# Shear Modulus (GPa) = 34.72982 38.63474 36.68228
#
# Velocity S-wave (km/s) = 3.95202 4.16828 4.06159
# Velocity P-wave (km/s) = 6.31249 6.60310 6.45943
#
# Compressibility (1/GPa) = 0.02364056
#
# Stress axis : x y z
#
# Youngs Moduli (GPa) = 69.98133 80.53992 69.34383
#
# Poissons Ratio (x) = 0.31157 -0.01586
# Poissons Ratio (y) = 0.27072 0.35388
# Poissons Ratio (z) = -0.01601 0.41102
#
# Static dielectric constant tensor:
#      x y z
#    x 1.862760 0.006280 -0.016090 
#    y 0.006280 1.854650 0.008170 
#    z -0.016090 0.008170 1.943660 
# 
# From -- ./inp_files/78603.got.cif
#   From: 2010.05.17/outbox.cif.g08.bks.cpg/sg2_40_cif.got.tgz:78603.got - 2010.06.03 11:33:40.
