data_PCOD9089548
_publ_section_title
;
Structure prediction by ZEFSAII (Michael W. Deem and Ramdas Pophale) SiO2 
 PCOD9089548
Probable space group: P -1
;
_chemical_formula_sum "Si O2"
_cell_formula_units_Z 16
_cell_length_a 24.701268
_cell_length_b 8.153544
_cell_length_c 11.150786
_cell_angle_alpha 108.072394
_cell_angle_beta 157.717235
_cell_angle_gamma 70.097186
_cell_volume 800.623237
_symmetry_space_group_name_H-M "P -1"
_symmetry_group_IT_number 2
_symmetry_cell_setting 'triclinic'
loop_
_space_group_symop_operation_xyz
x,y,z
-x,-y,-z
loop_
_atom_site_type_symbol
_atom_site_label
_atom_site_fract_x
_atom_site_fract_y
_atom_site_fract_z
Si Si1 0.718839 0.337197 0.157376
Si Si2 0.904769 0.646411 0.258937
Si Si3 0.916370 0.980245 0.509647
Si Si4 0.857346 0.778538 0.939375
Si Si5 0.537537 0.770402 0.257932
Si Si6 0.740380 0.624198 0.449432
Si Si7 0.671427 0.884629 0.147667
Si Si8 0.636419 0.588060 0.835270
O O1 0.809226 0.148999 0.283517
O O2 0.771833 0.443738 0.402197
O O3 0.555838 0.310994 0.852398
O O4 0.724145 0.453591 0.078080
O O5 0.000000 0.500000 0.500000
O O6 0.935997 0.831079 0.416578
O O7 0.920400 0.653797 0.149761
O O8 0.740262 0.624297 0.948625
O O9 0.828179 0.908796 0.421799
O O10 0.060513 0.054947 0.858173
O O11 0.685181 0.832182 0.622078
O O12 0.862138 0.678086 0.799678
O O13 0.604722 0.632985 0.263867
O O14 0.430282 0.929813 0.015038
O O15 0.695077 0.776642 0.293839
O O16 0.602196 0.766113 0.881446
O O17 0.500000 0.500000 0.500000
#
# Coordination Sequence:
#
# PCOD9089548 Si02
#       8
#     2   2   2   2   2   2   2   2
#     4  10  19  38  59  80 113 149 179 229 279 327
#     4  11  23  41  57  78 113 147 184 230 282 328
#     4  10  22  38  58  79 108 149 185 224 280 326
#     4  10  22  36  57  85 110 145 189 226 270 329
#     4   9  19  34  57  85 111 142 184 221 275 324
#     4   9  20  35  60  83 114 143 187 222 277 325
#     4   9  19  37  57  81 116 147 178 227 277 324
#     4  10  21  35  57  85 109 145 188 228 272 323
#
# _framework density 19.984431000000001
#
# number of rings (size 3 to 8) (size 9 to 14) (size 15 to 20)
#    0.750    1.500    0.000    2.625    0.000    3.000 
#    0.000    6.250    0.000    0.000    0.000    0.000 
#    0.000    0.000    0.000    0.000    0.000    0.000 
#
# Total GULP energy -89212.982318 kJ/mol
# GULP energy per Si atom -5575.811395 kJ/mol
# Density = 1.993895 g / cm^3
# Si number density = 19.984431 Si / 1000 Ang^3
#
#
#
# Elastic Constant Matrix: (Units=GPa)
#
#
# Indices 1 2 3 4 5 6 
#
# 1 56.0702 12.8169 33.1274 9.7238 6.1547 0.1122
# 2 12.8169 85.4290 20.9882 13.5702 -10.9510 -5.0912
# 3 33.1274 20.9882 115.2628 35.1747 2.5029 -2.3784
# 4 9.7238 13.5702 35.1747 37.3489 9.9397 2.4676
# 5 6.1547 -10.9510 2.5029 9.9397 24.6728 6.6053
# 6 0.1122 -5.0912 -2.3784 2.4676 6.6053 20.1350
#
#
#
# Elastic Compliance Matrix: (Units=1/GPa)
#
#
# Indices 1 2 3 4 5 6 
#
# 1 0.022969 -0.003397 -0.007031 0.004048 -0.008261 0.000397
# 2 -0.003397 0.014687 0.000442 -0.007627 0.010009 0.001436
# 3 -0.007031 0.000442 0.014747 -0.013811 0.005545 0.001766
# 4 0.004048 -0.007627 -0.013811 0.047361 -0.021444 -0.002352
# 5 -0.008261 0.010009 0.005545 -0.021444 0.058697 -0.013396
# 6 0.000397 0.001436 0.001766 -0.002352 -0.013396 0.054917
#
#
# Mechanical properties :
#
#
# Convention : Reuss Voigt Hill
#
# Bulk Modulus (GPa) = 30.83526 43.40300 37.11913
# Shear Modulus (GPa) = 20.47841 29.08664 24.78253
#
# Velocity S-wave (km/s) = 3.20459 3.81919 3.52531
# Velocity P-wave (km/s) = 5.39960 6.41980 5.93168
#
# Compressibility (1/GPa) = 0.03243041
#
# Stress axis : x y z
#
# Youngs Moduli (GPa) = 43.53644 68.08780 67.81167
#
# Poissons Ratio (x) = 0.23131 0.47677
# Poissons Ratio (y) = 0.14790 -0.02995
# Poissons Ratio (z) = 0.30609 -0.03007
#
# Static dielectric constant tensor:
#      x y z
#    x 1.711620 -0.017190 0.018700 
#    y -0.017190 1.680120 -0.002410 
#    z 0.018700 -0.002410 1.736480 
# 
# From -- ./inp_files/476391.got.cif
#   From: 2010.05.17/outbox.cif.g08.bks.cpg/sg2_239_cif.got.tgz:476391.got - 2010.06.03 11:33:40.
