data_PCOD9089147
_publ_section_title
;
Structure prediction by ZEFSAII (Michael W. Deem and Ramdas Pophale) SiO2 
 PCOD9089147
Probable space group: P -1
;
_chemical_formula_sum "Si O2"
_cell_formula_units_Z 16
_cell_length_a 5.392023
_cell_length_b 11.670213
_cell_length_c 23.794842
_cell_angle_alpha 28.001914
_cell_angle_beta 112.640170
_cell_angle_gamma 107.462968
_cell_volume 646.078129
_symmetry_space_group_name_H-M "P -1"
_symmetry_group_IT_number 2
_symmetry_cell_setting 'triclinic'
loop_
_space_group_symop_operation_xyz
x,y,z
-x,-y,-z
loop_
_atom_site_type_symbol
_atom_site_label
_atom_site_fract_x
_atom_site_fract_y
_atom_site_fract_z
Si Si1 0.977429 0.387165 0.353974
Si Si2 0.533422 0.421659 0.673799
Si Si3 0.832932 0.399934 0.948025
Si Si4 0.551802 0.476603 0.784850
Si Si5 0.731925 0.356679 0.544739
Si Si6 0.695386 0.286483 0.186528
Si Si7 0.167131 0.004893 0.782519
Si Si8 0.148130 0.076364 0.401271
O O1 0.765903 0.521438 0.234630
O O2 0.153356 0.574420 0.319018
O O3 0.149224 0.194184 0.413095
O O4 0.833711 0.211658 0.459534
O O5 0.572072 0.407892 0.750665
O O6 0.404020 0.649522 0.525499
O O7 0.353142 0.207972 0.733960
O O8 0.723328 0.316472 0.914126
O O9 0.586491 0.587577 0.869495
O O10 0.108824 0.517538 0.906554
O O11 0.869346 0.190727 0.087813
O O12 0.637305 0.755248 0.680428
O O13 0.500000 0.500000 0.500000
O O14 0.000000 0.500000 0.500000
O O15 0.869579 0.108073 0.690331
O O16 0.675997 0.107960 0.209522
O O17 0.875180 0.142809 0.313169
#
# Coordination Sequence:
#
# PCOD9089147 Si02
#       8
#     2   2   2   2   2   2   2   2
#     4  10  19  37  65  95 138 177 226 286 349 415
#     4  10  25  41  66 103 139 182 230 289 354 426
#     4  11  25  47  72 103 139 187 243 294 347 414
#     4  10  21  41  66  98 145 173 235 296 344 418
#     4  10  25  46  68  98 141 183 230 280 340 424
#     4  11  24  45  71 104 140 184 242 297 342 419
#     4  11  26  47  71 101 142 191 232 289 358 420
#     4   9  20  36  63  99 131 182 228 284 355 399
#
# _framework density 24.764806
#
# number of rings (size 3 to 8) (size 9 to 14) (size 15 to 20)
#    0.000    1.750    1.250    1.125    5.250    6.500 
#    0.000    0.625    0.000    0.000    0.000    0.000 
#    0.000    0.000    0.000    0.000    0.000    0.000 
#
# Total GULP energy -89308.805577 kJ/mol
# GULP energy per Si atom -5581.800349 kJ/mol
# Density = 2.470844 g / cm^3
# Si number density = 24.764806 Si / 1000 Ang^3
#
#
#
# Elastic Constant Matrix: (Units=GPa)
#
#
# Indices 1 2 3 4 5 6 
#
# 1 105.9984 34.7352 19.6678 5.0676 -10.8679 -4.7171
# 2 34.7352 117.8433 40.9640 30.6888 -10.8399 -13.1861
# 3 19.6678 40.9640 114.2212 35.2303 0.9759 -5.8093
# 4 5.0676 30.6888 35.2303 28.4221 1.8391 -12.4724
# 5 -10.8679 -10.8399 0.9759 1.8391 20.5161 5.5481
# 6 -4.7171 -13.1861 -5.8093 -12.4724 5.5481 35.1993
#
#
#
# Elastic Compliance Matrix: (Units=1/GPa)
#
#
# Indices 1 2 3 4 5 6 
#
# 1 0.011075 -0.003202 -0.002014 0.004103 0.003679 0.000826
# 2 -0.003202 0.014088 0.000473 -0.016711 0.007825 -0.002228
# 3 -0.002014 0.000473 0.015332 -0.021718 0.001904 -0.005558
# 4 0.004103 -0.016711 -0.021718 0.092566 -0.021179 0.026843
# 5 0.003679 0.007825 0.001904 -0.021179 0.060219 -0.013258
# 6 0.000826 -0.002228 -0.005558 0.026843 -0.013258 0.038370
#
#
# Mechanical properties :
#
#
# Convention : Reuss Voigt Hill
#
# Bulk Modulus (GPa) = 32.24878 58.75520 45.50199
# Shear Modulus (GPa) = 19.88302 33.00725 26.44513
#
# Velocity S-wave (km/s) = 2.83658 3.65475 3.27134
# Velocity P-wave (km/s) = 4.87632 6.44875 5.71686
#
# Compressibility (1/GPa) = 0.03100893
#
# Stress axis : x y z
#
# Youngs Moduli (GPa) = 90.29439 70.98482 65.22356
#
# Poissons Ratio (x) = 0.22730 0.13134
# Poissons Ratio (y) = 0.28914 -0.03086
# Poissons Ratio (z) = 0.18182 -0.03358
#
# Static dielectric constant tensor:
#      x y z
#    x 0.363650 -0.644370 1.687300 
#    y -0.644370 1.764390 0.584670 
#    z 1.687300 0.584670 0.331470 
# 
# From -- ./inp_files/604433.got.cif
#   From: 2010.05.17/outbox.cif.g08.bks.cpg/sg2_303_cif.got.tgz:604433.got - 2010.06.03 11:33:40.
