data_PCOD9089033
_publ_section_title
;
Structure prediction by ZEFSAII (Michael W. Deem and Ramdas Pophale) SiO2 
 PCOD9089033
Probable space group: P -1
;
_chemical_formula_sum "Si O2"
_cell_formula_units_Z 15
_cell_length_a 8.185682
_cell_length_b 18.632390
_cell_length_c 12.574911
_cell_angle_alpha 27.570377
_cell_angle_beta 127.856195
_cell_angle_gamma 138.083346
_cell_volume 586.433762
_symmetry_space_group_name_H-M "P -1"
_symmetry_group_IT_number 2
_symmetry_cell_setting 'triclinic'
loop_
_space_group_symop_operation_xyz
x,y,z
-x,-y,-z
loop_
_atom_site_type_symbol
_atom_site_label
_atom_site_fract_x
_atom_site_fract_y
_atom_site_fract_z
Si Si1 0.513290 0.621180 0.443135
Si Si2 0.986384 0.748862 0.000197
Si Si3 0.146608 0.431959 0.019979
Si Si4 0.000000 0.500000 0.500000
Si Si5 0.451205 0.043327 0.042486
Si Si6 0.637903 0.390173 0.928576
Si Si7 0.370700 0.970287 0.328363
Si Si8 0.129355 0.938336 0.482893
O O1 0.500000 0.500000 0.500000
O O2 0.246996 0.578076 0.424857
O O3 0.661501 0.834315 0.186517
O O4 0.605007 0.550579 0.665968
O O5 0.814824 0.580304 0.072228
O O6 0.933987 0.909017 0.760886
O O7 0.961724 0.660742 0.220544
O O8 0.268976 0.842668 0.949760
O O9 0.354019 0.596755 0.957715
O O10 0.074143 0.236685 0.299837
O O11 0.901870 0.435211 0.935547
O O12 0.309158 0.902847 0.269175
O O13 0.500000 0.000000 0.000000
O O14 0.443182 0.183981 0.080202
O O15 0.169402 0.874695 0.466811
O O16 0.613968 0.983130 0.453568
#
# Coordination Sequence:
#
# PCOD9089033 Si02
#       8
#     2   2   2   1   2   2   2   2
#     4  11  21  41  68  89 128 182 215 270 331 397
#     4  11  21  41  61  89 128 163 211 272 329 384
#     4  10  21  37  63 100 127 164 217 280 327 401
#     4  10  24  40  64  98 128 174 228 268 318 406
#     4  11  24  39  61  91 128 170 219 265 326 399
#     4  10  19  37  64  95 124 170 224 260 336 389
#     4  10  20  41  58  93 128 163 218 269 317 405
#     4  10  21  36  67  89 127 169 206 269 339 385
#
# _framework density 25.578337000000001
#
# number of rings (size 3 to 8) (size 9 to 14) (size 15 to 20)
#    0.000    1.600    4.000    2.000    1.867    0.000 
#    0.000   16.667    0.000    0.000    0.000    0.000 
#    0.000    0.000    0.000    0.000    0.000    0.000 
#
# Total GULP energy -83623.377058 kJ/mol
# GULP energy per Si atom -5574.891804 kJ/mol
# Density = 2.552012 g / cm^3
# Si number density = 25.578337 Si / 1000 Ang^3
#
#
#
# Elastic Constant Matrix: (Units=GPa)
#
#
# Indices 1 2 3 4 5 6 
#
# 1 50.1486 11.6718 28.1585 7.0783 -0.0311 -8.6318
# 2 11.6718 83.7163 6.1463 12.4601 0.4406 -25.8647
# 3 28.1585 6.1463 172.9764 -2.4604 23.3993 -0.8514
# 4 7.0783 12.4601 -2.4604 25.3317 -5.0926 -4.1187
# 5 -0.0311 0.4406 23.3993 -5.0926 44.8810 0.8573
# 6 -8.6318 -25.8647 -0.8514 -4.1187 0.8573 24.6592
#
#
#
# Elastic Compliance Matrix: (Units=1/GPa)
#
#
# Indices 1 2 3 4 5 6 
#
# 1 0.024384 0.000057 -0.004208 -0.005756 0.001415 0.007439
# 2 0.000057 0.018668 -0.000539 -0.006434 -0.000986 0.018542
# 3 -0.004208 -0.000539 0.006964 0.001180 -0.003466 -0.001481
# 4 -0.005756 -0.006434 0.001180 0.045065 0.004583 -0.001356
# 5 0.001415 -0.000986 -0.003466 0.004583 0.024633 -0.000750
# 6 0.007439 0.018542 -0.001481 -0.001356 -0.000750 0.062354
#
#
# Mechanical properties :
#
#
# Convention : Reuss Voigt Hill
#
# Bulk Modulus (GPa) = 24.60934 44.31051 34.45993
# Shear Modulus (GPa) = 24.39089 36.36535 30.37812
#
# Velocity S-wave (km/s) = 3.09135 3.77467 3.44997
# Velocity P-wave (km/s) = 4.73117 6.02980 5.41953
#
# Compressibility (1/GPa) = 0.04063498
#
# Stress axis : x y z
#
# Youngs Moduli (GPa) = 41.01009 53.56699 143.60156
#
# Poissons Ratio (x) = -0.00306 0.60430
# Poissons Ratio (y) = -0.00234 0.07747
# Poissons Ratio (z) = 0.17258 0.02890
#
# Static dielectric constant tensor:
#      x y z
#    x 2.028340 0.034500 -0.075630 
#    y 0.034500 2.186730 0.027740 
#    z -0.075630 0.027740 2.085390 
# 
# From -- ./inp_files/401725.got.cif
#   From: 2010.05.17/outbox.cif.g08.bks.cpg/sg2_201_cif.got.tgz:401725.got - 2010.06.03 11:33:40.
