data_PCOD9089115
_publ_section_title
;
Structure prediction by ZEFSAII (Michael W. Deem and Ramdas Pophale) SiO2 
 PCOD9089115
Probable space group: P -1
;
_chemical_formula_sum "Si O2"
_cell_formula_units_Z 15
_cell_length_a 14.621484
_cell_length_b 7.247688
_cell_length_c 8.484693
_cell_angle_alpha 65.100076
_cell_angle_beta 84.298327
_cell_angle_gamma 124.141795
_cell_volume 603.772890
_symmetry_space_group_name_H-M "P -1"
_symmetry_group_IT_number 2
_symmetry_cell_setting 'triclinic'
loop_
_space_group_symop_operation_xyz
x,y,z
-x,-y,-z
loop_
_atom_site_type_symbol
_atom_site_label
_atom_site_fract_x
_atom_site_fract_y
_atom_site_fract_z
Si Si1 0.644077 0.922723 0.794368
Si Si2 0.637043 0.116063 0.421642
Si Si3 0.000000 0.000000 0.000000
Si Si4 0.048447 0.024893 0.661940
Si Si5 0.213689 0.545754 0.012728
Si Si6 0.784269 0.997118 0.025808
Si Si7 0.584115 0.400115 0.848019
Si Si8 0.322586 0.275875 0.567016
O O1 0.591735 0.647079 0.813659
O O2 0.682690 0.144128 0.580817
O O3 0.751840 0.988592 0.855586
O O4 0.542574 0.861022 0.956464
O O5 0.500000 0.000000 0.500000
O O6 0.636688 0.890041 0.426973
O O7 0.721071 0.369377 0.197931
O O8 0.932554 0.796732 0.257828
O O9 0.097360 0.962358 0.992404
O O10 0.925280 0.742512 0.867815
O O11 0.178629 0.096367 0.601031
O O12 0.000000 0.000000 0.500000
O O13 0.202207 0.761076 0.988611
O O14 0.300554 0.551226 0.116139
O O15 0.678040 0.726166 0.242963
O O16 0.598145 0.441899 0.643206
#
# Coordination Sequence:
#
# PCOD9089115 Si02
#       8
#     2   2   1   2   2   2   2   2
#     4  10  21  38  63  91 128 171 213 262 321 393
#     4  10  20  38  59  90 128 165 208 262 317 384
#     4  10  24  44  66  94 132 168 224 268 320 390
#     4  11  22  43  72  91 129 171 214 275 329 386
#     4  11  22  40  67  95 128 170 214 266 333 383
#     4  10  23  41  61  94 132 166 217 273 317 388
#     4  10  19  37  65  92 121 175 217 252 329 391
#     4   9  21  38  62  89 126 164 211 264 326 381
#
# _framework density 24.843775999999998
#
# number of rings (size 3 to 8) (size 9 to 14) (size 15 to 20)
#    0.000    1.867    2.667    0.800    1.867    5.867 
#    2.400    2.000    0.000    0.000    0.000    0.000 
#    0.000    0.000    0.000    0.000    0.000    0.000 
#
# Total GULP energy -83591.535575 kJ/mol
# GULP energy per Si atom -5572.769038 kJ/mol
# Density = 2.478723 g / cm^3
# Si number density = 24.843776 Si / 1000 Ang^3
#
#
#
# Elastic Constant Matrix: (Units=GPa)
#
#
# Indices 1 2 3 4 5 6 
#
# 1 149.7648 16.3004 62.5541 16.3345 -11.7097 14.1840
# 2 16.3004 36.4986 15.6202 -4.7720 -7.3363 -0.0184
# 3 62.5541 15.6202 179.9417 -2.1386 6.4845 7.8395
# 4 16.3345 -4.7720 -2.1386 22.6656 5.0392 -5.6360
# 5 -11.7097 -7.3363 6.4845 5.0392 41.2152 13.6212
# 6 14.1840 -0.0184 7.8395 -5.6360 13.6212 45.9363
#
#
#
# Elastic Compliance Matrix: (Units=1/GPa)
#
#
# Indices 1 2 3 4 5 6 
#
# 1 0.010995 -0.003618 -0.003618 -0.012030 0.006570 -0.006203
# 2 -0.003618 0.031476 -0.001554 0.008737 0.003255 0.001502
# 3 -0.003618 -0.001554 0.007058 0.004047 -0.003375 0.001409
# 4 -0.012030 0.008737 0.004047 0.062128 -0.015095 0.015126
# 5 0.006570 0.003255 -0.003375 -0.015095 0.033456 -0.013224
# 6 -0.006203 0.001502 0.001409 0.015126 -0.013224 0.029222
#
#
# Mechanical properties :
#
#
# Convention : Reuss Voigt Hill
#
# Bulk Modulus (GPa) = 31.29728 61.68381 46.49055
# Shear Modulus (GPa) = 24.68354 40.07880 32.38117
#
# Velocity S-wave (km/s) = 3.15548 4.02086 3.61417
# Velocity P-wave (km/s) = 5.08931 6.81462 6.01416
#
# Compressibility (1/GPa) = 0.03195166
#
# Stress axis : x y z
#
# Youngs Moduli (GPa) = 90.94790 31.76999 141.67845
#
# Poissons Ratio (x) = 0.11493 0.51257
# Poissons Ratio (y) = 0.32902 0.22011
# Poissons Ratio (z) = 0.32903 0.04936
#
# Static dielectric constant tensor:
#      x y z
#    x 1.900940 0.018660 0.018350 
#    y 0.018660 1.689860 0.002050 
#    z 0.018350 0.002050 2.118130 
# 
# From -- ./inp_files/213231.got.cif
#   From: 2010.05.17/outbox.cif.g08.bks.cpg/sg2_107_cif.got.tgz:213231.got - 2010.06.03 11:33:40.
