data_PCOD9089717
_publ_section_title
;
Structure prediction by ZEFSAII (Michael W. Deem and Ramdas Pophale) SiO2 
 PCOD9089717
Probable space group: P -1
;
_chemical_formula_sum "Si O2"
_cell_formula_units_Z 14
_cell_length_a 9.499992
_cell_length_b 22.144863
_cell_length_c 26.501157
_cell_angle_alpha 164.263014
_cell_angle_beta 154.604516
_cell_angle_gamma 24.354303
_cell_volume 605.803557
_symmetry_space_group_name_H-M "P -1"
_symmetry_group_IT_number 2
_symmetry_cell_setting 'triclinic'
loop_
_space_group_symop_operation_xyz
x,y,z
-x,-y,-z
loop_
_atom_site_type_symbol
_atom_site_label
_atom_site_fract_x
_atom_site_fract_y
_atom_site_fract_z
Si Si1 0.625564 0.051655 0.998085
Si Si2 0.189576 0.272027 0.344083
Si Si3 0.953459 0.768934 0.965243
Si Si4 0.806441 0.851934 0.595743
Si Si5 0.807569 0.730237 0.322693
Si Si6 0.266734 0.795959 0.612753
Si Si7 0.689195 0.199927 0.531688
O O1 0.845995 0.807198 0.902734
O O2 0.359389 0.016507 0.842720
O O3 0.391991 0.201553 0.089355
O O4 0.902531 0.153897 0.146645
O O5 0.377518 0.338710 0.411072
O O6 0.501714 0.113930 0.355610
O O7 0.000000 0.500000 0.500000
O O8 0.230234 0.510984 0.862417
O O9 0.066661 0.988216 0.195534
O O10 0.526021 0.059775 0.638195
O O11 0.606260 0.709650 0.447900
O O12 0.116982 0.710267 0.544656
O O13 0.971859 0.831575 0.503432
O O14 0.102713 0.655883 0.313722
O O15 0.000000 0.000000 0.500000
#
# Coordination Sequence:
#
# PCOD9089717 Si02
#       7
#     2   2   2   2   2   2   2
#     4  10  20  36  57  84 122 152 186 239 302 339
#     4  11  21  39  62  87 115 152 201 243 290 356
#     4  10  20  35  59  87 116 151 196 239 285 345
#     4  10  19  38  61  83 116 156 195 241 290 341
#     4  10  20  36  59  88 114 156 200 234 282 349
#     4  10  22  36  58  84 119 153 190 242 296 342
#     4   9  19  36  59  83 113 151 192 232 289 344
#
# _framework density 23.1098
#
# number of rings (size 3 to 8) (size 9 to 14) (size 15 to 20)
#    0.000    2.000    1.429    3.000    0.000    0.571 
#    2.571    0.000    0.000    0.857    0.000    0.000 
#    0.000    0.000    0.000    0.000    0.000    0.000 
#
# Total GULP energy -78038.611786 kJ/mol
# GULP energy per Si atom -5574.186556 kJ/mol
# Density = 2.305720 g / cm^3
# Si number density = 23.109800 Si / 1000 Ang^3
#
#
#
# Elastic Constant Matrix: (Units=GPa)
#
#
# Indices 1 2 3 4 5 6 
#
# 1 168.6486 30.4501 21.9444 8.4822 8.7422 -21.2432
# 2 30.4501 77.6496 23.5998 -7.9444 2.7865 16.1576
# 3 21.9444 23.5998 65.7923 -12.6378 -8.7446 6.4208
# 4 8.4822 -7.9444 -12.6378 30.3006 6.0122 3.9840
# 5 8.7422 2.7865 -8.7446 6.0122 23.7668 -3.5754
# 6 -21.2432 16.1576 6.4208 3.9840 -3.5754 41.0512
#
#
#
# Elastic Compliance Matrix: (Units=1/GPa)
#
#
# Indices 1 2 3 4 5 6 
#
# 1 0.008305 -0.004237 -0.003128 -0.005382 -0.001315 0.006863
# 2 -0.004237 0.018647 -0.003659 0.006915 -0.005241 -0.010087
# 3 -0.003128 -0.003659 0.020213 0.007498 0.006594 -0.003494
# 4 -0.005382 0.006915 0.007498 0.042679 -0.008610 -0.011571
# 5 -0.001315 -0.005241 0.006594 -0.008610 0.048593 0.005419
# 6 0.006863 -0.010087 -0.003494 -0.011571 0.005419 0.034023
#
#
# Mechanical properties :
#
#
# Convention : Reuss Voigt Hill
#
# Bulk Modulus (GPa) = 39.81705 51.56435 45.69070
# Shear Modulus (GPa) = 24.64499 34.76345 29.70422
#
# Velocity S-wave (km/s) = 3.26917 3.88270 3.58907
# Velocity P-wave (km/s) = 5.61399 6.51627 6.08188
#
# Compressibility (1/GPa) = 0.02511487
#
# Stress axis : x y z
#
# Youngs Moduli (GPa) = 120.41092 53.62884 49.47327
#
# Poissons Ratio (x) = 0.22724 0.15477
# Poissons Ratio (y) = 0.51022 0.18103
# Poissons Ratio (z) = 0.37670 0.19623
#
# Static dielectric constant tensor:
#      x y z
#    x 1.914450 -0.004390 0.001670 
#    y -0.004390 1.924510 -0.002980 
#    z 0.001670 -0.002980 1.859550 
# 
# From -- ./inp_files/182839.got.cif
#   From: 2010.05.17/outbox.cif.g08.bks.cpg/sg2_92_cif.got.tgz:182839.got - 2010.06.03 11:33:40.
