data_PCOD9089470
_publ_section_title
;
Structure prediction by ZEFSAII (Michael W. Deem and Ramdas Pophale) SiO2 
 PCOD9089470
Probable space group: P -1
;
_chemical_formula_sum "Si O2"
_cell_formula_units_Z 16
_cell_length_a 14.766782
_cell_length_b 15.317667
_cell_length_c 6.498875
_cell_angle_alpha 75.825116
_cell_angle_beta 99.310276
_cell_angle_gamma 38.172007
_cell_volume 710.364550
_symmetry_space_group_name_H-M "P -1"
_symmetry_group_IT_number 2
_symmetry_cell_setting 'triclinic'
loop_
_space_group_symop_operation_xyz
x,y,z
-x,-y,-z
loop_
_atom_site_type_symbol
_atom_site_label
_atom_site_fract_x
_atom_site_fract_y
_atom_site_fract_z
Si Si1 0.766409 0.986876 0.485444
Si Si2 0.534839 0.129163 0.952332
Si Si3 0.248466 0.711904 0.190791
Si Si4 0.539522 0.609213 0.320441
Si Si5 0.908627 0.353417 0.447183
Si Si6 0.897616 0.049598 0.631150
Si Si7 0.141726 0.218955 0.984628
Si Si8 0.144446 0.406569 0.777388
O O1 0.746467 0.104955 0.486600
O O2 0.818971 0.876906 0.752815
O O3 0.598247 0.095827 0.227503
O O4 0.937082 0.840557 0.475160
O O5 0.528622 0.230830 0.773765
O O6 0.338212 0.252390 0.825109
O O7 0.685168 0.940690 0.010254
O O8 0.374319 0.683539 0.153797
O O9 0.368245 0.521810 0.378976
O O10 0.188407 0.802768 0.338280
O O11 0.058538 0.861244 0.920675
O O12 0.710855 0.476840 0.307277
O O13 0.901364 0.452579 0.257630
O O14 0.972661 0.328464 0.716737
O O15 0.000000 0.000000 0.500000
O O16 0.137772 0.328194 0.974392
O O17 0.000000 0.500000 0.500000
#
# Coordination Sequence:
#
# PCOD9089470 Si02
#       8
#     2   2   2   2   2   2   2   2
#     4  11  22  36  58  84 111 150 188 228 283 332
#     4  10  21  38  58  83 115 146 187 233 274 332
#     4  10  22  38  60  83 110 149 192 232 276 334
#     4  10  19  38  57  78 114 146 179 235 280 318
#     4   9  20  38  57  81 115 146 184 234 280 332
#     4  11  22  39  59  83 113 149 189 231 281 333
#     4  10  20  37  60  83 110 149 190 227 275 336
#     4   9  19  38  61  83 113 151 183 228 286 327
#
# _framework density 22.523645999999999
#
# number of rings (size 3 to 8) (size 9 to 14) (size 15 to 20)
#    0.000    2.000    0.000    3.375    0.000    5.000 
#    0.000   28.750    0.000    0.000    0.000    0.000 
#    0.000    0.000    0.000    0.000    0.000    0.000 
#
# Total GULP energy -89357.327899 kJ/mol
# GULP energy per Si atom -5584.832994 kJ/mol
# Density = 2.247238 g / cm^3
# Si number density = 22.523646 Si / 1000 Ang^3
#
#
#
# Elastic Constant Matrix: (Units=GPa)
#
#
# Indices 1 2 3 4 5 6 
#
# 1 118.6975 10.3156 40.7293 2.0538 -7.0531 0.6719
# 2 10.3156 34.5265 24.7096 -8.9030 8.5684 1.5756
# 3 40.7293 24.7096 76.8135 -2.2620 -7.7310 5.5124
# 4 2.0538 -8.9030 -2.2620 26.1912 -1.1928 -3.1952
# 5 -7.0531 8.5684 -7.7310 -1.1928 37.8348 -20.0315
# 6 0.6719 1.5756 5.5124 -3.1952 -20.0315 36.9077
#
#
#
# Elastic Compliance Matrix: (Units=1/GPa)
#
#
# Indices 1 2 3 4 5 6 
#
# 1 0.010412 0.000200 -0.005566 -0.001003 0.001426 0.001320
# 2 0.000200 0.049530 -0.016914 0.013454 -0.018774 -0.008616
# 3 -0.005566 -0.016914 0.022021 -0.002837 0.008093 0.001681
# 4 -0.001003 0.013454 -0.002837 0.042937 -0.000789 0.003157
# 5 0.001426 -0.018774 0.008093 -0.000789 0.045340 0.024106
# 6 0.001320 -0.008616 0.001681 0.003157 0.024106 0.040544
#
#
# Mechanical properties :
#
#
# Convention : Reuss Voigt Hill
#
# Bulk Modulus (GPa) = 26.73594 42.39407 34.56500
# Shear Modulus (GPa) = 18.66991 30.47229 24.57110
#
# Velocity S-wave (km/s) = 2.88219 3.68217 3.30646
# Velocity P-wave (km/s) = 4.79291 6.07789 5.47324
#
# Compressibility (1/GPa) = 0.03740284
#
# Stress axis : x y z
#
# Youngs Moduli (GPa) = 96.04457 20.18993 45.41143
#
# Poissons Ratio (x) = -0.00403 0.25275
# Poissons Ratio (y) = -0.01918 0.76807
# Poissons Ratio (z) = 0.53456 0.34149
#
# Static dielectric constant tensor:
#      x y z
#    x 1.842650 0.026390 -0.030760 
#    y 0.026390 1.811900 -0.013410 
#    z -0.030760 -0.013410 1.833520 
# 
# From -- ./inp_files/97981.got.cif
#   From: 2010.05.17/outbox.cif.g08.bks.cpg/sg2_49_cif.got.tgz:97981.got - 2010.06.03 11:33:40.
