data_PCOD9089682
_publ_section_title
;
Structure prediction by ZEFSAII (Michael W. Deem and Ramdas Pophale) SiO2 
 PCOD9089682
Probable space group: P -1
;
_chemical_formula_sum "Si O2"
_cell_formula_units_Z 16
_cell_length_a 9.625582
_cell_length_b 14.452455
_cell_length_c 9.170356
_cell_angle_alpha 130.401943
_cell_angle_beta 108.657817
_cell_angle_gamma 45.395667
_cell_volume 669.812288
_symmetry_space_group_name_H-M "P -1"
_symmetry_group_IT_number 2
_symmetry_cell_setting 'triclinic'
loop_
_space_group_symop_operation_xyz
x,y,z
-x,-y,-z
loop_
_atom_site_type_symbol
_atom_site_label
_atom_site_fract_x
_atom_site_fract_y
_atom_site_fract_z
Si Si1 0.536883 0.835465 0.833401
Si Si2 0.948705 0.700620 0.863702
Si Si3 0.446826 0.661737 0.080967
Si Si4 0.898240 0.428446 0.907064
Si Si5 0.181642 0.993631 0.060985
Si Si6 0.052996 0.795083 0.555139
Si Si7 0.298477 0.589736 0.715993
Si Si8 0.656310 0.215175 0.513936
O O1 0.778930 0.693451 0.784310
O O2 0.446156 0.839724 0.655972
O O3 0.500000 0.000000 0.000000
O O4 0.406514 0.841201 0.920268
O O5 0.879592 0.862075 0.922817
O O6 0.161787 0.560999 0.712855
O O7 0.002640 0.690656 0.039293
O O8 0.355309 0.782573 0.313135
O O9 0.500000 0.500000 0.000000
O O10 0.661685 0.585286 0.018245
O O11 0.306166 0.702888 0.941086
O O12 0.940073 0.318578 0.672050
O O13 0.000000 0.500000 0.000000
O O14 0.157639 0.061680 0.285099
O O15 0.000000 0.000000 0.000000
O O16 0.206289 0.674758 0.616481
O O17 0.129854 0.870990 0.572416
O O18 0.519426 0.407053 0.608064
#
# Coordination Sequence:
#
# PCOD9089682 Si02
#       8
#     2   2   2   2   2   2   2   2
#     4  10  23  39  63  92 127 167 218 263 309 372
#     4  10  22  42  62  90 138 164 205 268 326 372
#     4  10  19  38  60  89 136 158 207 259 312 399
#     4  12  25  40  59  97 140 168 202 262 330 390
#     4  10  21  44  68  92 119 165 229 270 302 368
#     4  11  22  37  67  93 126 164 219 265 311 383
#     4  10  20  36  64  98 123 161 211 260 322 386
#     4  11  19  35  68  88 126 165 208 254 333 372
#
# _framework density 23.887288999999999
#
# number of rings (size 3 to 8) (size 9 to 14) (size 15 to 20)
#    0.000    1.500    6.250    0.375    1.750    3.500 
#    0.000    1.250    8.250    0.000    0.000    0.000 
#    0.000    0.000    0.000    0.000    0.000    0.000 
#
# Total GULP energy -89366.108489 kJ/mol
# GULP energy per Si atom -5585.381781 kJ/mol
# Density = 2.383292 g / cm^3
# Si number density = 23.887289 Si / 1000 Ang^3
#
#
#
# Elastic Constant Matrix: (Units=GPa)
#
#
# Indices 1 2 3 4 5 6 
#
# 1 182.6745 31.1231 75.7215 -14.7494 -17.5250 -32.9256
# 2 31.1231 55.6075 28.4410 -26.5398 -8.4256 -3.5822
# 3 75.7215 28.4410 203.2360 -38.1746 -2.3760 -7.1005
# 4 -14.7494 -26.5398 -38.1746 31.3935 -4.3578 -4.8895
# 5 -17.5250 -8.4256 -2.3760 -4.3578 44.3080 3.9002
# 6 -32.9256 -3.5822 -7.1005 -4.8895 3.9002 37.3204
#
#
#
# Elastic Compliance Matrix: (Units=1/GPa)
#
#
# Indices 1 2 3 4 5 6 
#
# 1 0.008303 -0.002730 -0.002497 -0.000169 0.002055 0.006351
# 2 -0.002730 0.036513 0.002777 0.035032 0.008994 0.005274
# 3 -0.002497 0.002777 0.007473 0.010507 0.000907 0.000767
# 4 -0.000169 0.035032 0.010507 0.078244 0.013618 0.014040
# 5 0.002055 0.008994 0.000907 0.013618 0.026315 0.001883
# 6 0.006351 0.005274 0.000767 0.014040 0.001883 0.034693
#
#
# Mechanical properties :
#
#
# Convention : Reuss Voigt Hill
#
# Bulk Modulus (GPa) = 21.10222 79.12100 50.11161
# Shear Modulus (GPa) = 23.55864 43.01987 33.28925
#
# Velocity S-wave (km/s) = 3.14386 4.24837 3.73714
# Velocity P-wave (km/s) = 4.69379 7.56699 6.29647
#
# Compressibility (1/GPa) = 0.04738838
#
# Stress axis : x y z
#
# Youngs Moduli (GPa) = 120.44296 27.38755 133.81126
#
# Poissons Ratio (x) = 0.07477 0.33416
# Poissons Ratio (y) = 0.32881 -0.37161
# Poissons Ratio (z) = 0.30078 -0.07606
#
# Static dielectric constant tensor:
#      x y z
#    x 2.042330 0.001640 0.068240 
#    y 0.001640 2.096790 0.096440 
#    z 0.068240 0.096440 2.068510 
# 
# From -- ./inp_files/215918.got.cif
#   From: 2010.05.17/outbox.cif.g08.bks.cpg/sg2_108_cif.got.tgz:215918.got - 2010.06.03 11:33:40.
