data_PCOD9089333
_publ_section_title
;
Structure prediction by ZEFSAII (Michael W. Deem and Ramdas Pophale) SiO2 
 PCOD9089333
Probable space group: P -1
;
_chemical_formula_sum "Si O2"
_cell_formula_units_Z 15
_cell_length_a 17.126878
_cell_length_b 8.856218
_cell_length_c 11.670965
_cell_angle_alpha 69.264741
_cell_angle_beta 147.866951
_cell_angle_gamma 124.062314
_cell_volume 750.417323
_symmetry_space_group_name_H-M "P -1"
_symmetry_group_IT_number 2
_symmetry_cell_setting 'triclinic'
loop_
_space_group_symop_operation_xyz
x,y,z
-x,-y,-z
loop_
_atom_site_type_symbol
_atom_site_label
_atom_site_fract_x
_atom_site_fract_y
_atom_site_fract_z
Si Si1 0.476386 0.992975 0.108568
Si Si2 0.570221 0.530773 0.389594
Si Si3 0.129586 0.592480 0.809733
Si Si4 0.745748 0.555183 0.819505
Si Si5 0.205959 0.032057 0.475516
Si Si6 0.411731 0.316737 0.020508
Si Si7 0.000000 0.000000 0.000000
Si Si8 0.937873 0.713687 0.386962
O O1 0.452107 0.161614 0.070902
O O2 0.647273 0.010517 0.368573
O O3 0.500000 0.000000 0.000000
O O4 0.307877 0.792057 0.979843
O O5 0.675929 0.483241 0.624485
O O6 0.417661 0.523992 0.277279
O O7 0.692157 0.742880 0.435020
O O8 0.485344 0.385126 0.220680
O O9 0.125803 0.452414 0.743701
O O10 0.984998 0.636457 0.578534
O O11 0.122957 0.497701 0.948161
O O12 0.837702 0.780351 0.866432
O O13 0.106085 0.898020 0.495214
O O14 0.069498 0.982445 0.219028
O O15 0.500000 0.500000 0.000000
O O16 0.209956 0.241807 0.789404
#
# Coordination Sequence:
#
# PCOD9089333 Si02
#       8
#     2   2   2   2   2   2   1   2
#     4  12  24  42  65  92 130 175 215 263 328 388
#     4  10  21  40  65  93 128 171 212 264 320 385
#     4  11  21  39  65  95 127 170 209 262 323 386
#     4  10  19  37  68  91 131 168 216 258 318 395
#     4  11  20  39  69  95 128 169 216 260 323 395
#     4  12  26  42  63  97 134 170 219 271 319 385
#     4  10  20  32  64 100 120 168 218 262 304 384
#     4  11  23  39  68  97 133 163 215 275 321 383
#
# _framework density 19.988878
#
# number of rings (size 3 to 8) (size 9 to 14) (size 15 to 20)
#    0.000    1.067    5.333    1.600    1.867    0.533 
#    0.000    0.667    0.000    2.400    0.000    0.000 
#    0.000    0.000    0.000    0.000    0.000    0.000 
#
# Total GULP energy -83560.430416 kJ/mol
# GULP energy per Si atom -5570.695361 kJ/mol
# Density = 1.994338 g / cm^3
# Si number density = 19.988878 Si / 1000 Ang^3
#
#
#
# Elastic Constant Matrix: (Units=GPa)
#
#
# Indices 1 2 3 4 5 6 
#
# 1 58.7440 35.9247 36.5427 -6.6958 -3.5434 -14.2829
# 2 35.9247 93.8765 13.8483 -2.4507 -0.3830 4.9595
# 3 36.5427 13.8483 113.3373 -19.0725 -15.4505 -5.8562
# 4 -6.6958 -2.4507 -19.0725 35.5092 11.8057 5.5294
# 5 -3.5434 -0.3830 -15.4505 11.8057 25.6883 -4.2994
# 6 -14.2829 4.9595 -5.8562 5.5294 -4.2994 24.2357
#
#
#
# Elastic Compliance Matrix: (Units=1/GPa)
#
#
# Indices 1 2 3 4 5 6 
#
# 1 0.037183 -0.014313 -0.008940 -0.004550 0.005770 0.024744
# 2 -0.014313 0.016585 0.001848 0.002752 -0.004010 -0.012722
# 3 -0.008940 0.001848 0.012593 0.004372 0.003871 -0.002915
# 4 -0.004550 0.002752 0.004372 0.037910 -0.017719 -0.013981
# 5 0.005770 -0.004010 0.003871 -0.017719 0.053257 0.018647
# 6 0.024744 -0.012722 -0.002915 -0.013981 0.018647 0.064240
#
#
# Mechanical properties :
#
#
# Convention : Reuss Voigt Hill
#
# Bulk Modulus (GPa) = 42.46404 48.73214 45.59809
# Shear Modulus (GPa) = 18.35339 29.06280 23.70809
#
# Velocity S-wave (km/s) = 3.03344 3.81720 3.44766
# Velocity P-wave (km/s) = 5.79301 6.62273 6.22172
#
# Compressibility (1/GPa) = 0.02354934
#
# Stress axis : x y z
#
# Youngs Moduli (GPa) = 26.89395 60.29713 79.40935
#
# Poissons Ratio (x) = 0.86302 0.70995
# Poissons Ratio (y) = 0.38493 -0.14671
# Poissons Ratio (z) = 0.24044 -0.11140
#
# Static dielectric constant tensor:
#      x y z
#    x 1.747720 0.077260 -0.032240 
#    y 0.077260 1.748120 -0.050980 
#    z -0.032240 -0.050980 1.775670 
# 
# From -- ./inp_files/214106.got.cif
#   From: 2010.05.17/outbox.cif.g08.bks.cpg/sg2_108_cif.got.tgz:214106.got - 2010.06.03 11:33:40.
