data_PCOD9089402
_publ_section_title
;
Structure prediction by ZEFSAII (Michael W. Deem and Ramdas Pophale) SiO2 
 PCOD9089402
Probable space group: P -1
;
_chemical_formula_sum "Si O2"
_cell_formula_units_Z 16
_cell_length_a 6.094043
_cell_length_b 5.613720
_cell_length_c 23.818561
_cell_angle_alpha 89.141031
_cell_angle_beta 120.822601
_cell_angle_gamma 78.448265
_cell_volume 678.845841
_symmetry_space_group_name_H-M "P -1"
_symmetry_group_IT_number 2
_symmetry_cell_setting 'triclinic'
loop_
_space_group_symop_operation_xyz
x,y,z
-x,-y,-z
loop_
_atom_site_type_symbol
_atom_site_label
_atom_site_fract_x
_atom_site_fract_y
_atom_site_fract_z
Si Si1 0.065428 0.397837 0.276376
Si Si2 0.305313 0.380835 0.515517
Si Si3 0.464286 0.405019 0.658835
Si Si4 0.258462 0.116578 0.706311
Si Si5 0.944490 0.831411 0.608640
Si Si6 0.036859 0.435659 0.071043
Si Si7 0.765847 0.980275 0.070997
Si Si8 0.639191 0.202203 0.171142
O O1 0.897049 0.650233 0.280311
O O2 0.148511 0.213648 0.340876
O O3 0.884079 0.327274 0.205605
O O4 0.333349 0.450311 0.292435
O O5 0.500000 0.500000 0.500000
O O6 0.472820 0.332256 0.595031
O O7 0.000000 0.500000 0.500000
O O8 0.245064 0.169512 0.468200
O O9 0.498758 0.173679 0.704369
O O10 0.183011 0.592804 0.630424
O O11 0.072015 0.059343 0.632436
O O12 0.343975 0.909665 0.764032
O O13 0.347365 0.362280 0.124045
O O14 0.923720 0.698535 0.084765
O O15 0.905788 0.203573 0.070013
O O16 0.000000 0.500000 0.000000
O O17 0.693257 0.019279 0.126724
O O18 0.500000 0.000000 0.000000
#
# Coordination Sequence:
#
# PCOD9089402 Si02
#       8
#     2   2   2   2   2   2   2   2
#     4  10  22  42  64  94 141 189 238 307 371 462
#     4  10  19  37  70  99 137 193 254 319 398 469
#     4  10  21  40  69  93 139 187 248 309 386 452
#     4  10  24  42  63  97 143 186 245 309 377 458
#     4   9  20  40  61  94 135 183 242 306 382 452
#     4  12  28  50  83 114 158 198 249 323 390 463
#     4  12  28  49  83 117 152 201 253 314 394 465
#     4  11  28  47  72 105 152 195 255 305 389 469
#
# _framework density 23.569413999999998
#
# number of rings (size 3 to 8) (size 9 to 14) (size 15 to 20)
#    0.000    1.500    2.500    0.750    3.500    6.500 
#    0.000    0.625    0.000    0.000    0.000    0.000 
#    0.000    0.000    0.000    0.000    0.000    0.000 
#
# Total GULP energy -89262.915475 kJ/mol
# GULP energy per Si atom -5578.932217 kJ/mol
# Density = 2.351577 g / cm^3
# Si number density = 23.569414 Si / 1000 Ang^3
#
#
#
# Elastic Constant Matrix: (Units=GPa)
#
#
# Indices 1 2 3 4 5 6 
#
# 1 109.9134 49.3190 66.2230 -0.9315 3.3610 7.3329
# 2 49.3190 99.5108 58.2141 18.3506 3.8013 -4.9861
# 3 66.2230 58.2141 125.8867 30.3094 7.4632 -15.0481
# 4 -0.9315 18.3506 30.3094 38.6846 -3.1292 -2.1335
# 5 3.3610 3.8013 7.4632 -3.1292 36.9534 3.0002
# 6 7.3329 -4.9861 -15.0481 -2.1335 3.0002 48.6995
#
#
#
# Elastic Compliance Matrix: (Units=1/GPa)
#
#
# Indices 1 2 3 4 5 6 
#
# 1 0.018507 -0.005285 -0.010945 0.011383 0.002552 -0.006368
# 2 -0.005285 0.015417 -0.002874 -0.005202 -0.001073 0.001324
# 3 -0.010945 -0.002874 0.019552 -0.014189 -0.004431 0.007047
# 4 0.011383 -0.005202 -0.014189 0.039918 0.006173 -0.005262
# 5 0.002552 -0.001073 -0.004431 0.006173 0.028630 -0.003357
# 6 -0.006368 0.001324 0.007047 -0.005262 -0.003357 0.023782
#
#
# Mechanical properties :
#
#
# Convention : Reuss Voigt Hill
#
# Bulk Modulus (GPa) = 65.50433 75.86922 70.68678
# Shear Modulus (GPa) = 26.44048 35.63781 31.03915
#
# Velocity S-wave (km/s) = 3.35298 3.89271 3.63288
# Velocity P-wave (km/s) = 6.54541 7.24319 6.90312
#
# Compressibility (1/GPa) = 0.01526617
#
# Stress axis : x y z
#
# Youngs Moduli (GPa) = 54.03253 64.86384 51.14645
#
# Poissons Ratio (x) = 0.34283 0.55980
# Poissons Ratio (y) = 0.28559 0.14702
# Poissons Ratio (z) = 0.59139 0.18645
#
# Static dielectric constant tensor:
#      x y z
#    x 2.015070 0.018510 0.018520 
#    y 0.018510 1.982190 -0.006940 
#    z 0.018520 -0.006940 1.833670 
# 
# From -- ./inp_files/14497.got.cif
#   From: 2010.05.17/outbox.cif.g08.bks.cpg/sg2_8_cif.got.tgz:14497.got - 2010.06.03 11:33:40.
