data_PCOD9089556
_publ_section_title
;
Structure prediction by ZEFSAII (Michael W. Deem and Ramdas Pophale) SiO2 
 PCOD9089556
Probable space group: P -1
;
_chemical_formula_sum "Si O2"
_cell_formula_units_Z 16
_cell_length_a 15.205228
_cell_length_b 14.959714
_cell_length_c 15.719720
_cell_angle_alpha 150.701146
_cell_angle_beta 27.338399
_cell_angle_gamma 138.869904
_cell_volume 799.925693
_symmetry_space_group_name_H-M "P -1"
_symmetry_group_IT_number 2
_symmetry_cell_setting 'triclinic'
loop_
_space_group_symop_operation_xyz
x,y,z
-x,-y,-z
loop_
_atom_site_type_symbol
_atom_site_label
_atom_site_fract_x
_atom_site_fract_y
_atom_site_fract_z
Si Si1 0.827414 0.544145 0.119299
Si Si2 0.248090 0.842158 0.097245
Si Si3 0.302172 0.037604 0.949381
Si Si4 0.587316 0.864482 0.695706
Si Si5 0.472115 0.308625 0.785640
Si Si6 0.985415 0.859902 0.172225
Si Si7 0.621701 0.977386 0.495653
Si Si8 0.776664 0.569030 0.736511
O O1 0.674160 0.692573 0.421353
O O2 0.920126 0.654463 0.055975
O O3 0.762915 0.343138 0.992613
O O4 0.000000 0.500000 0.000000
O O5 0.084577 0.876003 0.192627
O O6 0.258674 0.021412 0.294589
O O7 0.444816 0.805746 0.842921
O O8 0.419365 0.966340 0.706851
O O9 0.454742 0.007133 0.869725
O O10 0.234234 0.246647 0.157741
O O11 0.132918 0.917704 0.023116
O O12 0.602664 0.153235 0.597640
O O13 0.623540 0.435931 0.720547
O O14 0.352051 0.202335 0.733527
O O15 0.321650 0.397861 0.058230
O O16 0.788894 0.985723 0.427705
O O17 0.000000 0.500000 0.500000
#
# Coordination Sequence:
#
# PCOD9089556 Si02
#       8
#     2   2   2   2   2   2   2   2
#     4  10  20  35  57  84 115 154 195 245 293 347
#     4   9  21  36  62  86 115 160 203 240 299 345
#     4  10  21  36  59  83 116 155 191 240 297 342
#     4  10  19  39  60  86 119 156 200 247 292 352
#     4   9  21  36  61  86 111 153 193 230 298 353
#     4  10  20  35  56  84 116 150 195 239 291 348
#     4  10  19  38  59  83 115 151 191 242 288 349
#     4  10  20  38  60  87 119 148 190 242 289 351
#
# _framework density 20.001857999999999
#
# number of rings (size 3 to 8) (size 9 to 14) (size 15 to 20)
#    0.000    2.250    1.250    1.125    0.000    4.000 
#    0.000    3.750   24.750    0.000    0.000    0.000 
#    0.000    0.000    0.000    0.000    0.000    0.000 
#
# Total GULP energy -89110.122466 kJ/mol
# GULP energy per Si atom -5569.382654 kJ/mol
# Density = 1.995633 g / cm^3
# Si number density = 20.001858 Si / 1000 Ang^3
#
#
#
# Elastic Constant Matrix: (Units=GPa)
#
#
# Indices 1 2 3 4 5 6 
#
# 1 54.4606 34.0709 22.3626 9.0650 -25.1767 -5.3477
# 2 34.0709 129.0041 28.2823 -8.8865 -4.9403 -16.6986
# 3 22.3626 28.2823 56.2193 -2.3440 -16.8659 7.4764
# 4 9.0650 -8.8865 -2.3440 23.9905 0.7052 1.1798
# 5 -25.1767 -4.9403 -16.8659 0.7052 27.9159 2.5578
# 6 -5.3477 -16.6986 7.4764 1.1798 2.5578 30.9556
#
#
#
# Elastic Compliance Matrix: (Units=1/GPa)
#
#
# Indices 1 2 3 4 5 6 
#
# 1 0.052701 -0.013751 -0.001611 -0.026452 0.044848 -0.000622
# 2 -0.013751 0.013912 -0.006587 0.009770 -0.014860 0.007576
# 3 -0.001611 -0.006587 0.027970 0.001036 0.015344 -0.011895
# 4 -0.026452 0.009770 0.001036 0.056062 -0.022938 0.000209
# 5 0.044848 -0.014860 0.015344 -0.022938 0.084412 -0.010075
# 6 -0.000622 0.007576 -0.011895 0.000209 -0.010075 0.039981
#
#
# Mechanical properties :
#
#
# Convention : Reuss Voigt Hill
#
# Bulk Modulus (GPa) = 19.72967 45.45727 32.59347
# Shear Modulus (GPa) = 14.88839 26.90361 20.89600
#
# Velocity S-wave (km/s) = 2.73124 3.67148 3.23569
# Velocity P-wave (km/s) = 4.45326 6.38348 5.50365
#
# Compressibility (1/GPa) = 0.05068507
#
# Stress axis : x y z
#
# Youngs Moduli (GPa) = 18.97502 71.88024 35.75211
#
# Poissons Ratio (x) = 0.98840 0.05760
# Poissons Ratio (y) = 0.26092 0.23551
# Poissons Ratio (z) = 0.03057 0.47350
#
# Static dielectric constant tensor:
#      x y z
#    x 1.742810 0.010620 0.013450 
#    y 0.010620 1.767460 -0.001610 
#    z 0.013450 -0.001610 1.724580 
# 
# From -- ./inp_files/304555.got.cif
#   From: 2010.05.17/outbox.cif.g08.bks.cpg/sg2_153_cif.got.tgz:304555.got - 2010.06.03 11:33:40.
