data_PCOD9089631
_publ_section_title
;
Structure prediction by ZEFSAII (Michael W. Deem and Ramdas Pophale) SiO2 
 PCOD9089631
Probable space group: P -1
;
_chemical_formula_sum "Si O2"
_cell_formula_units_Z 16
_cell_length_a 5.512712
_cell_length_b 16.437084
_cell_length_c 12.831697
_cell_angle_alpha 143.886084
_cell_angle_beta 70.173419
_cell_angle_gamma 95.545761
_cell_volume 610.802162
_symmetry_space_group_name_H-M "P -1"
_symmetry_group_IT_number 2
_symmetry_cell_setting 'triclinic'
loop_
_space_group_symop_operation_xyz
x,y,z
-x,-y,-z
loop_
_atom_site_type_symbol
_atom_site_label
_atom_site_fract_x
_atom_site_fract_y
_atom_site_fract_z
Si Si1 0.947270 0.353308 0.040611
Si Si2 0.618979 0.827313 0.675721
Si Si3 0.825751 0.894444 0.940010
Si Si4 0.181347 0.024379 0.596666
Si Si5 0.329265 0.727581 0.343900
Si Si6 0.899742 0.647893 0.241904
Si Si7 0.274650 0.628509 0.606990
Si Si8 0.680585 0.521437 0.747806
O O1 0.937470 0.481476 0.090762
O O2 0.626712 0.393742 0.154562
O O3 0.159917 0.385835 0.122484
O O4 0.047707 0.185842 0.823683
O O5 0.754863 0.843946 0.784007
O O6 0.791174 0.744994 0.465795
O O7 0.437378 0.725045 0.625582
O O8 0.439829 0.995645 0.851759
O O9 0.021264 0.752824 0.823552
O O10 0.000000 0.000000 0.000000
O O11 0.500000 0.000000 0.500000
O O12 0.186231 0.899986 0.552819
O O13 0.000000 0.000000 0.500000
O O14 0.645491 0.707694 0.265244
O O15 0.324653 0.612460 0.314841
O O16 0.185377 0.677055 0.215455
O O17 0.500000 0.500000 0.500000
O O18 0.160368 0.550927 0.452488
#
# Coordination Sequence:
#
# PCOD9089631 Si02
#       8
#     2   2   2   2   2   2   2   2
#     4  10  21  42  68  94 131 171 218 267 332 394
#     4  10  19  38  60  84 121 172 217 287 317 385
#     4   9  20  35  55  83 124 166 222 270 343 380
#     4  12  26  46  68 102 143 164 200 274 343 404
#     4  10  21  41  68  96 125 173 217 255 328 394
#     4  10  20  39  68  91 124 169 232 261 308 387
#     4  11  22  38  61  91 134 174 226 286 338 367
#     4  10  21  43  67  93 130 177 234 270 307 401
#
# _framework density 26.195060000000002
#
# number of rings (size 3 to 8) (size 9 to 14) (size 15 to 20)
#    0.000    1.750    2.500    3.000    1.750    0.500 
#    2.250   17.500    0.000    0.000    0.000    0.000 
#    0.000    0.000    0.000    0.000    0.000    0.000 
#
# Total GULP energy -89475.171878 kJ/mol
# GULP energy per Si atom -5592.198242 kJ/mol
# Density = 2.613544 g / cm^3
# Si number density = 26.195060 Si / 1000 Ang^3
#
#
#
# Elastic Constant Matrix: (Units=GPa)
#
#
# Indices 1 2 3 4 5 6 
#
# 1 188.9720 21.2803 80.3173 15.7227 13.8286 -7.1071
# 2 21.2803 81.1953 60.1105 22.9777 -4.0308 5.9614
# 3 80.3173 60.1105 219.7498 52.0981 -8.3883 -24.7060
# 4 15.7227 22.9777 52.0981 36.5055 -8.6952 -4.3935
# 5 13.8286 -4.0308 -8.3883 -8.6952 70.5680 8.9511
# 6 -7.1071 5.9614 -24.7060 -4.3935 8.9511 23.1220
#
#
#
# Elastic Compliance Matrix: (Units=1/GPa)
#
#
# Indices 1 2 3 4 5 6 
#
# 1 0.006434 -0.000030 -0.002518 0.000481 -0.001498 -0.000034
# 2 -0.000030 0.018530 -0.004984 -0.005642 0.001257 -0.011671
# 3 -0.002518 -0.004984 0.010104 -0.009237 -0.000988 0.009934
# 4 0.000481 -0.005642 -0.009237 0.044748 0.004174 -0.001381
# 5 -0.001498 0.001257 -0.000988 0.004174 0.015844 -0.007181
# 6 -0.000034 -0.011671 0.009934 -0.001381 -0.007181 0.059380
#
#
# Mechanical properties :
#
#
# Convention : Reuss Voigt Hill
#
# Bulk Modulus (GPa) = 49.99408 90.37036 70.18222
# Shear Modulus (GPa) = 28.28516 47.91972 38.10244
#
# Velocity S-wave (km/s) = 3.28958 4.28172 3.81801
# Velocity P-wave (km/s) = 5.79268 7.68232 6.80343
#
# Compressibility (1/GPa) = 0.02000237
#
# Stress axis : x y z
#
# Youngs Moduli (GPa) = 155.42724 53.96723 98.97495
#
# Poissons Ratio (x) = 0.00160 0.24927
# Poissons Ratio (y) = 0.00462 0.49332
# Poissons Ratio (z) = 0.39144 0.26899
#
# Static dielectric constant tensor:
#      x y z
#    x 2.044390 -0.017590 -0.040230 
#    y -0.017590 2.110000 -0.090730 
#    z -0.040230 -0.090730 2.082360 
# 
# From -- ./inp_files/485296.got.cif
#   From: 2010.05.17/outbox.cif.g08.bks.cpg/sg2_243_cif.got.tgz:485296.got - 2010.06.03 11:33:40.
