data_PCOD9089034
_publ_section_title
;
Structure prediction by ZEFSAII (Michael W. Deem and Ramdas Pophale) SiO2 
 PCOD9089034
Probable space group: P -1
;
_chemical_formula_sum "Si O2"
_cell_formula_units_Z 16
_cell_length_a 9.852744
_cell_length_b 9.532065
_cell_length_c 8.044180
_cell_angle_alpha 61.490661
_cell_angle_beta 77.945023
_cell_angle_gamma 99.993380
_cell_volume 615.547931
_symmetry_space_group_name_H-M "P -1"
_symmetry_group_IT_number 2
_symmetry_cell_setting 'triclinic'
loop_
_space_group_symop_operation_xyz
x,y,z
-x,-y,-z
loop_
_atom_site_type_symbol
_atom_site_label
_atom_site_fract_x
_atom_site_fract_y
_atom_site_fract_z
Si Si1 0.734138 0.025420 0.008078
Si Si2 0.948788 0.006765 0.727750
Si Si3 0.706018 0.401114 0.297412
Si Si4 0.015328 0.607991 0.600918
Si Si5 0.745718 0.873689 0.550865
Si Si6 0.435627 0.942564 0.302645
Si Si7 0.250721 0.642452 0.066350
Si Si8 0.461920 0.499254 0.206100
O O1 0.860780 0.954264 0.951958
O O2 0.813771 0.217770 0.932023
O O3 0.639861 0.018409 0.867121
O O4 0.606846 0.972394 0.209093
O O5 0.945592 0.195107 0.566339
O O6 0.121662 0.026248 0.664664
O O7 0.848666 0.884446 0.682866
O O8 0.870918 0.448187 0.284541
O O9 0.629053 0.250429 0.524026
O O10 0.611498 0.527836 0.250530
O O11 0.699499 0.334004 0.148838
O O12 0.000000 0.500000 0.500000
O O13 0.864929 0.540138 0.777906
O O14 0.624748 0.958087 0.595906
O O15 0.652050 0.686039 0.622784
O O16 0.384764 0.641520 0.152809
O O17 0.500000 0.500000 0.000000
#
# Coordination Sequence:
#
# PCOD9089034 Si02
#       8
#     2   2   2   2   2   2   2   2
#     4  10  20  38  64  93 125 172 216 263 329 390
#     4  10  20  37  66  94 122 175 227 254 324 388
#     4  11  23  40  62 102 127 168 229 270 323 395
#     4  12  21  42  66  90 130 176 223 269 327 391
#     4  10  19  37  64  95 125 169 218 267 313 392
#     4  10  20  38  63  93 127 169 219 264 326 388
#     4  11  22  38  65  93 130 170 219 270 330 387
#     4  10  22  37  60  96 131 165 213 267 330 378
#
# _framework density 25.993103999999999
#
# number of rings (size 3 to 8) (size 9 to 14) (size 15 to 20)
#    0.000    1.500    5.000    1.875    0.000    2.000 
#    0.000    2.500    0.000    4.500    0.000    0.000 
#    0.000    0.000    0.000    0.000    0.000    0.000 
#
# Total GULP energy -89420.435999 kJ/mol
# GULP energy per Si atom -5588.777250 kJ/mol
# Density = 2.593394 g / cm^3
# Si number density = 25.993104 Si / 1000 Ang^3
#
#
#
# Elastic Constant Matrix: (Units=GPa)
#
#
# Indices 1 2 3 4 5 6 
#
# 1 155.5381 -0.4665 28.8828 12.3256 -13.1440 -0.3639
# 2 -0.4665 52.3024 4.5780 12.1831 -3.1699 -3.7870
# 3 28.8828 4.5780 103.1369 10.8003 -40.2097 -6.6183
# 4 12.3256 12.1831 10.8003 30.6150 1.6329 -11.6493
# 5 -13.1440 -3.1699 -40.2097 1.6329 56.0691 -1.4622
# 6 -0.3639 -3.7870 -6.6183 -11.6493 -1.4622 18.4293
#
#
#
# Elastic Compliance Matrix: (Units=1/GPa)
#
#
# Indices 1 2 3 4 5 6 
#
# 1 0.007055 0.000903 -0.001546 -0.003630 0.000637 -0.002474
# 2 0.000903 0.021360 0.000519 -0.009673 0.002038 -0.001359
# 3 -0.001546 0.000519 0.014873 -0.003969 0.010547 0.003746
# 4 -0.003630 -0.009673 -0.003969 0.050250 -0.004980 0.027884
# 5 0.000637 0.002038 0.010547 -0.004980 0.025890 0.003125
# 6 -0.002474 -0.001359 0.003746 0.027884 0.003125 0.073152
#
#
# Mechanical properties :
#
#
# Convention : Reuss Voigt Hill
#
# Bulk Modulus (GPa) = 23.23324 41.88510 32.55917
# Shear Modulus (GPa) = 24.13422 39.55490 31.84456
#
# Velocity S-wave (km/s) = 3.05041 3.90519 3.50396
# Velocity P-wave (km/s) = 4.62216 6.04011 5.37807
#
# Compressibility (1/GPa) = 0.04304177
#
# Stress axis : x y z
#
# Youngs Moduli (GPa) = 141.74780 46.81546 67.23394
#
# Poissons Ratio (x) = -0.04228 0.10393
# Poissons Ratio (y) = -0.12803 -0.03491
# Poissons Ratio (z) = 0.21912 -0.02431
#
# Static dielectric constant tensor:
#      x y z
#    x 2.111930 0.013730 -0.034140 
#    y 0.013730 1.964080 0.000330 
#    z -0.034140 0.000330 2.069950 
# 
# From -- ./inp_files/186673.got.cif
#   From: 2010.05.17/outbox.cif.g08.bks.cpg/sg2_94_cif.got.tgz:186673.got - 2010.06.03 11:33:40.
