data_PCOD9089908
_publ_section_title
;
Structure prediction by ZEFSAII (Michael W. Deem and Ramdas Pophale) SiO2 
 PCOD9089908
Probable space group: P -1
;
_chemical_formula_sum "Si O2"
_cell_formula_units_Z 14
_cell_length_a 12.070108
_cell_length_b 16.974434
_cell_length_c 7.028893
_cell_angle_alpha 54.533715
_cell_angle_beta 57.037414
_cell_angle_gamma 27.643662
_cell_volume 542.463503
_symmetry_space_group_name_H-M "P -1"
_symmetry_group_IT_number 2
_symmetry_cell_setting 'triclinic'
loop_
_space_group_symop_operation_xyz
x,y,z
-x,-y,-z
loop_
_atom_site_type_symbol
_atom_site_label
_atom_site_fract_x
_atom_site_fract_y
_atom_site_fract_z
Si Si1 0.840582 0.722730 0.500644
Si Si2 0.342042 0.954606 0.657335
Si Si3 0.218478 0.751703 0.884030
Si Si4 0.716722 0.509778 0.861753
Si Si5 0.702459 0.141054 0.791128
Si Si6 0.790159 0.514138 0.218000
Si Si7 0.149629 0.747645 0.402270
O O1 0.735260 0.895685 0.382548
O O2 0.610922 0.800693 0.548111
O O3 0.064245 0.592108 0.333600
O O4 0.954972 0.616939 0.741554
O O5 0.131881 0.070387 0.540320
O O6 0.316455 0.889507 0.933382
O O7 0.268657 0.615583 0.941677
O O8 0.454170 0.676073 0.773381
O O9 0.177303 0.756936 0.140478
O O10 0.966485 0.942740 0.768506
O O11 0.764622 0.528026 0.995420
O O12 0.431737 0.288688 0.764975
O O13 0.717434 0.247951 0.622831
O O14 0.774163 0.408805 0.428951
#
# Coordination Sequence:
#
# PCOD9089908 Si02
#       7
#     2   2   2   2   2   2   2
#     4  10  21  43  61  84 123 164 200 235 303 358
#     4   9  19  38  66  82 115 171 197 238 298 361
#     4  10  20  36  61  87 126 156 195 244 310 346
#     4  11  21  37  63  90 123 155 197 253 294 355
#     4  11  20  36  67  90 120 158 199 252 299 352
#     4  11  23  36  64  93 119 159 198 243 306 353
#     4  10  19  38  62  90 116 159 200 240 303 355
#
# _framework density 25.808188999999999
#
# number of rings (size 3 to 8) (size 9 to 14) (size 15 to 20)
#    0.000    1.714    5.714    2.143    0.000    0.571 
#    0.000   10.000    0.000    0.000    0.000    0.000 
#    0.000    0.000    0.000    0.000    0.000    0.000 
#
# Total GULP energy -78241.920489 kJ/mol
# GULP energy per Si atom -5588.708606 kJ/mol
# Density = 2.574945 g / cm^3
# Si number density = 25.808189 Si / 1000 Ang^3
#
#
#
# Elastic Constant Matrix: (Units=GPa)
#
#
# Indices 1 2 3 4 5 6 
#
# 1 102.9158 48.7132 25.1706 19.0023 -7.6474 -24.6019
# 2 48.7132 197.7152 34.1433 5.3372 0.8723 -47.6225
# 3 25.1706 34.1433 73.3810 20.4736 2.1546 -3.1347
# 4 19.0023 5.3372 20.4736 45.2130 -0.4170 -15.7511
# 5 -7.6474 0.8723 2.1546 -0.4170 36.5361 9.1840
# 6 -24.6019 -47.6225 -3.1347 -15.7511 9.1840 43.5192
#
#
#
# Elastic Compliance Matrix: (Units=1/GPa)
#
#
# Indices 1 2 3 4 5 6 
#
# 1 0.012709 -0.001665 -0.002769 -0.002532 0.001866 0.003853
# 2 -0.001665 0.008726 -0.004458 0.005454 -0.002968 0.010887
# 3 -0.002769 -0.004458 0.019050 -0.009996 0.000500 -0.008795
# 4 -0.002532 0.005454 -0.009996 0.032773 -0.003841 0.016489
# 5 0.001866 -0.002968 0.000500 -0.003841 0.030255 -0.009933
# 6 0.003853 0.010887 -0.008795 0.016489 -0.009933 0.044500
#
#
# Mechanical properties :
#
#
# Convention : Reuss Voigt Hill
#
# Bulk Modulus (GPa) = 44.05036 65.56291 54.80664
# Shear Modulus (GPa) = 28.84096 42.78600 35.81348
#
# Velocity S-wave (km/s) = 3.34655 4.07608 3.72920
# Velocity P-wave (km/s) = 5.66021 6.90012 6.31069
#
# Compressibility (1/GPa) = 0.02270129
#
# Stress axis : x y z
#
# Youngs Moduli (GPa) = 78.68419 114.59999 52.49320
#
# Poissons Ratio (x) = 0.19080 0.14533
# Poissons Ratio (y) = 0.13101 0.23404
# Poissons Ratio (z) = 0.21784 0.51094
#
# Static dielectric constant tensor:
#      x y z
#    x 2.056870 0.015350 0.010060 
#    y 0.015350 2.093280 0.022820 
#    z 0.010060 0.022820 2.041150 
# 
# From -- ./inp_files/338374.got.cif
#   From: 2010.05.17/outbox.cif.g08.bks.cpg/sg2_170_cif.got.tgz:338374.got - 2010.06.03 11:33:40.
