data_PCOD9089395
_publ_section_title
;
Structure prediction by ZEFSAII (Michael W. Deem and Ramdas Pophale) SiO2 
 PCOD9089395
Probable space group: P -1
;
_chemical_formula_sum "Si O2"
_cell_formula_units_Z 14
_cell_length_a 10.241721
_cell_length_b 10.615834
_cell_length_c 7.196937
_cell_angle_alpha 98.471709
_cell_angle_beta 116.625194
_cell_angle_gamma 52.708219
_cell_volume 547.947363
_symmetry_space_group_name_H-M "P -1"
_symmetry_group_IT_number 2
_symmetry_cell_setting 'triclinic'
loop_
_space_group_symop_operation_xyz
x,y,z
-x,-y,-z
loop_
_atom_site_type_symbol
_atom_site_label
_atom_site_fract_x
_atom_site_fract_y
_atom_site_fract_z
Si Si1 0.946939 0.384980 0.407555
Si Si2 0.626186 0.241260 0.018223
Si Si3 0.582383 0.796341 0.873851
Si Si4 0.578903 0.487209 0.345504
Si Si5 0.868982 0.447905 0.941440
Si Si6 0.309415 0.040640 0.473869
Si Si7 0.154924 0.098225 0.990508
O O1 0.783211 0.439016 0.455958
O O2 0.958984 0.271773 0.880685
O O3 0.000000 0.500000 0.500000
O O4 0.867077 0.417989 0.154205
O O5 0.568435 0.342793 0.816078
O O6 0.810713 0.058540 0.107079
O O7 0.470221 0.216858 0.954863
O O8 0.609937 0.351637 0.196127
O O9 0.683254 0.620284 0.811031
O O10 0.396922 0.911750 0.664125
O O11 0.705211 0.858868 0.964903
O O12 0.500000 0.500000 0.500000
O O13 0.000000 0.500000 0.000000
O O14 0.207709 0.042741 0.227029
O O15 0.500000 0.000000 0.500000
O O16 0.142324 0.208490 0.496748
#
# Coordination Sequence:
#
# PCOD9089395 Si02
#       7
#     2   2   2   2   2   2   2
#     4  11  24  45  72 109 148 191 262 311 367 457
#     4  11  24  45  74 103 147 200 255 304 381 460
#     4  10  19  37  70 103 149 188 244 303 366 435
#     4  11  28  49  76 108 154 209 248 310 387 448
#     4   9  19  38  65 108 147 182 239 309 379 433
#     4   9  21  37  67 114 149 187 241 310 380 431
#     4   9  20  37  68 109 144 189 243 311 377 439
#
# _framework density 25.549901999999999
#
# number of rings (size 3 to 8) (size 9 to 14) (size 15 to 20)
#    0.000    2.000    1.429    1.286    6.000    5.714 
#    0.000    3.571    0.000    0.000    0.000    0.000 
#    0.000    0.000    0.000    0.000    0.000    0.000 
#
# Total GULP energy -78187.607165 kJ/mol
# GULP energy per Si atom -5584.829083 kJ/mol
# Density = 2.549175 g / cm^3
# Si number density = 25.549902 Si / 1000 Ang^3
#
#
#
# Elastic Constant Matrix: (Units=GPa)
#
#
# Indices 1 2 3 4 5 6 
#
# 1 149.1412 64.2264 46.6132 -5.6012 -19.5589 -11.2266
# 2 64.2264 249.7691 62.1141 -19.5616 -7.6756 -48.3251
# 3 46.6132 62.1141 105.5945 -24.6248 -27.0097 6.4149
# 4 -5.6012 -19.5616 -24.6248 37.2368 0.4956 2.6224
# 5 -19.5589 -7.6756 -27.0097 0.4956 42.1062 -7.1768
# 6 -11.2266 -48.3251 6.4149 2.6224 -7.1768 40.9991
#
#
#
# Elastic Compliance Matrix: (Units=1/GPa)
#
#
# Indices 1 2 3 4 5 6 
#
# 1 0.008498 -0.001104 -0.003006 -0.001457 0.002171 0.001969
# 2 -0.001104 0.006976 -0.004239 0.000105 -0.000515 0.008487
# 3 -0.003006 -0.004239 0.018075 0.009722 0.007968 -0.007875
# 4 -0.001457 0.000105 0.009722 0.033277 0.004657 -0.003110
# 5 0.002171 -0.000515 0.007968 0.004657 0.030361 0.003757
# 6 0.001969 0.008487 -0.007875 -0.003110 0.003757 0.037022
#
#
# Mechanical properties :
#
#
# Convention : Reuss Voigt Hill
#
# Bulk Modulus (GPa) = 59.34659 94.49026 76.91842
# Shear Modulus (GPa) = 31.94368 46.17183 39.05776
#
# Velocity S-wave (km/s) = 3.53972 4.25564 3.91408
# Velocity P-wave (km/s) = 6.32331 7.82369 7.11317
#
# Compressibility (1/GPa) = 0.01685017
#
# Stress axis : x y z
#
# Youngs Moduli (GPa) = 117.67095 143.34352 55.32576
#
# Poissons Ratio (x) = 0.15826 0.16632
# Poissons Ratio (y) = 0.12992 0.23454
# Poissons Ratio (z) = 0.35374 0.60767
#
# Static dielectric constant tensor:
#      x y z
#    x 2.232480 -0.052810 -0.032760 
#    y -0.052810 1.906520 -0.075910 
#    z -0.032760 -0.075910 1.960640 
# 
# From -- ./inp_files/64389.got.cif
#   From: 2010.05.17/outbox.cif.g08.bks.cpg/sg2_33_cif.got.tgz:64389.got - 2010.06.03 11:33:40.
