data_PCOD9089441
_publ_section_title
;
Structure prediction by ZEFSAII (Michael W. Deem and Ramdas Pophale) SiO2 
 PCOD9089441
Probable space group: P -1
;
_chemical_formula_sum "Si O2"
_cell_formula_units_Z 14
_cell_length_a 12.157182
_cell_length_b 14.564636
_cell_length_c 9.091367
_cell_angle_alpha 83.944446
_cell_angle_beta 52.018187
_cell_angle_gamma 123.285524
_cell_volume 784.809477
_symmetry_space_group_name_H-M "P -1"
_symmetry_group_IT_number 2
_symmetry_cell_setting 'triclinic'
loop_
_space_group_symop_operation_xyz
x,y,z
-x,-y,-z
loop_
_atom_site_type_symbol
_atom_site_label
_atom_site_fract_x
_atom_site_fract_y
_atom_site_fract_z
Si Si1 0.973871 0.583426 0.798187
Si Si2 0.193590 0.876025 0.064867
Si Si3 0.452252 0.779242 0.241006
Si Si4 0.491980 0.401327 0.721141
Si Si5 0.773535 0.308649 0.866548
Si Si6 0.855871 0.652182 0.137215
Si Si7 0.863757 0.621734 0.589742
O O1 0.817429 0.413074 0.926519
O O2 0.227288 0.686426 0.533018
O O3 0.896760 0.618933 0.733256
O O4 0.950840 0.617392 0.969302
O O5 0.368498 0.047734 0.907546
O O6 0.305096 0.831188 0.983382
O O7 0.020526 0.782144 0.362454
O O8 0.044898 0.800325 0.053175
O O9 0.542843 0.725748 0.217311
O O10 0.381215 0.743511 0.133536
O O11 0.677772 0.519469 0.423114
O O12 0.274760 0.345079 0.861406
O O13 0.613514 0.497495 0.755094
O O14 0.018037 0.407294 0.579948
#
# Coordination Sequence:
#
# PCOD9089441 Si02
#       7
#     2   2   2   2   2   2   2
#     4  11  18  32  57  81 104 125 179 219 257 288
#     4   9  20  33  52  79 108 137 169 203 263 313
#     4  11  18  33  60  77  99 143 171 212 251 311
#     4  10  19  38  55  71 105 140 180 199 262 307
#     4   9  17  32  53  84  99 128 173 221 245 300
#     4  10  23  35  50  81 105 139 166 218 256 309
#     4   8  16  33  53  78 100 133 171 215 241 306
#
# _framework density 17.838726000000001
#
# number of rings (size 3 to 8) (size 9 to 14) (size 15 to 20)
#    0.857    1.429    2.857    1.286    0.000    4.000 
#    0.000    0.000    0.000    0.857    0.000    0.000 
#    0.000    0.000    0.000    0.000    0.000    0.000 
#
# Total GULP energy -77987.659311 kJ/mol
# GULP energy per Si atom -5570.547094 kJ/mol
# Density = 1.779812 g / cm^3
# Si number density = 17.838726 Si / 1000 Ang^3
#
#
#
# Elastic Constant Matrix: (Units=GPa)
#
#
# Indices 1 2 3 4 5 6 
#
# 1 88.6663 28.6422 11.9992 -17.0862 -0.9335 -8.8893
# 2 28.6422 90.6659 40.3001 -33.5236 2.1553 -10.6906
# 3 11.9992 40.3001 29.1532 -18.6042 2.4638 -13.6204
# 4 -17.0862 -33.5236 -18.6042 33.8430 -1.8806 8.3359
# 5 -0.9335 2.1553 2.4638 -1.8806 8.5123 -3.0904
# 6 -8.8893 -10.6906 -13.6204 8.3359 -3.0904 15.5472
#
#
#
# Elastic Compliance Matrix: (Units=1/GPa)
#
#
# Indices 1 2 3 4 5 6 
#
# 1 0.013919 -0.006537 0.010985 0.003919 0.005234 0.012026
# 2 -0.006537 0.042790 -0.067660 0.011680 -0.004155 -0.040678
# 3 0.010985 -0.067660 0.184784 0.011762 0.010047 0.117331
# 4 0.003919 0.011680 0.011762 0.051289 0.003110 -0.006304
# 5 0.005234 -0.004155 0.010047 0.003110 0.128817 0.032875
# 6 0.012026 -0.040678 0.117331 -0.006304 0.032875 0.155930
#
#
# Mechanical properties :
#
#
# Convention : Reuss Voigt Hill
#
# Bulk Modulus (GPa) = 8.69040 41.15202 24.92121
# Shear Modulus (GPa) = 6.73572 20.08345 13.40959
#
# Velocity S-wave (km/s) = 1.94528 3.35899 2.74471
# Velocity P-wave (km/s) = 3.15082 6.17760 4.90359
#
# Compressibility (1/GPa) = 0.11506944
#
# Stress axis : x y z
#
# Youngs Moduli (GPa) = 71.84188 23.36988 5.41171
#
# Poissons Ratio (x) = 0.15278 -0.05945
# Poissons Ratio (y) = 0.46966 0.36616
# Poissons Ratio (z) = -0.78920 1.58121
#
# Static dielectric constant tensor:
#      x y z
#    x 1.649770 0.007210 0.015000 
#    y 0.007210 1.596360 0.007220 
#    z 0.015000 0.007220 1.604220 
# 
# From -- ./inp_files/270159.got.cif
#   From: 2010.05.17/outbox.cif.g08.bks.cpg/sg2_136_cif.got.tgz:270159.got - 2010.06.03 11:33:40.
