data_PCOD9089139
_publ_section_title
;
Structure prediction by ZEFSAII (Michael W. Deem and Ramdas Pophale) SiO2 
 PCOD9089139
Probable space group: P -1
;
_chemical_formula_sum "Si O2"
_cell_formula_units_Z 16
_cell_length_a 14.068937
_cell_length_b 9.082915
_cell_length_c 9.414823
_cell_angle_alpha 119.046913
_cell_angle_beta 120.251741
_cell_angle_gamma 43.563543
_cell_volume 701.393892
_symmetry_space_group_name_H-M "P -1"
_symmetry_group_IT_number 2
_symmetry_cell_setting 'triclinic'
loop_
_space_group_symop_operation_xyz
x,y,z
-x,-y,-z
loop_
_atom_site_type_symbol
_atom_site_label
_atom_site_fract_x
_atom_site_fract_y
_atom_site_fract_z
Si Si1 0.501100 0.206791 0.349442
Si Si2 0.801354 0.190472 0.297831
Si Si3 0.024039 0.444525 0.160761
Si Si4 0.328903 0.658860 0.300893
Si Si5 0.228464 0.260214 0.673794
Si Si6 0.107637 0.041588 0.475227
Si Si7 0.852129 0.047301 0.953529
Si Si8 0.268179 0.409298 0.480943
O O1 0.408493 0.404372 0.258939
O O2 0.586216 0.271455 0.527582
O O3 0.396496 0.219542 0.389183
O O4 0.618683 0.962401 0.266859
O O5 0.693266 0.428896 0.394501
O O6 0.944078 0.162824 0.402587
O O7 0.829997 0.011827 0.343830
O O8 0.793066 0.145051 0.110686
O O9 0.126351 0.487967 0.326459
O O10 0.876621 0.578215 0.204063
O O11 0.106040 0.188908 0.126434
O O12 0.000000 0.500000 0.000000
O O13 0.272932 0.770648 0.159444
O O14 0.181684 0.808437 0.350049
O O15 0.146071 0.181117 0.501977
O O16 0.256567 0.356378 0.608809
O O17 0.000000 0.000000 0.000000
#
# Coordination Sequence:
#
# PCOD9089139 Si02
#       8
#     2   2   2   2   2   2   2   2
#     4  10  23  43  73  99 136 194 232 280 339 433
#     4  11  22  37  68 100 130 173 231 281 343 403
#     4  12  27  44  69 107 146 177 224 298 356 401
#     4  10  21  42  69  98 139 175 241 284 344 398
#     4  11  23  42  69  99 137 180 229 281 347 412
#     4  10  19  37  65  95 126 176 227 275 326 415
#     4  12  25  40  68 105 138 175 228 298 342 398
#     4  12  24  44  71 104 135 184 237 285 346 415
#
# _framework density 22.811717999999999
#
# number of rings (size 3 to 8) (size 9 to 14) (size 15 to 20)
#    0.000    1.000    3.750    3.750    3.500    0.000 
#    0.000    1.250    2.750    0.000    0.000    0.000 
#    0.000    0.000    0.000    0.000    0.000    0.000 
#
# Total GULP energy -89331.213345 kJ/mol
# GULP energy per Si atom -5583.200834 kJ/mol
# Density = 2.275980 g / cm^3
# Si number density = 22.811718 Si / 1000 Ang^3
#
#
#
# Elastic Constant Matrix: (Units=GPa)
#
#
# Indices 1 2 3 4 5 6 
#
# 1 58.1572 19.9687 5.8501 5.8721 -15.7049 -3.5936
# 2 19.9687 123.7832 68.3869 -4.1962 -16.5451 -1.5545
# 3 5.8501 68.3869 124.7468 -10.9422 -33.2385 5.0592
# 4 5.8721 -4.1962 -10.9422 34.2217 3.8580 -11.3062
# 5 -15.7049 -16.5451 -33.2385 3.8580 30.6984 4.4052
# 6 -3.5936 -1.5545 5.0592 -11.3062 4.4052 42.1371
#
#
#
# Elastic Compliance Matrix: (Units=1/GPa)
#
#
# Indices 1 2 3 4 5 6 
#
# 1 0.023022 -0.004771 0.005422 -0.005251 0.016016 -0.001947
# 2 -0.004771 0.012672 -0.007927 0.000926 -0.004560 0.001738
# 3 0.005422 -0.007927 0.016878 0.000375 0.017240 -0.003558
# 4 -0.005251 0.000926 0.000375 0.034349 -0.007466 0.009538
# 5 0.016016 -0.004560 0.017240 -0.007466 0.059216 -0.009066
# 6 -0.001947 0.001738 -0.003558 0.009538 -0.009066 0.027564
#
#
# Mechanical properties :
#
#
# Convention : Reuss Voigt Hill
#
# Bulk Modulus (GPa) = 26.30230 55.01095 40.65663
# Shear Modulus (GPa) = 24.88453 35.57689 30.23071
#
# Velocity S-wave (km/s) = 3.30641 3.95345 3.64432
# Velocity P-wave (km/s) = 5.11191 6.70874 5.96401
#
# Compressibility (1/GPa) = 0.03801949
#
# Stress axis : x y z
#
# Youngs Moduli (GPa) = 43.43579 78.91708 59.24732
#
# Poissons Ratio (x) = 0.37651 -0.32122
# Poissons Ratio (y) = 0.20723 0.46966
# Poissons Ratio (z) = -0.23550 0.62559
#
# Static dielectric constant tensor:
#      x y z
#    x 1.873910 0.019640 -0.024360 
#    y 0.019640 2.075000 0.026170 
#    z -0.024360 0.026170 1.862240 
# 
# From -- ./inp_files/299292.got.cif
#   From: 2010.05.17/outbox.cif.g08.bks.cpg/sg2_150_cif.got.tgz:299292.got - 2010.06.03 11:33:40.
