data_PCOD9089808
_publ_section_title
;
Structure prediction by ZEFSAII (Michael W. Deem and Ramdas Pophale) SiO2 
 PCOD9089808
Probable space group: P -1
;
_chemical_formula_sum "Si O2"
_cell_formula_units_Z 15
_cell_length_a 4.917093
_cell_length_b 15.795724
_cell_length_c 19.722399
_cell_angle_alpha 25.765794
_cell_angle_beta 124.072102
_cell_angle_gamma 126.963229
_cell_volume 531.273259
_symmetry_space_group_name_H-M "P -1"
_symmetry_group_IT_number 2
_symmetry_cell_setting 'triclinic'
loop_
_space_group_symop_operation_xyz
x,y,z
-x,-y,-z
loop_
_atom_site_type_symbol
_atom_site_label
_atom_site_fract_x
_atom_site_fract_y
_atom_site_fract_z
Si Si1 0.415326 0.915491 0.151809
Si Si2 0.534009 0.211806 0.432084
Si Si3 0.643624 0.649641 0.988040
Si Si4 0.500000 0.500000 0.500000
Si Si5 0.205017 0.757359 0.702865
Si Si6 0.108217 0.714488 0.131123
Si Si7 0.261976 0.918365 0.795995
Si Si8 0.536169 0.646861 0.542857
O O1 0.599409 0.736830 0.316023
O O2 0.091049 0.799266 0.144103
O O3 0.415443 0.005243 0.162329
O O4 0.635754 0.101754 0.004992
O O5 0.740061 0.218402 0.387725
O O6 0.677602 0.331080 0.435464
O O7 0.196609 0.282162 0.313899
O O8 0.395362 0.975267 0.600953
O O9 0.644409 0.426904 0.123312
O O10 0.778858 0.644872 0.088451
O O11 0.322205 0.740065 0.886028
O O12 0.935782 0.816460 0.869174
O O13 0.369490 0.575607 0.499133
O O14 0.272282 0.525665 0.292193
O O15 0.243778 0.121925 0.608620
#
# Coordination Sequence:
#
# PCOD9089808 Si02
#       8
#     2   2   2   1   2   2   2   2
#     4   8  16  32  54  86 116 159 198 253 293 362
#     4  10  21  38  64  92 125 153 208 256 314 359
#     4  11  21  39  59  88 118 163 198 260 299 369
#     4   8  16  32  60  86 134 158 206 244 318 360
#     4  10  21  38  62  95 120 157 203 267 305 360
#     4   9  17  32  61  84 116 153 214 246 298 352
#     4  10  23  37  58  83 129 158 200 243 321 358
#     4  10  19  38  61  93 121 171 200 260 302 378
#
# _framework density 28.234058999999998
#
# number of rings (size 3 to 8) (size 9 to 14) (size 15 to 20)
#    0.000    2.400    1.333    0.800    1.867    1.600 
#    0.000    1.333    2.933   36.000    0.000    0.000 
#    0.000    0.000    0.000    0.000    0.000    0.000 
#
# Total GULP energy -83723.578714 kJ/mol
# GULP energy per Si atom -5581.571914 kJ/mol
# Density = 2.816980 g / cm^3
# Si number density = 28.234059 Si / 1000 Ang^3
#
#
#
# Elastic Constant Matrix: (Units=GPa)
#
#
# Indices 1 2 3 4 5 6 
#
# 1 82.1289 37.5942 41.7703 -4.2577 4.7617 -6.6861
# 2 37.5942 124.6497 42.0372 -23.0048 9.2867 -38.5015
# 3 41.7703 42.0372 230.1866 -17.6963 6.5220 -2.1611
# 4 -4.2577 -23.0048 -17.6963 60.2790 -7.4620 8.7423
# 5 4.7617 9.2867 6.5220 -7.4620 40.5987 -14.0008
# 6 -6.6861 -38.5015 -2.1611 8.7423 -14.0008 38.4353
#
#
#
# Elastic Compliance Matrix: (Units=1/GPa)
#
#
# Indices 1 2 3 4 5 6 
#
# 1 0.015189 -0.004820 -0.001947 -0.001147 -0.001462 -0.002568
# 2 -0.004820 0.014732 -0.001524 0.003138 0.002907 0.014178
# 3 -0.001947 -0.001524 0.005053 0.000971 -0.000775 -0.002084
# 4 -0.001147 0.003138 0.000971 0.018342 0.002547 -0.000246
# 5 -0.001462 0.002907 -0.000775 0.002547 0.029086 0.012629
# 6 -0.002568 0.014178 -0.002084 -0.000246 0.012629 0.044313
#
#
# Mechanical properties :
#
#
# Convention : Reuss Voigt Hill
#
# Bulk Modulus (GPa) = 54.37032 75.52985 64.95008
# Shear Modulus (GPa) = 33.46123 48.90018 41.18070
#
# Velocity S-wave (km/s) = 3.44632 4.16619 3.82324
# Velocity P-wave (km/s) = 5.92747 7.06769 6.52255
#
# Compressibility (1/GPa) = 0.01839239
#
# Stress axis : x y z
#
# Youngs Moduli (GPa) = 65.83794 67.87927 197.90804
#
# Poissons Ratio (x) = 0.32719 0.38528
# Poissons Ratio (y) = 0.31735 0.30155
# Poissons Ratio (z) = 0.12817 0.10343
#
# Static dielectric constant tensor:
#      x y z
#    x 2.192790 -0.074220 0.044120 
#    y -0.074220 2.657400 -0.000890 
#    z 0.044120 -0.000890 2.163470 
# 
# From -- ./inp_files/604854.got.cif
#   From: 2010.05.17/outbox.cif.g08.bks.cpg/sg2_303_cif.got.tgz:604854.got - 2010.06.03 11:33:40.
