data_PCOD9089577
_publ_section_title
;
Structure prediction by ZEFSAII (Michael W. Deem and Ramdas Pophale) SiO2 
 PCOD9089577
Probable space group: P -1
;
_chemical_formula_sum "Si O2"
_cell_formula_units_Z 16
_cell_length_a 25.167928
_cell_length_b 25.525969
_cell_length_c 12.661062
_cell_angle_alpha 151.863152
_cell_angle_beta 151.919251
_cell_angle_gamma 11.700506
_cell_volume 762.728266
_symmetry_space_group_name_H-M "P -1"
_symmetry_group_IT_number 2
_symmetry_cell_setting 'triclinic'
loop_
_space_group_symop_operation_xyz
x,y,z
-x,-y,-z
loop_
_atom_site_type_symbol
_atom_site_label
_atom_site_fract_x
_atom_site_fract_y
_atom_site_fract_z
Si Si1 0.490343 0.140304 0.732266
Si Si2 0.819418 0.306297 0.125445
Si Si3 0.838156 0.191879 0.744468
Si Si4 0.176119 0.603992 0.490038
Si Si5 0.730996 0.372554 0.532284
Si Si6 0.420891 0.952065 0.728680
Si Si7 0.584425 0.138439 0.657705
Si Si8 0.052164 0.698486 0.008284
O O1 0.545242 0.130989 0.692921
O O2 0.500000 0.000000 0.500000
O O3 0.211039 0.442264 0.815055
O O4 0.735116 0.965849 0.922606
O O5 0.790632 0.329169 0.242604
O O6 0.619603 0.581290 0.228182
O O7 0.777752 0.245084 0.859229
O O8 0.120564 0.076425 0.222743
O O9 0.586168 0.362277 0.547003
O O10 0.866257 0.290751 0.924332
O O11 0.111320 0.884655 0.653018
O O12 0.205873 0.624350 0.461870
O O13 0.391375 0.314884 0.374277
O O14 0.883948 0.810136 0.358811
O O15 0.846394 0.336946 0.769365
O O16 0.454419 0.920657 0.604684
O O17 0.500000 0.000000 0.000000
#
# Coordination Sequence:
#
# PCOD9089577 Si02
#       8
#     2   2   2   2   2   2   2   2
#     4  12  24  41  66  95 120 164 208 258 318 355
#     4  10  20  38  65  84 119 159 200 250 296 365
#     4  12  22  41  67  88 122 174 211 240 318 369
#     4  10  23  40  58  92 128 153 203 260 309 352
#     4  12  26  40  63  94 130 165 202 260 311 366
#     4  10  21  38  65  88 117 165 206 244 310 377
#     4  10  19  38  59  88 119 155 197 256 298 358
#     4  12  25  44  62  91 131 161 211 258 298 377
#
# _framework density 20.977328
#
# number of rings (size 3 to 8) (size 9 to 14) (size 15 to 20)
#    0.000    1.000    2.500    4.500    0.000    3.000 
#    0.000    0.000    0.000    0.000    0.000    0.000 
#    0.000    0.000    0.000    0.000    0.000    0.000 
#
# Total GULP energy -89506.643678 kJ/mol
# GULP energy per Si atom -5594.165230 kJ/mol
# Density = 2.092958 g / cm^3
# Si number density = 20.977328 Si / 1000 Ang^3
#
#
#
# Elastic Constant Matrix: (Units=GPa)
#
#
# Indices 1 2 3 4 5 6 
#
# 1 46.3211 7.9466 3.1434 1.1266 -14.3939 11.9450
# 2 7.9466 113.8769 0.0897 -1.3645 -1.9682 12.3685
# 3 3.1434 0.0897 84.7028 -6.0290 -21.4490 17.5483
# 4 1.1266 -1.3645 -6.0290 40.8560 3.3734 -0.3093
# 5 -14.3939 -1.9682 -21.4490 3.3734 29.0256 -2.5837
# 6 11.9450 12.3685 17.5483 -0.3093 -2.5837 21.2640
#
#
#
# Elastic Compliance Matrix: (Units=1/GPa)
#
#
# Indices 1 2 3 4 5 6 
#
# 1 0.033899 0.000628 0.009156 -0.001533 0.021629 -0.024358
# 2 0.000628 0.009563 0.001937 0.000393 0.001696 -0.007302
# 3 0.009156 0.001937 0.020369 0.001196 0.017724 -0.020908
# 4 -0.001533 0.000393 0.001196 0.024935 -0.002777 -0.000329
# 5 0.021629 0.001696 0.017724 -0.002777 0.056853 -0.020895
# 6 -0.024358 -0.007302 -0.020908 -0.000329 -0.020895 0.079669
#
#
# Mechanical properties :
#
#
# Convention : Reuss Voigt Hill
#
# Bulk Modulus (GPa) = 11.45840 29.69558 20.57699
# Shear Modulus (GPa) = 21.65084 33.81055 27.73069
#
# Velocity S-wave (km/s) = 3.21613 4.01904 3.63979
# Velocity P-wave (km/s) = 4.38924 5.97693 5.24352
#
# Compressibility (1/GPa) = 0.08727222
#
# Stress axis : x y z
#
# Youngs Moduli (GPa) = 29.49948 104.56819 49.09396
#
# Poissons Ratio (x) = -0.06570 -0.44948
# Poissons Ratio (y) = -0.01853 -0.09508
# Poissons Ratio (z) = -0.27008 -0.20251
#
# Static dielectric constant tensor:
#      x y z
#    x 1.730130 0.003340 -0.030790 
#    y 0.003340 1.729630 -0.008420 
#    z -0.030790 -0.008420 1.766330 
# 
# From -- ./inp_files/370822.got.cif
#   From: 2010.05.17/outbox.cif.g08.bks.cpg/sg2_186_cif.got.tgz:370822.got - 2010.06.03 11:33:40.
