data_PCOD9089627
_publ_section_title
;
Structure prediction by ZEFSAII (Michael W. Deem and Ramdas Pophale) SiO2 
 PCOD9089627
Probable space group: P -1
;
_chemical_formula_sum "Si O2"
_cell_formula_units_Z 14
_cell_length_a 16.480879
_cell_length_b 13.023304
_cell_length_c 22.323061
_cell_angle_alpha 161.963332
_cell_angle_beta 26.364254
_cell_angle_gamma 157.108053
_cell_volume 569.051473
_symmetry_space_group_name_H-M "P -1"
_symmetry_group_IT_number 2
_symmetry_cell_setting 'triclinic'
loop_
_space_group_symop_operation_xyz
x,y,z
-x,-y,-z
loop_
_atom_site_type_symbol
_atom_site_label
_atom_site_fract_x
_atom_site_fract_y
_atom_site_fract_z
Si Si1 0.771011 0.690967 0.713057
Si Si2 0.901357 0.065862 0.044060
Si Si3 0.281459 0.460677 0.601432
Si Si4 0.689835 0.581454 0.183251
Si Si5 0.257767 0.637615 0.844499
Si Si6 0.950232 0.613053 0.664770
Si Si7 0.736254 0.140865 0.808867
O O1 0.543767 0.512595 0.734158
O O2 0.941673 0.640171 0.533320
O O3 0.778629 0.474803 0.648584
O O4 0.844111 0.121925 0.926870
O O5 0.099324 0.457515 0.105475
O O6 0.717422 0.170406 0.222648
O O7 0.847456 0.707274 0.839522
O O8 0.000000 0.000000 0.000000
O O9 0.500000 0.500000 0.500000
O O10 0.169877 0.408967 0.713200
O O11 0.212159 0.161333 0.425427
O O12 0.706131 0.570906 0.238475
O O13 0.858306 0.976272 0.258722
O O14 0.725194 0.243970 0.943393
O O15 0.492933 0.983053 0.863511
#
# Coordination Sequence:
#
# PCOD9089627 Si02
#       7
#     2   2   2   2   2   2   2
#     4  10  19  38  60  83 129 158 194 251 313 354
#     4  11  23  41  61  89 121 163 211 250 300 373
#     4  10  21  41  62  86 125 159 200 258 305 360
#     4  10  21  38  63  94 119 158 207 250 302 373
#     4  10  20  39  62  91 121 153 202 251 306 363
#     4  10  22  38  59  90 123 162 198 256 307 358
#     4   9  20  39  62  87 121 163 195 254 307 357
#
# _framework density 24.602345
#
# number of rings (size 3 to 8) (size 9 to 14) (size 15 to 20)
#    0.000    2.000    1.429    2.571    0.000    4.000 
#    7.714    2.857    0.000    0.000    0.000    0.000 
#    0.000    0.000    0.000    0.000    0.000    0.000 
#
# Total GULP energy -78016.670656 kJ/mol
# GULP energy per Si atom -5572.619333 kJ/mol
# Density = 2.454635 g / cm^3
# Si number density = 24.602345 Si / 1000 Ang^3
#
#
#
# Elastic Constant Matrix: (Units=GPa)
#
#
# Indices 1 2 3 4 5 6 
#
# 1 165.6922 16.0476 77.7470 -8.4816 3.7601 0.8208
# 2 16.0476 43.6509 0.9959 -5.7238 -22.6397 16.8076
# 3 77.7470 0.9959 202.3826 -30.1180 9.8857 1.4967
# 4 -8.4816 -5.7238 -30.1180 17.4217 16.8732 -3.9206
# 5 3.7601 -22.6397 9.8857 16.8732 50.0343 -3.1538
# 6 0.8208 16.8076 1.4967 -3.9206 -3.1538 19.8485
#
#
#
# Elastic Compliance Matrix: (Units=1/GPa)
#
#
# Indices 1 2 3 4 5 6 
#
# 1 0.008027 -0.005953 -0.002876 0.000565 -0.002628 0.004620
# 2 -0.005953 0.061957 -0.006770 -0.047584 0.042439 -0.054364
# 3 -0.002876 -0.006770 0.012105 0.035496 -0.016622 0.009309
# 4 0.000565 -0.047584 0.035496 0.210251 -0.095459 0.063956
# 5 -0.002628 0.042439 -0.016622 -0.095459 0.072218 -0.041956
# 6 0.004620 -0.054364 0.009309 0.063956 -0.041956 0.101490
#
#
# Mechanical properties :
#
#
# Convention : Reuss Voigt Hill
#
# Bulk Modulus (GPa) = 19.65058 66.81188 43.23123
# Shear Modulus (GPa) = 9.72366 38.58992 24.15679
#
# Velocity S-wave (km/s) = 1.99020 3.96478 3.13691
# Velocity P-wave (km/s) = 3.64497 6.94082 5.54350
#
# Compressibility (1/GPa) = 0.05088909
#
# Stress axis : x y z
#
# Youngs Moduli (GPa) = 124.57791 16.14035 82.61180
#
# Poissons Ratio (x) = 0.09609 0.23760
# Poissons Ratio (y) = 0.74167 0.55929
# Poissons Ratio (z) = 0.35830 0.10927
#
# Static dielectric constant tensor:
#      x y z
#    x 2.350480 0.165760 0.052680 
#    y 0.165760 2.076420 -0.003410 
#    z 0.052680 -0.003410 2.111110 
# 
# From -- ./inp_files/207912.got.cif
#   From: 2010.05.17/outbox.cif.g08.bks.cpg/sg2_104_cif.got.tgz:207912.got - 2010.06.03 11:33:40.
