data_PCOD9089187
_publ_section_title
;
Structure prediction by ZEFSAII (Michael W. Deem and Ramdas Pophale) SiO2 
 PCOD9089187
Probable space group: P -1
;
_chemical_formula_sum "Si O2"
_cell_formula_units_Z 16
_cell_length_a 9.160409
_cell_length_b 11.453068
_cell_length_c 14.772942
_cell_angle_alpha 28.401354
_cell_angle_beta 71.681831
_cell_angle_gamma 75.646780
_cell_volume 698.443315
_symmetry_space_group_name_H-M "P -1"
_symmetry_group_IT_number 2
_symmetry_cell_setting 'triclinic'
loop_
_space_group_symop_operation_xyz
x,y,z
-x,-y,-z
loop_
_atom_site_type_symbol
_atom_site_label
_atom_site_fract_x
_atom_site_fract_y
_atom_site_fract_z
Si Si1 0.393732 0.342375 0.381262
Si Si2 0.868216 0.940659 0.927419
Si Si3 0.996912 0.159318 0.483398
Si Si4 0.187096 0.544360 0.432791
Si Si5 0.737182 0.438683 0.896061
Si Si6 0.222304 0.834156 0.747206
Si Si7 0.736740 0.406688 0.291627
Si Si8 0.788120 0.942048 0.152321
O O1 0.264046 0.490058 0.357950
O O2 0.391248 0.399928 0.234440
O O3 0.557949 0.417487 0.339572
O O4 0.346930 0.054810 0.597046
O O5 0.792380 0.170989 0.739647
O O6 0.817815 0.676739 0.078845
O O7 0.813407 0.945518 0.038966
O O8 0.051797 0.988432 0.871928
O O9 0.111453 0.401781 0.279126
O O10 0.829174 0.262975 0.447800
O O11 0.064603 0.983726 0.666309
O O12 0.000000 0.000000 0.500000
O O13 0.257090 0.336553 0.621886
O O14 0.000000 0.500000 0.500000
O O15 0.231954 0.619316 0.965601
O O16 0.694553 0.169304 0.045916
O O17 0.251073 0.734572 0.709604
#
# Coordination Sequence:
#
# PCOD9089187 Si02
#       8
#     2   2   2   2   2   2   2   2
#     4  11  23  41  66  96 134 170 213 266 327 386
#     4  10  21  39  62  91 129 160 216 269 325 374
#     4   9  21  40  62  93 125 165 217 270 314 370
#     4  10  21  38  64  92 118 167 222 261 309 375
#     4  11  20  40  67  93 122 170 227 258 313 380
#     4  10  23  42  70  92 128 176 225 259 310 390
#     4  11  23  42  63  97 138 173 201 270 338 378
#     4  10  19  37  66  88 117 167 220 268 306 377
#
# _framework density 22.908086000000001
#
# number of rings (size 3 to 8) (size 9 to 14) (size 15 to 20)
#    0.000    1.750    3.750    0.375    0.000    3.000 
#    0.000    5.625    0.000    0.000    0.000    0.000 
#    0.000    0.000    0.000    0.000    0.000    0.000 
#
# Total GULP energy -89263.337455 kJ/mol
# GULP energy per Si atom -5578.958591 kJ/mol
# Density = 2.285595 g / cm^3
# Si number density = 22.908086 Si / 1000 Ang^3
#
#
#
# Elastic Constant Matrix: (Units=GPa)
#
#
# Indices 1 2 3 4 5 6 
#
# 1 51.0670 -27.5969 58.8655 9.7764 13.2403 -20.2593
# 2 -27.5969 17.2763 34.5465 -3.7810 13.8253 -11.4109
# 3 58.8655 34.5465 95.3235 -5.1800 11.7609 -0.5260
# 4 9.7764 -3.7810 -5.1800 36.7610 18.0254 5.4990
# 5 13.2403 13.8253 11.7609 18.0254 22.0404 3.7492
# 6 -20.2593 -11.4109 -0.5260 5.4990 3.7492 13.5499
#
#
#
# Elastic Compliance Matrix: (Units=1/GPa)
#
#
# Indices 1 2 3 4 5 6 
#
# 1 0.003966 -0.016274 0.000846 -0.009455 0.016550 -0.008484
# 2 -0.016274 0.006593 0.008845 0.012104 -0.005254 -0.021894
# 3 0.000846 0.008845 0.010312 0.011851 -0.023069 0.010688
# 4 -0.009455 0.012104 0.011851 0.062665 -0.057262 -0.013072
# 5 0.016550 -0.005254 -0.023069 -0.057262 0.095083 0.016354
# 6 -0.008484 -0.021894 0.010688 -0.013072 0.016354 0.043873
#
#
# Mechanical properties :
#
#
# Convention : Reuss Voigt Hill
#
# Bulk Modulus (GPa) = 129.76380 32.81078 81.28729
# Shear Modulus (GPa) = 20.98842 20.99371 20.99107
#
# Velocity S-wave (km/s) = 3.03017 3.03055 3.03036
# Velocity P-wave (km/s) = 8.30728 5.15747 6.91413
#
# Compressibility (1/GPa) = 0.00770631
#
# Stress axis : x y z
#
# Youngs Moduli (GPa) = 252.14361 151.66869 96.97750
#
# Poissons Ratio (x) = 2.46818 -0.08205
# Poissons Ratio (y) = 4.10326 -0.85778
# Poissons Ratio (z) = -0.21333 -1.34153
#
# Static dielectric constant tensor:
#      x y z
#    x 1.890860 -0.018880 0.036660 
#    y -0.018880 1.922920 0.009000 
#    z 0.036660 0.009000 1.892470 
# 
# From -- ./inp_files/559053.got.cif
#   From: 2010.05.17/outbox.cif.g08.bks.cpg/sg2_280_cif.got.tgz:559053.got - 2010.06.03 11:33:40.
