data_PCOD9089355
_publ_section_title
;
Structure prediction by ZEFSAII (Michael W. Deem and Ramdas Pophale) SiO2 
 PCOD9089355
Probable space group: P -1
;
_chemical_formula_sum "Si O2"
_cell_formula_units_Z 16
_cell_length_a 9.248784
_cell_length_b 5.442933
_cell_length_c 18.293990
_cell_angle_alpha 90.245155
_cell_angle_beta 80.296205
_cell_angle_gamma 128.720537
_cell_volume 702.080676
_symmetry_space_group_name_H-M "P -1"
_symmetry_group_IT_number 2
_symmetry_cell_setting 'triclinic'
loop_
_space_group_symop_operation_xyz
x,y,z
-x,-y,-z
loop_
_atom_site_type_symbol
_atom_site_label
_atom_site_fract_x
_atom_site_fract_y
_atom_site_fract_z
Si Si1 0.973703 0.422186 0.168866
Si Si2 0.660156 0.821214 0.673425
Si Si3 0.886769 0.124922 0.029055
Si Si4 0.562637 0.317320 0.453324
Si Si5 0.725674 0.529206 0.784013
Si Si6 0.986885 0.732745 0.452778
Si Si7 0.668785 0.874635 0.911554
Si Si8 0.579038 0.186742 0.179160
O O1 0.884639 0.141374 0.116533
O O2 0.070889 0.393784 0.229060
O O3 0.164007 0.754429 0.122850
O O4 0.793639 0.412726 0.189726
O O5 0.518748 0.727383 0.619957
O O6 0.706881 0.605383 0.702715
O O7 0.563593 0.831919 0.753036
O O8 0.854971 0.118338 0.622679
O O9 0.695190 0.895410 0.996706
O O10 0.000000 0.500000 0.000000
O O11 0.000000 0.000000 0.000000
O O12 0.500000 0.500000 0.500000
O O13 0.785706 0.535351 0.432148
O O14 0.500000 0.000000 0.500000
O O15 0.524491 0.184183 0.814016
O O16 0.731659 0.712530 0.855499
O O17 0.000000 0.500000 0.500000
O O18 0.000000 0.000000 0.500000
O O19 0.465891 0.746224 0.896753
#
# Coordination Sequence:
#
# PCOD9089355 Si02
#       8
#     2   2   2   2   2   2   2   2
#     4  10  21  40  66  93 132 177 227 275 335 390
#     4  11  26  43  67  95 135 171 221 265 343 392
#     4  10  19  37  68  96 130 179 230 279 341 387
#     4  12  25  46  72 102 133 165 217 275 326 399
#     4  10  22  41  63  90 135 171 221 273 328 397
#     4  12  25  47  75 100 133 171 214 271 339 396
#     4   9  20  40  62  91 135 173 224 283 333 387
#     4  10  24  41  62  96 134 173 227 275 324 406
#
# _framework density 22.789406
#
# number of rings (size 3 to 8) (size 9 to 14) (size 15 to 20)
#    0.000    1.500    3.750    0.000    3.500    6.500 
#    0.000    0.625    0.000    0.000    0.000    0.000 
#    0.000    0.000    0.000    0.000    0.000    0.000 
#
# Total GULP energy -89126.221590 kJ/mol
# GULP energy per Si atom -5570.388849 kJ/mol
# Density = 2.273754 g / cm^3
# Si number density = 22.789406 Si / 1000 Ang^3
#
#
#
# Elastic Constant Matrix: (Units=GPa)
#
#
# Indices 1 2 3 4 5 6 
#
# 1 145.9306 42.1668 32.6243 -6.6369 31.0254 32.4263
# 2 42.1668 56.4356 20.9925 6.0687 22.2454 6.8701
# 3 32.6243 20.9925 72.6893 2.1519 29.6941 5.4121
# 4 -6.6369 6.0687 2.1519 24.5918 2.3378 3.8685
# 5 31.0254 22.2454 29.6941 2.3378 51.4385 9.5522
# 6 32.4263 6.8701 5.4121 3.8685 9.5522 53.2855
#
#
#
# Elastic Compliance Matrix: (Units=1/GPa)
#
#
# Indices 1 2 3 4 5 6 
#
# 1 0.011261 -0.006860 -0.002074 0.006009 -0.001811 -0.005869
# 2 -0.006860 0.026631 -0.001969 -0.008065 -0.006372 0.002669
# 3 -0.002074 -0.001969 0.018859 -0.001073 -0.008974 0.001287
# 4 0.006009 -0.008065 -0.001073 0.045317 -0.000517 -0.005705
# 5 -0.001811 -0.006372 -0.008974 -0.000517 0.028922 -0.002312
# 6 -0.005869 0.002669 0.001287 -0.005705 -0.002312 0.022692
#
#
# Mechanical properties :
#
#
# Convention : Reuss Voigt Hill
#
# Bulk Modulus (GPa) = 28.61664 51.84696 40.23180
# Shear Modulus (GPa) = 26.71843 37.81462 32.26652
#
# Velocity S-wave (km/s) = 3.42776 4.07788 3.76687
# Velocity P-wave (km/s) = 5.31510 6.70611 6.05071
#
# Compressibility (1/GPa) = 0.03494470
#
# Stress axis : x y z
#
# Youngs Moduli (GPa) = 88.80226 37.54970 53.02590
#
# Poissons Ratio (x) = 0.25759 0.10997
# Poissons Ratio (y) = 0.60919 0.10442
# Poissons Ratio (z) = 0.18417 0.07394
#
# Static dielectric constant tensor:
#      x y z
#    x 1.937390 -0.088110 -0.035370 
#    y -0.088110 1.899640 0.038220 
#    z -0.035370 0.038220 1.876590 
# 
# From -- ./inp_files/52633.got.cif
#   From: 2010.05.17/outbox.cif.g08.bks.cpg/sg2_27_cif.got.tgz:52633.got - 2010.06.03 11:33:40.
