data_PCOD9089780
_publ_section_title
;
Structure prediction by ZEFSAII (Michael W. Deem and Ramdas Pophale) SiO2 
 PCOD9089780
Probable space group: P -1
;
_chemical_formula_sum "Si O2"
_cell_formula_units_Z 16
_cell_length_a 8.901317
_cell_length_b 14.542292
_cell_length_c 9.075225
_cell_angle_alpha 47.969919
_cell_angle_beta 87.669486
_cell_angle_gamma 70.236654
_cell_volume 791.682492
_symmetry_space_group_name_H-M "P -1"
_symmetry_group_IT_number 2
_symmetry_cell_setting 'triclinic'
loop_
_space_group_symop_operation_xyz
x,y,z
-x,-y,-z
loop_
_atom_site_type_symbol
_atom_site_label
_atom_site_fract_x
_atom_site_fract_y
_atom_site_fract_z
Si Si1 0.766102 0.293628 0.164814
Si Si2 0.171093 0.473528 0.933929
Si Si3 0.884820 0.879064 0.538613
Si Si4 0.639075 0.494249 0.700079
Si Si5 0.748828 0.409041 0.461770
Si Si6 0.337983 0.914011 0.446550
Si Si7 0.309890 0.272110 0.370272
Si Si8 0.924585 0.081280 0.767124
O O1 0.756643 0.423561 0.116632
O O2 0.671644 0.218006 0.333595
O O3 0.958580 0.191667 0.283843
O O4 0.699755 0.356211 0.942530
O O5 0.170621 0.506454 0.727065
O O6 0.295273 0.325040 0.144816
O O7 0.000000 0.500000 0.000000
O O8 0.843561 0.768066 0.571844
O O9 0.938705 0.956732 0.327749
O O10 0.736030 0.970616 0.550995
O O11 0.728543 0.455374 0.581703
O O12 0.440934 0.552949 0.623691
O O13 0.686512 0.606462 0.659781
O O14 0.851012 0.245583 0.616705
O O15 0.528631 0.863697 0.456932
O O16 0.223314 0.946684 0.271682
O O17 0.000000 0.000000 0.000000
#
# Coordination Sequence:
#
# PCOD9089780 Si02
#       8
#     2   2   2   2   2   2   2   2
#     4  10  19  38  61  90 115 160 201 252 296 360
#     4  11  19  37  64  88 125 156 192 254 309 354
#     4  11  23  40  62  88 124 157 208 254 296 359
#     4  10  23  36  65  90 129 154 202 249 313 367
#     4  11  21  40  60  97 120 163 199 250 307 367
#     4  11  22  39  64  88 118 161 216 246 292 363
#     4  11  21  41  61  93 121 160 195 258 307 353
#     4  11  23  41  62  86 122 164 202 252 298 358
#
# _framework density 20.210122999999999
#
# number of rings (size 3 to 8) (size 9 to 14) (size 15 to 20)
#    0.000    1.250    5.000    2.625    3.500    2.000 
#    0.000    7.500    0.000    0.000    0.000    0.000 
#    0.000    0.000    0.000    0.000    0.000    0.000 
#
# Total GULP energy -89245.756205 kJ/mol
# GULP energy per Si atom -5577.859763 kJ/mol
# Density = 2.016412 g / cm^3
# Si number density = 20.210123 Si / 1000 Ang^3
#
#
#
# Elastic Constant Matrix: (Units=GPa)
#
#
# Indices 1 2 3 4 5 6 
#
# 1 66.0428 17.8535 34.6325 6.0606 10.3367 2.3084
# 2 17.8535 80.5291 30.5523 18.1684 5.4176 -4.7926
# 3 34.6325 30.5523 137.6969 25.2028 18.9055 0.9522
# 4 6.0606 18.1684 25.2028 24.6653 3.1137 -5.6272
# 5 10.3367 5.4176 18.9055 3.1137 21.1271 1.5998
# 6 2.3084 -4.7926 0.9522 -5.6272 1.5998 20.3136
#
#
#
# Elastic Compliance Matrix: (Units=1/GPa)
#
#
# Indices 1 2 3 4 5 6 
#
# 1 0.018525 -0.002832 -0.003561 0.001422 -0.005223 -0.001801
# 2 -0.002832 0.015669 -0.000981 -0.009445 -0.000475 0.001486
# 3 -0.003561 -0.000981 0.010968 -0.009378 -0.006253 -0.002446
# 4 0.001422 -0.009445 -0.009378 0.060061 0.000155 0.014675
# 5 -0.005223 -0.000475 -0.006253 0.000155 0.055854 -0.003581
# 6 -0.001801 0.001486 -0.002446 0.014675 -0.003581 0.054245
#
#
# Mechanical properties :
#
#
# Convention : Reuss Voigt Hill
#
# Bulk Modulus (GPa) = 32.88100 50.03838 41.45969
# Shear Modulus (GPa) = 20.81523 26.63656 23.72589
#
# Velocity S-wave (km/s) = 3.21275 3.63434 3.43003
# Velocity P-wave (km/s) = 5.48336 6.51337 6.02044
#
# Compressibility (1/GPa) = 0.03041270
#
# Stress axis : x y z
#
# Youngs Moduli (GPa) = 53.98107 63.81958 91.17821
#
# Poissons Ratio (x) = 0.18077 0.32473
# Poissons Ratio (y) = 0.15290 0.08941
# Poissons Ratio (z) = 0.19225 0.06258
#
# Static dielectric constant tensor:
#      x y z
#    x 1.765290 -0.020900 0.019140 
#    y -0.020900 1.752770 -0.020260 
#    z 0.019140 -0.020260 1.753470 
# 
# From -- ./inp_files/180201.got.cif
#   From: 2010.05.17/outbox.cif.g08.bks.cpg/sg2_91_cif.got.tgz:180201.got - 2010.06.03 11:33:40.
