data_PCOD9089617
_publ_section_title
;
Structure prediction by ZEFSAII (Michael W. Deem and Ramdas Pophale) SiO2 
 PCOD9089617
Probable space group: P -1
;
_chemical_formula_sum "Si O2"
_cell_formula_units_Z 16
_cell_length_a 15.491939
_cell_length_b 9.615178
_cell_length_c 18.123286
_cell_angle_alpha 39.336473
_cell_angle_beta 21.890378
_cell_angle_gamma 49.899105
_cell_volume 606.321378
_symmetry_space_group_name_H-M "P -1"
_symmetry_group_IT_number 2
_symmetry_cell_setting 'triclinic'
loop_
_space_group_symop_operation_xyz
x,y,z
-x,-y,-z
loop_
_atom_site_type_symbol
_atom_site_label
_atom_site_fract_x
_atom_site_fract_y
_atom_site_fract_z
Si Si1 0.311867 0.275826 0.938367
Si Si2 0.570154 0.040063 0.232641
Si Si3 0.969099 0.339368 0.705785
Si Si4 0.181358 0.185923 0.227880
Si Si5 0.147315 0.766929 0.758447
Si Si6 0.348547 0.432366 0.236444
Si Si7 0.190112 0.551030 0.600106
Si Si8 0.200908 0.738346 0.884850
O O1 0.530625 0.313648 0.691499
O O2 0.310913 0.132461 0.072953
O O3 0.319148 0.535908 0.851896
O O4 0.054929 0.153394 0.154901
O O5 0.417117 0.203816 0.256885
O O6 0.375589 0.800870 0.509089
O O7 0.789643 0.096894 0.977992
O O8 0.677114 0.142830 0.185790
O O9 0.803445 0.477323 0.740588
O O10 0.181295 0.361994 0.470229
O O11 0.095805 0.456849 0.632177
O O12 0.981734 0.295214 0.308817
O O13 0.401549 0.366606 0.023109
O O14 0.000000 0.000000 0.500000
O O15 0.224173 0.875978 0.733454
O O16 0.000000 0.500000 0.000000
O O17 0.086480 0.354317 0.824725
#
# Coordination Sequence:
#
# PCOD9089617 Si02
#       8
#     2   2   2   2   2   2   2   2
#     4  10  20  40  57  84 123 152 197 241 291 354
#     4  11  20  39  65  85 119 157 199 240 299 351
#     4  10  21  36  62  89 118 152 200 243 286 347
#     4  11  23  36  58  86 123 159 192 241 297 351
#     4  10  23  39  62  90 119 154 196 254 303 351
#     4  11  21  39  58  90 121 153 200 243 283 356
#     4  10  19  38  60  81 114 161 192 238 295 350
#     4   9  19  39  62  84 111 154 195 249 296 343
#
# _framework density 26.388642999999998
#
# number of rings (size 3 to 8) (size 9 to 14) (size 15 to 20)
#    0.000    1.750    5.000    0.750    1.750    1.000 
#    4.500    2.500    0.000    9.000    0.000    0.000 
#    0.000    0.000    0.000    0.000    0.000    0.000 
#
# Total GULP energy -89397.282534 kJ/mol
# GULP energy per Si atom -5587.330158 kJ/mol
# Density = 2.632858 g / cm^3
# Si number density = 26.388643 Si / 1000 Ang^3
#
#
#
# Elastic Constant Matrix: (Units=GPa)
#
#
# Indices 1 2 3 4 5 6 
#
# 1 88.6465 11.0540 36.9086 2.7308 14.9560 9.2980
# 2 11.0540 33.4036 23.6967 7.9326 -1.7897 8.9941
# 3 36.9086 23.6967 237.7095 3.4877 36.0083 0.4465
# 4 2.7308 7.9326 3.4877 40.3706 5.6855 2.5441
# 5 14.9560 -1.7897 36.0083 5.6855 60.0302 5.2810
# 6 9.2980 8.9941 0.4465 2.5441 5.2810 19.1277
#
#
#
# Elastic Compliance Matrix: (Units=1/GPa)
#
#
# Indices 1 2 3 4 5 6 
#
# 1 0.013000 -0.002124 -0.001497 0.000251 -0.002009 -0.004764
# 2 -0.002124 0.041251 -0.004693 -0.007326 0.006957 -0.019201
# 3 -0.001497 -0.004693 0.005404 0.000807 -0.003405 0.003641
# 4 0.000251 -0.007326 0.000807 0.026550 -0.003340 0.000695
# 5 -0.002009 0.006957 -0.003405 -0.003340 0.020376 -0.007397
# 6 -0.004764 -0.019201 0.003641 0.000695 -0.007397 0.065489
#
#
# Mechanical properties :
#
#
# Convention : Reuss Voigt Hill
#
# Bulk Modulus (GPa) = 23.24098 55.89756 39.56927
# Shear Modulus (GPa) = 24.62554 43.11239 33.86896
#
# Velocity S-wave (km/s) = 3.05812 4.04635 3.58644
# Velocity P-wave (km/s) = 4.61474 6.56194 5.67251
#
# Compressibility (1/GPa) = 0.04302744
#
# Stress axis : x y z
#
# Youngs Moduli (GPa) = 76.92372 24.24161 185.04005
#
# Poissons Ratio (x) = 0.05149 0.27703
# Poissons Ratio (y) = 0.16340 0.86834
# Poissons Ratio (z) = 0.11517 0.11376
#
# Static dielectric constant tensor:
#      x y z
#    x 2.151730 -0.064370 0.065780 
#    y -0.064370 2.206220 -0.121810 
#    z 0.065780 -0.121810 2.203460 
# 
# From -- ./inp_files/599900.got.cif
#   From: 2010.05.17/outbox.cif.g08.bks.cpg/sg2_300_cif.got.tgz:599900.got - 2010.06.03 11:33:40.
