data_PCOD9089900
_publ_section_title
;
Structure prediction by ZEFSAII (Michael W. Deem and Ramdas Pophale) SiO2 
 PCOD9089900
Probable space group: P -1
;
_chemical_formula_sum "Si O2"
_cell_formula_units_Z 16
_cell_length_a 12.651834
_cell_length_b 8.226943
_cell_length_c 20.072068
_cell_angle_alpha 131.220663
_cell_angle_beta 27.963757
_cell_angle_gamma 117.292405
_cell_volume 690.236911
_symmetry_space_group_name_H-M "P -1"
_symmetry_group_IT_number 2
_symmetry_cell_setting 'triclinic'
loop_
_space_group_symop_operation_xyz
x,y,z
-x,-y,-z
loop_
_atom_site_type_symbol
_atom_site_label
_atom_site_fract_x
_atom_site_fract_y
_atom_site_fract_z
Si Si1 0.494172 0.597541 0.771315
Si Si2 0.914304 0.183779 0.384195
Si Si3 0.468523 0.764085 0.604552
Si Si4 0.375231 0.276266 0.132117
Si Si5 0.960805 0.797612 0.345785
Si Si6 0.673614 0.690759 0.983175
Si Si7 0.983622 0.020133 0.871871
Si Si8 0.662534 0.883117 0.657906
O O1 0.641861 0.350160 0.592299
O O2 0.524553 0.598945 0.834124
O O3 0.638111 0.759443 0.706115
O O4 0.215054 0.725201 0.943401
O O5 0.944574 0.035766 0.260311
O O6 0.091520 0.327630 0.314816
O O7 0.006824 0.016014 0.350002
O O8 0.500000 0.500000 0.500000
O O9 0.706741 0.806376 0.457644
O O10 0.224814 0.943799 0.759870
O O11 0.490256 0.803250 0.681853
O O12 0.409899 0.330320 0.051200
O O13 0.500000 0.000000 0.000000
O O14 0.903788 0.813810 0.461128
O O15 0.158385 0.556624 0.152888
O O16 0.843917 0.846200 0.922863
O O17 0.452401 0.844794 0.192205
#
# Coordination Sequence:
#
# PCOD9089900 Si02
#       8
#     2   2   2   2   2   2   2   2
#     4  11  21  39  65  87 115 155 209 245 280 359
#     4  11  23  39  60  87 125 156 191 247 306 342
#     4  10  19  38  62  89 120 156 201 242 290 352
#     4  11  20  41  66  89 111 156 208 244 285 355
#     4  10  23  39  56  89 129 152 189 249 299 350
#     4  10  19  38  63  83 119 154 199 243 292 345
#     4  10  20  38  62  89 114 156 208 239 285 346
#     4   9  20  36  60  84 120 149 203 233 295 341
#
# _framework density 23.180444999999999
#
# number of rings (size 3 to 8) (size 9 to 14) (size 15 to 20)
#    0.750    1.000    5.000    2.625    0.000    3.500 
#    2.250    3.750    0.000    0.000    0.000    0.000 
#    0.000    0.000    0.000    0.000    0.000    0.000 
#
# Total GULP energy -89419.523134 kJ/mol
# GULP energy per Si atom -5588.720196 kJ/mol
# Density = 2.312768 g / cm^3
# Si number density = 23.180445 Si / 1000 Ang^3
#
#
#
# Elastic Constant Matrix: (Units=GPa)
#
#
# Indices 1 2 3 4 5 6 
#
# 1 72.0118 5.1519 24.1800 -7.2607 -7.5944 -1.2593
# 2 5.1519 57.4924 28.2816 7.0857 2.3509 -7.6739
# 3 24.1800 28.2816 158.3350 33.9782 2.1544 0.7738
# 4 -7.2607 7.0857 33.9782 33.7833 -4.2969 -7.0841
# 5 -7.5944 2.3509 2.1544 -4.2969 36.0262 -2.6231
# 6 -1.2593 -7.6739 0.7738 -7.0841 -2.6231 17.9281
#
#
#
# Elastic Compliance Matrix: (Units=1/GPa)
#
#
# Indices 1 2 3 4 5 6 
#
# 1 0.017466 0.000306 -0.005217 0.011104 0.005795 0.006818
# 2 0.000306 0.020481 -0.004184 0.002014 -0.000071 0.009754
# 3 -0.005217 -0.004184 0.010819 -0.013364 -0.003682 -0.008444
# 4 0.011104 0.002014 -0.013364 0.051456 0.010904 0.024146
# 5 0.005795 -0.000071 -0.003682 0.010904 0.031190 0.009407
# 6 0.006818 0.009754 -0.008444 0.024146 0.009407 0.071714
#
#
# Mechanical properties :
#
#
# Convention : Reuss Voigt Hill
#
# Bulk Modulus (GPa) = 32.70527 44.78514 38.74521
# Shear Modulus (GPa) = 21.59750 32.89589 27.24669
#
# Velocity S-wave (km/s) = 3.05571 3.77121 3.43216
# Velocity P-wave (km/s) = 5.15649 6.19071 5.69712
#
# Compressibility (1/GPa) = 0.03057611
#
# Stress axis : x y z
#
# Youngs Moduli (GPa) = 57.25289 48.82581 92.42980
#
# Poissons Ratio (x) = -0.01493 0.48220
# Poissons Ratio (y) = -0.01751 0.38672
# Poissons Ratio (z) = 0.29868 0.20429
#
# Static dielectric constant tensor:
#      x y z
#    x 1.871280 -0.004340 -0.013610 
#    y -0.004340 1.907130 -0.029330 
#    z -0.013610 -0.029330 1.894920 
# 
# From -- ./inp_files/597045.got.cif
#   From: 2010.05.17/outbox.cif.g08.bks.cpg/sg2_299_cif.got.tgz:597045.got - 2010.06.03 11:33:40.
