data_PCOD9089994
_publ_section_title
;
Structure prediction by ZEFSAII (Michael W. Deem and Ramdas Pophale) SiO2 
 PCOD9089994
Probable space group: P -1
;
_chemical_formula_sum "Si O2"
_cell_formula_units_Z 14
_cell_length_a 9.126451
_cell_length_b 8.371352
_cell_length_c 12.072550
_cell_angle_alpha 83.892249
_cell_angle_beta 82.561783
_cell_angle_gamma 128.697813
_cell_volume 692.566153
_symmetry_space_group_name_H-M "P -1"
_symmetry_group_IT_number 2
_symmetry_cell_setting 'triclinic'
loop_
_space_group_symop_operation_xyz
x,y,z
-x,-y,-z
loop_
_atom_site_type_symbol
_atom_site_label
_atom_site_fract_x
_atom_site_fract_y
_atom_site_fract_z
Si Si1 0.166051 0.996111 0.867333
Si Si2 0.164523 0.336007 0.729287
Si Si3 0.749430 0.056409 0.710309
Si Si4 0.413835 0.013859 0.662571
Si Si5 0.504823 0.750765 0.572676
Si Si6 0.861254 0.554380 0.032734
Si Si7 0.548501 0.849135 0.976108
O O1 0.138569 0.137587 0.790591
O O2 0.257584 0.931715 0.778269
O O3 0.324321 0.132075 0.938516
O O4 0.974672 0.787922 0.956316
O O5 0.361913 0.505559 0.630783
O O6 0.976109 0.245420 0.682612
O O7 0.168603 0.444203 0.833356
O O8 0.622323 0.125669 0.690532
O O9 0.681961 0.887477 0.632265
O O10 0.672422 0.938945 0.844456
O O11 0.425682 0.167911 0.563972
O O12 0.381542 0.826714 0.610656
O O13 0.654008 0.381480 0.009181
O O14 0.000000 0.500000 0.000000
O O15 0.500000 0.000000 0.000000
#
# Coordination Sequence:
#
# PCOD9089994 Si02
#       7
#     2   2   2   2   2   2   2
#     4  12  25  38  57  98 124 153 195 246 306 353
#     4  12  24  37  61  92 126 154 193 248 306 351
#     4  10  19  38  63  86 115 155 205 238 289 352
#     4   9  20  43  64  82 118 158 208 248 279 352
#     4   9  20  42  65  83 115 162 208 243 286 346
#     4  12  22  38  61  86 121 159 198 242 287 356
#     4  12  20  37  64  87 119 157 199 242 295 358
#
# _framework density 20.214675
#
# number of rings (size 3 to 8) (size 9 to 14) (size 15 to 20)
#    0.857    0.286    5.714    1.286    0.000    2.857 
#    0.000    0.714    0.000    0.000    0.000    0.000 
#    0.000    0.000    0.000    0.000    0.000    0.000 
#
# Total GULP energy -78174.260048 kJ/mol
# GULP energy per Si atom -5583.875718 kJ/mol
# Density = 2.016867 g / cm^3
# Si number density = 20.214675 Si / 1000 Ang^3
#
#
#
# Elastic Constant Matrix: (Units=GPa)
#
#
# Indices 1 2 3 4 5 6 
#
# 1 32.6812 15.3683 0.7065 9.9495 2.5091 2.5345
# 2 15.3683 100.1619 14.9125 -15.5566 1.4534 28.6653
# 3 0.7065 14.9125 89.1929 -13.5252 6.5413 16.6645
# 4 9.9495 -15.5566 -13.5252 20.4049 -5.0832 6.0948
# 5 2.5091 1.4534 6.5413 -5.0832 14.5297 -3.8997
# 6 2.5345 28.6653 16.6645 6.0948 -3.8997 34.1061
#
#
#
# Elastic Compliance Matrix: (Units=1/GPa)
#
#
# Indices 1 2 3 4 5 6 
#
# 1 0.077200 -0.038714 -0.016814 -0.099011 -0.023090 0.050070
# 2 -0.038714 0.039568 0.013612 0.075219 0.009665 -0.049366
# 3 -0.016814 0.013612 0.020316 0.039978 -0.000964 -0.027372
# 4 -0.099011 0.075219 0.039978 0.224283 0.040284 -0.110869
# 5 -0.023090 0.009665 -0.000964 0.040284 0.085470 -0.003362
# 6 0.050070 -0.049366 -0.027372 -0.110869 -0.003362 0.099892
#
#
# Mechanical properties :
#
#
# Convention : Reuss Voigt Hill
#
# Bulk Modulus (GPa) = 18.77916 31.55676 25.16796
# Shear Modulus (GPa) = 7.71233 26.54474 17.12854
#
# Velocity S-wave (km/s) = 1.95538 3.62766 2.91405
# Velocity P-wave (km/s) = 3.79579 5.76119 4.87849
#
# Compressibility (1/GPa) = 0.05325051
#
# Stress axis : x y z
#
# Youngs Moduli (GPa) = 12.95334 25.27311 49.22211
#
# Poissons Ratio (x) = 0.97843 0.82764
# Poissons Ratio (y) = 0.50148 -0.67001
# Poissons Ratio (z) = 0.21780 -0.34401
#
# Static dielectric constant tensor:
#      x y z
#    x 1.726460 -0.039730 -0.005710 
#    y -0.039730 1.717590 0.003420 
#    z -0.005710 0.003420 1.708870 
# 
# From -- ./inp_files/378741.got.cif
#   From: 2010.05.17/outbox.cif.g08.bks.cpg/sg2_190_cif.got.tgz:378741.got - 2010.06.03 11:33:40.
