data_PCOD9089378
_publ_section_title
;
Structure prediction by ZEFSAII (Michael W. Deem and Ramdas Pophale) SiO2 
 PCOD9089378
Probable space group: P -1
;
_chemical_formula_sum "Si O2"
_cell_formula_units_Z 16
_cell_length_a 5.848750
_cell_length_b 14.154714
_cell_length_c 18.571335
_cell_angle_alpha 29.886416
_cell_angle_beta 73.988214
_cell_angle_gamma 67.365332
_cell_volume 701.474418
_symmetry_space_group_name_H-M "P -1"
_symmetry_group_IT_number 2
_symmetry_cell_setting 'triclinic'
loop_
_space_group_symop_operation_xyz
x,y,z
-x,-y,-z
loop_
_atom_site_type_symbol
_atom_site_label
_atom_site_fract_x
_atom_site_fract_y
_atom_site_fract_z
Si Si1 0.987688 0.895711 0.369074
Si Si2 0.763949 0.733844 0.359322
Si Si3 0.568594 0.345341 0.441793
Si Si4 0.349842 0.113026 0.123399
Si Si5 0.120947 0.696472 0.237885
Si Si6 0.707077 0.611463 0.927345
Si Si7 0.227729 0.090621 0.997943
Si Si8 0.512716 0.967107 0.606509
O O1 0.886762 0.816776 0.359712
O O2 0.142063 0.710622 0.527424
O O3 0.760636 0.031709 0.344477
O O4 0.165845 0.020196 0.245188
O O5 0.563724 0.647320 0.472804
O O6 0.960436 0.612121 0.364572
O O7 0.591401 0.930056 0.204051
O O8 0.393131 0.551199 0.290354
O O9 0.548125 0.161639 0.515676
O O10 0.409759 0.262604 0.074538
O O11 0.230755 0.196811 0.003080
O O12 0.959331 0.766754 0.134998
O O13 0.144223 0.892799 0.145829
O O14 0.697557 0.767439 0.758892
O O15 0.500000 0.500000 0.000000
O O16 0.000000 0.500000 0.000000
O O17 0.500000 0.000000 0.000000
O O18 0.500000 0.000000 0.500000
#
# Coordination Sequence:
#
# PCOD9089378 Si02
#       8
#     2   2   2   2   2   2   2   2
#     4  10  19  41  69  92 129 181 227 288 357 427
#     4  10  19  37  69  90 130 174 227 283 330 424
#     4  10  23  40  65  98 129 176 233 290 349 431
#     4  11  21  43  69  95 135 189 232 283 364 422
#     4  11  23  39  62 103 137 180 236 281 347 416
#     4  12  27  48  78 111 141 190 255 310 374 456
#     4  11  24  40  63  93 144 187 227 284 345 427
#     4  11  25  47  72 100 140 182 240 313 377 430
#
# _framework density 22.809100999999998
#
# number of rings (size 3 to 8) (size 9 to 14) (size 15 to 20)
#    0.000    1.250    6.250    1.125    0.000    4.000 
#    2.250    0.000    0.000    0.000    0.000    0.000 
#    0.000    0.000    0.000    0.000    0.000    0.000 
#
# Total GULP energy -89328.700463 kJ/mol
# GULP energy per Si atom -5583.043779 kJ/mol
# Density = 2.275719 g / cm^3
# Si number density = 22.809101 Si / 1000 Ang^3
#
#
#
# Elastic Constant Matrix: (Units=GPa)
#
#
# Indices 1 2 3 4 5 6 
#
# 1 91.7655 24.0668 34.8623 4.6314 23.0089 -3.3298
# 2 24.0668 85.3389 43.0136 21.9088 7.7911 12.2042
# 3 34.8623 43.0136 102.0892 7.2898 31.1453 5.3936
# 4 4.6314 21.9088 7.2898 27.6097 -0.3449 11.2071
# 5 23.0089 7.7911 31.1453 -0.3449 46.1168 -6.3361
# 6 -3.3298 12.2042 5.3936 11.2071 -6.3361 42.5025
#
#
#
# Elastic Compliance Matrix: (Units=1/GPa)
#
#
# Indices 1 2 3 4 5 6 
#
# 1 0.013628 -0.002357 -0.002282 -0.000465 -0.004662 0.001462
# 2 -0.002357 0.019033 -0.007020 -0.012364 0.002453 -0.001133
# 3 -0.002282 -0.007020 0.016184 0.002458 -0.008888 -0.002190
# 4 -0.000465 -0.012364 0.002458 0.049470 -0.000329 -0.009891
# 5 -0.004662 0.002453 -0.008888 -0.000329 0.030235 0.004652
# 6 0.001462 -0.001133 -0.002190 -0.009891 0.004652 0.027548
#
#
# Mechanical properties :
#
#
# Convention : Reuss Voigt Hill
#
# Bulk Modulus (GPa) = 39.17504 53.67545 46.42525
# Shear Modulus (GPa) = 26.60617 35.06252 30.83435
#
# Velocity S-wave (km/s) = 3.41907 3.92499 3.68073
# Velocity P-wave (km/s) = 5.72706 6.64261 6.20175
#
# Compressibility (1/GPa) = 0.02552645
#
# Stress axis : x y z
#
# Youngs Moduli (GPa) = 73.37768 52.53948 61.78815
#
# Poissons Ratio (x) = 0.12383 0.14102
# Poissons Ratio (y) = 0.17295 0.43377
# Poissons Ratio (z) = 0.16748 0.36884
#
# Static dielectric constant tensor:
#      x y z
#    x 1.925420 -0.016470 -0.006000 
#    y -0.016470 1.788900 -0.041790 
#    z -0.006000 -0.041790 2.008400 
# 
# From -- ./inp_files/101297.got.cif
#   From: 2010.05.17/outbox.cif.g08.bks.cpg/sg2_51_cif.got.tgz:101297.got - 2010.06.03 11:33:40.
