data_PCOD9089428
_publ_section_title
;
Structure prediction by ZEFSAII (Michael W. Deem and Ramdas Pophale) SiO2 
 PCOD9089428
Probable space group: P -1
;
_chemical_formula_sum "Si O2"
_cell_formula_units_Z 12
_cell_length_a 9.498780
_cell_length_b 12.477366
_cell_length_c 9.381965
_cell_angle_alpha 108.825111
_cell_angle_beta 47.857887
_cell_angle_gamma 136.641536
_cell_volume 535.441893
_symmetry_space_group_name_H-M "P -1"
_symmetry_group_IT_number 2
_symmetry_cell_setting 'triclinic'
loop_
_space_group_symop_operation_xyz
x,y,z
-x,-y,-z
loop_
_atom_site_type_symbol
_atom_site_label
_atom_site_fract_x
_atom_site_fract_y
_atom_site_fract_z
Si Si1 0.425812 0.201377 0.682262
Si Si2 0.004227 0.845129 0.925077
Si Si3 0.658870 0.625050 0.813701
Si Si4 0.734059 0.353247 0.023330
Si Si5 0.137352 0.711020 0.387169
Si Si6 0.486215 0.898520 0.702111
O O1 0.725230 0.308727 0.592720
O O2 0.426065 0.149547 0.503047
O O3 0.237639 0.043107 0.849321
O O4 0.252738 0.241796 0.832985
O O5 0.180080 0.811094 0.829291
O O6 0.892212 0.793079 0.817889
O O7 0.826919 0.611705 0.595558
O O8 0.500000 0.500000 0.000000
O O9 0.454671 0.619915 0.869571
O O10 0.832797 0.341315 0.803305
O O11 0.547833 0.181905 0.161997
O O12 0.000000 0.500000 0.000000
O O13 0.309910 0.904950 0.345852
#
# Coordination Sequence:
#
# PCOD9089428 Si02
#       6
#     2   2   2   2   2   2
#     4  10  19  37  73  99 127 164 218 271 321 387
#     4  10  19  38  66 101 127 166 217 263 322 392
#     4  12  25  43  69  94 129 179 225 264 326 399
#     4  12  29  45  62  98 140 175 217 273 332 388
#     4  11  23  44  71  99 129 176 222 270 326 390
#     4  11  22  42  71 103 135 164 214 280 330 388
#
# _framework density 22.411394999999999
#
# number of rings (size 3 to 8) (size 9 to 14) (size 15 to 20)
#    0.000    1.000    5.000    2.500    0.000    4.667 
#    0.000    0.000    0.000    0.000    0.000    0.000 
#    0.000    0.000    0.000    0.000    0.000    0.000 
#
# Total GULP energy -67077.453212 kJ/mol
# GULP energy per Si atom -5589.787768 kJ/mol
# Density = 2.236039 g / cm^3
# Si number density = 22.411395 Si / 1000 Ang^3
#
#
#
# Elastic Constant Matrix: (Units=GPa)
#
#
# Indices 1 2 3 4 5 6 
#
# 1 123.4756 14.6840 55.1588 -1.7788 -28.1443 -6.4158
# 2 14.6840 51.3815 29.2468 0.4469 -5.9308 8.7243
# 3 55.1588 29.2468 182.8195 27.8847 -31.6400 -8.4351
# 4 -1.7788 0.4469 27.8847 48.4520 1.6329 3.9947
# 5 -28.1443 -5.9308 -31.6400 1.6329 40.0320 4.6881
# 6 -6.4158 8.7243 -8.4351 3.9947 4.6881 28.7397
#
#
#
# Elastic Compliance Matrix: (Units=1/GPa)
#
#
# Indices 1 2 3 4 5 6 
#
# 1 0.010523 -0.001326 -0.002218 0.001411 0.005269 0.001045
# 2 -0.001326 0.023821 -0.004248 0.002929 0.000198 -0.009214
# 3 -0.002218 -0.004248 0.008557 -0.005390 0.004404 0.003337
# 4 0.001411 0.002929 -0.005390 0.024288 -0.003239 -0.005004
# 5 0.005269 0.000198 0.004404 -0.003239 0.032614 -0.002462
# 6 0.001045 -0.009214 0.003337 -0.005004 -0.002462 0.039902
#
#
# Mechanical properties :
#
#
# Convention : Reuss Voigt Hill
#
# Bulk Modulus (GPa) = 36.60858 61.76176 49.18517
# Shear Modulus (GPa) = 30.41450 40.68388 35.54919
#
# Velocity S-wave (km/s) = 3.68788 4.26528 3.98705
# Velocity P-wave (km/s) = 5.87403 7.20242 6.57187
#
# Compressibility (1/GPa) = 0.02731600
#
# Stress axis : x y z
#
# Youngs Moduli (GPa) = 95.03172 41.97913 116.86499
#
# Poissons Ratio (x) = 0.05568 0.25919
# Poissons Ratio (y) = 0.12605 0.49647
# Poissons Ratio (z) = 0.21077 0.17834
#
# Static dielectric constant tensor:
#      x y z
#    x 1.813850 0.003640 -0.062340 
#    y 0.003640 1.963910 -0.029010 
#    z -0.062340 -0.029010 1.831370 
# 
# From -- ./inp_files/149798.got.cif
#   From: 2010.05.17/outbox.cif.g08.bks.cpg/sg2_75_cif.got.tgz:149798.got - 2010.06.03 11:33:40.
