data_PCOD9089205
_publ_section_title
;
Structure prediction by ZEFSAII (Michael W. Deem and Ramdas Pophale) SiO2 
 PCOD9089205
Probable space group: P -1
;
_chemical_formula_sum "Si O2"
_cell_formula_units_Z 16
_cell_length_a 11.323936
_cell_length_b 11.683438
_cell_length_c 8.405256
_cell_angle_alpha 113.115294
_cell_angle_beta 51.867434
_cell_angle_gamma 96.652440
_cell_volume 792.077952
_symmetry_space_group_name_H-M "P -1"
_symmetry_group_IT_number 2
_symmetry_cell_setting 'triclinic'
loop_
_space_group_symop_operation_xyz
x,y,z
-x,-y,-z
loop_
_atom_site_type_symbol
_atom_site_label
_atom_site_fract_x
_atom_site_fract_y
_atom_site_fract_z
Si Si1 0.089460 0.604512 0.184805
Si Si2 0.000525 0.887822 0.312057
Si Si3 0.246506 0.794135 0.797061
Si Si4 0.176630 0.538154 0.708981
Si Si5 0.398496 0.628258 0.100369
Si Si6 0.545268 0.689669 0.686668
Si Si7 0.442781 0.851307 0.405095
Si Si8 0.336318 0.108870 0.501109
O O1 0.234024 0.597894 0.174297
O O2 0.021218 0.752666 0.308428
O O3 0.957416 0.525601 0.289923
O O4 0.146799 0.557567 0.934237
O O5 0.839761 0.901367 0.362875
O O6 0.000000 0.000000 0.500000
O O7 0.138574 0.871303 0.061097
O O8 0.169991 0.680411 0.728482
O O9 0.398309 0.712942 0.706755
O O10 0.309637 0.882572 0.665776
O O11 0.334211 0.439659 0.505318
O O12 0.403938 0.728985 0.287823
O O13 0.500000 0.500000 0.000000
O O14 0.473493 0.685362 0.917214
O O15 0.627351 0.806747 0.631879
O O16 0.601264 0.829856 0.359201
O O17 0.430688 0.966750 0.355810
#
# Coordination Sequence:
#
# PCOD9089205 Si02
#       8
#     2   2   2   2   2   2   2   2
#     4  10  22  38  61  98 123 167 208 262 317 365
#     4  11  21  41  68  96 124 166 216 266 304 377
#     4  10  22  39  67  93 124 172 212 253 321 376
#     4  10  19  37  66  91 125 159 219 257 304 389
#     4  12  25  39  63  96 133 165 206 269 324 365
#     4  11  21  39  65  97 120 172 218 251 319 380
#     4  10  24  45  59  96 132 164 212 265 311 386
#     4  10  23  42  68  87 128 170 211 257 317 373
#
# _framework density 20.200030999999999
#
# number of rings (size 3 to 8) (size 9 to 14) (size 15 to 20)
#    0.000    1.500    3.750    1.875    3.500    1.000 
#    4.500    3.750    0.000    0.000    0.000    0.000 
#    0.000    0.000    0.000    0.000    0.000    0.000 
#
# Total GULP energy -89268.555939 kJ/mol
# GULP energy per Si atom -5579.284746 kJ/mol
# Density = 2.015406 g / cm^3
# Si number density = 20.200031 Si / 1000 Ang^3
#
#
#
# Elastic Constant Matrix: (Units=GPa)
#
#
# Indices 1 2 3 4 5 6 
#
# 1 147.1855 28.1442 40.7228 20.4809 -11.6087 21.6593
# 2 28.1442 74.3678 38.0255 4.1728 7.4179 10.6679
# 3 40.7228 38.0255 85.4429 12.8266 -6.6223 24.0303
# 4 20.4809 4.1728 12.8266 21.4238 5.4171 4.3041
# 5 -11.6087 7.4179 -6.6223 5.4171 22.1563 1.7589
# 6 21.6593 10.6679 24.0303 4.3041 1.7589 36.1030
#
#
#
# Elastic Compliance Matrix: (Units=1/GPa)
#
#
# Indices 1 2 3 4 5 6 
#
# 1 0.010411 -0.003920 0.000517 -0.011104 0.010001 -0.004595
# 2 -0.003920 0.021024 -0.010882 0.009324 -0.014863 0.002995
# 3 0.000517 -0.010882 0.022642 -0.013420 0.014859 -0.011289
# 4 -0.011104 0.009324 -0.013420 0.070034 -0.030548 0.005978
# 5 0.010001 -0.014863 0.014859 -0.030548 0.068148 -0.011177
# 6 -0.004595 0.002995 -0.011289 0.005978 -0.011177 0.036916
#
#
# Mechanical properties :
#
#
# Convention : Reuss Voigt Hill
#
# Bulk Modulus (GPa) = 39.20596 57.86457 48.53526
# Shear Modulus (GPa) = 18.77957 29.27687 24.02822
#
# Velocity S-wave (km/s) = 3.05237 3.81116 3.45267
# Velocity P-wave (km/s) = 5.64567 6.93358 6.32251
#
# Compressibility (1/GPa) = 0.02550633
#
# Stress axis : x y z
#
# Youngs Moduli (GPa) = 96.05403 47.56445 44.16661
#
# Poissons Ratio (x) = 0.18644 -0.02284
# Poissons Ratio (y) = 0.37650 0.48064
# Poissons Ratio (z) = -0.04966 0.51762
#
# Static dielectric constant tensor:
#      x y z
#    x 1.749840 0.014630 -0.009120 
#    y 0.014630 1.757660 -0.032050 
#    z -0.009120 -0.032050 1.712230 
# 
# From -- ./inp_files/262933.got.cif
#   From: 2010.05.17/outbox.cif.g08.bks.cpg/sg2_132_cif.got.tgz:262933.got - 2010.06.03 11:33:40.
