data_PCOD9089891
_publ_section_title
;
Structure prediction by ZEFSAII (Michael W. Deem and Ramdas Pophale) SiO2 
 PCOD9089891
Probable space group: P -1
;
_chemical_formula_sum "Si O2"
_cell_formula_units_Z 16
_cell_length_a 7.703033
_cell_length_b 12.798962
_cell_length_c 15.761087
_cell_angle_alpha 44.407391
_cell_angle_beta 79.344982
_cell_angle_gamma 113.068608
_cell_volume 692.186713
_symmetry_space_group_name_H-M "P -1"
_symmetry_group_IT_number 2
_symmetry_cell_setting 'triclinic'
loop_
_space_group_symop_operation_xyz
x,y,z
-x,-y,-z
loop_
_atom_site_type_symbol
_atom_site_label
_atom_site_fract_x
_atom_site_fract_y
_atom_site_fract_z
Si Si1 0.867979 0.375767 0.259777
Si Si2 0.383170 0.218668 0.496724
Si Si3 0.886504 0.766303 0.732417
Si Si4 0.238710 0.737168 0.150018
Si Si5 0.721455 0.391628 0.620320
Si Si6 0.181296 0.001749 0.827001
Si Si7 0.285558 0.480412 0.926324
Si Si8 0.238790 0.361537 0.678490
O O1 0.611137 0.259546 0.409041
O O2 0.939902 0.248353 0.322964
O O3 0.141398 0.625853 0.130377
O O4 0.787064 0.396963 0.164301
O O5 0.288061 0.091346 0.669585
O O6 0.533011 0.466335 0.369062
O O7 0.101464 0.036472 0.576436
O O8 0.797354 0.624600 0.910829
O O9 0.603155 0.644356 0.791340
O O10 0.251802 0.595263 0.288794
O O11 0.999767 0.688993 0.234535
O O12 0.500000 0.000000 0.000000
O O13 0.453970 0.120525 0.779810
O O14 0.688287 0.514890 0.491272
O O15 0.000000 0.500000 0.500000
O O16 0.134121 0.128705 0.804983
O O17 0.902927 0.733481 0.998439
#
# Coordination Sequence:
#
# PCOD9089891 Si02
#       8
#     2   2   2   2   2   2   2   2
#     4  11  22  40  62  89 124 158 195 259 310 340
#     4   9  19  37  61  88 121 152 201 255 290 355
#     4  10  22  42  65  84 118 161 210 242 301 370
#     4  10  21  35  53  88 125 154 198 243 295 370
#     4   9  17  33  55  80 117 158 195 230 284 359
#     4  10  19  38  62  88 123 157 197 246 300 358
#     4  10  23  41  64  91 119 158 204 250 298 369
#     4   9  19  36  61  84 122 161 191 245 299 351
#
# _framework density 23.115151999999998
#
# number of rings (size 3 to 8) (size 9 to 14) (size 15 to 20)
#    0.000    2.250    0.000    3.750    1.750    0.500 
#    6.750    3.125   33.000    0.000    0.000    0.000 
#    0.000    0.000    0.000    0.000    0.000    0.000 
#
# Total GULP energy -89162.151282 kJ/mol
# GULP energy per Si atom -5572.634455 kJ/mol
# Density = 2.306254 g / cm^3
# Si number density = 23.115152 Si / 1000 Ang^3
#
#
#
# Elastic Constant Matrix: (Units=GPa)
#
#
# Indices 1 2 3 4 5 6 
#
# 1 119.1021 41.5497 27.2360 -19.9112 -8.7498 22.7050
# 2 41.5497 76.3125 27.5199 -16.1637 -13.9439 17.0959
# 3 27.2360 27.5199 48.1882 -9.4691 -10.6733 14.0286
# 4 -19.9112 -16.1637 -9.4691 40.2607 13.0351 -8.3606
# 5 -8.7498 -13.9439 -10.6733 13.0351 29.9959 -1.3616
# 6 22.7050 17.0959 14.0286 -8.3606 -1.3616 43.7211
#
#
#
# Elastic Compliance Matrix: (Units=1/GPa)
#
#
# Indices 1 2 3 4 5 6 
#
# 1 0.011481 -0.004086 -0.002953 0.003098 -0.001078 -0.002858
# 2 -0.004086 0.019666 -0.006654 0.002270 0.004466 -0.002860
# 3 -0.002953 -0.006654 0.029012 -0.000402 0.006314 -0.005054
# 4 0.003098 0.002270 -0.000402 0.031701 -0.011810 0.003327
# 5 -0.001078 0.004466 0.006314 -0.011810 0.042290 -0.004154
# 6 -0.002858 -0.002860 -0.005054 0.003327 -0.004154 0.027603
#
#
# Mechanical properties :
#
#
# Convention : Reuss Voigt Hill
#
# Bulk Modulus (GPa) = 30.51399 48.46822 39.49111
# Shear Modulus (GPa) = 24.99221 32.61535 28.80378
#
# Velocity S-wave (km/s) = 3.29174 3.76040 3.53384
# Velocity P-wave (km/s) = 5.26088 6.31409 5.81140
#
# Compressibility (1/GPa) = 0.03277185
#
# Stress axis : x y z
#
# Youngs Moduli (GPa) = 87.10369 50.84979 34.46887
#
# Poissons Ratio (x) = 0.20779 0.10179
# Poissons Ratio (y) = 0.35593 0.22934
# Poissons Ratio (z) = 0.25722 0.33834
#
# Static dielectric constant tensor:
#      x y z
#    x 1.896520 0.048730 0.003140 
#    y 0.048730 1.906190 0.026460 
#    z 0.003140 0.026460 1.942760 
# 
# From -- ./inp_files/561147.got.cif
#   From: 2010.05.17/outbox.cif.g08.bks.cpg/sg2_281_cif.got.tgz:561147.got - 2010.06.03 11:33:40.
