data_PCOD9089719
_publ_section_title
;
Structure prediction by ZEFSAII (Michael W. Deem and Ramdas Pophale) SiO2 
 PCOD9089719
Probable space group: P -1
;
_chemical_formula_sum "Si O2"
_cell_formula_units_Z 16
_cell_length_a 7.020579
_cell_length_b 18.829684
_cell_length_c 5.406700
_cell_angle_alpha 91.905929
_cell_angle_beta 78.044688
_cell_angle_gamma 84.710181
_cell_volume 695.252810
_symmetry_space_group_name_H-M "P -1"
_symmetry_group_IT_number 2
_symmetry_cell_setting 'triclinic'
loop_
_space_group_symop_operation_xyz
x,y,z
-x,-y,-z
loop_
_atom_site_type_symbol
_atom_site_label
_atom_site_fract_x
_atom_site_fract_y
_atom_site_fract_z
Si Si1 0.980618 0.605383 0.177387
Si Si2 0.020206 0.921995 0.246019
Si Si3 0.487856 0.374103 0.675483
Si Si4 0.680940 0.500682 0.763223
Si Si5 0.997841 0.690356 0.693556
Si Si6 0.688277 0.040336 0.481814
Si Si7 0.581532 0.666215 0.799763
Si Si8 0.896876 0.154928 0.289161
O O1 0.109627 0.531261 0.194473
O O2 0.014689 0.655439 0.411719
O O3 0.745790 0.602566 0.217909
O O4 0.049404 0.636867 0.903274
O O5 0.230957 0.949617 0.259917
O O6 0.987570 0.876645 0.499974
O O7 0.862195 0.990208 0.294948
O O8 0.018396 0.875464 0.996936
O O9 0.614361 0.439906 0.590159
O O10 0.514644 0.319337 0.437189
O O11 0.323527 0.416559 0.287158
O O12 0.545411 0.338637 0.921228
O O13 0.500000 0.500000 0.000000
O O14 0.101990 0.761260 0.695721
O O15 0.763214 0.710866 0.796585
O O16 0.692588 0.119205 0.373879
O O17 0.500000 0.000000 0.500000
#
# Coordination Sequence:
#
# PCOD9089719 Si02
#       8
#     2   2   2   2   2   2   2   2
#     4  10  22  37  58  80 106 147 192 234 285 344
#     4   9  20  36  61  92 116 155 194 231 286 325
#     4   9  19  34  53  78 104 131 178 228 289 325
#     4  10  21  36  59  80 108 138 189 246 294 330
#     4  10  21  37  60  79 113 156 187 224 287 342
#     4   9  20  36  64  92 124 147 196 240 279 327
#     4   9  19  33  53  79 102 138 184 224 285 328
#     4  10  19  38  61  83 123 159 190 234 283 342
#
# _framework density 23.013211999999999
#
# number of rings (size 3 to 8) (size 9 to 14) (size 15 to 20)
#    0.750    1.750    0.000    1.500    0.000   11.000 
#    0.000    0.000   22.000    0.000    0.000    0.000 
#    0.000    0.000    0.000    0.000    0.000    0.000 
#
# Total GULP energy -89196.700090 kJ/mol
# GULP energy per Si atom -5574.793756 kJ/mol
# Density = 2.296083 g / cm^3
# Si number density = 23.013212 Si / 1000 Ang^3
#
#
#
# Elastic Constant Matrix: (Units=GPa)
#
#
# Indices 1 2 3 4 5 6 
#
# 1 99.8483 48.3168 24.4040 7.3092 7.6215 21.1707
# 2 48.3168 83.5134 18.0660 -1.4112 -1.5155 26.8109
# 3 24.4040 18.0660 149.8004 -2.5754 23.5724 4.2320
# 4 7.3092 -1.4112 -2.5754 24.2834 6.4556 0.8463
# 5 7.6215 -1.5155 23.5724 6.4556 23.0505 -0.4501
# 6 21.1707 26.8109 4.2320 0.8463 -0.4501 26.3279
#
#
#
# Elastic Compliance Matrix: (Units=1/GPa)
#
#
# Indices 1 2 3 4 5 6 
#
# 1 0.015344 -0.007286 -0.001012 -0.004063 -0.003471 -0.004685
# 2 -0.007286 0.021854 -0.001651 0.002661 0.004474 -0.016140
# 3 -0.001012 -0.001651 0.008581 0.003628 -0.009549 0.000836
# 4 -0.004063 0.002661 0.003628 0.047105 -0.015419 -0.001804
# 5 -0.003471 0.004474 -0.009549 -0.015419 0.058933 0.001273
# 6 -0.004685 -0.016140 0.000836 -0.001804 0.001273 0.058131
#
#
# Mechanical properties :
#
#
# Convention : Reuss Voigt Hill
#
# Bulk Modulus (GPa) = 38.63889 57.19285 47.91587
# Shear Modulus (GPa) = 20.96669 30.89072 25.92870
#
# Velocity S-wave (km/s) = 3.02167 3.66772 3.36026
# Velocity P-wave (km/s) = 5.38519 6.54541 5.99344
#
# Compressibility (1/GPa) = 0.02588066
#
# Stress axis : x y z
#
# Youngs Moduli (GPa) = 65.17222 45.75770 116.53748
#
# Poissons Ratio (x) = 0.33339 0.11798
# Poissons Ratio (y) = 0.47484 0.19240
# Poissons Ratio (z) = 0.06598 0.07554
#
# Static dielectric constant tensor:
#      x y z
#    x 1.959390 0.004550 0.075590 
#    y 0.004550 1.906890 -0.025120 
#    z 0.075590 -0.025120 1.965010 
# 
# From -- ./inp_files/42425.got.cif
#   From: 2010.05.17/outbox.cif.g08.bks.cpg/sg2_22_cif.got.tgz:42425.got - 2010.06.03 11:33:40.
