data_PCOD9089262
_publ_section_title
;
Structure prediction by ZEFSAII (Michael W. Deem and Ramdas Pophale) SiO2 
 PCOD9089262
Probable space group: P -1
;
_chemical_formula_sum "Si O2"
_cell_formula_units_Z 12
_cell_length_a 13.541381
_cell_length_b 8.264356
_cell_length_c 10.167024
_cell_angle_alpha 47.813270
_cell_angle_beta 136.627137
_cell_angle_gamma 105.358377
_cell_volume 520.246821
_symmetry_space_group_name_H-M "P -1"
_symmetry_group_IT_number 2
_symmetry_cell_setting 'triclinic'
loop_
_space_group_symop_operation_xyz
x,y,z
-x,-y,-z
loop_
_atom_site_type_symbol
_atom_site_label
_atom_site_fract_x
_atom_site_fract_y
_atom_site_fract_z
Si Si1 0.816585 0.608609 0.427570
Si Si2 0.885593 0.839790 0.136891
Si Si3 0.929101 0.305616 0.949115
Si Si4 0.280168 0.095574 0.318967
Si Si5 0.371991 0.474707 0.289152
Si Si6 0.462222 0.521002 0.800305
O O1 0.825740 0.822825 0.234600
O O2 0.642651 0.621277 0.253070
O O3 0.934009 0.368676 0.589784
O O4 0.880716 0.533232 0.678568
O O5 0.886290 0.094878 0.966034
O O6 0.783775 0.790325 0.950309
O O7 0.120689 0.178086 0.209312
O O8 0.810016 0.392126 0.909246
O O9 0.394893 0.199388 0.438058
O O10 0.363016 0.810539 0.530267
O O11 0.500000 0.500000 0.500000
O O12 0.396859 0.565881 0.121642
O O13 0.500000 0.500000 0.000000
#
# Coordination Sequence:
#
# PCOD9089262 Si02
#       6
#     2   2   2   2   2   2
#     4  10  19  37  67 101 127 172 221 267 325 396
#     4  10  19  38  74  96 129 170 232 269 319 395
#     4  11  21  44  69 101 135 171 222 282 329 391
#     4  11  22  44  69  93 132 188 222 268 329 401
#     4  12  25  42  66  99 141 173 215 278 348 387
#     4  12  24  43  66  98 134 177 229 270 326 409
#
# _framework density 23.065977
#
# number of rings (size 3 to 8) (size 9 to 14) (size 15 to 20)
#    0.000    1.000    5.000    3.000    0.000    1.333 
#    3.000    2.500    0.000    0.000    0.000    0.000 
#    0.000    0.000    0.000    0.000    0.000    0.000 
#
# Total GULP energy -66989.854602 kJ/mol
# GULP energy per Si atom -5582.487883 kJ/mol
# Density = 2.301348 g / cm^3
# Si number density = 23.065977 Si / 1000 Ang^3
#
#
#
# Elastic Constant Matrix: (Units=GPa)
#
#
# Indices 1 2 3 4 5 6 
#
# 1 207.8898 13.7160 35.6700 2.2312 -7.8855 -13.9897
# 2 13.7160 81.6323 3.2494 17.5206 -4.0871 21.2423
# 3 35.6700 3.2494 49.8033 2.9776 -13.0026 1.2226
# 4 2.2312 17.5206 2.9776 15.8791 3.5772 1.1701
# 5 -7.8855 -4.0871 -13.0026 3.5772 31.2277 0.2243
# 6 -13.9897 21.2423 1.2226 1.1701 0.2243 32.3945
#
#
#
# Elastic Compliance Matrix: (Units=1/GPa)
#
#
# Indices 1 2 3 4 5 6 
#
# 1 0.006018 -0.002655 -0.004722 0.002904 -0.001158 0.004421
# 2 -0.002655 0.022246 0.004165 -0.025422 0.006996 -0.015021
# 3 -0.004722 0.004165 0.027129 -0.011316 0.011984 -0.005468
# 4 0.002904 -0.025422 -0.011316 0.095775 -0.018385 0.015020
# 5 -0.001158 0.006996 0.011984 -0.018385 0.039779 -0.005151
# 6 0.004421 -0.015021 -0.005468 0.015020 -0.005151 0.042328
#
#
# Mechanical properties :
#
#
# Convention : Reuss Voigt Hill
#
# Bulk Modulus (GPa) = 20.42080 49.39960 34.91020
# Shear Modulus (GPa) = 19.52968 35.01293 27.27130
#
# Velocity S-wave (km/s) = 2.91295 3.90031 3.44221
# Velocity P-wave (km/s) = 4.49290 6.46114 5.56473
#
# Compressibility (1/GPa) = 0.04896967
#
# Stress axis : x y z
#
# Youngs Moduli (GPa) = 166.16943 44.95217 36.86156
#
# Poissons Ratio (x) = 0.11935 0.17404
# Poissons Ratio (y) = 0.44119 -0.15354
# Poissons Ratio (z) = 0.78457 -0.18724
#
# Static dielectric constant tensor:
#      x y z
#    x 1.953790 -0.051300 -0.111150 
#    y -0.051300 1.917850 0.072350 
#    z -0.111150 0.072350 2.052750 
# 
# From -- ./inp_files/159038.got.cif
#   From: 2010.05.17/outbox.cif.g08.bks.cpg/sg2_80_cif.got.tgz:159038.got - 2010.06.03 11:33:40.
