data_PCOD9089180
_publ_section_title
;
Structure prediction by ZEFSAII (Michael W. Deem and Ramdas Pophale) SiO2 
 PCOD9089180
Probable space group: P -1
;
_chemical_formula_sum "Si O2"
_cell_formula_units_Z 16
_cell_length_a 9.451093
_cell_length_b 12.886845
_cell_length_c 12.536906
_cell_angle_alpha 43.345524
_cell_angle_beta 46.696892
_cell_angle_gamma 63.653994
_cell_volume 758.089498
_symmetry_space_group_name_H-M "P -1"
_symmetry_group_IT_number 2
_symmetry_cell_setting 'triclinic'
loop_
_space_group_symop_operation_xyz
x,y,z
-x,-y,-z
loop_
_atom_site_type_symbol
_atom_site_label
_atom_site_fract_x
_atom_site_fract_y
_atom_site_fract_z
Si Si1 0.984433 0.571002 0.572981
Si Si2 0.098893 0.197849 0.700225
Si Si3 0.436032 0.636636 0.288584
Si Si4 0.257421 0.230487 0.822962
Si Si5 0.642123 0.104644 0.018329
Si Si6 0.546971 0.958529 0.385863
Si Si7 0.318244 0.622466 0.716046
Si Si8 0.978571 0.437998 0.896108
O O1 0.209748 0.618639 0.446511
O O2 0.000000 0.500000 0.500000
O O3 0.868190 0.710545 0.495347
O O4 0.906733 0.479892 0.784275
O O5 0.191768 0.264678 0.712091
O O6 0.218587 0.054622 0.730549
O O7 0.868403 0.175629 0.858125
O O8 0.552703 0.665556 0.315630
O O9 0.520263 0.495634 0.292977
O O10 0.463299 0.785607 0.086687
O O11 0.087615 0.284776 0.944323
O O12 0.319141 0.061054 0.923378
O O13 0.528731 0.075898 0.210420
O O14 0.424191 0.796173 0.536650
O O15 0.500000 0.000000 0.500000
O O16 0.144188 0.568530 0.760183
O O17 0.201645 0.589321 0.911122
#
# Coordination Sequence:
#
# PCOD9089180 Si02
#       8
#     2   2   2   2   2   2   2   2
#     4  11  21  37  62  94 124 157 207 259 320 361
#     4  10  22  39  60  93 124 163 205 254 322 375
#     4  10  23  39  64  94 124 161 212 262 310 375
#     4  10  19  37  66  86 122 161 210 252 312 366
#     4  10  23  40  62  92 130 159 209 255 323 369
#     4  11  24  39  65  91 127 165 215 255 311 378
#     4  10  24  42  61  94 125 173 214 249 320 375
#     4  10  23  39  65  88 132 169 207 263 312 376
#
# _framework density 21.105688000000001
#
# number of rings (size 3 to 8) (size 9 to 14) (size 15 to 20)
#    0.000    1.750    1.250    2.625    8.750    2.000 
#    0.000    1.875    0.000    3.000    0.000    0.000 
#    0.000    0.000    0.000    0.000    0.000    0.000 
#
# Total GULP energy -89179.905781 kJ/mol
# GULP energy per Si atom -5573.744111 kJ/mol
# Density = 2.105765 g / cm^3
# Si number density = 21.105688 Si / 1000 Ang^3
#
#
#
# Elastic Constant Matrix: (Units=GPa)
#
#
# Indices 1 2 3 4 5 6 
#
# 1 88.0294 23.0553 32.1643 1.0164 4.7716 11.8737
# 2 23.0553 79.9529 33.4774 2.0210 10.9743 15.2402
# 3 32.1643 33.4774 103.6823 -0.1216 19.4025 12.3610
# 4 1.0164 2.0210 -0.1216 33.2483 2.8692 5.3252
# 5 4.7716 10.9743 19.4025 2.8692 31.7857 0.5722
# 6 11.8737 15.2402 12.3610 5.3252 0.5722 27.9687
#
#
#
# Elastic Compliance Matrix: (Units=1/GPa)
#
#
# Indices 1 2 3 4 5 6 
#
# 1 0.013478 -0.001998 -0.003285 0.000152 0.000716 -0.003225
# 2 -0.001998 0.016097 -0.003196 0.000393 -0.003225 -0.006519
# 3 -0.003285 -0.003196 0.013268 0.001368 -0.006574 -0.002853
# 4 0.000152 0.000393 0.001368 0.031462 -0.003711 -0.006798
# 5 0.000716 -0.003225 -0.006574 -0.003711 0.036737 0.004314
# 6 -0.003225 -0.006519 -0.002853 -0.006798 0.004314 0.043143
#
#
# Mechanical properties :
#
#
# Convention : Reuss Voigt Hill
#
# Bulk Modulus (GPa) = 38.63530 49.89540 44.26535
# Shear Modulus (GPa) = 27.81271 30.79835 29.30553
#
# Velocity S-wave (km/s) = 3.63407 3.82415 3.73032
# Velocity P-wave (km/s) = 5.99616 6.57198 6.29066
#
# Compressibility (1/GPa) = 0.02588307
#
# Stress axis : x y z
#
# Youngs Moduli (GPa) = 74.19499 62.12168 75.36821
#
# Poissons Ratio (x) = 0.12415 0.24761
# Poissons Ratio (y) = 0.14828 0.24091
# Poissons Ratio (z) = 0.24376 0.19857
#
# Static dielectric constant tensor:
#      x y z
#    x 1.810100 0.003630 0.013160 
#    y 0.003630 1.864470 -0.090890 
#    z 0.013160 -0.090890 1.846150 
# 
# From -- ./inp_files/391959.got.cif
#   From: 2010.05.17/outbox.cif.g08.bks.cpg/sg2_196_cif.got.tgz:391959.got - 2010.06.03 11:33:40.
