data_PCOD9089163
_publ_section_title
;
Structure prediction by ZEFSAII (Michael W. Deem and Ramdas Pophale) SiO2 
 PCOD9089163
Probable space group: P -1
;
_chemical_formula_sum "Si O2"
_cell_formula_units_Z 14
_cell_length_a 20.857119
_cell_length_b 10.091164
_cell_length_c 17.960015
_cell_angle_alpha 23.525292
_cell_angle_beta 158.362541
_cell_angle_gamma 148.815139
_cell_volume 556.223794
_symmetry_space_group_name_H-M "P -1"
_symmetry_group_IT_number 2
_symmetry_cell_setting 'triclinic'
loop_
_space_group_symop_operation_xyz
x,y,z
-x,-y,-z
loop_
_atom_site_type_symbol
_atom_site_label
_atom_site_fract_x
_atom_site_fract_y
_atom_site_fract_z
Si Si1 0.842446 0.597042 0.885081
Si Si2 0.373661 0.963545 0.664417
Si Si3 0.261276 0.655905 0.932337
Si Si4 0.398199 0.643069 0.575372
Si Si5 0.705893 0.613664 0.242520
Si Si6 0.070241 0.993615 0.440187
Si Si7 0.905583 0.972497 0.992095
O O1 0.675965 0.701158 0.605162
O O2 0.794151 0.459898 0.985915
O O3 0.975677 0.326252 0.140586
O O4 0.951643 0.943829 0.835652
O O5 0.337670 0.655540 0.728677
O O6 0.233350 0.934251 0.593745
O O7 0.570544 0.913932 0.930463
O O8 0.159768 0.973813 0.629448
O O9 0.468661 0.629911 0.167617
O O10 0.195823 0.376040 0.945340
O O11 0.337470 0.551210 0.639844
O O12 0.500000 0.000000 0.500000
O O13 0.230803 0.731538 0.301300
O O14 0.904722 0.739013 0.390686
O O15 0.000000 0.000000 0.000000
#
# Coordination Sequence:
#
# PCOD9089163 Si02
#       7
#     2   2   2   2   2   2   2
#     4  11  23  42  62  94 132 170 207 262 321 383
#     4  11  24  44  65  92 130 168 219 259 316 382
#     4  10  20  39  65  93 125 163 220 263 309 375
#     4  10  19  37  65  98 126 157 213 272 314 365
#     4  11  23  42  70  93 126 168 216 271 309 373
#     4  12  24  43  65  94 132 169 212 260 325 378
#     4   9  18  35  62  88 122 160 210 256 308 363
#
# _framework density 25.169725
#
# number of rings (size 3 to 8) (size 9 to 14) (size 15 to 20)
#    0.000    1.429    1.429    6.429    0.000    0.571 
#    7.714    1.429    0.000    0.000    0.000    0.000 
#    0.000    0.000    0.000    0.000    0.000    0.000 
#
# Total GULP energy -78310.912325 kJ/mol
# GULP energy per Si atom -5593.636595 kJ/mol
# Density = 2.511244 g / cm^3
# Si number density = 25.169725 Si / 1000 Ang^3
#
#
#
# Elastic Constant Matrix: (Units=GPa)
#
#
# Indices 1 2 3 4 5 6 
#
# 1 85.9175 -2.4258 31.7486 6.0645 -5.2324 16.5213
# 2 -2.4258 66.4258 24.4954 7.3112 -4.2551 7.2560
# 3 31.7486 24.4954 227.1855 27.0429 -7.7208 20.2198
# 4 6.0645 7.3112 27.0429 51.1194 7.8628 0.7324
# 5 -5.2324 -4.2551 -7.7208 7.8628 46.3394 1.7068
# 6 16.5213 7.2560 20.2198 0.7324 1.7068 10.5656
#
#
#
# Elastic Compliance Matrix: (Units=1/GPa)
#
#
# Indices 1 2 3 4 5 6 
#
# 1 0.018610 0.004857 0.000424 -0.003324 0.004424 -0.033731
# 2 0.004857 0.018087 -0.000387 -0.003202 0.003410 -0.019604
# 3 0.000424 -0.000387 0.005883 -0.003243 0.001975 -0.011750
# 4 -0.003324 -0.003202 -0.003243 0.022799 -0.005554 0.012919
# 5 0.004424 0.003410 0.001975 -0.005554 0.024275 -0.016577
# 6 -0.033731 -0.019604 -0.011750 0.012919 -0.016577 0.185122
#
#
# Mechanical properties :
#
#
# Convention : Reuss Voigt Hill
#
# Bulk Modulus (GPa) = 19.09587 54.12946 36.61267
# Shear Modulus (GPa) = 17.70265 43.31895 30.51080
#
# Velocity S-wave (km/s) = 2.65492 4.15308 3.48545
# Velocity P-wave (km/s) = 4.12328 6.67457 5.54758
#
# Compressibility (1/GPa) = 0.05236735
#
# Stress axis : x y z
#
# Youngs Moduli (GPa) = 53.73502 55.28880 169.97909
#
# Poissons Ratio (x) = -0.26855 -0.07202
# Poissons Ratio (y) = -0.26100 0.06579
# Poissons Ratio (z) = -0.02277 0.02140
#
# Static dielectric constant tensor:
#      x y z
#    x 1.942170 -0.007510 0.015990 
#    y -0.007510 2.015700 -0.070620 
#    z 0.015990 -0.070620 2.057290 
# 
# From -- ./inp_files/416417.got.cif
#   From: 2010.05.17/outbox.cif.g08.bks.cpg/sg2_209_cif.got.tgz:416417.got - 2010.06.03 11:33:40.
