data_PCOD9089816
_publ_section_title
;
Structure prediction by ZEFSAII (Michael W. Deem and Ramdas Pophale) SiO2 
 PCOD9089816
Probable space group: P -1
;
_chemical_formula_sum "Si O2"
_cell_formula_units_Z 16
_cell_length_a 11.156706
_cell_length_b 10.582850
_cell_length_c 27.423774
_cell_angle_alpha 146.315943
_cell_angle_beta 25.317920
_cell_angle_gamma 132.126289
_cell_volume 721.288179
_symmetry_space_group_name_H-M "P -1"
_symmetry_group_IT_number 2
_symmetry_cell_setting 'triclinic'
loop_
_space_group_symop_operation_xyz
x,y,z
-x,-y,-z
loop_
_atom_site_type_symbol
_atom_site_label
_atom_site_fract_x
_atom_site_fract_y
_atom_site_fract_z
Si Si1 0.715476 0.204099 0.270596
Si Si2 0.546882 0.176843 0.750917
Si Si3 0.659577 0.014885 0.028485
Si Si4 0.834102 0.003735 0.484874
Si Si5 0.681571 0.493858 0.633234
Si Si6 0.509380 0.208505 0.527033
Si Si7 0.482536 0.699663 0.919760
Si Si8 0.141141 0.655113 0.629876
O O1 0.395047 0.401962 0.439799
O O2 0.755506 0.265762 0.331979
O O3 0.688621 0.945319 0.187164
O O4 0.039398 0.173587 0.120069
O O5 0.420544 0.460950 0.879633
O O6 0.816092 0.108545 0.668527
O O7 0.679421 0.056124 0.611455
O O8 0.486473 0.241549 0.197937
O O9 0.725488 0.144280 0.996105
O O10 0.480764 0.857555 0.018891
O O11 0.723685 0.808832 0.434102
O O12 0.747923 0.262347 0.571394
O O13 0.484630 0.433403 0.643511
O O14 0.000000 0.500000 0.500000
O O15 0.816663 0.169763 0.371878
O O16 0.500000 0.000000 0.500000
O O17 0.820393 0.631241 0.750492
#
# Coordination Sequence:
#
# PCOD9089816 Si02
#       8
#     2   2   2   2   2   2   2   2
#     4  10  22  34  64  95 126 154 196 273 315 361
#     4  11  20  36  64  95 126 155 195 271 315 365
#     4  10  22  40  56  97 121 160 209 250 325 355
#     4  10  21  37  61  97 120 155 216 251 310 363
#     4  11  23  42  65  87 122 172 216 247 294 380
#     4  10  22  37  60  90 123 165 209 259 287 365
#     4  10  21  37  64  91 130 156 197 270 311 373
#     4  10  19  38  61  95 120 162 209 248 320 364
#
# _framework density 22.182534
#
# number of rings (size 3 to 8) (size 9 to 14) (size 15 to 20)
#    0.000    1.750    2.500    2.250    5.250    0.500 
#    0.000    4.375    0.000    1.500    0.000    0.000 
#    0.000    0.000    0.000    0.000    0.000    0.000 
#
# Total GULP energy -89240.221020 kJ/mol
# GULP energy per Si atom -5577.513814 kJ/mol
# Density = 2.213205 g / cm^3
# Si number density = 22.182534 Si / 1000 Ang^3
#
#
#
# Elastic Constant Matrix: (Units=GPa)
#
#
# Indices 1 2 3 4 5 6 
#
# 1 91.8118 16.8713 24.6271 7.0302 11.3637 28.4629
# 2 16.8713 68.5080 26.3058 7.8057 4.9907 12.8581
# 3 24.6271 26.3058 103.3389 13.7033 0.1091 17.6153
# 4 7.0302 7.8057 13.7033 29.8935 6.9613 7.9023
# 5 11.3637 4.9907 0.1091 6.9613 36.6116 10.6984
# 6 28.4629 12.8581 17.6153 7.9023 10.6984 39.2934
#
#
#
# Elastic Compliance Matrix: (Units=1/GPa)
#
#
# Indices 1 2 3 4 5 6 
#
# 1 0.014535 -0.001162 -0.001695 0.000459 -0.001809 -0.008989
# 2 -0.001162 0.016920 -0.003356 -0.001718 -0.000845 -0.002615
# 3 -0.001695 -0.003356 0.011966 -0.004035 0.002570 -0.002927
# 4 0.000459 -0.001718 -0.004035 0.038089 -0.005971 -0.003996
# 5 -0.001809 -0.000845 0.002570 -0.005971 0.031116 -0.006837
# 6 -0.008989 -0.002615 -0.002927 -0.003996 -0.006837 0.036794
#
#
# Mechanical properties :
#
#
# Convention : Reuss Voigt Hill
#
# Bulk Modulus (GPa) = 32.26234 44.36302 38.31268
# Shear Modulus (GPa) = 29.03977 34.21666 31.62821
#
# Velocity S-wave (km/s) = 3.62211 3.93173 3.78009
# Velocity P-wave (km/s) = 5.66291 6.37604 6.03002
#
# Compressibility (1/GPa) = 0.03099589
#
# Stress axis : x y z
#
# Youngs Moduli (GPa) = 68.79765 59.10289 83.56766
#
# Poissons Ratio (x) = 0.06869 0.14164
# Poissons Ratio (y) = 0.07996 0.28042
# Poissons Ratio (z) = 0.11661 0.19832
#
# Static dielectric constant tensor:
#      x y z
#    x 1.878910 -0.039640 -0.030270 
#    y -0.039640 1.863500 0.037730 
#    z -0.030270 0.037730 1.856650 
# 
# From -- ./inp_files/623068.got.cif
#   From: 2010.05.17/outbox.cif.g08.bks.cpg/sg2_312_cif.got.tgz:623068.got - 2010.06.03 11:33:40.
