data_PCOD9089637
_publ_section_title
;
Structure prediction by ZEFSAII (Michael W. Deem and Ramdas Pophale) SiO2 
 PCOD9089637
Probable space group: P -1
;
_chemical_formula_sum "Si O2"
_cell_formula_units_Z 16
_cell_length_a 14.385964
_cell_length_b 8.390808
_cell_length_c 12.099797
_cell_angle_alpha 70.549228
_cell_angle_beta 30.610292
_cell_angle_gamma 67.431145
_cell_volume 686.748240
_symmetry_space_group_name_H-M "P -1"
_symmetry_group_IT_number 2
_symmetry_cell_setting 'triclinic'
loop_
_space_group_symop_operation_xyz
x,y,z
-x,-y,-z
loop_
_atom_site_type_symbol
_atom_site_label
_atom_site_fract_x
_atom_site_fract_y
_atom_site_fract_z
Si Si1 0.824777 0.607338 0.305254
Si Si2 0.954501 0.262781 0.522726
Si Si3 0.816246 0.652413 0.548809
Si Si4 0.916134 0.196202 0.347804
Si Si5 0.928076 0.168319 0.105702
Si Si6 0.476056 0.757140 0.012611
Si Si7 0.494532 0.872059 0.197398
Si Si8 0.503104 0.834055 0.453246
O O1 0.786645 0.703887 0.440474
O O2 0.862127 0.403431 0.334390
O O3 0.646626 0.675916 0.396398
O O4 0.996812 0.671475 0.058225
O O5 0.949177 0.463917 0.454428
O O6 0.021078 0.161143 0.365225
O O7 0.082700 0.227152 0.506791
O O8 0.739264 0.256353 0.764376
O O9 0.622658 0.639309 0.808967
O O10 0.009124 0.125952 0.155496
O O11 0.723277 0.133918 0.571386
O O12 0.705491 0.200648 0.328183
O O13 0.000000 0.000000 0.000000
O O14 0.478959 0.945895 0.917774
O O15 0.555376 0.741613 0.061394
O O16 0.560750 0.850431 0.261642
O O17 0.500000 0.000000 0.500000
#
# Coordination Sequence:
#
# PCOD9089637 Si02
#       8
#     2   2   2   2   2   2   2   2
#     4  11  23  40  63  91 123 166 198 250 306 362
#     4   9  20  40  60  90 117 157 201 251 299 360
#     4  10  21  36  62  88 122 155 202 246 301 360
#     4   9  21  42  64  88 126 156 205 255 302 361
#     4  11  23  40  62  90 121 160 205 249 299 364
#     4  10  19  38  60  85 119 157 196 252 302 350
#     4   9  21  37  59  87 118 154 204 245 294 366
#     4  11  22  40  61  89 126 160 198 251 307 360
#
# _framework density 23.298202
#
# number of rings (size 3 to 8) (size 9 to 14) (size 15 to 20)
#    0.000    2.000    1.250    1.500    1.750    5.000 
#    0.000   13.125    0.000    0.000    0.000    0.000 
#    0.000    0.000    0.000    0.000    0.000    0.000 
#
# Total GULP energy -89400.742166 kJ/mol
# GULP energy per Si atom -5587.546385 kJ/mol
# Density = 2.324517 g / cm^3
# Si number density = 23.298202 Si / 1000 Ang^3
#
#
#
# Elastic Constant Matrix: (Units=GPa)
#
#
# Indices 1 2 3 4 5 6 
#
# 1 171.4197 14.2362 76.8326 -2.7563 30.3006 13.3062
# 2 14.2362 55.9747 15.4720 -9.8997 0.5570 1.2045
# 3 76.8326 15.4720 104.9034 -5.6330 9.3671 9.6661
# 4 -2.7563 -9.8997 -5.6330 31.4813 10.8740 0.1008
# 5 30.3006 0.5570 9.3671 10.8740 55.7611 2.9586
# 6 13.3062 1.2045 9.6661 0.1008 2.9586 26.9104
#
#
#
# Elastic Compliance Matrix: (Units=1/GPa)
#
#
# Indices 1 2 3 4 5 6 
#
# 1 0.009660 -0.000419 -0.006392 0.001052 -0.004271 -0.001996
# 2 -0.000419 0.019652 -0.002216 0.006015 -0.000779 0.000187
# 3 -0.006392 -0.002216 0.014711 0.001061 0.000930 -0.002131
# 4 0.001052 0.006015 0.001061 0.036683 -0.007940 -0.000435
# 5 -0.004271 -0.000779 0.000930 -0.007940 0.021683 -0.000542
# 6 -0.001996 0.000187 -0.002131 -0.000435 -0.000542 0.038966
#
#
# Mechanical properties :
#
#
# Convention : Reuss Voigt Hill
#
# Bulk Modulus (GPa) = 38.50651 60.59771 49.55211
# Shear Modulus (GPa) = 29.75059 37.88101 33.81580
#
# Velocity S-wave (km/s) = 3.57732 4.03664 3.81390
# Velocity P-wave (km/s) = 5.79883 6.91318 6.38038
#
# Compressibility (1/GPa) = 0.02596963
#
# Stress axis : x y z
#
# Youngs Moduli (GPa) = 103.52035 50.88565 67.97638
#
# Poissons Ratio (x) = 0.02130 0.43447
# Poissons Ratio (y) = 0.04334 0.15066
# Poissons Ratio (z) = 0.66166 0.11278
#
# Static dielectric constant tensor:
#      x y z
#    x 1.904720 0.074290 0.046230 
#    y 0.074290 1.885150 0.021190 
#    z 0.046230 0.021190 1.862000 
# 
# From -- ./inp_files/447027.got.cif
#   From: 2010.05.17/outbox.cif.g08.bks.cpg/sg2_224_cif.got.tgz:447027.got - 2010.06.03 11:33:40.
