data_PCOD9089309
_publ_section_title
;
Structure prediction by ZEFSAII (Michael W. Deem and Ramdas Pophale) SiO2 
 PCOD9089309
Probable space group: P -1
;
_chemical_formula_sum "Si O2"
_cell_formula_units_Z 16
_cell_length_a 5.570595
_cell_length_b 5.832240
_cell_length_c 23.553751
_cell_angle_alpha 89.390628
_cell_angle_beta 62.076624
_cell_angle_gamma 104.513225
_cell_volume 647.200665
_symmetry_space_group_name_H-M "P -1"
_symmetry_group_IT_number 2
_symmetry_cell_setting 'triclinic'
loop_
_space_group_symop_operation_xyz
x,y,z
-x,-y,-z
loop_
_atom_site_type_symbol
_atom_site_label
_atom_site_fract_x
_atom_site_fract_y
_atom_site_fract_z
Si Si1 0.794525 0.796954 0.351754
Si Si2 0.216102 0.567415 0.296910
Si Si3 0.367941 0.914103 0.714392
Si Si4 0.333158 0.210586 0.513027
Si Si5 0.968463 0.179445 0.927936
Si Si6 0.600359 0.100654 0.072164
Si Si7 0.275599 0.359661 0.397702
Si Si8 0.652433 0.382697 0.178948
O O1 0.869942 0.848021 0.409172
O O2 0.472188 0.628424 0.390508
O O3 0.954873 0.638511 0.300029
O O4 0.841841 0.030383 0.308552
O O5 0.083708 0.421090 0.369352
O O6 0.391960 0.448478 0.237406
O O7 0.433098 0.826486 0.288492
O O8 0.545879 0.777758 0.658235
O O9 0.244906 0.771202 0.784512
O O10 0.500000 0.500000 0.500000
O O11 0.196922 0.222756 0.465885
O O12 0.500000 0.000000 0.500000
O O13 0.104749 0.385915 0.867910
O O14 0.702866 0.000497 0.924819
O O15 0.813292 0.249515 0.000006
O O16 0.223902 0.080549 0.923830
O O17 0.558881 0.239589 0.132075
#
# Coordination Sequence:
#
# PCOD9089309 Si02
#       8
#     2   2   2   2   2   2   2   2
#     4  10  21  40  65  87 131 177 230 287 364 429
#     4  10  23  42  58  95 133 176 231 289 351 443
#     4  10  21  42  59  88 134 175 220 292 348 431
#     4  10  19  37  67  97 126 177 240 297 375 447
#     4  10  23  47  75 109 144 185 242 300 364 436
#     4  10  23  47  76 106 147 186 236 307 363 430
#     4   9  20  39  62  87 129 170 225 292 360 424
#     4  11  23  45  65 104 141 187 240 289 369 437
#
# _framework density 24.721854
#
# number of rings (size 3 to 8) (size 9 to 14) (size 15 to 20)
#    0.000    2.000    1.250    1.125    0.000    3.500 
#   29.250    4.375    0.000    0.000    0.000    0.000 
#    0.000    0.000    0.000    0.000    0.000    0.000 
#
# Total GULP energy -89295.280962 kJ/mol
# GULP energy per Si atom -5580.955060 kJ/mol
# Density = 2.466559 g / cm^3
# Si number density = 24.721854 Si / 1000 Ang^3
#
#
#
# Elastic Constant Matrix: (Units=GPa)
#
#
# Indices 1 2 3 4 5 6 
#
# 1 53.8726 18.5333 29.8591 -7.2143 8.1753 -11.1787
# 2 18.5333 87.1130 61.0258 -13.7742 11.4381 -10.5599
# 3 29.8591 61.0258 187.8835 -26.2605 45.0962 -15.5180
# 4 -7.2143 -13.7742 -26.2605 69.2068 -14.9223 6.7967
# 5 8.1753 11.4381 45.0962 -14.9223 51.1946 -3.2175
# 6 -11.1787 -10.5599 -15.5180 6.7967 -3.2175 48.0553
#
#
#
# Elastic Compliance Matrix: (Units=1/GPa)
#
#
# Indices 1 2 3 4 5 6 
#
# 1 0.021501 -0.002520 -0.002068 0.000446 -0.000688 0.003671
# 2 -0.002520 0.015461 -0.004718 0.001237 0.001541 0.001216
# 3 -0.002068 -0.004718 0.008828 0.000799 -0.006109 0.000811
# 4 0.000446 0.001237 0.000799 0.015938 0.003507 -0.001386
# 5 -0.000688 0.001541 -0.006109 0.003507 0.025666 -0.000572
# 6 0.003671 0.001216 0.000811 -0.001386 -0.000572 0.022350
#
#
# Mechanical properties :
#
#
# Convention : Reuss Voigt Hill
#
# Bulk Modulus (GPa) = 36.79246 60.85618 48.82432
# Shear Modulus (GPa) = 36.38589 48.32140 42.35364
#
# Velocity S-wave (km/s) = 3.84058 4.42588 4.14358
# Velocity P-wave (km/s) = 5.88061 7.12655 6.53335
#
# Compressibility (1/GPa) = 0.02717948
#
# Stress axis : x y z
#
# Youngs Moduli (GPa) = 46.50895 64.67784 113.27209
#
# Poissons Ratio (x) = 0.16298 0.23422
# Poissons Ratio (y) = 0.11720 0.53441
# Poissons Ratio (z) = 0.09617 0.30515
#
# Static dielectric constant tensor:
#      x y z
#    x 2.066090 0.031110 0.030700 
#    y 0.031110 2.059800 0.002540 
#    z 0.030700 0.002540 1.890820 
# 
# From -- ./inp_files/13589.got.cif
#   From: 2010.05.17/outbox.cif.g08.bks.cpg/sg2_7_cif.got.tgz:13589.got - 2010.06.03 11:33:40.
