data_PCOD9089800
_publ_section_title
;
Structure prediction by ZEFSAII (Michael W. Deem and Ramdas Pophale) SiO2 
 PCOD9089800
Probable space group: P -1
;
_chemical_formula_sum "Si O2"
_cell_formula_units_Z 16
_cell_length_a 12.089310
_cell_length_b 7.089589
_cell_length_c 12.418383
_cell_angle_alpha 85.367855
_cell_angle_beta 105.105802
_cell_angle_gamma 142.405315
_cell_volume 612.448002
_symmetry_space_group_name_H-M "P -1"
_symmetry_group_IT_number 2
_symmetry_cell_setting 'triclinic'
loop_
_space_group_symop_operation_xyz
x,y,z
-x,-y,-z
loop_
_atom_site_type_symbol
_atom_site_label
_atom_site_fract_x
_atom_site_fract_y
_atom_site_fract_z
Si Si1 0.820707 0.745776 0.099837
Si Si2 0.638941 0.954672 0.258072
Si Si3 0.797591 0.235750 0.828131
Si Si4 0.749016 0.737013 0.849844
Si Si5 0.769067 0.235875 0.053934
Si Si6 0.416057 0.061903 0.409628
Si Si7 0.243891 0.457082 0.673716
Si Si8 0.121879 0.854055 0.503778
O O1 0.792430 0.487245 0.074326
O O2 0.755387 0.662789 0.210499
O O3 0.726087 0.723751 0.974930
O O4 0.047106 0.089642 0.130842
O O5 0.423170 0.598978 0.234190
O O6 0.662119 0.990255 0.133416
O O7 0.689390 0.237256 0.293457
O O8 0.781713 0.009907 0.360088
O O9 0.017477 0.567110 0.893644
O O10 0.772698 0.981652 0.805859
O O11 0.720864 0.219332 0.700649
O O12 0.688801 0.123282 0.918066
O O13 0.596328 0.392578 0.378548
O O14 0.500000 0.000000 0.500000
O O15 0.292370 0.036104 0.454518
O O16 0.031486 0.200257 0.580656
O O17 0.000000 0.500000 0.500000
#
# Coordination Sequence:
#
# PCOD9089800 Si02
#       8
#     2   2   2   2   2   2   2   2
#     4   9  20  39  61  87 126 170 209 253 319 384
#     4  10  20  34  63  90 116 168 212 255 311 381
#     4  10  22  39  57  92 129 161 203 268 318 373
#     4  10  21  38  62  89 130 172 199 257 338 377
#     4   9  20  37  62  88 121 164 215 261 309 370
#     4  12  22  36  66  96 119 164 219 260 305 373
#     4  10  22  39  66  95 122 168 217 268 302 374
#     4  10  19  38  61  91 126 159 206 269 311 355
#
# _framework density 26.124666999999999
#
# number of rings (size 3 to 8) (size 9 to 14) (size 15 to 20)
#    0.000    2.000    2.500    3.000    3.500    1.500 
#    0.000    2.500    0.000    1.500    0.000    0.000 
#    0.000    0.000    0.000    0.000    0.000    0.000 
#
# Total GULP energy -89584.391011 kJ/mol
# GULP energy per Si atom -5599.024438 kJ/mol
# Density = 2.606521 g / cm^3
# Si number density = 26.124667 Si / 1000 Ang^3
#
#
#
# Elastic Constant Matrix: (Units=GPa)
#
#
# Indices 1 2 3 4 5 6 
#
# 1 65.5336 18.8405 14.7852 3.2548 -9.6689 9.6174
# 2 18.8405 92.3044 16.9060 6.4276 0.5846 13.5404
# 3 14.7852 16.9060 131.6957 8.6622 7.0905 8.5327
# 4 3.2548 6.4276 8.6622 50.7026 9.4408 -4.5099
# 5 -9.6689 0.5846 7.0905 9.4408 41.8037 1.7118
# 6 9.6174 13.5404 8.5327 -4.5099 1.7118 42.3105
#
#
#
# Elastic Compliance Matrix: (Units=1/GPa)
#
#
# Indices 1 2 3 4 5 6 
#
# 1 0.017690 -0.002764 -0.001576 -0.001716 0.004916 -0.003200
# 2 -0.002764 0.012143 -0.000934 -0.001453 -0.000191 -0.003217
# 3 -0.001576 -0.000934 0.008100 -0.000983 -0.001461 -0.001022
# 4 -0.001716 -0.001453 -0.000983 0.021470 -0.005204 0.003552
# 5 0.004916 -0.000191 -0.001461 -0.005204 0.026582 -0.002392
# 6 -0.003200 -0.003217 -0.001022 0.003552 -0.002392 0.026073
#
#
# Mechanical properties :
#
#
# Convention : Reuss Voigt Hill
#
# Bulk Modulus (GPa) = 36.51716 43.39966 39.95841
# Shear Modulus (GPa) = 37.95514 42.89683 40.42598
#
# Velocity S-wave (km/s) = 3.81576 4.05656 3.93800
# Velocity P-wave (km/s) = 5.78115 6.21205 6.00047
#
# Compressibility (1/GPa) = 0.02738439
#
# Stress axis : x y z
#
# Youngs Moduli (GPa) = 56.52989 82.35002 123.46242
#
# Poissons Ratio (x) = 0.22764 0.19453
# Poissons Ratio (y) = 0.15627 0.11535
# Poissons Ratio (z) = 0.08907 0.07694
#
# Static dielectric constant tensor:
#      x y z
#    x 2.134120 0.024990 -0.007130 
#    y 0.024990 2.027820 0.005050 
#    z -0.007130 0.005050 2.053890 
# 
# From -- ./inp_files/447364.got.cif
#   From: 2010.05.17/outbox.cif.g08.bks.cpg/sg2_224_cif.got.tgz:447364.got - 2010.06.03 11:33:40.
