data_PCOD9089442
_publ_section_title
;
Structure prediction by ZEFSAII (Michael W. Deem and Ramdas Pophale) SiO2 
 PCOD9089442
Probable space group: P -1
;
_chemical_formula_sum "Si O2"
_cell_formula_units_Z 16
_cell_length_a 5.664667
_cell_length_b 21.968179
_cell_length_c 8.505820
_cell_angle_alpha 38.864330
_cell_angle_beta 73.298035
_cell_angle_gamma 70.708376
_cell_volume 626.069490
_symmetry_space_group_name_H-M "P -1"
_symmetry_group_IT_number 2
_symmetry_cell_setting 'triclinic'
loop_
_space_group_symop_operation_xyz
x,y,z
-x,-y,-z
loop_
_atom_site_type_symbol
_atom_site_label
_atom_site_fract_x
_atom_site_fract_y
_atom_site_fract_z
Si Si1 0.988370 0.690692 0.129128
Si Si2 0.919712 0.496556 0.204119
Si Si3 0.726937 0.149977 0.337347
Si Si4 0.039734 0.767088 0.318949
Si Si5 0.290916 0.039430 0.090272
Si Si6 0.326525 0.316101 0.216895
Si Si7 0.626850 0.473227 0.778332
Si Si8 0.492150 0.808665 0.040416
O O1 0.068338 0.779714 0.833784
O O2 0.192210 0.592737 0.250163
O O3 0.688380 0.714907 0.131314
O O4 0.033277 0.720229 0.241926
O O5 0.835378 0.614023 0.023499
O O6 0.647289 0.465582 0.335891
O O7 0.178555 0.464711 0.309601
O O8 0.000000 0.500000 0.000000
O O9 0.480612 0.214724 0.330864
O O10 0.662422 0.142559 0.179744
O O11 0.796066 0.050033 0.621158
O O12 0.875465 0.708847 0.572894
O O13 0.329258 0.768033 0.289312
O O14 0.920473 0.882398 0.110937
O O15 0.388859 0.106740 0.069459
O O16 0.500000 0.000000 0.000000
O O17 0.526125 0.388848 0.075172
#
# Coordination Sequence:
#
# PCOD9089442 Si02
#       8
#     2   2   2   2   2   2   2   2
#     4   9  20  36  58  80 112 153 197 245 286 359
#     4  10  20  36  63  95 122 148 191 243 295 354
#     4  10  19  38  55  78 107 151 206 242 293 356
#     4  10  21  38  53  85 111 153 195 245 300 345
#     4  11  22  36  52  77 117 149 197 253 302 348
#     4   9  20  35  59  85 116 150 194 247 294 355
#     4   9  20  36  63  89 118 155 192 240 289 355
#     4  10  22  35  56  78 111 155 200 246 297 351
#
# _framework density 25.556269
#
# number of rings (size 3 to 8) (size 9 to 14) (size 15 to 20)
#    0.750    1.500    1.250    1.500    1.750    8.000 
#    2.250    0.000    0.000    1.500    0.000    0.000 
#    0.000    0.000    0.000    0.000    0.000    0.000 
#
# Total GULP energy -89265.818984 kJ/mol
# GULP energy per Si atom -5579.113687 kJ/mol
# Density = 2.549810 g / cm^3
# Si number density = 25.556269 Si / 1000 Ang^3
#
#
#
# Elastic Constant Matrix: (Units=GPa)
#
#
# Indices 1 2 3 4 5 6 
#
# 1 125.8322 24.0674 42.2172 -2.9020 -22.1503 -26.7425
# 2 24.0674 99.5326 21.1068 3.6971 -7.8313 -25.9220
# 3 42.2172 21.1068 106.1992 -13.3593 -18.2331 -16.0502
# 4 -2.9020 3.6971 -13.3593 41.3931 -12.3557 -9.1880
# 5 -22.1503 -7.8313 -18.2331 -12.3557 37.9766 2.5743
# 6 -26.7425 -25.9220 -16.0502 -9.1880 2.5743 35.5031
#
#
#
# Elastic Compliance Matrix: (Units=1/GPa)
#
#
# Indices 1 2 3 4 5 6 
#
# 1 0.011618 0.000198 -0.001625 0.004256 0.006827 0.008767
# 2 0.000198 0.012688 -0.000620 0.001430 0.002266 0.009338
# 3 -0.001625 -0.000620 0.013317 0.007752 0.007446 0.005810
# 4 0.004256 0.001430 0.007752 0.035369 0.016944 0.015679
# 5 0.006827 0.002266 0.007446 0.016944 0.039075 0.011715
# 6 0.008767 0.009338 0.005810 0.015679 0.011715 0.047423
#
#
# Mechanical properties :
#
#
# Convention : Reuss Voigt Hill
#
# Bulk Modulus (GPa) = 29.82588 56.26074 43.04331
# Shear Modulus (GPa) = 28.61056 39.25272 33.93164
#
# Velocity S-wave (km/s) = 3.34954 3.92335 3.64775
# Velocity P-wave (km/s) = 5.16287 6.52578 5.88392
#
# Compressibility (1/GPa) = 0.03352793
#
# Stress axis : x y z
#
# Youngs Moduli (GPa) = 86.07556 78.81577 75.09130
#
# Poissons Ratio (x) = -0.01559 0.12203
# Poissons Ratio (y) = -0.01702 0.04656
# Poissons Ratio (z) = 0.13988 0.04887
#
# Static dielectric constant tensor:
#      x y z
#    x 2.102320 0.011080 0.023710 
#    y 0.011080 2.040140 0.023230 
#    z 0.023710 0.023230 2.024800 
# 
# From -- ./inp_files/55908.got.cif
#   From: 2010.05.17/outbox.cif.g08.bks.cpg/sg2_28_cif.got.tgz:55908.got - 2010.06.03 11:33:40.
