data_PCOD9089961
_publ_section_title
;
Structure prediction by ZEFSAII (Michael W. Deem and Ramdas Pophale) SiO2 
 PCOD9089961
Probable space group: P -1
;
_chemical_formula_sum "Si O2"
_cell_formula_units_Z 14
_cell_length_a 22.598699
_cell_length_b 17.302753
_cell_length_c 7.875942
_cell_angle_alpha 147.191246
_cell_angle_beta 35.623096
_cell_angle_gamma 159.515486
_cell_volume 578.640264
_symmetry_space_group_name_H-M "P -1"
_symmetry_group_IT_number 2
_symmetry_cell_setting 'triclinic'
loop_
_space_group_symop_operation_xyz
x,y,z
-x,-y,-z
loop_
_atom_site_type_symbol
_atom_site_label
_atom_site_fract_x
_atom_site_fract_y
_atom_site_fract_z
Si Si1 0.895004 0.953771 0.004632
Si Si2 0.322732 0.176799 0.214021
Si Si3 0.425449 0.341617 0.648132
Si Si4 0.587806 0.233488 0.637830
Si Si5 0.949989 0.754681 0.313634
Si Si6 0.035102 0.383069 0.615338
Si Si7 0.419828 0.753031 0.723957
O O1 0.917052 0.149999 0.338350
O O2 0.692653 0.701051 0.029523
O O3 0.951695 0.928100 0.660742
O O4 0.000000 0.000000 0.000000
O O5 0.314823 0.216639 0.501624
O O6 0.397747 0.385479 0.308401
O O7 0.477280 0.238304 0.977882
O O8 0.135445 0.918212 0.111400
O O9 0.459285 0.224695 0.426962
O O10 0.787725 0.426098 0.547507
O O11 0.581530 0.261946 0.504297
O O12 0.500000 0.000000 0.500000
O O13 0.952552 0.693100 0.383025
O O14 0.765682 0.482838 0.187767
O O15 0.000000 0.500000 0.000000
O O16 0.500000 0.000000 0.000000
#
# Coordination Sequence:
#
# PCOD9089961 Si02
#       7
#     2   2   2   2   2   2   2
#     4  10  19  38  63 100 129 175 230 272 328 408
#     4  11  22  40  70 103 131 176 234 281 336 411
#     4  11  23  39  70  98 140 174 227 279 347 394
#     4  11  24  41  68  97 137 178 233 280 341 410
#     4  10  22  40  66  95 137 176 227 274 339 410
#     4  10  20  35  64  97 129 177 227 274 327 404
#     4  11  26  46  66  96 140 184 225 285 350 405
#
# _framework density 24.194654
#
# number of rings (size 3 to 8) (size 9 to 14) (size 15 to 20)
#    0.000    1.429    2.857    4.286    6.000    2.857 
#    0.000    0.714    0.000    0.000    0.000    0.000 
#    0.000    0.000    0.000    0.000    0.000    0.000 
#
# Total GULP energy -77982.289715 kJ/mol
# GULP energy per Si atom -5570.163551 kJ/mol
# Density = 2.413959 g / cm^3
# Si number density = 24.194654 Si / 1000 Ang^3
#
#
#
# Elastic Constant Matrix: (Units=GPa)
#
#
# Indices 1 2 3 4 5 6 
#
# 1 79.8904 30.0878 16.4941 2.0185 -15.8349 -13.7385
# 2 30.0878 196.7648 54.5958 -13.9967 -19.1140 9.9194
# 3 16.4941 54.5958 133.8832 7.0986 -22.6652 -1.7325
# 4 2.0185 -13.9967 7.0986 44.1117 -6.7261 -5.7768
# 5 -15.8349 -19.1140 -22.6652 -6.7261 33.2348 0.7580
# 6 -13.7385 9.9194 -1.7325 -5.7768 0.7580 29.0017
#
#
#
# Elastic Compliance Matrix: (Units=1/GPa)
#
#
# Indices 1 2 3 4 5 6 
#
# 1 0.016009 -0.002233 0.000086 0.000599 0.006334 0.008306
# 2 -0.002233 0.006542 -0.002270 0.002411 0.001707 -0.002995
# 3 0.000086 -0.002270 0.009276 -0.001363 0.004763 0.000975
# 4 0.000599 0.002411 -0.001363 0.025051 0.005716 0.004218
# 5 0.006334 0.001707 0.004763 0.005716 0.038429 0.002835
# 6 0.008306 -0.002995 0.000975 0.004218 0.002835 0.040264
#
#
# Mechanical properties :
#
#
# Convention : Reuss Voigt Hill
#
# Bulk Modulus (GPa) = 43.49197 68.09932 55.79565
# Shear Modulus (GPa) = 32.88006 41.89368 37.38687
#
# Velocity S-wave (km/s) = 3.69043 4.16568 3.93524
# Velocity P-wave (km/s) = 6.01448 7.16552 6.61508
#
# Compressibility (1/GPa) = 0.02299275
#
# Stress axis : x y z
#
# Youngs Moduli (GPa) = 62.46511 152.86187 107.80974
#
# Poissons Ratio (x) = 0.34130 -0.00930
# Poissons Ratio (y) = 0.13947 0.24476
# Poissons Ratio (z) = -0.00539 0.34704
#
# Static dielectric constant tensor:
#      x y z
#    x 1.928500 0.110910 -0.003970 
#    y 0.110910 2.139700 -0.001630 
#    z -0.003970 -0.001630 2.066420 
# 
# From -- ./inp_files/186470.got.cif
#   From: 2010.05.17/outbox.cif.g08.bks.cpg/sg2_94_cif.got.tgz:186470.got - 2010.06.03 11:33:40.
