data_PCOD9089883
_publ_section_title
;
Structure prediction by ZEFSAII (Michael W. Deem and Ramdas Pophale) SiO2 
 PCOD9089883
Probable space group: P -1
;
_chemical_formula_sum "Si O2"
_cell_formula_units_Z 16
_cell_length_a 11.405085
_cell_length_b 16.316684
_cell_length_c 8.988547
_cell_angle_alpha 58.657497
_cell_angle_beta 77.156426
_cell_angle_gamma 126.429465
_cell_volume 729.245256
_symmetry_space_group_name_H-M "P -1"
_symmetry_group_IT_number 2
_symmetry_cell_setting 'triclinic'
loop_
_space_group_symop_operation_xyz
x,y,z
-x,-y,-z
loop_
_atom_site_type_symbol
_atom_site_label
_atom_site_fract_x
_atom_site_fract_y
_atom_site_fract_z
Si Si1 0.636649 0.310315 0.978919
Si Si2 0.178467 0.747982 0.899069
Si Si3 0.168449 0.948460 0.789394
Si Si4 0.742259 0.440607 0.521575
Si Si5 0.266961 0.351322 0.605665
Si Si6 0.477781 0.326851 0.424993
Si Si7 0.899356 0.037256 0.521697
Si Si8 0.087635 0.358094 0.201173
O O1 0.646578 0.218772 0.156575
O O2 0.370650 0.160615 0.185418
O O3 0.709963 0.344045 0.754184
O O4 0.806544 0.499374 0.837876
O O5 0.255924 0.899277 0.813810
O O6 0.103154 0.717468 0.778409
O O7 0.953825 0.566624 0.231855
O O8 0.054313 0.880302 0.726362
O O9 0.359399 0.158457 0.537487
O O10 0.968604 0.835611 0.068753
O O11 0.762123 0.555238 0.496373
O O12 0.538106 0.323841 0.573128
O O13 0.500000 0.500000 0.500000
O O14 0.315081 0.308161 0.504394
O O15 0.699480 0.508957 0.099173
O O16 0.000343 0.195102 0.442044
O O17 0.000000 0.000000 0.500000
#
# Coordination Sequence:
#
# PCOD9089883 Si02
#       8
#     2   2   2   2   2   2   2   2
#     4  12  23  42  65  89 128 169 192 260 320 345
#     4   9  21  43  66  87 122 160 215 254 293 371
#     4  10  20  39  60  91 119 162 214 250 298 366
#     4   9  21  37  60  92 119 156 208 254 305 360
#     4   9  18  33  59  83 119 162 203 253 296 361
#     4  10  19  38  62  88 118 167 206 249 300 368
#     4  11  26  40  60  95 132 156 202 258 307 373
#     4  10  23  43  63  93 120 162 213 243 305 376
#
# _framework density 21.940494000000001
#
# number of rings (size 3 to 8) (size 9 to 14) (size 15 to 20)
#    0.000    2.000    1.250    3.375    5.250    3.500 
#    9.000    0.625    0.000    0.000    0.000    0.000 
#    0.000    0.000    0.000    0.000    0.000    0.000 
#
# Total GULP energy -89148.484647 kJ/mol
# GULP energy per Si atom -5571.780290 kJ/mol
# Density = 2.189056 g / cm^3
# Si number density = 21.940494 Si / 1000 Ang^3
#
#
#
# Elastic Constant Matrix: (Units=GPa)
#
#
# Indices 1 2 3 4 5 6 
#
# 1 72.6861 6.0719 4.5420 -5.0682 -3.0138 -2.7625
# 2 6.0719 74.4203 14.5742 -17.8843 -2.4318 -4.2613
# 3 4.5420 14.5742 47.8493 -12.0224 -3.6709 11.3496
# 4 -5.0682 -17.8843 -12.0224 42.1181 1.5835 8.2656
# 5 -3.0138 -2.4318 -3.6709 1.5835 20.4315 3.6437
# 6 -2.7625 -4.2613 11.3496 8.2656 3.6437 22.7032
#
#
#
# Elastic Compliance Matrix: (Units=1/GPa)
#
#
# Indices 1 2 3 4 5 6 
#
# 1 0.014061 -0.000583 -0.001305 0.000669 0.001400 0.001786
# 2 -0.000583 0.015648 -0.004312 0.004693 0.000049 0.003305
# 3 -0.001305 -0.004312 0.030718 0.010701 0.007814 -0.021474
# 4 0.000669 0.004693 0.010701 0.031999 0.003047 -0.016526
# 5 0.001400 0.000049 0.007814 0.003047 0.052695 -0.013293
# 6 0.001786 0.003305 -0.021474 -0.016526 -0.013293 0.063770
#
#
# Mechanical properties :
#
#
# Convention : Reuss Voigt Hill
#
# Bulk Modulus (GPa) = 20.82204 27.25910 24.04057
# Shear Modulus (GPa) = 21.07052 28.36840 24.71946
#
# Velocity S-wave (km/s) = 3.10231 3.59969 3.36022
# Velocity P-wave (km/s) = 4.72687 5.45235 5.10252
#
# Compressibility (1/GPa) = 0.04802604
#
# Stress axis : x y z
#
# Youngs Moduli (GPa) = 71.12077 63.90670 32.55444
#
# Poissons Ratio (x) = 0.03725 0.04249
# Poissons Ratio (y) = 0.04145 0.14037
# Poissons Ratio (z) = 0.09283 0.27556
#
# Static dielectric constant tensor:
#      x y z
#    x 1.863760 -0.045760 0.016630 
#    y -0.045760 1.950020 -0.027410 
#    z 0.016630 -0.027410 1.816810 
# 
# From -- ./inp_files/272152.got.cif
#   From: 2010.05.17/outbox.cif.g08.bks.cpg/sg2_137_cif.got.tgz:272152.got - 2010.06.03 11:33:40.
