data_PCOD9089375
_publ_section_title
;
Structure prediction by ZEFSAII (Michael W. Deem and Ramdas Pophale) SiO2 
 PCOD9089375
Probable space group: P -1
;
_chemical_formula_sum "Si O2"
_cell_formula_units_Z 16
_cell_length_a 11.986831
_cell_length_b 9.748151
_cell_length_c 17.924750
_cell_angle_alpha 53.040975
_cell_angle_beta 152.765714
_cell_angle_gamma 112.690922
_cell_volume 699.601041
_symmetry_space_group_name_H-M "P -1"
_symmetry_group_IT_number 2
_symmetry_cell_setting 'triclinic'
loop_
_space_group_symop_operation_xyz
x,y,z
-x,-y,-z
loop_
_atom_site_type_symbol
_atom_site_label
_atom_site_fract_x
_atom_site_fract_y
_atom_site_fract_z
Si Si1 0.462782 0.193676 0.953525
Si Si2 0.939555 0.647255 0.826348
Si Si3 0.369603 0.648745 0.492615
Si Si4 0.470322 0.858347 0.740920
Si Si5 0.725442 0.946690 0.716073
Si Si6 0.031466 0.798241 0.675527
Si Si7 0.456789 0.549344 0.747190
Si Si8 0.109289 0.400716 0.806056
O O1 0.716952 0.155841 0.170535
O O2 0.447223 0.357133 0.832397
O O3 0.206611 0.292650 0.821394
O O4 0.500000 0.000000 0.000000
O O5 0.683128 0.597859 0.683296
O O6 0.937498 0.761430 0.863632
O O7 0.933811 0.766783 0.710421
O O8 0.231586 0.483818 0.053143
O O9 0.357341 0.608616 0.585873
O O10 0.203486 0.551322 0.383281
O O11 0.214587 0.869255 0.307314
O O12 0.610474 0.916279 0.735826
O O13 0.330123 0.724974 0.669636
O O14 0.226833 0.042182 0.566715
O O15 0.697189 0.739787 0.972319
O O16 0.500000 0.000000 0.500000
O O17 0.135647 0.598157 0.761719
#
# Coordination Sequence:
#
# PCOD9089375 Si02
#       8
#     2   2   2   2   2   2   2   2
#     4  11  28  50  77 105 139 184 252 311 345 431
#     4  10  19  40  70 106 139 188 236 289 349 419
#     4  11  23  41  70 106 148 181 242 296 343 438
#     4  12  23  45  74 107 145 201 229 284 379 419
#     4  10  19  37  69 105 139 185 238 285 337 428
#     4  11  24  48  73 102 150 186 239 295 365 422
#     4  11  23  42  77 104 136 194 249 290 360 427
#     4  12  29  47  68 110 151 188 237 303 365 420
#
# _framework density 22.870177000000002
#
# number of rings (size 3 to 8) (size 9 to 14) (size 15 to 20)
#    0.000    1.000    7.500    0.750    5.250    3.000 
#    0.000    0.000    0.000    0.000    0.000    0.000 
#    0.000    0.000    0.000    0.000    0.000    0.000 
#
# Total GULP energy -89385.296320 kJ/mol
# GULP energy per Si atom -5586.581020 kJ/mol
# Density = 2.281812 g / cm^3
# Si number density = 22.870177 Si / 1000 Ang^3
#
#
#
# Elastic Constant Matrix: (Units=GPa)
#
#
# Indices 1 2 3 4 5 6 
#
# 1 105.1642 32.5880 28.1120 -9.0464 -6.3550 7.2792
# 2 32.5880 123.7673 33.0683 -7.2269 -3.9837 3.1408
# 3 28.1120 33.0683 121.2701 -3.3803 1.0817 5.7330
# 4 -9.0464 -7.2269 -3.3803 41.3594 4.6732 3.5095
# 5 -6.3550 -3.9837 1.0817 4.6732 29.3479 -11.0108
# 6 7.2792 3.1408 5.7330 3.5095 -11.0108 26.4108
#
#
#
# Elastic Compliance Matrix: (Units=1/GPa)
#
#
# Indices 1 2 3 4 5 6 
#
# 1 0.011066 -0.002227 -0.001807 0.001959 0.001011 -0.002231
# 2 -0.002227 0.009273 -0.002002 0.000870 0.000768 0.000150
# 3 -0.001807 -0.002002 0.009339 0.000410 -0.001870 -0.002125
# 4 0.001959 0.000870 0.000410 0.026062 -0.006161 -0.006764
# 5 0.001011 0.000768 -0.001870 -0.006161 0.042400 0.018531
# 6 -0.002231 0.000150 -0.002125 -0.006764 0.018531 0.047546
#
#
# Mechanical properties :
#
#
# Convention : Reuss Voigt Hill
#
# Bulk Modulus (GPa) = 56.79881 59.74870 58.27375
# Shear Modulus (GPa) = 30.55722 36.51918 33.53820
#
# Velocity S-wave (km/s) = 3.65926 4.00034 3.83359
# Velocity P-wave (km/s) = 6.53780 6.89339 6.71795
#
# Compressibility (1/GPa) = 0.01760600
#
# Stress axis : x y z
#
# Youngs Moduli (GPa) = 90.36503 107.84313 107.07370
#
# Poissons Ratio (x) = 0.24021 0.19347
# Poissons Ratio (y) = 0.20128 0.21435
# Poissons Ratio (z) = 0.16328 0.21589
#
# Static dielectric constant tensor:
#      x y z
#    x 1.914270 -0.022840 0.034290 
#    y -0.022840 1.933680 -0.035910 
#    z 0.034290 -0.035910 1.862660 
# 
# From -- ./inp_files/565825.got.cif
#   From: 2010.05.17/outbox.cif.g08.bks.cpg/sg2_283_cif.got.tgz:565825.got - 2010.06.03 11:33:40.
