data_PCOD9089142
_publ_section_title
;
Structure prediction by ZEFSAII (Michael W. Deem and Ramdas Pophale) SiO2 
 PCOD9089142
Probable space group: P -1
;
_chemical_formula_sum "Si O2"
_cell_formula_units_Z 14
_cell_length_a 9.173456
_cell_length_b 7.515306
_cell_length_c 9.032807
_cell_angle_alpha 111.603526
_cell_angle_beta 78.661693
_cell_angle_gamma 92.186452
_cell_volume 567.288754
_symmetry_space_group_name_H-M "P -1"
_symmetry_group_IT_number 2
_symmetry_cell_setting 'triclinic'
loop_
_space_group_symop_operation_xyz
x,y,z
-x,-y,-z
loop_
_atom_site_type_symbol
_atom_site_label
_atom_site_fract_x
_atom_site_fract_y
_atom_site_fract_z
Si Si1 0.713345 0.654454 0.929389
Si Si2 0.645078 0.058664 0.396725
Si Si3 0.903776 0.740957 0.171925
Si Si4 0.924839 0.670059 0.472616
Si Si5 0.644158 0.485788 0.573031
Si Si6 0.145888 0.016376 0.198641
Si Si7 0.527576 0.074474 0.855996
O O1 0.655776 0.542991 0.762237
O O2 0.799109 0.831342 0.887063
O O3 0.827936 0.602328 0.025299
O O4 0.565045 0.726376 0.069691
O O5 0.700044 0.263538 0.493843
O O6 0.500000 0.000000 0.500000
O O7 0.773373 0.895144 0.300617
O O8 0.563226 0.078414 0.262792
O O9 0.965955 0.658277 0.289561
O O10 0.036080 0.860774 0.112667
O O11 0.752011 0.626684 0.510748
O O12 0.939553 0.868214 0.617304
O O13 0.000000 0.500000 0.500000
O O14 0.500000 0.500000 0.500000
O O15 0.298289 0.922247 0.206717
O O16 0.500000 0.000000 0.000000
#
# Coordination Sequence:
#
# PCOD9089142 Si02
#       7
#     2   2   2   2   2   2   2
#     4   9  21  39  63 100 134 165 212 266 320 374
#     4  11  22  39  65  94 122 164 216 263 315 385
#     4  11  22  40  66  96 129 171 219 266 315 381
#     4  11  24  41  62  94 130 168 216 268 325 381
#     4  11  22  42  66  93 131 171 207 263 323 381
#     4  10  19  37  65  95 128 173 215 258 315 389
#     4   9  18  36  61  92 124 160 210 256 309 379
#
# _framework density 24.678789999999999
#
# number of rings (size 3 to 8) (size 9 to 14) (size 15 to 20)
#    0.000    1.714    0.000    6.000    0.000    1.143 
#    0.000   13.571    0.000    6.857    0.000    3.000 
#    0.000    0.000    0.000    0.000    0.000    0.000 
#
# Total GULP energy -78143.960023 kJ/mol
# GULP energy per Si atom -5581.711430 kJ/mol
# Density = 2.462262 g / cm^3
# Si number density = 24.678790 Si / 1000 Ang^3
#
#
#
# Elastic Constant Matrix: (Units=GPa)
#
#
# Indices 1 2 3 4 5 6 
#
# 1 116.7335 14.4235 42.6197 11.9913 18.5093 -3.5195
# 2 14.4235 49.8910 34.9533 -2.9635 10.1058 -0.2900
# 3 42.6197 34.9533 132.0358 17.2576 26.0192 -14.0320
# 4 11.9913 -2.9635 17.2576 43.0007 -2.9242 8.6520
# 5 18.5093 10.1058 26.0192 -2.9242 48.7838 -4.2911
# 6 -3.5195 -0.2900 -14.0320 8.6520 -4.2911 26.2037
#
#
#
# Elastic Compliance Matrix: (Units=1/GPa)
#
#
# Indices 1 2 3 4 5 6 
#
# 1 0.010138 -0.001060 -0.002115 -0.002341 -0.002589 0.000566
# 2 -0.001060 0.026536 -0.008040 0.006590 -0.000982 -0.006491
# 3 -0.002115 -0.008040 0.013020 -0.007138 -0.004176 0.008272
# 4 -0.002341 0.006590 -0.007138 0.030189 0.003963 -0.013383
# 5 -0.002589 -0.000982 -0.004176 0.003963 0.024154 0.000052
# 6 0.000566 -0.006491 0.008272 -0.013383 0.000052 0.047024
#
#
# Mechanical properties :
#
#
# Convention : Reuss Voigt Hill
#
# Bulk Modulus (GPa) = 36.68058 53.62815 45.15437
# Shear Modulus (GPa) = 27.38530 37.37523 32.38027
#
# Velocity S-wave (km/s) = 3.33478 3.89584 3.62618
# Velocity P-wave (km/s) = 5.45190 6.48185 5.98906
#
# Compressibility (1/GPa) = 0.02726238
#
# Stress axis : x y z
#
# Youngs Moduli (GPa) = 98.63929 37.68493 76.80497
#
# Poissons Ratio (x) = 0.03995 0.16247
# Poissons Ratio (y) = 0.10458 0.61752
# Poissons Ratio (z) = 0.20866 0.30299
#
# Static dielectric constant tensor:
#      x y z
#    x 2.080610 -0.095330 -0.021180 
#    y -0.095330 1.981900 0.025780 
#    z -0.021180 0.025780 1.952360 
# 
# From -- ./inp_files/160097.got.cif
#   From: 2010.05.17/outbox.cif.g08.bks.cpg/sg2_81_cif.got.tgz:160097.got - 2010.06.03 11:33:40.
