data_PCOD9089602
_publ_section_title
;
Structure prediction by ZEFSAII (Michael W. Deem and Ramdas Pophale) SiO2 
 PCOD9089602
Probable space group: P -1
;
_chemical_formula_sum "Si O2"
_cell_formula_units_Z 16
_cell_length_a 16.702621
_cell_length_b 5.222854
_cell_length_c 25.413514
_cell_angle_alpha 89.067391
_cell_angle_beta 163.074951
_cell_angle_gamma 91.294184
_cell_volume 645.128622
_symmetry_space_group_name_H-M "P -1"
_symmetry_group_IT_number 2
_symmetry_cell_setting 'triclinic'
loop_
_space_group_symop_operation_xyz
x,y,z
-x,-y,-z
loop_
_atom_site_type_symbol
_atom_site_label
_atom_site_fract_x
_atom_site_fract_y
_atom_site_fract_z
Si Si1 0.218576 0.537583 0.869470
Si Si2 0.551226 0.549683 0.706639
Si Si3 0.673858 0.842974 0.212946
Si Si4 0.031630 0.253232 0.947602
Si Si5 0.227436 0.142633 0.963230
Si Si6 0.736567 0.748014 0.626041
Si Si7 0.038162 0.631575 0.637574
Si Si8 0.379525 0.134529 0.340286
O O1 0.167728 0.547180 0.775744
O O2 0.919691 0.567689 0.707649
O O3 0.433300 0.763353 0.019957
O O4 0.317537 0.299040 0.967191
O O5 0.445123 0.757434 0.597625
O O6 0.778482 0.398084 0.815730
O O7 0.290941 0.389741 0.563947
O O8 0.714248 0.695492 0.854622
O O9 0.847407 0.585803 0.329514
O O10 0.480300 0.958351 0.136758
O O11 0.870089 0.078299 0.318144
O O12 0.139593 0.318927 0.956346
O O13 0.914579 0.961021 0.867882
O O14 0.959527 0.973821 0.780925
O O15 0.633736 0.670023 0.619656
O O16 0.512541 0.887332 0.450370
#
# Coordination Sequence:
#
# PCOD9089602 Si02
#       8
#     2   2   2   2   2   2   2   2
#     4  11  21  37  66  95 134 170 209 268 329 394
#     4  11  24  40  66  91 129 172 220 276 325 388
#     4  11  25  43  65  99 134 177 216 268 328 398
#     4  10  23  43  64  94 123 170 227 271 330 382
#     4  10  21  40  65  93 133 172 220 266 326 389
#     4   9  20  32  60  98 132 169 210 263 327 399
#     4  12  26  40  67  99 136 172 221 266 331 392
#     4  10  19  38  59  92 133 168 214 264 330 393
#
# _framework density 24.801255999999999
#
# number of rings (size 3 to 8) (size 9 to 14) (size 15 to 20)
#    0.000    1.500    1.250    3.375    7.000    0.000 
#    0.000    6.250    0.000    0.000    0.000    0.000 
#    0.000    0.000    0.000    0.000    0.000    0.000 
#
# Total GULP energy -89409.020888 kJ/mol
# GULP energy per Si atom -5588.063805 kJ/mol
# Density = 2.474481 g / cm^3
# Si number density = 24.801256 Si / 1000 Ang^3
#
#
#
# Elastic Constant Matrix: (Units=GPa)
#
#
# Indices 1 2 3 4 5 6 
#
# 1 52.1948 6.0106 30.1293 5.5660 0.5230 -13.2447
# 2 6.0106 75.4314 26.0413 6.0393 5.9919 -2.0422
# 3 30.1293 26.0413 109.8984 26.8389 17.1285 -4.3519
# 4 5.5660 6.0393 26.8389 40.7459 -6.7041 11.4391
# 5 0.5230 5.9919 17.1285 -6.7041 39.4429 5.4626
# 6 -13.2447 -2.0422 -4.3519 11.4391 5.4626 36.0146
#
#
#
# Elastic Compliance Matrix: (Units=1/GPa)
#
#
# Indices 1 2 3 4 5 6 
#
# 1 0.025238 0.000510 -0.006411 -0.001669 0.000850 0.008937
# 2 0.000510 0.014486 -0.003258 -0.000496 -0.001005 0.000925
# 3 -0.006411 -0.003258 0.016204 -0.012130 -0.009164 0.004658
# 4 -0.001669 -0.000496 -0.012130 0.040000 0.014521 -0.017015
# 5 0.000850 -0.001005 -0.009164 0.014521 0.033400 -0.010530
# 6 0.008937 0.000925 0.004658 -0.017015 -0.010530 0.038670
#
#
# Mechanical properties :
#
#
# Convention : Reuss Voigt Hill
#
# Bulk Modulus (GPa) = 26.58825 40.20966 33.39896
# Shear Modulus (GPa) = 25.14411 34.93025 30.03718
#
# Velocity S-wave (km/s) = 3.18751 3.75695 3.48388
# Velocity P-wave (km/s) = 4.92857 5.92178 5.44786
#
# Compressibility (1/GPa) = 0.03761060
#
# Stress axis : x y z
#
# Youngs Moduli (GPa) = 39.62216 69.03320 61.71267
#
# Poissons Ratio (x) = -0.03523 0.39565
# Poissons Ratio (y) = -0.02022 0.20106
# Poissons Ratio (z) = 0.25402 0.22492
#
# Static dielectric constant tensor:
#      x y z
#    x 2.028110 -0.016570 0.053900 
#    y -0.016570 2.025730 -0.029380 
#    z 0.053900 -0.029380 1.987240 
# 
# From -- ./inp_files/94445.got.cif
#   From: 2010.05.17/outbox.cif.g08.bks.cpg/sg2_48_cif.got.tgz:94445.got - 2010.06.03 11:33:40.
