data_PCOD9089563
_publ_section_title
;
Structure prediction by ZEFSAII (Michael W. Deem and Ramdas Pophale) SiO2 
 PCOD9089563
Probable space group: P -1
;
_chemical_formula_sum "Si O2"
_cell_formula_units_Z 14
_cell_length_a 17.386733
_cell_length_b 19.707497
_cell_length_c 6.651447
_cell_angle_alpha 46.499145
_cell_angle_beta 50.355115
_cell_angle_gamma 20.549345
_cell_volume 580.099927
_symmetry_space_group_name_H-M "P -1"
_symmetry_group_IT_number 2
_symmetry_cell_setting 'triclinic'
loop_
_space_group_symop_operation_xyz
x,y,z
-x,-y,-z
loop_
_atom_site_type_symbol
_atom_site_label
_atom_site_fract_x
_atom_site_fract_y
_atom_site_fract_z
Si Si1 0.024114 0.326332 0.740974
Si Si2 0.673014 0.710227 0.323065
Si Si3 0.044167 0.032230 0.673382
Si Si4 0.478889 0.997898 0.771749
Si Si5 0.580132 0.614648 0.897966
Si Si6 0.237923 0.724278 0.737696
Si Si7 0.136333 0.068819 0.801719
O O1 0.228230 0.171196 0.860456
O O2 0.112953 0.190692 0.682426
O O3 0.906404 0.512796 0.450344
O O4 0.817103 0.444119 0.944521
O O5 0.513137 0.911285 0.307322
O O6 0.596752 0.666400 0.564846
O O7 0.650131 0.777524 0.010097
O O8 0.240889 0.822737 0.638920
O O9 0.087571 0.091619 0.600616
O O10 0.844513 0.200973 0.505957
O O11 0.000000 0.000000 0.000000
O O12 0.500000 0.000000 0.500000
O O13 0.375382 0.824647 0.931887
O O14 0.570201 0.512063 0.088740
O O15 0.042062 0.837483 0.957803
#
# Coordination Sequence:
#
# PCOD9089563 Si02
#       7
#     2   2   2   2   2   2   2
#     4   9  21  40  59  89 124 154 201 252 295 361
#     4   9  22  41  58  89 122 151 203 250 298 356
#     4   9  19  37  61  84 120 160 194 250 298 349
#     4  11  21  39  66  87 117 163 201 247 303 361
#     4   9  20  37  58  85 119 155 196 247 300 351
#     4   9  19  39  59  86 118 154 204 247 295 357
#     4  10  19  38  59  86 119 156 199 245 302 354
#
# _framework density 24.133773999999999
#
# number of rings (size 3 to 8) (size 9 to 14) (size 15 to 20)
#    0.857    1.714    0.000    1.286    0.000    3.429 
#    5.143    9.286    0.000    0.000    0.000    0.000 
#    0.000    0.000    0.000    0.000    0.000    0.000 
#
# Total GULP energy -77991.173960 kJ/mol
# GULP energy per Si atom -5570.798140 kJ/mol
# Density = 2.407884 g / cm^3
# Si number density = 24.133774 Si / 1000 Ang^3
#
#
#
# Elastic Constant Matrix: (Units=GPa)
#
#
# Indices 1 2 3 4 5 6 
#
# 1 74.3429 13.6161 23.9348 -5.9117 15.7061 18.7083
# 2 13.6161 99.1520 7.9161 -16.1886 1.7763 4.4159
# 3 23.9348 7.9161 123.6112 -16.3719 11.7800 22.2050
# 4 -5.9117 -16.1886 -16.3719 36.7557 6.5821 -7.9652
# 5 15.7061 1.7763 11.7800 6.5821 30.3638 -7.7814
# 6 18.7083 4.4159 22.2050 -7.9652 -7.7814 40.7760
#
#
#
# Elastic Compliance Matrix: (Units=1/GPa)
#
#
# Indices 1 2 3 4 5 6 
#
# 1 0.019462 -0.001553 -0.000170 0.002409 -0.013178 -0.010713
# 2 -0.001553 0.011101 0.000329 0.004995 -0.001029 0.000110
# 3 -0.000170 0.000329 0.010404 0.004624 -0.006498 -0.005960
# 4 0.002409 0.004995 0.004624 0.033837 -0.010557 0.000431
# 5 -0.013178 -0.001029 -0.006498 -0.010557 0.048971 0.016979
# 6 -0.010713 0.000110 -0.005960 0.000431 0.016979 0.035997
#
#
# Mechanical properties :
#
#
# Convention : Reuss Voigt Hill
#
# Bulk Modulus (GPa) = 26.19064 43.11557 34.65310
# Shear Modulus (GPa) = 28.52496 38.35505 33.44000
#
# Velocity S-wave (km/s) = 3.44168 3.99089 3.72642
# Velocity P-wave (km/s) = 5.16424 6.25622 5.73627
#
# Compressibility (1/GPa) = 0.03818158
#
# Stress axis : x y z
#
# Youngs Moduli (GPa) = 51.38334 90.07861 96.11759
#
# Poissons Ratio (x) = 0.13985 0.01630
# Poissons Ratio (y) = 0.07977 -0.03167
# Poissons Ratio (z) = 0.00872 -0.02968
#
# Static dielectric constant tensor:
#      x y z
#    x 2.084370 -0.019040 -0.048240 
#    y -0.019040 1.946980 -0.023660 
#    z -0.048240 -0.023660 1.972900 
# 
# From -- ./inp_files/120255.got.cif
#   From: 2010.05.17/outbox.cif.g08.bks.cpg/sg2_61_cif.got.tgz:120255.got - 2010.06.03 11:33:40.
