data_PCOD9089600
_publ_section_title
;
Structure prediction by ZEFSAII (Michael W. Deem and Ramdas Pophale) SiO2 
 PCOD9089600
Probable space group: P -1
;
_chemical_formula_sum "Si O2"
_cell_formula_units_Z 16
_cell_length_a 14.644570
_cell_length_b 12.314959
_cell_length_c 11.533207
_cell_angle_alpha 46.546106
_cell_angle_beta 150.324598
_cell_angle_gamma 124.691961
_cell_volume 745.200818
_symmetry_space_group_name_H-M "P -1"
_symmetry_group_IT_number 2
_symmetry_cell_setting 'triclinic'
loop_
_space_group_symop_operation_xyz
x,y,z
-x,-y,-z
loop_
_atom_site_type_symbol
_atom_site_label
_atom_site_fract_x
_atom_site_fract_y
_atom_site_fract_z
Si Si1 0.138085 0.532853 0.301317
Si Si2 0.060766 0.941972 0.486350
Si Si3 0.737786 0.480017 0.816095
Si Si4 0.008368 0.131116 0.072889
Si Si5 0.265162 0.255814 0.771035
Si Si6 0.407813 0.182036 0.525877
Si Si7 0.346692 0.011237 0.224526
Si Si8 0.546264 0.198996 0.913684
O O1 0.249269 0.531409 0.302175
O O2 0.077278 0.699259 0.156288
O O3 0.234238 0.433876 0.583681
O O4 0.948923 0.460879 0.107696
O O5 0.932508 0.812773 0.403107
O O6 0.000000 0.000000 0.500000
O O7 0.271180 0.880850 0.769397
O O8 0.015348 0.082984 0.250316
O O9 0.656493 0.642778 0.652833
O O10 0.621051 0.354424 0.835497
O O11 0.860945 0.021333 0.939941
O O12 0.230580 0.121348 0.307352
O O13 0.387992 0.210338 0.827176
O O14 0.349367 0.168681 0.041199
O O15 0.585505 0.124019 0.689750
O O16 0.465180 0.130472 0.757652
O O17 0.500000 0.000000 0.500000
#
# Coordination Sequence:
#
# PCOD9089600 Si02
#       8
#     2   2   2   2   2   2   2   2
#     4  10  19  38  59  91 131 163 193 231 306 366
#     4  11  21  34  51  85 127 165 191 235 287 355
#     4  10  20  33  58  92 135 167 185 233 293 372
#     4  10  23  39  62  84 121 158 197 252 302 354
#     4  11  23  38  60  89 124 157 199 248 299 361
#     4  11  22  37  60  92 119 162 200 239 297 367
#     4  11  26  46  64  84 113 160 212 262 306 346
#     4  12  21  34  61  96 129 158 194 235 299 369
#
# _framework density 21.470723
#
# number of rings (size 3 to 8) (size 9 to 14) (size 15 to 20)
#    0.000    1.250    2.500    4.875    3.500    2.000 
#    0.000    0.625    0.000    1.500    0.000    0.000 
#    0.000    0.000    0.000    0.000    0.000    0.000 
#
# Total GULP energy -89249.356531 kJ/mol
# GULP energy per Si atom -5578.084783 kJ/mol
# Density = 2.142185 g / cm^3
# Si number density = 21.470723 Si / 1000 Ang^3
#
#
#
# Elastic Constant Matrix: (Units=GPa)
#
#
# Indices 1 2 3 4 5 6 
#
# 1 44.9037 21.5774 32.1399 2.2433 7.1096 19.0322
# 2 21.5774 58.4064 36.8824 3.2588 -9.8494 29.5138
# 3 32.1399 36.8824 152.5522 0.0636 -10.8054 8.7256
# 4 2.2433 3.2588 0.0636 46.7308 7.0108 1.5256
# 5 7.1096 -9.8494 -10.8054 7.0108 38.9733 5.9228
# 6 19.0322 29.5138 8.7256 1.5256 5.9228 23.8873
#
#
#
# Elastic Compliance Matrix: (Units=1/GPa)
#
#
# Indices 1 2 3 4 5 6 
#
# 1 0.043357 0.017868 -0.010248 -0.001904 0.002208 -0.053304
# 2 0.017868 0.099147 -0.016894 -0.009186 0.040027 -0.139904
# 3 -0.010248 -0.016894 0.011077 0.001337 -0.003486 0.025771
# 4 -0.001904 -0.009186 0.001337 0.022861 -0.007664 0.012819
# 5 0.002208 0.040027 -0.003486 -0.007664 0.044994 -0.060608
# 6 -0.053304 -0.139904 0.025771 0.012819 -0.060608 0.261986
#
#
# Mechanical properties :
#
#
# Convention : Reuss Voigt Hill
#
# Bulk Modulus (GPa) = 7.40561 48.56242 27.98401
# Shear Modulus (GPa) = 9.14107 32.93578 21.03842
#
# Velocity S-wave (km/s) = 2.06560 3.92086 3.13368
# Velocity P-wave (km/s) = 3.02417 6.56998 5.11421
#
# Compressibility (1/GPa) = 0.13503276
#
# Stress axis : x y z
#
# Youngs Moduli (GPa) = 23.06415 10.08603 90.27520
#
# Poissons Ratio (x) = -0.18022 0.92518
# Poissons Ratio (y) = -0.41211 1.52511
# Poissons Ratio (z) = 0.23637 0.17039
#
# Static dielectric constant tensor:
#      x y z
#    x 1.763630 0.053090 0.016950 
#    y 0.053090 1.856130 0.008140 
#    z 0.016950 0.008140 1.823050 
# 
# From -- ./inp_files/391670.got.cif
#   From: 2010.05.17/outbox.cif.g08.bks.cpg/sg2_196_cif.got.tgz:391670.got - 2010.06.03 11:33:40.
