data_PCOD9089100
_publ_section_title
;
Structure prediction by ZEFSAII (Michael W. Deem and Ramdas Pophale) SiO2 
 PCOD9089100
Probable space group: P -1
;
_chemical_formula_sum "Si O2"
_cell_formula_units_Z 14
_cell_length_a 6.050390
_cell_length_b 20.458933
_cell_length_c 5.567184
_cell_angle_alpha 117.083174
_cell_angle_beta 104.646022
_cell_angle_gamma 67.738306
_cell_volume 565.124952
_symmetry_space_group_name_H-M "P -1"
_symmetry_group_IT_number 2
_symmetry_cell_setting 'triclinic'
loop_
_space_group_symop_operation_xyz
x,y,z
-x,-y,-z
loop_
_atom_site_type_symbol
_atom_site_label
_atom_site_fract_x
_atom_site_fract_y
_atom_site_fract_z
Si Si1 0.855819 0.624009 0.240494
Si Si2 0.474978 0.119640 0.471407
Si Si3 0.084796 0.232966 0.772400
Si Si4 0.362092 0.493788 0.206555
Si Si5 0.823554 0.178004 0.962162
Si Si6 0.119873 0.017554 0.811684
Si Si7 0.554606 0.744432 0.682649
O O1 0.928720 0.696830 0.286412
O O2 0.669845 0.660710 0.463096
O O3 0.104492 0.559781 0.259351
O O4 0.708093 0.585575 0.958082
O O5 0.207910 0.147857 0.551425
O O6 0.640052 0.131826 0.758503
O O7 0.469299 0.187317 0.398327
O O8 0.610515 0.038798 0.252783
O O9 0.848527 0.230486 0.835850
O O10 0.259164 0.246658 0.050818
O O11 0.500000 0.500000 0.500000
O O12 0.500000 0.500000 0.000000
O O13 0.069496 0.109775 0.958880
O O14 0.708412 0.234295 0.239043
O O15 0.000000 0.000000 0.500000
O O16 0.000000 0.000000 0.000000
#
# Coordination Sequence:
#
# PCOD9089100 Si02
#       7
#     2   2   2   2   2   2   2
#     4  10  26  48  71 106 151 178 236 300 349 425
#     4   9  20  39  58  89 136 179 235 295 345 401
#     4  10  23  40  63 101 137 180 232 291 351 420
#     4  11  28  50  83 110 143 189 239 280 362 439
#     4  10  21  38  65  94 133 185 242 280 356 419
#     4  10  19  37  65  90 133 184 237 294 350 399
#     4  10  21  40  64  94 139 178 226 289 349 412
#
# _framework density 24.773281000000001
#
# number of rings (size 3 to 8) (size 9 to 14) (size 15 to 20)
#    0.000    2.000    1.429    0.000    4.000    8.571 
#    0.000    0.714    0.000    0.000    0.000    0.000 
#    0.000    0.000    0.000    0.000    0.000    0.000 
#
# Total GULP energy -78202.441985 kJ/mol
# GULP energy per Si atom -5585.888713 kJ/mol
# Density = 2.471690 g / cm^3
# Si number density = 24.773281 Si / 1000 Ang^3
#
#
#
# Elastic Constant Matrix: (Units=GPa)
#
#
# Indices 1 2 3 4 5 6 
#
# 1 78.3251 44.0657 62.0196 23.1191 -29.7623 -1.6178
# 2 44.0657 68.9043 58.9697 17.1697 -16.7507 -13.4571
# 3 62.0196 58.9697 180.6328 18.3674 -10.4821 -21.4390
# 4 23.1191 17.1697 18.3674 42.0670 -7.4854 -15.0546
# 5 -29.7623 -16.7507 -10.4821 -7.4854 62.8194 1.0973
# 6 -1.6178 -13.4571 -21.4390 -15.0546 1.0973 40.1103
#
#
#
# Elastic Compliance Matrix: (Units=1/GPa)
#
#
# Indices 1 2 3 4 5 6 
#
# 1 0.031054 -0.011092 -0.006558 -0.011814 0.009439 -0.010666
# 2 -0.011092 0.026666 -0.004053 -0.000676 0.000993 0.006052
# 3 -0.006558 -0.004053 0.009238 0.002310 -0.002445 0.004247
# 4 -0.011814 -0.000676 0.002310 0.034028 -0.001570 0.013346
# 5 0.009439 0.000993 -0.002445 -0.001570 0.020091 -0.001732
# 6 -0.010666 0.006052 0.004247 0.013346 -0.001732 0.033858
#
#
# Mechanical properties :
#
#
# Convention : Reuss Voigt Hill
#
# Bulk Modulus (GPa) = 42.45625 73.10800 57.78212
# Shear Modulus (GPa) = 24.24930 39.85319 32.05124
#
# Velocity S-wave (km/s) = 3.13205 4.01523 3.60082
# Velocity P-wave (km/s) = 5.50043 7.14640 6.37675
#
# Compressibility (1/GPa) = 0.02355366
#
# Stress axis : x y z
#
# Youngs Moduli (GPa) = 32.20220 37.50040 108.24626
#
# Poissons Ratio (x) = 0.41594 0.70990
# Poissons Ratio (y) = 0.35717 0.43868
# Poissons Ratio (z) = 0.21119 0.15197
#
# Static dielectric constant tensor:
#      x y z
#    x 2.029130 -0.038090 0.007810 
#    y -0.038090 1.945860 -0.040100 
#    z 0.007810 -0.040100 2.036720 
# 
# From -- ./inp_files/7731.got.cif
#   From: 2010.05.17/outbox.cif.g08.bks.cpg/sg2_4_cif.got.tgz:7731.got - 2010.06.03 11:33:40.
