data_PCOD9089188
_publ_section_title
;
Structure prediction by ZEFSAII (Michael W. Deem and Ramdas Pophale) SiO2 
 PCOD9089188
Probable space group: P -1
;
_chemical_formula_sum "Si O2"
_cell_formula_units_Z 16
_cell_length_a 9.180967
_cell_length_b 8.655344
_cell_length_c 11.666820
_cell_angle_alpha 91.476627
_cell_angle_beta 92.012758
_cell_angle_gamma 55.034444
_cell_volume 759.266325
_symmetry_space_group_name_H-M "P -1"
_symmetry_group_IT_number 2
_symmetry_cell_setting 'triclinic'
loop_
_space_group_symop_operation_xyz
x,y,z
-x,-y,-z
loop_
_atom_site_type_symbol
_atom_site_label
_atom_site_fract_x
_atom_site_fract_y
_atom_site_fract_z
Si Si1 0.807737 0.197115 0.495344
Si Si2 0.687670 0.459149 0.030077
Si Si3 0.484509 0.858622 0.415540
Si Si4 0.110827 0.801884 0.749424
Si Si5 0.998626 0.868976 0.096039
Si Si6 0.813097 0.544633 0.536560
Si Si7 0.245738 0.180743 0.260699
Si Si8 0.807460 0.702205 0.999665
O O1 0.661719 0.172680 0.542743
O O2 0.772807 0.249447 0.361070
O O3 0.817664 0.359562 0.555459
O O4 0.000000 0.000000 0.500000
O O5 0.778025 0.335641 0.144619
O O6 0.500000 0.500000 0.000000
O O7 0.679593 0.649074 0.044476
O O8 0.818029 0.332559 0.925438
O O9 0.674050 0.663342 0.432197
O O10 0.500000 0.000000 0.500000
O O11 0.408189 0.970943 0.297033
O O12 0.940634 0.795984 0.722776
O O13 0.032208 0.016228 0.788309
O O14 0.842269 0.840182 0.069915
O O15 0.000000 0.000000 0.000000
O O16 0.754848 0.672786 0.651120
O O17 0.000000 0.500000 0.500000
O O18 0.247336 0.225175 0.129513
O O19 0.000000 0.500000 0.000000
#
# Coordination Sequence:
#
# PCOD9089188 Si02
#       8
#     2   2   2   2   2   2   2   2
#     4  12  23  41  66  96 129 166 210 266 319 383
#     4  10  22  40  60  93 128 156 213 268 304 372
#     4  10  23  43  63  95 129 164 216 267 313 383
#     4  11  21  41  63  88 127 167 207 254 322 372
#     4   9  18  37  63  84 118 163 206 249 312 375
#     4  11  23  42  66  94 128 169 212 263 321 379
#     4  11  20  41  67  90 127 168 213 264 316 377
#     4  10  19  37  66  88 119 165 207 253 314 375
#
# _framework density 21.072973999999999
#
# number of rings (size 3 to 8) (size 9 to 14) (size 15 to 20)
#    0.000    1.500    6.250    1.125    0.000    4.000 
#    2.250    2.500    2.750    0.000    0.000    0.000 
#    0.000    0.000    0.000    0.000    0.000    0.000 
#
# Total GULP energy -89361.571592 kJ/mol
# GULP energy per Si atom -5585.098224 kJ/mol
# Density = 2.102501 g / cm^3
# Si number density = 21.072974 Si / 1000 Ang^3
#
#
#
# Elastic Constant Matrix: (Units=GPa)
#
#
# Indices 1 2 3 4 5 6 
#
# 1 148.6889 64.0595 20.9580 -9.8088 14.9651 18.5707
# 2 64.0595 111.3723 35.8312 -10.3899 14.5493 19.9011
# 3 20.9580 35.8312 82.4309 -11.6830 12.4503 5.6816
# 4 -9.8088 -10.3899 -11.6830 41.5951 0.5764 15.8977
# 5 14.9651 14.5493 12.4503 0.5764 24.5191 -2.0242
# 6 18.5707 19.9011 5.6816 15.8977 -2.0242 47.6405
#
#
#
# Elastic Compliance Matrix: (Units=1/GPa)
#
#
# Indices 1 2 3 4 5 6 
#
# 1 0.009431 -0.004385 0.000627 0.002466 -0.003770 -0.002903
# 2 -0.004385 0.014587 -0.003621 0.003718 -0.004673 -0.005391
# 3 0.000627 -0.003621 0.015299 0.004519 -0.006301 -0.002332
# 4 0.002466 0.003718 0.004519 0.032353 -0.007938 -0.014187
# 5 -0.003770 -0.004673 -0.006301 -0.007938 0.049983 0.008946
# 6 -0.002903 -0.005391 -0.002332 -0.014187 0.008946 0.029767
#
#
# Mechanical properties :
#
#
# Convention : Reuss Voigt Hill
#
# Bulk Modulus (GPa) = 40.71902 64.90994 52.81448
# Shear Modulus (GPa) = 28.67562 37.52717 33.10140
#
# Velocity S-wave (km/s) = 3.69287 4.22455 3.96763
# Velocity P-wave (km/s) = 6.12763 7.39359 6.79018
#
# Compressibility (1/GPa) = 0.02455854
#
# Stress axis : x y z
#
# Youngs Moduli (GPa) = 106.03415 68.55479 65.36364
#
# Poissons Ratio (x) = 0.30062 -0.04101
# Poissons Ratio (y) = 0.46497 0.23671
# Poissons Ratio (z) = -0.06652 0.24827
#
# Static dielectric constant tensor:
#      x y z
#    x 1.623400 -0.095080 0.019160 
#    y -0.095080 1.717070 0.020640 
#    z 0.019160 0.020640 1.768980 
# 
# From -- ./inp_files/224213.got.cif
#   From: 2010.05.17/outbox.cif.g08.bks.cpg/sg2_113_cif.got.tgz:224213.got - 2010.06.03 11:33:40.
