data_PCOD9089866
_publ_section_title
;
Structure prediction by ZEFSAII (Michael W. Deem and Ramdas Pophale) SiO2 
 PCOD9089866
Probable space group: P -1
;
_chemical_formula_sum "Si O2"
_cell_formula_units_Z 16
_cell_length_a 25.850581
_cell_length_b 21.227214
_cell_length_c 9.259164
_cell_angle_alpha 150.808584
_cell_angle_beta 37.141325
_cell_angle_gamma 162.649885
_cell_volume 715.827402
_symmetry_space_group_name_H-M "P -1"
_symmetry_group_IT_number 2
_symmetry_cell_setting 'triclinic'
loop_
_space_group_symop_operation_xyz
x,y,z
-x,-y,-z
loop_
_atom_site_type_symbol
_atom_site_label
_atom_site_fract_x
_atom_site_fract_y
_atom_site_fract_z
Si Si1 0.437471 0.041168 0.633851
Si Si2 0.055145 0.352291 0.413138
Si Si3 0.014103 0.845463 0.287748
Si Si4 0.483431 0.595570 0.113560
Si Si5 0.395164 0.764770 0.661902
Si Si6 0.833227 0.155901 0.278762
Si Si7 0.108631 0.019362 0.737305
Si Si8 0.762320 0.598652 0.131110
O O1 0.504862 0.108388 0.458347
O O2 0.234247 0.809256 0.590270
O O3 0.500000 0.000000 0.500000
O O4 0.552378 0.308426 0.986254
O O5 0.203647 0.565124 0.633343
O O6 0.974881 0.355769 0.495003
O O7 0.893799 0.078819 0.317355
O O8 0.139912 0.360090 0.127521
O O9 0.016564 0.835761 0.434494
O O10 0.144424 0.140228 0.560948
O O11 0.091934 0.837298 0.998125
O O12 0.819541 0.618349 0.198869
O O13 0.414806 0.642199 0.427666
O O14 0.658394 0.858166 0.151717
O O15 0.500000 0.500000 0.000000
O O16 0.310358 0.326668 0.865309
O O17 0.500000 0.000000 0.000000
O O18 0.000000 0.000000 0.000000
#
# Coordination Sequence:
#
# PCOD9089866 Si02
#       8
#     2   2   2   2   2   2   2   2
#     4  10  22  43  61  82 121 168 207 252 315 370
#     4  10  19  38  62  86 126 166 201 260 317 367
#     4  10  20  35  59  94 123 155 207 254 308 369
#     4  11  22  38  64  93 130 166 204 260 320 369
#     4  10  22  42  64  90 125 167 213 255 312 379
#     4  10  22  40  61  93 126 164 205 261 315 370
#     4  12  20  35  61  95 127 164 205 253 318 376
#     4   9  19  36  59  84 120 161 199 250 313 360
#
# _framework density 22.351756000000002
#
# number of rings (size 3 to 8) (size 9 to 14) (size 15 to 20)
#    0.000    1.750    3.750    1.500    0.000    3.000 
#    4.500    8.125    0.000    0.000    0.000    0.000 
#    0.000    0.000    0.000    0.000    0.000    0.000 
#
# Total GULP energy -89178.806435 kJ/mol
# GULP energy per Si atom -5573.675402 kJ/mol
# Density = 2.230088 g / cm^3
# Si number density = 22.351756 Si / 1000 Ang^3
#
#
#
# Elastic Constant Matrix: (Units=GPa)
#
#
# Indices 1 2 3 4 5 6 
#
# 1 175.3644 35.6869 51.6241 2.6182 5.9934 27.2864
# 2 35.6869 61.7650 17.6255 6.7402 8.7926 10.7361
# 3 51.6241 17.6255 84.7410 20.2884 22.5602 19.6889
# 4 2.6182 6.7402 20.2884 17.0773 0.0283 3.6952
# 5 5.9934 8.7926 22.5602 0.0283 30.7841 1.5852
# 6 27.2864 10.7361 19.6889 3.6952 1.5852 40.5449
#
#
#
# Elastic Compliance Matrix: (Units=1/GPa)
#
#
# Indices 1 2 3 4 5 6 
#
# 1 0.008926 -0.004416 -0.007918 0.010234 0.005426 -0.002138
# 2 -0.004416 0.020488 0.003896 -0.011374 -0.007682 -0.003008
# 3 -0.007918 0.003896 0.032591 -0.037444 -0.023050 -0.007216
# 4 0.010234 -0.011374 -0.037444 0.105133 0.028414 0.003615
# 5 0.005426 -0.007682 -0.023050 0.028414 0.050229 0.005022
# 6 -0.002138 -0.003008 -0.007216 0.003615 0.005022 0.029878
#
#
# Mechanical properties :
#
#
# Convention : Reuss Voigt Hill
#
# Bulk Modulus (GPa) = 22.15790 59.08261 40.62026
# Shear Modulus (GPa) = 17.91064 32.14351 25.02708
#
# Velocity S-wave (km/s) = 2.83381 3.79631 3.34981
# Velocity P-wave (km/s) = 4.54336 6.76065 5.75971
#
# Compressibility (1/GPa) = 0.04513062
#
# Stress axis : x y z
#
# Youngs Moduli (GPa) = 112.02936 48.80995 30.68290
#
# Poissons Ratio (x) = 0.21553 0.24293
# Poissons Ratio (y) = 0.49469 -0.11954
# Poissons Ratio (z) = 0.88700 -0.19016
#
# Static dielectric constant tensor:
#      x y z
#    x 1.926010 0.063270 -0.068090 
#    y 0.063270 1.941680 0.032860 
#    z -0.068090 0.032860 1.847770 
# 
# From -- ./inp_files/187654.got.cif
#   From: 2010.05.17/outbox.cif.g08.bks.cpg/sg2_94_cif.got.tgz:187654.got - 2010.06.03 11:33:40.
