data_PCOD9089623
_publ_section_title
;
Structure prediction by ZEFSAII (Michael W. Deem and Ramdas Pophale) SiO2 
 PCOD9089623
Probable space group: P -1
;
_chemical_formula_sum "Si O2"
_cell_formula_units_Z 12
_cell_length_a 11.617358
_cell_length_b 9.121985
_cell_length_c 14.552147
_cell_angle_alpha 142.504772
_cell_angle_beta 149.166753
_cell_angle_gamma 41.644559
_cell_volume 470.224828
_symmetry_space_group_name_H-M "P -1"
_symmetry_group_IT_number 2
_symmetry_cell_setting 'triclinic'
loop_
_space_group_symop_operation_xyz
x,y,z
-x,-y,-z
loop_
_atom_site_type_symbol
_atom_site_label
_atom_site_fract_x
_atom_site_fract_y
_atom_site_fract_z
Si Si1 0.138610 0.915429 0.713114
Si Si2 0.266171 0.189953 0.303094
Si Si3 0.474058 0.578291 0.263478
Si Si4 0.138703 0.375418 0.823881
Si Si5 0.281328 0.357514 0.719262
Si Si6 0.875083 0.057755 0.085308
O O1 0.360854 0.693928 0.745528
O O2 0.139223 0.052441 0.879350
O O3 0.919718 0.790337 0.503454
O O4 0.116278 0.114651 0.717162
O O5 0.478115 0.262172 0.537337
O O6 0.090968 0.449357 0.285778
O O7 0.121634 0.046418 0.200125
O O8 0.286444 0.040623 0.147570
O O9 0.559229 0.697431 0.288429
O O10 0.230759 0.522356 0.042109
O O11 0.325142 0.335038 0.848259
O O12 0.191156 0.650590 0.796185
#
# Coordination Sequence:
#
# PCOD9089623 Si02
#       6
#     2   2   2   2   2   2
#     4  11  19  37  60  82 114 146 179 232 282 319
#     4  10  20  38  59  79 112 150 184 224 274 330
#     4  11  20  38  59  83 111 146 187 228 271 327
#     4  11  23  33  59  89 112 139 187 230 279 324
#     4  10  19  38  60  82 108 150 187 224 272 329
#     4   9  18  36  62  77 107 156 183 220 276 328
#
# _framework density 25.519707
#
# number of rings (size 3 to 8) (size 9 to 14) (size 15 to 20)
#    0.000    1.667    5.000    2.500    0.000    0.667 
#    0.000    8.333    3.667    0.000    0.000    0.000 
#    0.000    0.000    0.000    0.000    0.000    0.000 
#
# Total GULP energy -67148.332022 kJ/mol
# GULP energy per Si atom -5595.694335 kJ/mol
# Density = 2.546162 g / cm^3
# Si number density = 25.519707 Si / 1000 Ang^3
#
#
#
# Elastic Constant Matrix: (Units=GPa)
#
#
# Indices 1 2 3 4 5 6 
#
# 1 107.2025 31.8777 20.7233 -11.5482 -52.4004 12.2900
# 2 31.8777 130.5560 16.2323 11.5602 1.5516 27.0739
# 3 20.7233 16.2323 181.9415 -23.2780 -42.5822 6.8200
# 4 -11.5482 11.5602 -23.2780 39.9328 9.9413 -6.9979
# 5 -52.4004 1.5516 -42.5822 9.9413 59.5775 -1.8769
# 6 12.2900 27.0739 6.8200 -6.9979 -1.8769 43.1770
#
#
#
# Elastic Compliance Matrix: (Units=1/GPa)
#
#
# Indices 1 2 3 4 5 6 
#
# 1 0.020991 -0.005973 0.003534 0.004592 0.020341 -0.001160
# 2 -0.005973 0.011301 -0.002353 -0.005859 -0.006448 -0.006244
# 3 0.003534 -0.002353 0.007704 0.004259 0.007974 0.000289
# 4 0.004592 -0.005859 0.004259 0.031190 0.002247 0.006847
# 5 0.020341 -0.006448 0.007974 0.002247 0.040139 -0.000897
# 6 -0.001160 -0.006244 0.000289 0.006847 -0.000897 0.028431
#
#
# Mechanical properties :
#
#
# Convention : Reuss Voigt Hill
#
# Bulk Modulus (GPa) = 32.88099 61.92962 47.40530
# Shear Modulus (GPa) = 31.35252 51.92857 41.64055
#
# Velocity S-wave (km/s) = 3.50889 4.51582 4.04381
# Velocity P-wave (km/s) = 5.41562 7.17706 6.35764
#
# Compressibility (1/GPa) = 0.03041271
#
# Stress axis : x y z
#
# Youngs Moduli (GPa) = 47.63879 88.48988 129.80186
#
# Poissons Ratio (x) = 0.52852 -0.45867
# Poissons Ratio (y) = 0.28453 0.30537
# Poissons Ratio (z) = -0.16834 0.20818
#
# Static dielectric constant tensor:
#      x y z
#    x 2.019240 -0.089290 -0.037080 
#    y -0.089290 2.084590 -0.061000 
#    z -0.037080 -0.061000 2.009640 
# 
# From -- ./inp_files/147057.got.cif
#   From: 2010.05.17/outbox.cif.g08.bks.cpg/sg2_74_cif.got.tgz:147057.got - 2010.06.03 11:33:40.
