data_PCOD9089905
_publ_section_title
;
Structure prediction by ZEFSAII (Michael W. Deem and Ramdas Pophale) SiO2 
 PCOD9089905
Probable space group: P -1
;
_chemical_formula_sum "Si O2"
_cell_formula_units_Z 16
_cell_length_a 15.676915
_cell_length_b 15.092258
_cell_length_c 12.302216
_cell_angle_alpha 43.673008
_cell_angle_beta 32.465458
_cell_angle_gamma 27.663174
_cell_volume 722.032956
_symmetry_space_group_name_H-M "P -1"
_symmetry_group_IT_number 2
_symmetry_cell_setting 'triclinic'
loop_
_space_group_symop_operation_xyz
x,y,z
-x,-y,-z
loop_
_atom_site_type_symbol
_atom_site_label
_atom_site_fract_x
_atom_site_fract_y
_atom_site_fract_z
Si Si1 0.522600 0.832611 0.503894
Si Si2 0.693279 0.471847 0.558834
Si Si3 0.669342 0.040301 0.166824
Si Si4 0.327138 0.309291 0.114064
Si Si5 0.821041 0.330386 0.074139
Si Si6 0.142201 0.732035 0.656280
Si Si7 0.656671 0.104069 0.745304
Si Si8 0.828068 0.882111 0.543436
O O1 0.688670 0.622162 0.465367
O O2 0.628090 0.912031 0.306378
O O3 0.467482 0.842792 0.680037
O O4 0.275712 0.982151 0.568637
O O5 0.432193 0.574512 0.771695
O O6 0.745209 0.427002 0.414610
O O7 0.900524 0.266207 0.578067
O O8 0.553619 0.181408 0.064218
O O9 0.950261 0.887562 0.012575
O O10 0.202247 0.250830 0.326670
O O11 0.171478 0.528781 0.101531
O O12 0.423120 0.244173 0.945155
O O13 0.827584 0.329417 0.199047
O O14 0.264449 0.797618 0.451172
O O15 0.866846 0.915179 0.758829
O O16 0.661708 0.025413 0.696218
#
# Coordination Sequence:
#
# PCOD9089905 Si02
#       8
#     2   2   2   2   2   2   2   2
#     4  10  23  45  68  81 123 163 206 254 300 360
#     4  11  23  39  61  93 122 161 202 246 304 361
#     4  10  24  45  63  91 115 164 211 250 301 353
#     4  11  22  39  62  91 125 157 203 254 298 360
#     4  12  23  38  65  92 126 161 202 247 303 368
#     4  10  21  37  61  92 128 162 197 243 306 367
#     4  10  19  38  62  89 127 161 196 251 300 361
#     4  10  23  39  61  92 123 160 201 250 306 356
#
# _framework density 22.159652999999999
#
# number of rings (size 3 to 8) (size 9 to 14) (size 15 to 20)
#    0.000    1.500    2.500    2.250    1.750    2.500 
#    0.000    6.875    0.000    0.000    0.000    0.000 
#    0.000    0.000    0.000    0.000    0.000    0.000 
#
# Total GULP energy -89494.206395 kJ/mol
# GULP energy per Si atom -5593.387900 kJ/mol
# Density = 2.210922 g / cm^3
# Si number density = 22.159653 Si / 1000 Ang^3
#
#
#
# Elastic Constant Matrix: (Units=GPa)
#
#
# Indices 1 2 3 4 5 6 
#
# 1 -12.3852 -10.1738 -15.5422 -31.3507 6.3549 -39.5466
# 2 -10.1738 72.9794 -2.4458 -10.4248 7.8745 -14.7053
# 3 -15.5422 -2.4458 19.3640 -6.6681 0.9262 -13.2963
# 4 -31.3507 -10.4248 -6.6681 14.6424 -9.6862 -24.9803
# 5 6.3549 7.8745 0.9262 -9.6862 16.0174 -0.2341
# 6 -39.5466 -14.7053 -13.2963 -24.9803 -0.2341 5.9728
#
#
#
# Elastic Compliance Matrix: (Units=1/GPa)
#
#
# Indices 1 2 3 4 5 6 
#
# 1 0.010825 -0.002643 -0.006721 -0.015486 -0.012191 -0.015038
# 2 -0.002643 0.013480 -0.001645 -0.002996 -0.007307 -0.000792
# 3 -0.006721 -0.001645 0.039007 -0.010394 -0.005145 -0.005389
# 4 -0.015486 -0.002996 -0.010394 0.029324 0.025814 -0.009393
# 5 -0.012191 -0.007307 -0.005145 0.025814 0.086787 0.001202
# 6 -0.015038 -0.000792 -0.005389 -0.009393 0.001202 0.014671
#
#
# Mechanical properties :
#
#
# Convention : Reuss Voigt Hill
#
# Bulk Modulus (GPa) = 24.21677 2.62608 13.42142
# Shear Modulus (GPa) = 21.75094 14.53450 18.14272
#
# Velocity S-wave (km/s) = 3.13638 2.56383 2.86445
# Velocity P-wave (km/s) = 4.90590 3.15467 4.12431
#
# Compressibility (1/GPa) = 0.04129371
#
# Stress axis : x y z
#
# Youngs Moduli (GPa) = 92.37841 74.18590 25.63658
#
# Poissons Ratio (x) = 0.19607 0.17230
# Poissons Ratio (y) = 0.24415 0.04218
# Poissons Ratio (z) = 0.62086 0.12204
#
# Static dielectric constant tensor:
#      x y z
#    x 1.817930 -0.016360 -0.049620 
#    y -0.016360 1.809320 0.015690 
#    z -0.049620 0.015690 1.798390 
# 
# From -- ./inp_files/433702.got.cif
#   From: 2010.05.17/outbox.cif.g08.bks.cpg/sg2_217_cif.got.tgz:433702.got - 2010.06.03 11:33:40.
