data_PCOD9089002
_publ_section_title
;
Structure prediction by ZEFSAII (Michael W. Deem and Ramdas Pophale) SiO2 
 PCOD9089002
Probable space group: P -1
;
_chemical_formula_sum "Si O2"
_cell_formula_units_Z 16
_cell_length_a 11.522333
_cell_length_b 13.865159
_cell_length_c 7.405784
_cell_angle_alpha 56.163091
_cell_angle_beta 74.422573
_cell_angle_gamma 42.776975
_cell_volume 646.495618
_symmetry_space_group_name_H-M "P -1"
_symmetry_group_IT_number 2
_symmetry_cell_setting 'triclinic'
loop_
_space_group_symop_operation_xyz
x,y,z
-x,-y,-z
loop_
_atom_site_type_symbol
_atom_site_label
_atom_site_fract_x
_atom_site_fract_y
_atom_site_fract_z
Si Si1 0.555492 0.184222 0.689599
Si Si2 0.787780 0.493048 0.335255
Si Si3 0.833528 0.656849 0.598699
Si Si4 0.780331 0.914139 0.181596
Si Si5 0.194458 0.795894 0.343203
Si Si6 0.137967 0.598779 0.975326
Si Si7 0.894399 0.171475 0.039579
Si Si8 0.757679 0.896712 0.620755
O O1 0.356549 0.357718 0.626028
O O2 0.659338 0.233677 0.584196
O O3 0.612109 0.063692 0.625504
O O4 0.627024 0.070084 0.958071
O O5 0.970044 0.429911 0.361023
O O6 0.802518 0.343177 0.495027
O O7 0.749390 0.532302 0.098773
O O8 0.775838 0.776274 0.328364
O O9 0.723479 0.790106 0.674333
O O10 0.851443 0.507733 0.766402
O O11 0.774662 0.945654 0.365376
O O12 0.957474 0.845329 0.093619
O O13 0.213394 0.801263 0.112477
O O14 0.010310 0.988121 0.268879
O O15 0.939292 0.761707 0.805345
O O16 0.202714 0.676920 0.939483
#
# Coordination Sequence:
#
# PCOD9089002 Si02
#       8
#     2   2   2   2   2   2   2   2
#     4  11  22  41  62  89 135 160 197 252 319 363
#     4  11  22  39  60  95 123 160 205 256 309 363
#     4   9  21  40  65  90 126 153 217 256 286 373
#     4   9  19  39  61  89 121 163 201 250 294 370
#     4  10  20  39  59  88 126 159 206 259 293 374
#     4  11  20  40  65  93 121 163 208 260 297 361
#     4  10  19  37  64  92 121 157 216 251 302 363
#     4   9  18  38  63  86 119 166 200 240 307 363
#
# _framework density 24.748815
#
# number of rings (size 3 to 8) (size 9 to 14) (size 15 to 20)
#    0.750    1.250    3.750    1.875    0.000    1.000 
#    9.000    3.750    0.000    0.000    0.000    0.000 
#    0.000    0.000    0.000    0.000    0.000    0.000 
#
# Total GULP energy -89340.925338 kJ/mol
# GULP energy per Si atom -5583.807834 kJ/mol
# Density = 2.469249 g / cm^3
# Si number density = 24.748815 Si / 1000 Ang^3
#
#
#
# Elastic Constant Matrix: (Units=GPa)
#
#
# Indices 1 2 3 4 5 6 
#
# 1 59.3207 33.7535 26.3115 -11.2267 -6.2110 14.7272
# 2 33.7535 137.9598 42.7037 -11.1751 -12.7391 8.2362
# 3 26.3115 42.7037 122.4488 -3.3201 -10.2833 10.8385
# 4 -11.2267 -11.1751 -3.3201 26.4348 18.1367 -7.9640
# 5 -6.2110 -12.7391 -10.2833 18.1367 19.3454 0.0379
# 6 14.7272 8.2362 10.8385 -7.9640 0.0379 21.1568
#
#
#
# Elastic Compliance Matrix: (Units=1/GPa)
#
#
# Indices 1 2 3 4 5 6 
#
# 1 0.024217 -0.004078 -0.002795 0.006386 -0.002361 -0.011430
# 2 -0.004078 0.009221 -0.001821 -0.002530 0.006169 -0.000782
# 3 -0.002795 -0.001821 0.011527 -0.017579 0.020531 -0.009905
# 4 0.006386 -0.002530 -0.017579 0.186069 -0.183553 0.075916
# 5 -0.002361 0.006169 0.020531 -0.183553 0.238152 -0.080797
# 6 -0.011430 -0.000782 -0.009905 0.075916 -0.080797 0.089322
#
#
# Mechanical properties :
#
#
# Convention : Reuss Voigt Hill
#
# Bulk Modulus (GPa) = 36.26262 58.36297 47.31280
# Shear Modulus (GPa) = 8.54572 27.85142 18.19857
#
# Velocity S-wave (km/s) = 1.86024 3.35828 2.71464
# Velocity P-wave (km/s) = 4.39295 6.21858 5.38372
#
# Compressibility (1/GPa) = 0.02757661
#
# Stress axis : x y z
#
# Youngs Moduli (GPa) = 41.29399 108.44549 86.75636
#
# Poissons Ratio (x) = 0.44226 0.24246
# Poissons Ratio (y) = 0.16840 0.15798
# Poissons Ratio (z) = 0.11541 0.19747
#
# Static dielectric constant tensor:
#      x y z
#    x 1.975930 0.011310 0.012680 
#    y 0.011310 2.003930 0.022300 
#    z 0.012680 0.022300 2.019980 
# 
# From -- ./inp_files/312511.got.cif
#   From: 2010.05.17/outbox.cif.g08.bks.cpg/sg2_157_cif.got.tgz:312511.got - 2010.06.03 11:33:40.
