data_PCOD9089239
_publ_section_title
;
Structure prediction by ZEFSAII (Michael W. Deem and Ramdas Pophale) SiO2 
 PCOD9089239
Probable space group: P -1
;
_chemical_formula_sum "Si O2"
_cell_formula_units_Z 16
_cell_length_a 9.096943
_cell_length_b 21.805445
_cell_length_c 4.996461
_cell_angle_alpha 73.383651
_cell_angle_beta 54.468087
_cell_angle_gamma 53.556137
_cell_volume 646.163712
_symmetry_space_group_name_H-M "P -1"
_symmetry_group_IT_number 2
_symmetry_cell_setting 'triclinic'
loop_
_space_group_symop_operation_xyz
x,y,z
-x,-y,-z
loop_
_atom_site_type_symbol
_atom_site_label
_atom_site_fract_x
_atom_site_fract_y
_atom_site_fract_z
Si Si1 0.600323 0.430434 0.276296
Si Si2 0.179851 0.739411 0.668208
Si Si3 0.157152 0.521257 0.436794
Si Si4 0.562344 0.735400 0.568898
Si Si5 0.075554 0.197580 0.619636
Si Si6 0.829732 0.677742 0.849658
Si Si7 0.225267 0.903982 0.643516
Si Si8 0.076119 0.069508 0.567761
O O1 0.500000 0.500000 0.500000
O O2 0.755200 0.346797 0.330244
O O3 0.376931 0.442886 0.390614
O O4 0.739537 0.443509 0.902073
O O5 0.374991 0.731851 0.631764
O O6 0.137926 0.773408 0.374508
O O7 0.980263 0.786870 0.028448
O O8 0.000000 0.500000 0.500000
O O9 0.016262 0.589210 0.712805
O O10 0.633450 0.697320 0.831530
O O11 0.457423 0.826838 0.546534
O O12 0.763708 0.692005 0.209111
O O13 0.197151 0.110374 0.494108
O O14 0.139271 0.255216 0.373645
O O15 0.078475 0.900117 0.569596
O O16 0.087251 0.917766 0.037566
O O17 0.232570 0.977960 0.481843
#
# Coordination Sequence:
#
# PCOD9089239 Si02
#       8
#     2   2   2   2   2   2   2   2
#     4  11  26  44  70  97 129 177 225 284 336 406
#     4  12  24  42  70  94 130 166 232 268 323 397
#     4  11  26  47  66  96 134 175 222 280 345 403
#     4  12  24  42  64  99 129 176 215 273 324 396
#     4  12  22  43  65  97 130 175 213 272 327 394
#     4  12  27  42  64  94 140 168 214 271 338 397
#     4  10  20  37  63  99 129 162 225 268 320 386
#     4  10  19  37  66  95 128 170 212 278 320 382
#
# _framework density 24.761524999999999
#
# number of rings (size 3 to 8) (size 9 to 14) (size 15 to 20)
#    0.000    0.750    3.750    3.750    5.250    0.500 
#    0.000    1.250    0.000    0.000    0.000    0.000 
#    0.000    0.000    0.000    0.000    0.000    0.000 
#
# Total GULP energy -89434.662131 kJ/mol
# GULP energy per Si atom -5589.666383 kJ/mol
# Density = 2.470517 g / cm^3
# Si number density = 24.761525 Si / 1000 Ang^3
#
#
#
# Elastic Constant Matrix: (Units=GPa)
#
#
# Indices 1 2 3 4 5 6 
#
# 1 84.1140 -3.9998 3.0020 4.2719 3.7716 2.3356
# 2 -3.9998 105.5950 -7.0430 18.9540 11.2864 10.0449
# 3 3.0020 -7.0430 61.6385 19.1913 14.7562 -1.4980
# 4 4.2719 18.9540 19.1913 31.9183 2.4603 2.7905
# 5 3.7716 11.2864 14.7562 2.4603 40.3890 -9.9997
# 6 2.3356 10.0449 -1.4980 2.7905 -9.9997 49.6853
#
#
#
# Elastic Compliance Matrix: (Units=1/GPa)
#
#
# Indices 1 2 3 4 5 6 
#
# 1 0.012169 0.001289 0.000803 -0.002641 -0.001887 -0.001040
# 2 0.001289 0.012782 0.006096 -0.010695 -0.006029 -0.003074
# 3 0.000803 0.006096 0.024786 -0.017711 -0.010144 -0.001570
# 4 -0.002641 -0.010695 -0.017711 0.048115 0.006883 0.000435
# 5 -0.001887 -0.006029 -0.010144 0.006883 0.031636 0.006982
# 6 -0.001040 -0.003074 -0.001570 0.000435 0.006982 0.022130
#
#
# Mechanical properties :
#
#
# Convention : Reuss Voigt Hill
#
# Bulk Modulus (GPa) = 15.12540 26.14067 20.63303
# Shear Modulus (GPa) = 31.79071 41.69106 36.74089
#
# Velocity S-wave (km/s) = 3.58701 4.10775 3.85618
# Velocity P-wave (km/s) = 4.82464 5.75135 5.30826
#
# Compressibility (1/GPa) = 0.06611394
#
# Stress axis : x y z
#
# Youngs Moduli (GPa) = 82.17707 78.23447 40.34565
#
# Poissons Ratio (x) = -0.10085 -0.03241
# Poissons Ratio (y) = -0.10593 -0.24596
# Poissons Ratio (z) = -0.06601 -0.47694
#
# Static dielectric constant tensor:
#      x y z
#    x 2.125720 0.063520 -0.027190 
#    y 0.063520 2.011530 -0.042690 
#    z -0.027190 -0.042690 1.880850 
# 
# From -- ./inp_files/52853.got.cif
#   From: 2010.05.17/outbox.cif.g08.bks.cpg/sg2_27_cif.got.tgz:52853.got - 2010.06.03 11:33:40.
