data_PCOD9089771
_publ_section_title
;
Structure prediction by ZEFSAII (Michael W. Deem and Ramdas Pophale) SiO2 
 PCOD9089771
Probable space group: P -1
;
_chemical_formula_sum "Si O2"
_cell_formula_units_Z 16
_cell_length_a 12.089201
_cell_length_b 16.291428
_cell_length_c 15.431933
_cell_angle_alpha 36.692392
_cell_angle_beta 57.716018
_cell_angle_gamma 31.150501
_cell_volume 817.772632
_symmetry_space_group_name_H-M "P -1"
_symmetry_group_IT_number 2
_symmetry_cell_setting 'triclinic'
loop_
_space_group_symop_operation_xyz
x,y,z
-x,-y,-z
loop_
_atom_site_type_symbol
_atom_site_label
_atom_site_fract_x
_atom_site_fract_y
_atom_site_fract_z
Si Si1 0.151779 0.407463 0.599580
Si Si2 0.214421 0.733302 0.935646
Si Si3 0.095912 0.755406 0.276236
Si Si4 0.967750 0.755107 0.140267
Si Si5 0.453874 0.244675 0.849222
Si Si6 0.010965 0.839237 0.744805
Si Si7 0.359648 0.607803 0.643214
Si Si8 0.660789 0.915905 0.869603
O O1 0.121874 0.596640 0.459531
O O2 0.440859 0.110689 0.726163
O O3 0.000000 0.500000 0.500000
O O4 0.043213 0.400505 0.722465
O O5 0.080410 0.830808 0.817769
O O6 0.500000 0.500000 0.000000
O O7 0.169785 0.637682 0.092557
O O8 0.089986 0.969846 0.838489
O O9 0.008577 0.780167 0.197557
O O10 0.363010 0.586894 0.297953
O O11 0.705609 0.034864 0.976105
O O12 0.342891 0.494379 0.680449
O O13 0.534663 0.114814 0.832541
O O14 0.299330 0.268288 0.947450
O O15 0.243776 0.651172 0.743662
O O16 0.801136 0.122435 0.551690
O O17 0.896718 0.788473 0.845676
#
# Coordination Sequence:
#
# PCOD9089771 Si02
#       8
#     2   2   2   2   2   2   2   2
#     4   9  20  36  62  90 115 154 197 240 292 359
#     4  12  25  39  60  91 121 155 199 249 292 348
#     4  11  21  38  65  87 116 161 197 241 299 356
#     4  10  20  38  60  89 118 154 197 240 294 354
#     4  10  21  35  63  87 114 157 197 241 293 354
#     4  11  24  39  58  89 124 156 196 248 295 342
#     4  11  23  39  60  88 120 157 198 244 299 355
#     4  10  19  38  61  89 118 150 199 249 289 348
#
# _framework density 19.565339999999999
#
# number of rings (size 3 to 8) (size 9 to 14) (size 15 to 20)
#    0.000    1.500    3.750    1.125    3.500    1.500 
#    0.000    0.625    0.000    0.000    0.000    0.000 
#    0.000    0.000    0.000    0.000    0.000    0.000 
#
# Total GULP energy -89313.142405 kJ/mol
# GULP energy per Si atom -5582.071400 kJ/mol
# Density = 1.952081 g / cm^3
# Si number density = 19.565340 Si / 1000 Ang^3
#
#
#
# Elastic Constant Matrix: (Units=GPa)
#
#
# Indices 1 2 3 4 5 6 
#
# 1 93.5859 46.4954 18.9837 5.4922 -1.6606 -21.5026
# 2 46.4954 109.3130 28.9141 7.2982 -8.8236 -35.0228
# 3 18.9837 28.9141 41.4550 7.1148 -7.4468 -22.5519
# 4 5.4922 7.2982 7.1148 24.5618 -5.5536 -5.1556
# 5 -1.6606 -8.8236 -7.4468 -5.5536 38.8640 14.3734
# 6 -21.5026 -35.0228 -22.5519 -5.1556 14.3734 39.1192
#
#
#
# Elastic Compliance Matrix: (Units=1/GPa)
#
#
# Indices 1 2 3 4 5 6 
#
# 1 0.014091 -0.004593 -0.001631 -0.001098 -0.002144 0.003336
# 2 -0.004593 0.014883 -0.003367 -0.000719 -0.000933 0.009106
# 3 -0.001631 -0.003367 0.037465 -0.006075 -0.000890 0.017213
# 4 -0.001098 -0.000719 -0.006075 0.043930 0.005229 -0.000882
# 5 -0.002144 -0.000933 -0.000890 0.005229 0.030880 -0.013184
# 6 0.003336 0.009106 0.017213 -0.000882 -0.013184 0.050201
#
#
# Mechanical properties :
#
#
# Convention : Reuss Voigt Hill
#
# Bulk Modulus (GPa) = 21.16125 48.12669 34.64397
# Shear Modulus (GPa) = 22.08635 30.50637 26.29636
#
# Velocity S-wave (km/s) = 3.36348 3.95296 3.67008
# Velocity P-wave (km/s) = 5.09148 6.74432 5.97533
#
# Compressibility (1/GPa) = 0.04725619
#
# Stress axis : x y z
#
# Youngs Moduli (GPa) = 70.96709 67.19261 26.69149
#
# Poissons Ratio (x) = 0.30861 0.04353
# Poissons Ratio (y) = 0.32595 0.08988
# Poissons Ratio (z) = 0.11575 0.22626
#
# Static dielectric constant tensor:
#      x y z
#    x 1.704750 -0.008880 -0.009440 
#    y -0.008880 1.673900 0.020250 
#    z -0.009440 0.020250 1.721610 
# 
# From -- ./inp_files/269479.got.cif
#   From: 2010.05.17/outbox.cif.g08.bks.cpg/sg2_135_cif.got.tgz:269479.got - 2010.06.03 11:33:40.
