data_PCOD9089324
_publ_section_title
;
Structure prediction by ZEFSAII (Michael W. Deem and Ramdas Pophale) SiO2 
 PCOD9089324
Probable space group: P -1
;
_chemical_formula_sum "Si O2"
_cell_formula_units_Z 16
_cell_length_a 8.155185
_cell_length_b 11.487708
_cell_length_c 7.379369
_cell_angle_alpha 104.594466
_cell_angle_beta 87.591841
_cell_angle_gamma 65.825944
_cell_volume 602.043428
_symmetry_space_group_name_H-M "P -1"
_symmetry_group_IT_number 2
_symmetry_cell_setting 'triclinic'
loop_
_space_group_symop_operation_xyz
x,y,z
-x,-y,-z
loop_
_atom_site_type_symbol
_atom_site_label
_atom_site_fract_x
_atom_site_fract_y
_atom_site_fract_z
Si Si1 0.036988 0.178872 0.255886
Si Si2 0.831705 0.507779 0.889552
Si Si3 0.292264 0.634851 0.873581
Si Si4 0.735465 0.121174 0.436802
Si Si5 0.152072 0.328622 0.585435
Si Si6 0.687763 0.105007 0.864065
Si Si7 0.408076 0.364981 0.356204
Si Si8 0.372834 0.088504 0.707824
O O1 0.161730 0.226417 0.387557
O O2 0.894216 0.159418 0.387998
O O3 0.158468 0.031720 0.118410
O O4 0.911300 0.294776 0.172540
O O5 0.711866 0.460897 0.004915
O O6 0.944979 0.402555 0.686862
O O7 0.701864 0.632456 0.823027
O O8 0.000000 0.500000 0.000000
O O9 0.316760 0.764256 0.993359
O O10 0.459096 0.570783 0.698092
O O11 0.724078 0.118017 0.652956
O O12 0.551330 0.228448 0.390995
O O13 0.764531 0.978672 0.298482
O O14 0.247667 0.417100 0.536280
O O15 0.267604 0.240624 0.711208
O O16 0.502704 0.086500 0.862056
O O17 0.500000 0.000000 0.500000
#
# Coordination Sequence:
#
# PCOD9089324 Si02
#       8
#     2   2   2   2   2   2   2   2
#     4  11  22  40  68 105 147 179 229 280 341 432
#     4  12  29  49  72  99 138 183 235 295 345 398
#     4  11  27  45  67 105 144 183 226 286 355 397
#     4  10  20  38  68 102 139 181 234 276 342 410
#     4  12  23  46  74 103 133 184 238 280 344 412
#     4  11  20  40  66 103 143 182 220 284 346 412
#     4  11  24  47  68  98 138 181 238 277 333 414
#     4  10  19  37  68 103 136 174 226 280 343 413
#
# _framework density 26.576155
#
# number of rings (size 3 to 8) (size 9 to 14) (size 15 to 20)
#    0.000    1.000    5.000    3.000    3.500    0.000 
#    0.000    9.375    0.000    0.000    0.000    0.000 
#    0.000    0.000    0.000    0.000    0.000    0.000 
#
# Total GULP energy -89539.924452 kJ/mol
# GULP energy per Si atom -5596.245278 kJ/mol
# Density = 2.651567 g / cm^3
# Si number density = 26.576155 Si / 1000 Ang^3
#
#
#
# Elastic Constant Matrix: (Units=GPa)
#
#
# Indices 1 2 3 4 5 6 
#
# 1 115.1537 32.3973 35.2128 -10.8172 -0.3825 7.0749
# 2 32.3973 75.1649 46.6331 -15.8799 -12.1536 2.0173
# 3 35.2128 46.6331 101.1796 -20.5792 -9.7408 -7.7014
# 4 -10.8172 -15.8799 -20.5792 54.6127 5.7784 5.8482
# 5 -0.3825 -12.1536 -9.7408 5.7784 54.5652 -12.2786
# 6 7.0749 2.0173 -7.7014 5.8482 -12.2786 45.5607
#
#
#
# Elastic Compliance Matrix: (Units=1/GPa)
#
#
# Indices 1 2 3 4 5 6 
#
# 1 0.010506 -0.003065 -0.002447 0.000707 -0.001672 -0.002451
# 2 -0.003065 0.020333 -0.007693 0.002273 0.002597 -0.001316
# 3 -0.002447 -0.007693 0.015184 0.002484 0.001474 0.003366
# 4 0.000707 0.002273 0.002484 0.020561 -0.001884 -0.002938
# 5 -0.001672 0.002597 0.001474 -0.001884 0.020758 0.006230
# 6 -0.002451 -0.001316 0.003366 -0.002938 0.006230 0.025013
#
#
# Mechanical properties :
#
#
# Convention : Reuss Voigt Hill
#
# Bulk Modulus (GPa) = 50.98700 57.77606 54.38153
# Shear Modulus (GPa) = 34.41066 42.76473 38.58770
#
# Velocity S-wave (km/s) = 3.60223 4.01576 3.81460
# Velocity P-wave (km/s) = 6.04386 6.57942 6.31732
#
# Compressibility (1/GPa) = 0.01961284
#
# Stress axis : x y z
#
# Youngs Moduli (GPa) = 95.18147 49.18052 65.85894
#
# Poissons Ratio (x) = 0.15075 0.16119
# Poissons Ratio (y) = 0.29175 0.50663
# Poissons Ratio (z) = 0.23295 0.37833
#
# Static dielectric constant tensor:
#      x y z
#    x 2.137890 -0.002070 -0.085560 
#    y -0.002070 2.028500 0.055540 
#    z -0.085560 0.055540 2.134810 
# 
# From -- ./inp_files/170679.got.cif
#   From: 2010.05.17/outbox.cif.g08.bks.cpg/sg2_86_cif.got.tgz:170679.got - 2010.06.03 11:33:40.
