data_PCOD9089753
_publ_section_title
;
Structure prediction by ZEFSAII (Michael W. Deem and Ramdas Pophale) SiO2 
 PCOD9089753
Probable space group: P -1
;
_chemical_formula_sum "Si O2"
_cell_formula_units_Z 16
_cell_length_a 9.148840
_cell_length_b 16.167207
_cell_length_c 15.527661
_cell_angle_alpha 25.476092
_cell_angle_beta 115.405073
_cell_angle_gamma 131.695041
_cell_volume 623.731572
_symmetry_space_group_name_H-M "P -1"
_symmetry_group_IT_number 2
_symmetry_cell_setting 'triclinic'
loop_
_space_group_symop_operation_xyz
x,y,z
-x,-y,-z
loop_
_atom_site_type_symbol
_atom_site_label
_atom_site_fract_x
_atom_site_fract_y
_atom_site_fract_z
Si Si1 0.642618 0.099608 0.352567
Si Si2 0.413762 0.277315 0.918395
Si Si3 0.967042 0.798899 0.558680
Si Si4 0.907112 0.502780 0.657409
Si Si5 0.080712 0.333968 0.077302
Si Si6 0.398720 0.945999 0.852787
Si Si7 0.649841 0.530322 0.434748
Si Si8 0.740620 0.502866 0.226253
O O1 0.882049 0.193983 0.343294
O O2 0.729971 0.387868 0.081150
O O3 0.500000 0.000000 0.500000
O O4 0.484559 0.823598 0.516999
O O5 0.416978 0.050906 0.139141
O O6 0.300338 0.260553 0.817379
O O7 0.301725 0.318184 0.922405
O O8 0.690256 0.558265 0.722179
O O9 0.019404 0.741314 0.533416
O O10 0.049047 0.085358 0.322704
O O11 0.692554 0.227664 0.916532
O O12 0.844429 0.578259 0.489321
O O13 0.060682 0.450213 0.720930
O O14 0.180984 0.424055 0.921122
O O15 0.830324 0.221915 0.105951
O O16 0.501616 0.241231 0.620374
O O17 0.500000 0.500000 0.500000
#
# Coordination Sequence:
#
# PCOD9089753 Si02
#       8
#     2   2   2   2   2   2   2   2
#     4  10  19  38  62  86 118 159 197 239 289 348
#     4  11  23  39  59  90 123 151 191 251 300 337
#     4  11  19  38  64  89 112 154 208 239 279 358
#     4  10  20  38  61  85 118 155 195 244 286 353
#     4  10  19  38  64  86 114 158 202 236 286 354
#     4  10  19  38  61  88 116 149 200 242 285 349
#     4  12  21  36  67  90 109 159 204 240 286 352
#     4  10  23  41  56  86 130 153 187 249 302 340
#
# _framework density 25.652058
#
# number of rings (size 3 to 8) (size 9 to 14) (size 15 to 20)
#    0.000    1.500    8.750    0.375    0.000    3.000 
#    2.250    1.250    0.000    0.000    0.000    0.000 
#    0.000    0.000    0.000    0.000    0.000    0.000 
#
# Total GULP energy -89608.380317 kJ/mol
# GULP energy per Si atom -5600.523770 kJ/mol
# Density = 2.559367 g / cm^3
# Si number density = 25.652058 Si / 1000 Ang^3
#
#
#
# Elastic Constant Matrix: (Units=GPa)
#
#
# Indices 1 2 3 4 5 6 
#
# 1 141.6063 17.4513 29.9006 -1.9863 31.7857 6.5231
# 2 17.4513 83.6098 8.3914 6.6900 9.0713 7.1420
# 3 29.9006 8.3914 105.5174 5.8798 33.1541 -1.7427
# 4 -1.9863 6.6900 5.8798 33.2613 -4.4758 8.6905
# 5 31.7857 9.0713 33.1541 -4.4758 49.3820 3.6822
# 6 6.5231 7.1420 -1.7427 8.6905 3.6822 34.6262
#
#
#
# Elastic Compliance Matrix: (Units=1/GPa)
#
#
# Indices 1 2 3 4 5 6 
#
# 1 0.008464 -0.001141 -0.000956 0.000585 -0.004463 -0.001080
# 2 -0.001141 0.012717 -0.000059 -0.002413 -0.001659 -0.001629
# 3 -0.000956 -0.000059 0.012695 -0.004156 -0.008481 0.002776
# 4 0.000585 -0.002413 -0.004156 0.034629 0.006683 -0.009224
# 5 -0.004463 -0.001659 -0.008481 0.006683 0.030034 -0.004115
# 6 -0.001080 -0.001629 0.002776 -0.009224 -0.004115 0.032311
#
#
# Mechanical properties :
#
#
# Convention : Reuss Voigt Hill
#
# Bulk Modulus (GPa) = 33.82565 49.13558 41.48061
# Shear Modulus (GPa) = 34.47880 41.78658 38.13269
#
# Velocity S-wave (km/s) = 3.67017 4.04044 3.85974
# Velocity P-wave (km/s) = 5.58347 6.40024 6.00575
#
# Compressibility (1/GPa) = 0.02956337
#
# Stress axis : x y z
#
# Youngs Moduli (GPa) = 118.14677 78.63709 78.77293
#
# Poissons Ratio (x) = 0.08973 0.07529
# Poissons Ratio (y) = 0.13482 0.00465
# Poissons Ratio (z) = 0.11293 0.00465
#
# Static dielectric constant tensor:
#      x y z
#    x 2.043330 -0.063060 -0.044740 
#    y -0.063060 2.042420 0.004780 
#    z -0.044740 0.004780 2.005030 
# 
# From -- ./inp_files/207574.got.cif
#   From: 2010.05.17/outbox.cif.g08.bks.cpg/sg2_104_cif.got.tgz:207574.got - 2010.06.03 11:33:40.
