data_PCOD9089343
_publ_section_title
;
Structure prediction by ZEFSAII (Michael W. Deem and Ramdas Pophale) SiO2 
 PCOD9089343
Probable space group: P -1
;
_chemical_formula_sum "Si O2"
_cell_formula_units_Z 14
_cell_length_a 10.779107
_cell_length_b 10.383982
_cell_length_c 10.174389
_cell_angle_alpha 100.768297
_cell_angle_beta 108.489843
_cell_angle_gamma 140.060376
_cell_volume 490.873931
_symmetry_space_group_name_H-M "P -1"
_symmetry_group_IT_number 2
_symmetry_cell_setting 'triclinic'
loop_
_space_group_symop_operation_xyz
x,y,z
-x,-y,-z
loop_
_atom_site_type_symbol
_atom_site_label
_atom_site_fract_x
_atom_site_fract_y
_atom_site_fract_z
Si Si1 0.283179 0.684403 0.382365
Si Si2 0.655687 0.332739 0.319685
Si Si3 0.765273 0.354079 0.075286
Si Si4 0.800008 0.027116 0.702981
Si Si5 0.427356 0.472268 0.776355
Si Si6 0.698930 0.881673 0.179378
Si Si7 0.800371 0.753063 0.720498
O O1 0.198896 0.604512 0.493563
O O2 0.517480 0.777415 0.467818
O O3 0.003095 0.451873 0.156454
O O4 0.500000 0.000000 0.500000
O O5 0.658389 0.255539 0.171402
O O6 0.338872 0.064908 0.219728
O O7 0.741982 0.561617 0.364354
O O8 0.494101 0.161255 0.863325
O O9 0.979427 0.667838 0.201139
O O10 0.937381 0.009099 0.759265
O O11 0.282917 0.206247 0.712580
O O12 0.705616 0.681113 0.824714
O O13 0.523046 0.642019 0.966045
O O14 0.984365 0.163113 0.245466
O O15 0.500000 0.500000 0.500000
#
# Coordination Sequence:
#
# PCOD9089343 Si02
#       7
#     2   2   2   2   2   2   2
#     4   8  15  27  44  69 102 124 155 201 247 291
#     4   8  15  25  45  69  99 124 155 194 249 289
#     4  10  16  28  48  72 101 124 158 201 253 293
#     4   8  17  29  44  69  94 125 161 202 239 278
#     4   9  18  34  52  75 101 129 163 210 254 290
#     4  10  20  31  51  77 103 130 159 209 256 296
#     4  11  21  34  50  71 102 138 171 202 241 298
#
# _framework density 28.520561000000001
#
# number of rings (size 3 to 8) (size 9 to 14) (size 15 to 20)
#    0.857    2.000    0.000    3.429    0.000    2.857 
#    0.000    0.000    0.000    0.857    0.000    1.000 
#    0.000    0.000    0.000    0.000    0.000    0.000 
#
# Total GULP energy -78105.601712 kJ/mol
# GULP energy per Si atom -5578.971551 kJ/mol
# Density = 2.845565 g / cm^3
# Si number density = 28.520561 Si / 1000 Ang^3
#
#
#
# Elastic Constant Matrix: (Units=GPa)
#
#
# Indices 1 2 3 4 5 6 
#
# 1 82.1031 39.8833 38.7148 3.0422 21.7797 1.1368
# 2 39.8833 117.6754 21.5523 -0.9353 19.8604 3.6452
# 3 38.7148 21.5523 92.2705 -2.3223 33.4816 -10.0441
# 4 3.0422 -0.9353 -2.3223 43.1015 4.9410 17.7765
# 5 21.7797 19.8604 33.4816 4.9410 53.2485 3.3833
# 6 1.1368 3.6452 -10.0441 17.7765 3.3833 40.4868
#
#
#
# Elastic Compliance Matrix: (Units=1/GPa)
#
#
# Indices 1 2 3 4 5 6 
#
# 1 0.017683 -0.004619 -0.005865 -0.001096 -0.001663 -0.000915
# 2 -0.004619 0.010440 0.000196 0.001284 -0.002175 -0.001144
# 3 -0.005865 0.000196 0.016944 0.000283 -0.008670 0.004951
# 4 -0.001096 0.001284 0.000283 0.028690 -0.002081 -0.012437
# 5 -0.001663 -0.002175 -0.008670 -0.002081 0.026117 -0.003177
# 6 -0.000915 -0.001144 0.004951 -0.012437 -0.003177 0.031783
#
#
# Mechanical properties :
#
#
# Convention : Reuss Voigt Hill
#
# Bulk Modulus (GPa) = 40.82713 54.70552 47.76632
# Shear Modulus (GPa) = 31.17277 40.16059 35.66668
#
# Velocity S-wave (km/s) = 3.30963 3.75657 3.54016
# Velocity P-wave (km/s) = 5.38061 6.16754 5.78746
#
# Compressibility (1/GPa) = 0.02449352
#
# Stress axis : x y z
#
# Youngs Moduli (GPa) = 56.55051 95.78423 59.01637
#
# Poissons Ratio (x) = 0.44243 0.34611
# Poissons Ratio (y) = 0.26121 -0.01159
# Poissons Ratio (z) = 0.33164 -0.01881
#
# Static dielectric constant tensor:
#      x y z
#    x 2.262830 -0.054810 0.043090 
#    y -0.054810 2.243900 -0.046730 
#    z 0.043090 -0.046730 2.341950 
# 
# From -- ./inp_files/453794.got.cif
#   From: 2010.05.17/outbox.cif.g08.bks.cpg/sg2_227_cif.got.tgz:453794.got - 2010.06.03 11:33:40.
