data_PCOD9089223
_publ_section_title
;
Structure prediction by ZEFSAII (Michael W. Deem and Ramdas Pophale) SiO2 
 PCOD9089223
Probable space group: P -1
;
_chemical_formula_sum "Si O2"
_cell_formula_units_Z 12
_cell_length_a 14.205572
_cell_length_b 11.761520
_cell_length_c 8.632172
_cell_angle_alpha 70.627988
_cell_angle_beta 90.236689
_cell_angle_gamma 28.938798
_cell_volume 503.127359
_symmetry_space_group_name_H-M "P -1"
_symmetry_group_IT_number 2
_symmetry_cell_setting 'triclinic'
loop_
_space_group_symop_operation_xyz
x,y,z
-x,-y,-z
loop_
_atom_site_type_symbol
_atom_site_label
_atom_site_fract_x
_atom_site_fract_y
_atom_site_fract_z
Si Si1 0.199132 0.351954 0.368203
Si Si2 0.960730 0.388036 0.403256
Si Si3 0.947910 0.224032 0.924071
Si Si4 0.120849 0.855321 0.326705
Si Si5 0.447759 0.699230 0.859130
Si Si6 0.671982 0.513969 0.226558
O O1 0.072645 0.372954 0.328273
O O2 0.079697 0.601465 0.154442
O O3 0.152146 0.437202 0.510967
O O4 0.500000 0.000000 0.500000
O O5 0.758078 0.548225 0.238973
O O6 0.202150 0.014415 0.610793
O O7 0.967742 0.147878 0.785407
O O8 0.682393 0.481371 0.867289
O O9 0.164020 0.910107 0.177313
O O10 0.330767 0.550393 0.579445
O O11 0.899438 0.175040 0.287828
O O12 0.500000 0.500000 0.000000
O O13 0.437482 0.781393 0.986913
#
# Coordination Sequence:
#
# PCOD9089223 Si02
#       6
#     2   2   2   2   2   2
#     4  11  23  43  67  92 129 181 226 263 320 393
#     4  11  23  43  72  91 130 183 212 268 336 378
#     4  10  19  37  66  93 132 167 219 266 317 390
#     4   9  18  34  64  93 128 167 198 275 327 370
#     4  11  23  39  68 102 132 172 213 266 340 392
#     4  10  20  40  65 100 134 161 219 270 329 399
#
# _framework density 23.850819000000001
#
# number of rings (size 3 to 8) (size 9 to 14) (size 15 to 20)
#    0.000    1.667    3.333    3.000    2.333    0.000 
#    0.000   11.667    0.000    0.000    0.000    0.000 
#    0.000    0.000    0.000    0.000    0.000    0.000 
#
# Total GULP energy -67061.836701 kJ/mol
# GULP energy per Si atom -5588.486392 kJ/mol
# Density = 2.379653 g / cm^3
# Si number density = 23.850819 Si / 1000 Ang^3
#
#
#
# Elastic Constant Matrix: (Units=GPa)
#
#
# Indices 1 2 3 4 5 6 
#
# 1 187.9306 23.3039 51.9140 -5.1077 -28.4882 7.1085
# 2 23.3039 59.9889 0.5280 -1.1504 -3.8005 -12.0167
# 3 51.9140 0.5280 54.0713 19.6999 -10.7226 8.3196
# 4 -5.1077 -1.1504 19.6999 31.0317 3.1198 3.4945
# 5 -28.4882 -3.8005 -10.7226 3.1198 53.0234 2.0627
# 6 7.1085 -12.0167 8.3196 3.4945 2.0627 34.3632
#
#
#
# Elastic Compliance Matrix: (Units=1/GPa)
#
#
# Indices 1 2 3 4 5 6 
#
# 1 0.009659 -0.003632 -0.011869 0.008944 0.002058 -0.001428
# 2 -0.003632 0.019410 0.003189 -0.002693 -0.000031 0.007042
# 3 -0.011869 0.003189 0.041518 -0.028165 0.004055 -0.003861
# 4 0.008944 -0.002693 -0.028165 0.052005 -0.004104 -0.001015
# 5 0.002058 -0.000031 0.004055 -0.004104 0.021113 -0.002268
# 6 -0.001428 0.007042 -0.003861 -0.001015 -0.002268 0.033033
#
#
# Mechanical properties :
#
#
# Convention : Reuss Voigt Hill
#
# Bulk Modulus (GPa) = 21.75683 50.38698 36.07191
# Shear Modulus (GPa) = 23.07510 38.76663 30.92087
#
# Velocity S-wave (km/s) = 3.11380 4.03597 3.60450
# Velocity P-wave (km/s) = 4.69782 6.54909 5.69913
#
# Compressibility (1/GPa) = 0.04596258
#
# Stress axis : x y z
#
# Youngs Moduli (GPa) = 103.52635 51.52059 24.08578
#
# Poissons Ratio (x) = 0.18712 0.28588
# Poissons Ratio (y) = 0.37600 -0.07680
# Poissons Ratio (z) = 1.22878 -0.16429
#
# Static dielectric constant tensor:
#      x y z
#    x 1.952410 -0.043450 -0.011020 
#    y -0.043450 1.961900 0.008210 
#    z -0.011020 0.008210 1.954470 
# 
# From -- ./inp_files/178329.got.cif
#   From: 2010.05.17/outbox.cif.g08.bks.cpg/sg2_90_cif.got.tgz:178329.got - 2010.06.03 11:33:40.
