data_PCOD9089288
_publ_section_title
;
Structure prediction by ZEFSAII (Michael W. Deem and Ramdas Pophale) SiO2 
 PCOD9089288
Probable space group: P -1
;
_chemical_formula_sum "Si O2"
_cell_formula_units_Z 16
_cell_length_a 20.101217
_cell_length_b 15.568508
_cell_length_c 12.304561
_cell_angle_alpha 38.572746
_cell_angle_beta 160.966548
_cell_angle_gamma 147.954378
_cell_volume 662.078752
_symmetry_space_group_name_H-M "P -1"
_symmetry_group_IT_number 2
_symmetry_cell_setting 'triclinic'
loop_
_space_group_symop_operation_xyz
x,y,z
-x,-y,-z
loop_
_atom_site_type_symbol
_atom_site_label
_atom_site_fract_x
_atom_site_fract_y
_atom_site_fract_z
Si Si1 0.510577 0.857119 0.354426
Si Si2 0.137591 0.066367 0.375525
Si Si3 0.039153 0.542866 0.892832
Si Si4 0.883421 0.842568 0.395152
Si Si5 0.275554 0.348584 0.043004
Si Si6 0.192886 0.847660 0.352022
Si Si7 0.341280 0.612505 0.715574
Si Si8 0.303956 0.371233 0.472809
O O1 0.695422 0.926318 0.470828
O O2 0.591824 0.751251 0.654275
O O3 0.558105 0.005231 0.357711
O O4 0.242791 0.734311 0.018624
O O5 0.287399 0.231900 0.511912
O O6 0.048466 0.919114 0.467011
O O7 0.916010 0.077994 0.972939
O O8 0.786812 0.466019 0.518479
O O9 0.167550 0.452785 0.132438
O O10 0.000000 0.500000 0.000000
O O11 0.822250 0.706315 0.528314
O O12 0.620214 0.753846 0.018747
O O13 0.000000 0.000000 0.500000
O O14 0.423232 0.485389 0.227393
O O15 0.293004 0.454735 0.863185
O O16 0.005090 0.228601 0.782857
O O17 0.218268 0.704769 0.485014
#
# Coordination Sequence:
#
# PCOD9089288 Si02
#       8
#     2   2   2   2   2   2   2   2
#     4  10  24  42  66  94 133 169 214 271 323 385
#     4  10  19  37  67  92 127 169 219 258 328 377
#     4  11  25  44  63  96 133 170 216 270 326 388
#     4   9  21  40  64  96 126 167 217 268 311 384
#     4   9  20  40  66  94 128 168 220 261 318 385
#     4  11  22  39  66 100 130 163 217 277 324 379
#     4  11  23  42  71  94 126 177 215 266 329 382
#     4   9  19  40  65  91 125 176 220 263 306 399
#
# _framework density 24.166309999999999
#
# number of rings (size 3 to 8) (size 9 to 14) (size 15 to 20)
#    0.000    2.000    1.250    1.875    3.500    4.000 
#    6.750    2.500    0.000    0.000    0.000    0.000 
#    0.000    0.000    0.000    0.000    0.000    0.000 
#
# Total GULP energy -89382.538667 kJ/mol
# GULP energy per Si atom -5586.408667 kJ/mol
# Density = 2.411131 g / cm^3
# Si number density = 24.166310 Si / 1000 Ang^3
#
#
#
# Elastic Constant Matrix: (Units=GPa)
#
#
# Indices 1 2 3 4 5 6 
#
# 1 89.0477 52.8703 43.4009 -1.0196 -19.3148 3.6866
# 2 52.8703 131.6954 72.8630 18.8015 -10.0578 6.7407
# 3 43.4009 72.8630 109.5304 20.0941 -33.8897 -10.8779
# 4 -1.0196 18.8015 20.0941 40.4790 -6.7223 -13.4574
# 5 -19.3148 -10.0578 -33.8897 -6.7223 27.7156 5.6889
# 6 3.6866 6.7407 -10.8779 -13.4574 5.6889 31.8454
#
#
#
# Elastic Compliance Matrix: (Units=1/GPa)
#
#
# Indices 1 2 3 4 5 6 
#
# 1 0.018014 -0.007271 0.000250 0.005575 0.011611 -0.000179
# 2 -0.007271 0.018112 -0.013212 -0.007105 -0.014757 -0.007871
# 3 0.000250 -0.013212 0.026843 -0.000430 0.026663 0.006992
# 4 0.005575 -0.007105 -0.000430 0.034033 0.006164 0.013993
# 5 0.011611 -0.014757 0.026663 0.006164 0.072815 0.000484
# 6 -0.000179 -0.007871 0.006992 0.013993 0.000484 0.041304
#
#
# Mechanical properties :
#
#
# Convention : Reuss Voigt Hill
#
# Bulk Modulus (GPa) = 44.43509 74.28242 59.35876
# Shear Modulus (GPa) = 19.29855 30.75061 25.02458
#
# Velocity S-wave (km/s) = 2.82897 3.57102 3.22143
# Velocity P-wave (km/s) = 5.39424 6.91431 6.20103
#
# Compressibility (1/GPa) = 0.02250473
#
# Stress axis : x y z
#
# Youngs Moduli (GPa) = 55.51141 55.21182 37.25423
#
# Poissons Ratio (x) = 0.40142 -0.00933
# Poissons Ratio (y) = 0.40360 0.49220
# Poissons Ratio (z) = -0.01390 0.72946
#
# Static dielectric constant tensor:
#      x y z
#    x 1.912690 -0.004010 0.028020 
#    y -0.004010 1.899260 -0.024870 
#    z 0.028020 -0.024870 1.987210 
# 
# From -- ./inp_files/472409.got.cif
#   From: 2010.05.17/outbox.cif.g08.bks.cpg/sg2_237_cif.got.tgz:472409.got - 2010.06.03 11:33:40.
