data_PCOD9089705
_publ_section_title
;
Structure prediction by ZEFSAII (Michael W. Deem and Ramdas Pophale) SiO2 
 PCOD9089705
Probable space group: P -1
;
_chemical_formula_sum "Si O2"
_cell_formula_units_Z 16
_cell_length_a 8.351736
_cell_length_b 11.041053
_cell_length_c 16.784079
_cell_angle_alpha 119.988413
_cell_angle_beta 46.742567
_cell_angle_gamma 138.172977
_cell_volume 751.496444
_symmetry_space_group_name_H-M "P -1"
_symmetry_group_IT_number 2
_symmetry_cell_setting 'triclinic'
loop_
_space_group_symop_operation_xyz
x,y,z
-x,-y,-z
loop_
_atom_site_type_symbol
_atom_site_label
_atom_site_fract_x
_atom_site_fract_y
_atom_site_fract_z
Si Si1 0.750304 0.625410 0.710407
Si Si2 0.156767 0.364043 0.733253
Si Si3 0.268462 0.532450 0.591528
Si Si4 0.505111 0.444886 0.067689
Si Si5 0.286369 0.111655 0.114216
Si Si6 0.090558 0.736185 0.048204
Si Si7 0.818862 0.241789 0.525311
Si Si8 0.337582 0.140815 0.548920
O O1 0.465735 0.497404 0.713618
O O2 0.673345 0.543842 0.799066
O O3 0.822778 0.818745 0.763026
O O4 0.995335 0.662019 0.586260
O O5 0.158928 0.482277 0.703064
O O6 0.140763 0.198533 0.649234
O O7 0.941442 0.301619 0.858626
O O8 0.500000 0.500000 0.500000
O O9 0.448768 0.730196 0.554420
O O10 0.998175 0.383099 0.580650
O O11 0.356154 0.233254 0.053352
O O12 0.824214 0.565214 0.035296
O O13 0.500000 0.500000 0.000000
O O14 0.085014 0.901438 0.097051
O O15 0.598271 0.185450 0.060920
O O16 0.518460 0.187160 0.584197
O O17 0.793551 0.064759 0.491574
#
# Coordination Sequence:
#
# PCOD9089705 Si02
#       8
#     2   2   2   2   2   2   2   2
#     4   9  19  35  57  80 106 146 178 218 272 325
#     4  10  20  36  56  83 109 144 181 222 274 313
#     4  10  20  36  54  84 109 140 184 226 268 313
#     4   9  20  36  55  83 109 139 177 225 271 317
#     4   9  20  36  60  82 104 145 183 217 274 324
#     4  10  19  38  61  78 110 146 176 226 270 324
#     4  11  20  38  57  78 111 148 182 219 269 321
#     4  10  22  35  57  77 111 150 179 222 267 320
#
# _framework density 21.290852999999998
#
# number of rings (size 3 to 8) (size 9 to 14) (size 15 to 20)
#    0.750    1.500    2.500    1.500    0.000    2.500 
#    4.500    0.000    8.250    0.000    0.000    0.000 
#    0.000    0.000    0.000    0.000    0.000    0.000 
#
# Total GULP energy -89176.579926 kJ/mol
# GULP energy per Si atom -5573.536245 kJ/mol
# Density = 2.124239 g / cm^3
# Si number density = 21.290853 Si / 1000 Ang^3
#
#
#
# Elastic Constant Matrix: (Units=GPa)
#
#
# Indices 1 2 3 4 5 6 
#
# 1 53.6649 19.1839 35.2699 -3.0032 28.3586 -17.7733
# 2 19.1839 94.0699 15.7077 0.3667 18.9612 -19.8199
# 3 35.2699 15.7077 69.8399 -3.8897 21.1464 -3.8091
# 4 -3.0032 0.3667 -3.8897 22.7544 -7.7411 -3.0022
# 5 28.3586 18.9612 21.1464 -7.7411 36.7585 -9.7749
# 6 -17.7733 -19.8199 -3.8091 -3.0022 -9.7749 24.4860
#
#
#
# Elastic Compliance Matrix: (Units=1/GPa)
#
#
# Indices 1 2 3 4 5 6 
#
# 1 0.050215 0.003026 -0.017591 -0.000794 -0.023224 0.026794
# 2 0.003026 0.013761 -0.002472 -0.000620 -0.005278 0.010768
# 3 -0.017591 -0.002472 0.023708 -0.000520 -0.002087 -0.011978
# 4 -0.000794 -0.000620 -0.000520 0.050194 0.014689 0.010859
# 5 -0.023224 -0.005278 -0.002087 0.014689 0.052483 0.001299
# 6 0.026794 0.010768 -0.011978 0.010859 0.001299 0.068990
#
#
# Mechanical properties :
#
#
# Convention : Reuss Voigt Hill
#
# Bulk Modulus (GPa) = 18.65337 39.76643 29.20990
# Shear Modulus (GPa) = 16.06191 26.62733 21.34462
#
# Velocity S-wave (km/s) = 2.74962 3.54028 3.16970
# Velocity P-wave (km/s) = 4.34290 5.95229 5.21011
#
# Compressibility (1/GPa) = 0.05360961
#
# Stress axis : x y z
#
# Youngs Moduli (GPa) = 19.91432 72.66899 42.18025
#
# Poissons Ratio (x) = -0.21991 0.74199
# Poissons Ratio (y) = -0.06026 0.10429
# Poissons Ratio (z) = 0.35031 0.17967
#
# Static dielectric constant tensor:
#      x y z
#    x 1.782500 -0.044870 -0.037680 
#    y -0.044870 1.789290 -0.000130 
#    z -0.037680 -0.000130 1.826470 
# 
# From -- ./inp_files/353355.got.cif
#   From: 2010.05.17/outbox.cif.g08.bks.cpg/sg2_177_cif.got.tgz:353355.got - 2010.06.03 11:33:40.
