data_PCOD9089890
_publ_section_title
;
Structure prediction by ZEFSAII (Michael W. Deem and Ramdas Pophale) SiO2 
 PCOD9089890
Probable space group: P -1
;
_chemical_formula_sum "Si O2"
_cell_formula_units_Z 16
_cell_length_a 11.084440
_cell_length_b 13.155545
_cell_length_c 13.604176
_cell_angle_alpha 67.972960
_cell_angle_beta 63.225402
_cell_angle_gamma 122.599868
_cell_volume 851.147438
_symmetry_space_group_name_H-M "P -1"
_symmetry_group_IT_number 2
_symmetry_cell_setting 'triclinic'
loop_
_space_group_symop_operation_xyz
x,y,z
-x,-y,-z
loop_
_atom_site_type_symbol
_atom_site_label
_atom_site_fract_x
_atom_site_fract_y
_atom_site_fract_z
Si Si1 0.426207 0.793694 0.048918
Si Si2 0.401424 0.762362 0.432449
Si Si3 0.981809 0.519254 0.838204
Si Si4 0.838989 0.758372 0.071806
Si Si5 0.937616 0.057333 0.865672
Si Si6 0.911744 0.262266 0.095150
Si Si7 0.310725 0.479252 0.459896
Si Si8 0.201526 0.765113 0.322906
O O1 0.245466 0.602722 0.109560
O O2 0.243679 0.731798 0.215584
O O3 0.650354 0.890229 0.994322
O O4 0.587498 0.992089 0.852099
O O5 0.415017 0.645080 0.436181
O O6 0.272915 0.737889 0.396680
O O7 0.221132 0.649191 0.634957
O O8 0.668730 0.011477 0.265403
O O9 0.058635 0.665532 0.834421
O O10 0.894117 0.351942 0.993914
O O11 0.553706 0.598845 0.269148
O O12 0.016503 0.876255 0.062259
O O13 0.846814 0.647591 0.056302
O O14 0.952913 0.936942 0.900510
O O15 0.153475 0.274175 0.647680
O O16 0.087269 0.384771 0.511997
#
# Coordination Sequence:
#
# PCOD9089890 Si02
#       8
#     2   2   2   2   2   2   2   2
#     4  10  19  38  62  88 123 153 189 251 303 346
#     4  12  21  37  64  93 118 149 200 252 297 350
#     4  11  24  41  64  85 119 159 200 248 296 336
#     4  11  22  38  59  83 125 160 190 236 290 364
#     4  10  22  37  58  90 122 150 191 244 302 351
#     4  11  25  43  58  88 118 162 204 242 284 352
#     4  11  22  34  59  93 120 153 185 241 305 355
#     4  10  20  33  60  96 123 145 190 251 306 348
#
# _framework density 18.798152999999999
#
# number of rings (size 3 to 8) (size 9 to 14) (size 15 to 20)
#    0.000    1.250    2.500    4.875    3.500    1.000 
#    0.000    0.625    0.000    1.500    0.000    0.000 
#    0.000    0.000    0.000    0.000    0.000    0.000 
#
# Total GULP energy -89400.128168 kJ/mol
# GULP energy per Si atom -5587.508010 kJ/mol
# Density = 1.875537 g / cm^3
# Si number density = 18.798153 Si / 1000 Ang^3
#
#
#
# Elastic Constant Matrix: (Units=GPa)
#
#
# Indices 1 2 3 4 5 6 
#
# 1 78.0360 34.6451 36.2334 -3.5709 -9.4705 4.1301
# 2 34.6451 96.8015 49.3348 -0.6356 -22.3854 -4.9013
# 3 36.2334 49.3348 88.0056 -9.4752 -17.4232 9.3438
# 4 -3.5709 -0.6356 -9.4752 28.2799 -3.0473 -1.3772
# 5 -9.4705 -22.3854 -17.4232 -3.0473 28.5348 -2.5119
# 6 4.1301 -4.9013 9.3438 -1.3772 -2.5119 23.0421
#
#
#
# Elastic Compliance Matrix: (Units=1/GPa)
#
#
# Indices 1 2 3 4 5 6 
#
# 1 0.016711 -0.003851 -0.004548 0.000361 -0.000389 -0.001991
# 2 -0.003851 0.018226 -0.007964 -0.001377 0.008774 0.008671
# 3 -0.004548 -0.007964 0.020101 0.006062 0.004444 -0.008183
# 4 0.000361 -0.001377 0.006062 0.038153 0.006834 0.000210
# 5 -0.000389 0.008774 0.004444 0.006834 0.045729 0.005528
# 6 -0.001991 0.008671 -0.008183 0.000210 0.005528 0.049534
#
#
# Mechanical properties :
#
#
# Convention : Reuss Voigt Hill
#
# Bulk Modulus (GPa) = 44.81797 55.91886 50.36841
# Shear Modulus (GPa) = 21.87069 25.48001 23.67535
#
# Velocity S-wave (km/s) = 3.41464 3.68564 3.55272
# Velocity P-wave (km/s) = 6.28011 6.92268 6.60921
#
# Compressibility (1/GPa) = 0.02231248
#
# Stress axis : x y z
#
# Youngs Moduli (GPa) = 59.84154 54.86532 49.74910
#
# Poissons Ratio (x) = 0.21130 0.22625
# Poissons Ratio (y) = 0.23047 0.39619
# Poissons Ratio (z) = 0.27215 0.43693
#
# Static dielectric constant tensor:
#      x y z
#    x 1.675900 0.005790 -0.008080 
#    y 0.005790 1.618000 -0.023960 
#    z -0.008080 -0.023960 1.691680 
# 
# From -- ./inp_files/428112.got.cif
#   From: 2010.05.17/outbox.cif.g08.bks.cpg/sg2_215_cif.got.tgz:428112.got - 2010.06.03 11:33:40.
