data_PCOD9089559
_publ_section_title
;
Structure prediction by ZEFSAII (Michael W. Deem and Ramdas Pophale) SiO2 
 PCOD9089559
Probable space group: P -1
;
_chemical_formula_sum "Si O2"
_cell_formula_units_Z 14
_cell_length_a 14.069507
_cell_length_b 9.675885
_cell_length_c 12.691034
_cell_angle_alpha 129.799929
_cell_angle_beta 130.570953
_cell_angle_gamma 92.516307
_cell_volume 619.977417
_symmetry_space_group_name_H-M "P -1"
_symmetry_group_IT_number 2
_symmetry_cell_setting 'triclinic'
loop_
_space_group_symop_operation_xyz
x,y,z
-x,-y,-z
loop_
_atom_site_type_symbol
_atom_site_label
_atom_site_fract_x
_atom_site_fract_y
_atom_site_fract_z
Si Si1 0.189407 0.218669 0.074182
Si Si2 0.560415 0.681178 0.965658
Si Si3 0.266770 0.385180 0.795278
Si Si4 0.348210 0.283404 0.431290
Si Si5 0.060725 0.750730 0.606281
Si Si6 0.060423 0.807157 0.256980
Si Si7 0.279385 0.839017 0.264398
O O1 0.215352 0.231320 0.223216
O O2 0.420426 0.480559 0.326264
O O3 0.067291 0.250185 0.959274
O O4 0.088886 0.931593 0.806672
O O5 0.661742 0.602441 0.032473
O O6 0.728223 0.997204 0.185590
O O7 0.458131 0.633041 0.976191
O O8 0.378327 0.430926 0.631590
O O9 0.114468 0.375393 0.660056
O O10 0.151493 0.074568 0.518525
O O11 0.270195 0.995974 0.256086
O O12 0.000000 0.500000 0.500000
O O13 0.228332 0.868053 0.356144
O O14 0.897815 0.503533 0.052932
O O15 0.500000 0.000000 0.500000
#
# Coordination Sequence:
#
# PCOD9089559 Si02
#       7
#     2   2   2   2   2   2   2
#     4   9  20  38  60  84 118 158 197 235 292 366
#     4  10  21  40  63  83 117 162 201 246 293 352
#     4  10  21  40  64  85 114 161 206 240 294 359
#     4  10  19  38  59  85 118 160 193 237 300 346
#     4  10  22  40  60  89 120 153 201 250 300 349
#     4  10  21  37  59  90 116 149 200 239 290 359
#     4  11  21  36  59  88 123 147 188 249 295 347
#
# _framework density 22.581467
#
# number of rings (size 3 to 8) (size 9 to 14) (size 15 to 20)
#    0.000    2.000    2.857    0.429    0.000    2.286 
#    2.571    0.000    0.000    0.000    0.000    0.000 
#    0.000    0.000    0.000    0.000    0.000    0.000 
#
# Total GULP energy -78276.936132 kJ/mol
# GULP energy per Si atom -5591.209724 kJ/mol
# Density = 2.253007 g / cm^3
# Si number density = 22.581467 Si / 1000 Ang^3
#
#
#
# Elastic Constant Matrix: (Units=GPa)
#
#
# Indices 1 2 3 4 5 6 
#
# 1 63.4496 19.1689 27.7547 11.9396 12.2264 2.8963
# 2 19.1689 142.9775 62.5889 20.8449 -10.0453 7.2817
# 3 27.7547 62.5889 76.5265 2.0697 7.6499 6.7343
# 4 11.9396 20.8449 2.0697 49.3905 13.1599 -7.5521
# 5 12.2264 -10.0453 7.6499 13.1599 29.8701 0.3424
# 6 2.8963 7.2817 6.7343 -7.5521 0.3424 23.4831
#
#
#
# Elastic Compliance Matrix: (Units=1/GPa)
#
#
# Indices 1 2 3 4 5 6 
#
# 1 0.020445 0.000939 -0.007470 -0.004186 -0.004273 -0.001954
# 2 0.000939 0.015457 -0.013595 -0.010304 0.012887 -0.004512
# 3 -0.007470 -0.013595 0.027884 0.009928 -0.013035 0.000523
# 4 -0.004186 -0.010304 0.009928 0.031849 -0.018457 0.011376
# 5 -0.004273 0.012887 -0.013035 -0.018457 0.051105 -0.006411
# 6 -0.001954 -0.004512 0.000523 0.011376 -0.006411 0.047826
#
#
# Mechanical properties :
#
#
# Convention : Reuss Voigt Hill
#
# Bulk Modulus (GPa) = 42.49358 55.77542 49.13450
# Shear Modulus (GPa) = 20.60479 32.11149 26.35814
#
# Velocity S-wave (km/s) = 3.02398 3.77507 3.42021
# Velocity P-wave (km/s) = 5.57237 6.61474 6.11581
#
# Compressibility (1/GPa) = 0.02353297
#
# Stress axis : x y z
#
# Youngs Moduli (GPa) = 48.91170 64.69610 35.86284
#
# Poissons Ratio (x) = -0.06073 0.26791
# Poissons Ratio (y) = -0.04591 0.48755
# Poissons Ratio (z) = 0.36539 0.87953
#
# Static dielectric constant tensor:
#      x y z
#    x 1.900900 0.054330 0.014730 
#    y 0.054330 1.823230 -0.003410 
#    z 0.014730 -0.003410 1.855690 
# 
# From -- ./inp_files/346444.got.cif
#   From: 2010.05.17/outbox.cif.g08.bks.cpg/sg2_174_cif.got.tgz:346444.got - 2010.06.03 11:33:40.
