data_PCOD9089336
_publ_section_title
;
Structure prediction by ZEFSAII (Michael W. Deem and Ramdas Pophale) SiO2 
 PCOD9089336
Probable space group: P -1
;
_chemical_formula_sum "Si O2"
_cell_formula_units_Z 16
_cell_length_a 11.661257
_cell_length_b 9.754564
_cell_length_c 12.324649
_cell_angle_alpha 131.127387
_cell_angle_beta 94.715203
_cell_angle_gamma 55.516257
_cell_volume 769.532010
_symmetry_space_group_name_H-M "P -1"
_symmetry_group_IT_number 2
_symmetry_cell_setting 'triclinic'
loop_
_space_group_symop_operation_xyz
x,y,z
-x,-y,-z
loop_
_atom_site_type_symbol
_atom_site_label
_atom_site_fract_x
_atom_site_fract_y
_atom_site_fract_z
Si Si1 0.450658 0.474208 0.241547
Si Si2 0.114913 0.784102 0.483289
Si Si3 0.361142 0.371392 0.969149
Si Si4 0.089966 0.339613 0.530855
Si Si5 0.365802 0.039304 0.945148
Si Si6 0.550248 0.126704 0.636988
Si Si7 0.022547 0.429760 0.148741
Si Si8 0.000033 0.789465 0.171924
O O1 0.286491 0.588798 0.343208
O O2 0.585012 0.223981 0.189370
O O3 0.452185 0.689960 0.343151
O O4 0.457505 0.382084 0.071945
O O5 0.022740 0.702225 0.461810
O O6 0.000000 0.000000 0.500000
O O7 0.109377 0.924590 0.658453
O O8 0.433285 0.292719 0.814806
O O9 0.350458 0.170327 0.901153
O O10 0.184852 0.639415 0.107262
O O11 0.000000 0.500000 0.500000
O O12 0.081275 0.485132 0.709147
O O13 0.273453 0.086382 0.409050
O O14 0.500000 0.000000 0.000000
O O15 0.203535 0.246961 0.102348
O O16 0.500000 0.000000 0.500000
O O17 0.975921 0.658333 0.193344
O O18 0.025402 0.267382 0.976883
#
# Coordination Sequence:
#
# PCOD9089336 Si02
#       8
#     2   2   2   2   2   2   2   2
#     4  11  22  40  68  93 124 167 216 263 305 391
#     4  12  20  42  68  94 119 163 229 261 308 384
#     4  10  20  38  64  91 124 162 209 260 322 376
#     4  12  26  42  67  96 130 172 213 272 322 379
#     4   9  20  36  63  92 119 162 207 268 308 374
#     4  12  26  43  62  94 136 173 208 263 329 383
#     4  10  20  39  62  94 125 163 211 261 323 375
#     4  10  19  37  68  92 121 163 214 267 309 378
#
# _framework density 20.791858000000001
#
# number of rings (size 3 to 8) (size 9 to 14) (size 15 to 20)
#    0.000    1.250    3.750    2.625    5.250    2.000 
#    2.250    1.875    0.000    0.000    0.000    0.000 
#    0.000    0.000    0.000    0.000    0.000    0.000 
#
# Total GULP energy -89269.509474 kJ/mol
# GULP energy per Si atom -5579.344342 kJ/mol
# Density = 2.074454 g / cm^3
# Si number density = 20.791858 Si / 1000 Ang^3
#
#
#
# Elastic Constant Matrix: (Units=GPa)
#
#
# Indices 1 2 3 4 5 6 
#
# 1 57.6270 24.3656 19.0858 6.5549 4.3635 13.5882
# 2 24.3656 74.6579 21.6916 12.5494 -3.3700 13.4595
# 3 19.0858 21.6916 109.2492 -10.5347 6.4884 3.7661
# 4 6.5549 12.5494 -10.5347 32.2013 1.9197 -0.4181
# 5 4.3635 -3.3700 6.4884 1.9197 39.0360 2.4413
# 6 13.5882 13.4595 3.7661 -0.4181 2.4413 26.2718
#
#
#
# Elastic Compliance Matrix: (Units=1/GPa)
#
#
# Indices 1 2 3 4 5 6 
#
# 1 0.022954 -0.004339 -0.003124 -0.004023 -0.001653 -0.009112
# 2 -0.004339 0.018673 -0.003672 -0.007901 0.003550 -0.007251
# 3 -0.003124 -0.003672 0.011048 0.005843 -0.002230 0.002214
# 4 -0.004023 -0.007901 0.005843 0.037149 -0.003418 0.006200
# 5 -0.001653 0.003550 -0.002230 -0.003418 0.026847 -0.003193
# 6 -0.009112 -0.007251 0.002214 0.006200 -0.003193 0.046569
#
#
# Mechanical properties :
#
#
# Convention : Reuss Voigt Hill
#
# Bulk Modulus (GPa) = 32.89094 41.31336 37.10215
# Shear Modulus (GPa) = 25.55641 31.26121 28.40881
#
# Velocity S-wave (km/s) = 3.50973 3.88175 3.70042
# Velocity P-wave (km/s) = 5.68135 6.32485 6.01172
#
# Compressibility (1/GPa) = 0.03040351
#
# Stress axis : x y z
#
# Youngs Moduli (GPa) = 43.56603 53.55264 90.51521
#
# Poissons Ratio (x) = 0.23238 0.28278
# Poissons Ratio (y) = 0.18904 0.33240
# Poissons Ratio (z) = 0.13610 0.19666
#
# Static dielectric constant tensor:
#      x y z
#    x 1.817180 -0.002450 0.046410 
#    y -0.002450 1.805390 -0.051710 
#    z 0.046410 -0.051710 1.884670 
# 
# From -- ./inp_files/251877.got.cif
#   From: 2010.05.17/outbox.cif.g08.bks.cpg/sg2_126_cif.got.tgz:251877.got - 2010.06.03 11:33:40.
