data_PCOD9089134
_publ_section_title
;
Structure prediction by ZEFSAII (Michael W. Deem and Ramdas Pophale) SiO2 
 PCOD9089134
Probable space group: P -1
;
_chemical_formula_sum "Si O2"
_cell_formula_units_Z 16
_cell_length_a 13.889243
_cell_length_b 8.837949
_cell_length_c 9.272080
_cell_angle_alpha 60.169265
_cell_angle_beta 81.139094
_cell_angle_gamma 117.972365
_cell_volume 752.349540
_symmetry_space_group_name_H-M "P -1"
_symmetry_group_IT_number 2
_symmetry_cell_setting 'triclinic'
loop_
_space_group_symop_operation_xyz
x,y,z
-x,-y,-z
loop_
_atom_site_type_symbol
_atom_site_label
_atom_site_fract_x
_atom_site_fract_y
_atom_site_fract_z
Si Si1 0.892005 0.863825 0.395031
Si Si2 0.144747 0.849135 0.919535
Si Si3 0.493466 0.967066 0.689844
Si Si4 0.205437 0.545743 0.940638
Si Si5 0.070855 0.266266 0.824979
Si Si6 0.589862 0.747257 0.935324
Si Si7 0.560093 0.734122 0.290316
Si Si8 0.833253 0.850483 0.714733
O O1 0.856556 0.687628 0.361978
O O2 0.801119 0.808853 0.573174
O O3 0.911024 0.072018 0.214987
O O4 0.022229 0.930186 0.395111
O O5 0.146344 0.663908 0.933885
O O6 0.287939 0.074336 0.809769
O O7 0.049766 0.743186 0.128353
O O8 0.352302 0.734237 0.848546
O O9 0.578762 0.916213 0.769471
O O10 0.500000 0.000000 0.500000
O O11 0.501074 0.160539 0.678062
O O12 0.169868 0.440144 0.839455
O O13 0.163688 0.346407 0.149054
O O14 0.000000 0.000000 0.000000
O O15 0.732261 0.837612 0.839249
O O16 0.500000 0.500000 0.000000
O O17 0.549871 0.716313 0.127013
O O18 0.500000 0.500000 0.500000
#
# Coordination Sequence:
#
# PCOD9089134 Si02
#       8
#     2   2   2   2   2   2   2   2
#     4  10  23  39  66  94 129 173 218 267 321 405
#     4  10  22  39  69  93 130 171 223 268 328 394
#     4  11  26  46  66  99 131 177 232 279 334 403
#     4  11  22  40  64  95 130 170 218 271 328 396
#     4  10  19  37  65  95 122 168 217 261 321 385
#     4  12  25  43  68  95 137 178 219 280 339 393
#     4  11  26  43  69 100 134 176 228 277 340 403
#     4  11  23  41  64  94 135 171 214 263 341 388
#
# _framework density 21.26671
#
# number of rings (size 3 to 8) (size 9 to 14) (size 15 to 20)
#    0.000    1.250    3.750    2.250    7.000    0.000 
#    0.000    0.625    0.000    0.000    0.000    0.000 
#    0.000    0.000    0.000    0.000    0.000    0.000 
#
# Total GULP energy -89231.821375 kJ/mol
# GULP energy per Si atom -5576.988836 kJ/mol
# Density = 2.121831 g / cm^3
# Si number density = 21.266710 Si / 1000 Ang^3
#
#
#
# Elastic Constant Matrix: (Units=GPa)
#
#
# Indices 1 2 3 4 5 6 
#
# 1 82.8757 30.2645 19.4935 3.2128 11.8889 -10.2226
# 2 30.2645 135.2844 41.9309 21.1223 15.6595 -25.1871
# 3 19.4935 41.9309 82.1426 28.8815 18.5002 -16.0353
# 4 3.2128 21.1223 28.8815 39.9459 2.3753 -12.3613
# 5 11.8889 15.6595 18.5002 2.3753 24.5275 -0.9817
# 6 -10.2226 -25.1871 -16.0353 -12.3613 -0.9817 23.4299
#
#
#
# Elastic Compliance Matrix: (Units=1/GPa)
#
#
# Indices 1 2 3 4 5 6 
#
# 1 0.014167 -0.001740 -0.001393 0.002448 -0.004764 0.004449
# 2 -0.001740 0.010637 -0.002080 -0.001117 -0.003931 0.008498
# 3 -0.001393 -0.002080 0.021782 -0.012187 -0.013042 0.005088
# 4 0.002448 -0.001117 -0.012187 0.037477 0.005551 0.011531
# 5 -0.004764 -0.003931 -0.013042 0.005551 0.054488 -0.010019
# 6 0.004449 0.008498 0.005088 0.011531 -0.010019 0.062903
#
#
# Mechanical properties :
#
#
# Convention : Reuss Voigt Hill
#
# Bulk Modulus (GPa) = 27.65447 53.74227 40.69837
# Shear Modulus (GPa) = 22.32803 31.48823 26.90813
#
# Velocity S-wave (km/s) = 3.24374 3.85208 3.56092
# Velocity P-wave (km/s) = 5.20202 6.71641 6.00713
#
# Compressibility (1/GPa) = 0.03616051
#
# Stress axis : x y z
#
# Youngs Moduli (GPa) = 70.58843 94.00767 45.91011
#
# Poissons Ratio (x) = 0.16356 0.06395
# Poissons Ratio (y) = 0.12281 0.09549
# Poissons Ratio (z) = 0.09832 0.19553
#
# Static dielectric constant tensor:
#      x y z
#    x 1.827010 0.025400 -0.060320 
#    y 0.025400 1.905280 -0.243630 
#    z -0.060320 -0.243630 2.569270 
# 
# From -- ./inp_files/297642.got.cif
#   From: 2010.05.17/outbox.cif.g08.bks.cpg/sg2_149_cif.got.tgz:297642.got - 2010.06.03 11:33:40.
