data_PCOD9089070
_publ_section_title
;
Structure prediction by ZEFSAII (Michael W. Deem and Ramdas Pophale) SiO2 
 PCOD9089070
Probable space group: P -1
;
_chemical_formula_sum "Si O2"
_cell_formula_units_Z 15
_cell_length_a 24.394998
_cell_length_b 6.279199
_cell_length_c 9.499121
_cell_angle_alpha 129.567368
_cell_angle_beta 38.709162
_cell_angle_gamma 134.782542
_cell_volume 633.261623
_symmetry_space_group_name_H-M "P -1"
_symmetry_group_IT_number 2
_symmetry_cell_setting 'triclinic'
loop_
_space_group_symop_operation_xyz
x,y,z
-x,-y,-z
loop_
_atom_site_type_symbol
_atom_site_label
_atom_site_fract_x
_atom_site_fract_y
_atom_site_fract_z
Si Si1 0.944121 0.443522 0.784105
Si Si2 0.307025 0.181085 0.192186
Si Si3 0.597969 0.174473 0.468738
Si Si4 0.528445 0.968531 0.087113
Si Si5 0.662971 0.643628 0.107395
Si Si6 0.762790 0.502384 0.078383
Si Si7 0.903461 0.984649 0.412098
Si Si8 0.000000 0.500000 0.000000
O O1 0.926004 0.168405 0.594866
O O2 0.940654 0.348935 0.910593
O O3 0.048869 0.729563 0.670497
O O4 0.867761 0.587668 0.966916
O O5 0.212402 0.189017 0.452702
O O6 0.393217 0.169102 0.108740
O O7 0.331445 0.377782 0.081834
O O8 0.266608 0.838543 0.063507
O O9 0.562455 0.223501 0.712536
O O10 0.678834 0.457396 0.341769
O O11 0.500000 0.000000 0.500000
O O12 0.640283 0.927943 0.301769
O O13 0.578797 0.319658 0.188465
O O14 0.500000 0.000000 0.000000
O O15 0.754735 0.683735 0.034553
O O16 0.949871 0.747466 0.207989
#
# Coordination Sequence:
#
# PCOD9089070 Si02
#       8
#     2   2   2   2   2   2   2   1
#     4  10  23  45  68  97 133 173 219 272 333 398
#     4   9  20  40  61  91 122 165 217 257 318 391
#     4  11  19  38  62  89 119 165 216 256 305 387
#     4  11  23  38  57  92 130 161 207 261 320 376
#     4  10  19  37  65  84 122 166 212 257 314 373
#     4   9  20  37  64  91 118 160 222 263 309 387
#     4  10  23  44  70  94 133 176 217 275 331 394
#     4  12  24  42  68 100 132 168 222 272 338 394
#
# _framework density 23.686890999999999
#
# number of rings (size 3 to 8) (size 9 to 14) (size 15 to 20)
#    0.000    1.867    4.000    1.200    0.000    8.000 
#    7.200    0.000    0.000    0.000    0.000    0.000 
#    0.000    0.000    0.000    0.000    0.000    0.000 
#
# Total GULP energy -83517.835273 kJ/mol
# GULP energy per Si atom -5567.855685 kJ/mol
# Density = 2.363298 g / cm^3
# Si number density = 23.686891 Si / 1000 Ang^3
#
#
#
# Elastic Constant Matrix: (Units=GPa)
#
#
# Indices 1 2 3 4 5 6 
#
# 1 112.5844 23.4040 35.0231 0.5424 5.8087 -31.8234
# 2 23.4040 73.0693 35.4241 6.0294 -5.7834 -13.1954
# 3 35.0231 35.4241 88.8211 4.1110 -6.4908 -0.4388
# 4 0.5424 6.0294 4.1110 30.6174 -3.7761 -2.1366
# 5 5.8087 -5.7834 -6.4908 -3.7761 29.4662 8.9594
# 6 -31.8234 -13.1954 -0.4388 -2.1366 8.9594 23.1476
#
#
#
# Elastic Compliance Matrix: (Units=1/GPa)
#
#
# Indices 1 2 3 4 5 6 
#
# 1 0.027031 0.005096 -0.014111 0.001075 -0.022022 0.048423
# 2 0.005096 0.020529 -0.010425 -0.002011 -0.005782 0.020563
# 3 -0.014111 -0.010425 0.021954 -0.000965 0.014795 -0.030742
# 4 0.001075 -0.002011 -0.000965 0.033675 0.002783 0.002345
# 5 -0.022022 -0.005782 0.014795 0.002783 0.057581 -0.055322
# 6 0.048423 0.020563 -0.030742 0.002345 -0.055322 0.142542
#
#
# Mechanical properties :
#
#
# Convention : Reuss Voigt Hill
#
# Bulk Modulus (GPa) = 32.64248 51.35300 41.99774
# Shear Modulus (GPa) = 14.18831 28.68779 21.43805
#
# Velocity S-wave (km/s) = 2.45009 3.48390 3.01168
# Velocity P-wave (km/s) = 4.67062 6.15714 5.46466
#
# Compressibility (1/GPa) = 0.03063493
#
# Stress axis : x y z
#
# Youngs Moduli (GPa) = 36.99460 48.71119 45.54925
#
# Poissons Ratio (x) = -0.24822 0.64274
# Poissons Ratio (y) = -0.18851 0.47484
# Poissons Ratio (z) = 0.52202 0.50780
#
# Static dielectric constant tensor:
#      x y z
#    x 1.384700 0.287100 0.152480 
#    y 0.287100 1.833470 -0.113540 
#    z 0.152480 -0.113540 1.939420 
# 
# From -- ./inp_files/350834.got.cif
#   From: 2010.05.17/outbox.cif.g08.bks.cpg/sg2_176_cif.got.tgz:350834.got - 2010.06.03 11:33:40.
