data_PCOD9089760
_publ_section_title
;
Structure prediction by ZEFSAII (Michael W. Deem and Ramdas Pophale) SiO2 
 PCOD9089760
Probable space group: P -1
;
_chemical_formula_sum "Si O2"
_cell_formula_units_Z 14
_cell_length_a 11.089001
_cell_length_b 13.780396
_cell_length_c 8.893043
_cell_angle_alpha 121.689167
_cell_angle_beta 129.098060
_cell_angle_gamma 33.633274
_cell_volume 584.138709
_symmetry_space_group_name_H-M "P -1"
_symmetry_group_IT_number 2
_symmetry_cell_setting 'triclinic'
loop_
_space_group_symop_operation_xyz
x,y,z
-x,-y,-z
loop_
_atom_site_type_symbol
_atom_site_label
_atom_site_fract_x
_atom_site_fract_y
_atom_site_fract_z
Si Si1 0.984803 0.142538 0.136762
Si Si2 0.873322 0.650593 0.901265
Si Si3 0.676591 0.498921 0.019403
Si Si4 0.144956 0.192815 0.715481
Si Si5 0.726594 0.326332 0.387565
Si Si6 0.470252 0.852747 0.134185
Si Si7 0.614827 0.162368 0.299847
O O1 0.771505 0.337473 0.055404
O O2 0.919443 0.189563 0.297736
O O3 0.244462 0.034643 0.189034
O O4 0.000000 0.000000 0.000000
O O5 0.797945 0.799780 0.064035
O O6 0.635458 0.722099 0.721034
O O7 0.000000 0.500000 0.000000
O O8 0.074601 0.578957 0.890865
O O9 0.535330 0.691249 0.122897
O O10 0.523315 0.535180 0.787426
O O11 0.308677 0.181736 0.730229
O O12 0.862560 0.357511 0.593473
O O13 0.212171 0.023085 0.637559
O O14 0.693806 0.248515 0.425452
O O15 0.413689 0.852031 0.913690
#
# Coordination Sequence:
#
# PCOD9089760 Si02
#       7
#     2   2   2   2   2   2   2
#     4  12  23  41  67  87 114 165 213 243 293 357
#     4  11  19  38  64  87 116 158 203 238 298 364
#     4  11  22  41  66  88 119 158 209 249 289 364
#     4  11  22  38  60  92 127 150 197 254 305 356
#     4  11  24  38  58  93 124 158 196 252 305 348
#     4  10  21  40  66  89 115 163 208 241 292 360
#     4  10  19  38  61  88 120 157 199 243 295 363
#
# _framework density 23.966911
#
# number of rings (size 3 to 8) (size 9 to 14) (size 15 to 20)
#    0.000    1.143    7.143    4.286    0.000    1.143 
#    0.000    0.714    0.000    0.000    0.000    0.000 
#    0.000    0.000    0.000    0.000    0.000    0.000 
#
# Total GULP energy -78078.627464 kJ/mol
# GULP energy per Si atom -5577.044819 kJ/mol
# Density = 2.391236 g / cm^3
# Si number density = 23.966911 Si / 1000 Ang^3
#
#
#
# Elastic Constant Matrix: (Units=GPa)
#
#
# Indices 1 2 3 4 5 6 
#
# 1 99.2894 44.1772 39.0038 -8.7619 29.9290 6.6070
# 2 44.1772 141.6050 33.3053 -18.5623 3.3958 18.7997
# 3 39.0038 33.3053 75.6473 -17.6315 35.0777 2.1364
# 4 -8.7619 -18.5623 -17.6315 22.3461 -14.9754 4.0484
# 5 29.9290 3.3958 35.0777 -14.9754 31.8284 -5.7945
# 6 6.6070 18.7997 2.1364 4.0484 -5.7945 61.2929
#
#
#
# Elastic Compliance Matrix: (Units=1/GPa)
#
#
# Indices 1 2 3 4 5 6 
#
# 1 0.019845 -0.008061 0.003080 -0.015484 -0.028748 -0.001469
# 2 -0.008061 0.013562 -0.008553 0.017376 0.023383 -0.001930
# 3 0.003080 -0.008553 0.033696 -0.007860 -0.043264 -0.002454
# 4 -0.015484 0.017376 -0.007860 0.089720 0.062971 -0.003359
# 5 -0.028748 0.023383 -0.043264 0.062971 0.134353 0.005977
# 6 -0.001469 -0.001930 -0.002454 -0.003359 0.005977 0.017938
#
#
# Mechanical properties :
#
#
# Convention : Reuss Voigt Hill
#
# Bulk Modulus (GPa) = 24.97847 61.05712 43.01779
# Shear Modulus (GPa) = 14.30502 36.43051 25.36776
#
# Velocity S-wave (km/s) = 2.44573 3.90299 3.25691
# Velocity P-wave (km/s) = 4.29187 6.77067 5.66843
#
# Compressibility (1/GPa) = 0.04003448
#
# Stress axis : x y z
#
# Youngs Moduli (GPa) = 50.39014 73.73801 29.67694
#
# Poissons Ratio (x) = 0.59439 -0.09140
# Poissons Ratio (y) = 0.40619 0.25383
# Poissons Ratio (z) = -0.15519 0.63069
#
# Static dielectric constant tensor:
#      x y z
#    x 1.964460 -0.046430 0.000080 
#    y -0.046430 2.093950 0.041930 
#    z 0.000080 0.041930 2.058470 
# 
# From -- ./inp_files/285661.got.cif
#   From: 2010.05.17/outbox.cif.g08.bks.cpg/sg2_143_cif.got.tgz:285661.got - 2010.06.03 11:33:40.
