data_PCOD9089543
_publ_section_title
;
Structure prediction by ZEFSAII (Michael W. Deem and Ramdas Pophale) SiO2 
 PCOD9089543
Probable space group: P -1
;
_chemical_formula_sum "Si O2"
_cell_formula_units_Z 16
_cell_length_a 11.778190
_cell_length_b 8.648480
_cell_length_c 11.868454
_cell_angle_alpha 91.333449
_cell_angle_beta 120.412520
_cell_angle_gamma 51.475324
_cell_volume 735.311159
_symmetry_space_group_name_H-M "P -1"
_symmetry_group_IT_number 2
_symmetry_cell_setting 'triclinic'
loop_
_space_group_symop_operation_xyz
x,y,z
-x,-y,-z
loop_
_atom_site_type_symbol
_atom_site_label
_atom_site_fract_x
_atom_site_fract_y
_atom_site_fract_z
Si Si1 0.821454 0.700695 0.340534
Si Si2 0.220659 0.580578 0.979857
Si Si3 0.874928 0.719730 0.865780
Si Si4 0.962992 0.885773 0.316414
Si Si5 0.182292 0.949430 0.988930
Si Si6 0.527142 0.819653 0.727921
Si Si7 0.411002 0.395673 0.852666
Si Si8 0.698603 0.277338 0.375733
O O1 0.902632 0.758288 0.295752
O O2 0.724717 0.634363 0.236002
O O3 0.000000 0.500000 0.500000
O O4 0.648962 0.926321 0.324079
O O5 0.184508 0.770748 0.031775
O O6 0.326334 0.547535 0.921367
O O7 0.025372 0.660729 0.852255
O O8 0.356635 0.348362 0.109615
O O9 0.684969 0.787530 0.741276
O O10 0.000000 0.500000 0.000000
O O11 0.834610 0.903068 0.925223
O O12 0.161894 0.758645 0.468430
O O13 0.959962 0.931050 0.184814
O O14 0.820226 0.094160 0.333374
O O15 0.378778 0.828766 0.025834
O O16 0.430941 0.743891 0.631648
O O17 0.411806 0.500653 0.744249
#
# Coordination Sequence:
#
# PCOD9089543 Si02
#       8
#     2   2   2   2   2   2   2   2
#     4  11  22  35  58  94 130 164 202 258 322 372
#     4  11  23  38  63  97 128 164 209 263 319 371
#     4  10  24  42  59  93 130 172 208 260 316 374
#     4  10  22  34  59  94 127 161 199 259 322 373
#     4  12  22  40  66  97 124 164 217 263 316 372
#     4  10  21  39  61  88 127 170 206 256 316 371
#     4  12  21  36  64  98 125 159 209 267 317 374
#     4  10  19  38  58  92 131 157 200 260 318 372
#
# _framework density 21.759495999999999
#
# number of rings (size 3 to 8) (size 9 to 14) (size 15 to 20)
#    0.000    1.250    5.000    2.250    3.500    1.000 
#    0.000    0.000    0.000    6.000    6.500    0.000 
#    0.000    0.000    0.000    0.000    0.000    0.000 
#
# Total GULP energy -89256.327147 kJ/mol
# GULP energy per Si atom -5578.520447 kJ/mol
# Density = 2.170997 g / cm^3
# Si number density = 21.759496 Si / 1000 Ang^3
#
#
#
# Elastic Constant Matrix: (Units=GPa)
#
#
# Indices 1 2 3 4 5 6 
#
# 1 125.6690 22.5470 20.4991 -4.6817 39.1577 2.5299
# 2 22.5470 64.5083 1.0591 -12.1793 4.3135 14.7639
# 3 20.4991 1.0591 59.0352 -15.3569 12.8994 2.8008
# 4 -4.6817 -12.1793 -15.3569 25.5976 3.5843 4.8442
# 5 39.1577 4.3135 12.8994 3.5843 36.9056 0.6328
# 6 2.5299 14.7639 2.8008 4.8442 0.6328 29.5779
#
#
#
# Elastic Compliance Matrix: (Units=1/GPa)
#
#
# Indices 1 2 3 4 5 6 
#
# 1 0.012875 -0.003455 -0.001152 0.001706 -0.013032 0.000732
# 2 -0.003455 0.023619 0.006802 0.017942 -0.002957 -0.015013
# 3 -0.001152 0.006802 0.025514 0.021497 -0.010424 -0.009010
# 4 0.001706 0.017942 0.021497 0.067401 -0.017594 -0.021800
# 5 -0.013032 -0.002957 -0.010424 -0.017594 0.046528 0.005464
# 6 0.000732 -0.015013 -0.009010 -0.021800 0.005464 0.045547
#
#
# Mechanical properties :
#
#
# Convention : Reuss Voigt Hill
#
# Bulk Modulus (GPa) = 15.06078 37.49142 26.27610
# Shear Modulus (GPa) = 20.90063 32.09002 26.49533
#
# Velocity S-wave (km/s) = 3.10260 3.84443 3.49326
# Velocity P-wave (km/s) = 4.44650 6.08058 5.32658
#
# Compressibility (1/GPa) = 0.06639764
#
# Stress axis : x y z
#
# Youngs Moduli (GPa) = 77.67105 42.33862 39.19385
#
# Poissons Ratio (x) = 0.14628 0.04515
# Poissons Ratio (y) = 0.26835 -0.26658
# Poissons Ratio (z) = 0.08947 -0.28797
#
# Static dielectric constant tensor:
#      x y z
#    x 1.837520 -0.008780 -0.003720 
#    y -0.008780 1.864020 -0.007710 
#    z -0.003720 -0.007710 1.792880 
# 
# From -- ./inp_files/175171.got.cif
#   From: 2010.05.17/outbox.cif.g08.bks.cpg/sg2_88_cif.got.tgz:175171.got - 2010.06.03 11:33:40.
