data_PCOD9089839
_publ_section_title
;
Structure prediction by ZEFSAII (Michael W. Deem and Ramdas Pophale) SiO2 
 PCOD9089839
Probable space group: P -1
;
_chemical_formula_sum "Si O2"
_cell_formula_units_Z 16
_cell_length_a 12.484443
_cell_length_b 10.904058
_cell_length_c 15.993175
_cell_angle_alpha 117.628727
_cell_angle_beta 158.461774
_cell_angle_gamma 57.016523
_cell_volume 664.004154
_symmetry_space_group_name_H-M "P -1"
_symmetry_group_IT_number 2
_symmetry_cell_setting 'triclinic'
loop_
_space_group_symop_operation_xyz
x,y,z
-x,-y,-z
loop_
_atom_site_type_symbol
_atom_site_label
_atom_site_fract_x
_atom_site_fract_y
_atom_site_fract_z
Si Si1 0.461024 0.078863 0.820639
Si Si2 0.390511 0.647345 0.021076
Si Si3 0.033182 0.545614 0.186465
Si Si4 0.444631 0.439144 0.708885
Si Si5 0.880870 0.283622 0.541717
Si Si6 0.716573 0.943807 0.797566
Si Si7 0.676764 0.721303 0.581381
Si Si8 0.223939 0.239294 0.065586
O O1 0.582039 0.213773 0.964264
O O2 0.121479 0.135798 0.631294
O O3 0.476353 0.051746 0.722399
O O4 0.685248 0.919456 0.965328
O O5 0.590349 0.616110 0.241787
O O6 0.500000 0.500000 0.000000
O O7 0.033222 0.690062 0.803024
O O8 0.990314 0.667573 0.265495
O O9 0.306707 0.403645 0.376140
O O10 0.733018 0.497084 0.945094
O O11 0.033011 0.627663 0.125064
O O12 0.172377 0.581991 0.519965
O O13 0.479567 0.312601 0.625689
O O14 0.547218 0.270201 0.313351
O O15 0.567562 0.883662 0.593852
O O16 0.855092 0.799365 0.911740
O O17 0.000000 0.000000 0.000000
#
# Coordination Sequence:
#
# PCOD9089839 Si02
#       8
#     2   2   2   2   2   2   2   2
#     4  10  21  36  62  87 124 162 195 251 300 360
#     4  11  21  37  62  91 119 160 200 251 309 352
#     4   9  19  37  63  91 120 156 201 256 306 353
#     4   9  20  36  61  92 120 153 207 250 300 363
#     4  10  19  39  62  92 122 152 199 259 307 352
#     4  10  21  41  62  85 125 167 203 243 297 363
#     4  10  19  38  62  83 125 160 200 255 292 356
#     4   9  21  38  61  90 120 158 203 246 303 364
#
# _framework density 24.096236000000001
#
# number of rings (size 3 to 8) (size 9 to 14) (size 15 to 20)
#    0.750    1.500    1.250    2.625    0.000    3.000 
#    0.000   12.500    0.000    0.000    0.000    0.000 
#    0.000    0.000    0.000    0.000    0.000    0.000 
#
# Total GULP energy -89380.497924 kJ/mol
# GULP energy per Si atom -5586.281120 kJ/mol
# Density = 2.404139 g / cm^3
# Si number density = 24.096236 Si / 1000 Ang^3
#
#
#
# Elastic Constant Matrix: (Units=GPa)
#
#
# Indices 1 2 3 4 5 6 
#
# 1 96.5070 33.8391 45.5764 13.0814 -5.7473 2.6788
# 2 33.8391 98.3507 37.4379 35.9925 -5.4196 -15.1091
# 3 45.5764 37.4379 96.3416 19.3907 -8.6974 -0.0514
# 4 13.0814 35.9925 19.3907 35.0851 -7.3679 -7.1507
# 5 -5.7473 -5.4196 -8.6974 -7.3679 36.2077 6.4309
# 6 2.6788 -15.1091 -0.0514 -7.1507 6.4309 52.5178
#
#
#
# Elastic Compliance Matrix: (Units=1/GPa)
#
#
# Indices 1 2 3 4 5 6 
#
# 1 0.014088 -0.003355 -0.005496 0.001084 0.000928 -0.001655
# 2 -0.003355 0.018680 -0.002615 -0.016214 -0.002306 0.003617
# 3 -0.005496 -0.002615 0.014826 -0.003310 0.001825 -0.001131
# 4 0.001084 -0.016214 -0.003310 0.048149 0.006565 0.001029
# 5 0.000928 -0.002306 0.001825 0.006565 0.029810 -0.003466
# 6 -0.001655 0.003617 -0.001131 0.001029 -0.003466 0.020730
#
#
# Mechanical properties :
#
#
# Convention : Reuss Voigt Hill
#
# Bulk Modulus (GPa) = 40.54771 58.32289 49.43530
# Shear Modulus (GPa) = 28.17926 36.38519 32.28223
#
# Velocity S-wave (km/s) = 3.42343 3.89008 3.66419
# Velocity P-wave (km/s) = 5.70004 6.66586 6.20178
#
# Compressibility (1/GPa) = 0.02466231
#
# Stress axis : x y z
#
# Youngs Moduli (GPa) = 70.98090 53.53451 67.44795
#
# Poissons Ratio (x) = 0.17961 0.37072
# Poissons Ratio (y) = 0.23814 0.17634
# Poissons Ratio (z) = 0.39013 0.13997
#
# Static dielectric constant tensor:
#      x y z
#    x 1.951960 0.019180 0.010080 
#    y 0.019180 1.971070 0.000240 
#    z 0.010080 0.000240 1.920740 
# 
# From -- ./inp_files/573632.got.cif
#   From: 2010.05.17/outbox.cif.g08.bks.cpg/sg2_287_cif.got.tgz:573632.got - 2010.06.03 11:33:40.
