data_PCOD9089809
_publ_section_title
;
Structure prediction by ZEFSAII (Michael W. Deem and Ramdas Pophale) SiO2 
 PCOD9089809
Probable space group: P -1
;
_chemical_formula_sum "Si O2"
_cell_formula_units_Z 16
_cell_length_a 8.163565
_cell_length_b 8.609185
_cell_length_c 16.877930
_cell_angle_alpha 91.632460
_cell_angle_beta 57.328268
_cell_angle_gamma 54.283393
_cell_volume 700.794361
_symmetry_space_group_name_H-M "P -1"
_symmetry_group_IT_number 2
_symmetry_cell_setting 'triclinic'
loop_
_space_group_symop_operation_xyz
x,y,z
-x,-y,-z
loop_
_atom_site_type_symbol
_atom_site_label
_atom_site_fract_x
_atom_site_fract_y
_atom_site_fract_z
Si Si1 0.269066 0.929165 0.340818
Si Si2 0.929413 0.208824 0.290317
Si Si3 0.283829 0.244172 0.094707
Si Si4 0.081401 0.180546 0.546891
Si Si5 0.289629 0.902334 0.892022
Si Si6 0.189587 0.074743 0.691344
Si Si7 0.438427 0.360171 0.347182
Si Si8 0.856604 0.692227 0.143374
O O1 0.056863 0.148815 0.343945
O O2 0.142693 0.831865 0.380759
O O3 0.572634 0.757095 0.221735
O O4 0.277247 0.998258 0.426597
O O5 0.983116 0.991483 0.255619
O O6 0.069433 0.259187 0.200475
O O7 0.601850 0.395470 0.358406
O O8 0.123629 0.429258 0.069855
O O9 0.468021 0.240655 0.107726
O O10 0.500000 0.000000 0.000000
O O11 0.191348 0.142234 0.605153
O O12 0.880410 0.430141 0.576309
O O13 0.212085 0.125132 0.893580
O O14 0.406610 0.750925 0.779988
O O15 0.000000 0.000000 0.000000
O O16 0.101111 0.246587 0.782033
O O17 0.494027 0.836534 0.627744
#
# Coordination Sequence:
#
# PCOD9089809 Si02
#       8
#     2   2   2   2   2   2   2   2
#     4  10  21  37  62  92 128 162 209 252 309 365
#     4   9  19  40  59  88 127 159 208 255 299 368
#     4  12  25  41  65  96 120 160 211 256 314 374
#     4  10  19  38  61  93 124 167 207 252 308 364
#     4  11  24  44  65  93 125 161 208 257 314 378
#     4   8  20  38  59  87 121 164 206 246 302 367
#     4   9  19  38  62  85 126 163 201 255 305 355
#     4  11  23  44  65  89 129 165 200 263 309 364
#
# _framework density 22.831232
#
# number of rings (size 3 to 8) (size 9 to 14) (size 15 to 20)
#    0.750    1.250    1.250    2.250    0.000    2.000 
#    6.750    2.500    0.000    0.000    0.000    0.000 
#    0.000    0.000    0.000    0.000    0.000    0.000 
#
# Total GULP energy -89238.155678 kJ/mol
# GULP energy per Si atom -5577.384730 kJ/mol
# Density = 2.277927 g / cm^3
# Si number density = 22.831232 Si / 1000 Ang^3
#
#
#
# Elastic Constant Matrix: (Units=GPa)
#
#
# Indices 1 2 3 4 5 6 
#
# 1 60.7222 -9.8389 4.0366 -8.0132 -15.3537 -7.4137
# 2 -9.8389 79.3998 13.2462 12.0123 -19.8035 -16.9489
# 3 4.0366 13.2462 25.3618 11.5439 -11.9091 -8.9718
# 4 -8.0132 12.0123 11.5439 28.6533 2.7458 -6.2472
# 5 -15.3537 -19.8035 -11.9091 2.7458 40.5702 -8.1109
# 6 -7.4137 -16.9489 -8.9718 -6.2472 -8.1109 36.2666
#
#
#
# Elastic Compliance Matrix: (Units=1/GPa)
#
#
# Indices 1 2 3 4 5 6 
#
# 1 0.024459 0.009567 0.003184 0.003071 0.017597 0.014723
# 2 0.009567 0.022672 0.005516 -0.007242 0.020234 0.017194
# 3 0.003184 0.005516 0.072028 -0.028406 0.031606 0.023223
# 4 0.003071 -0.007242 -0.028406 0.050718 -0.015025 -0.004408
# 5 0.017597 0.020234 0.031606 -0.015025 0.057716 0.031192
# 6 0.014723 0.017194 0.023223 -0.004408 0.031192 0.050580
#
#
# Mechanical properties :
#
#
# Convention : Reuss Voigt Hill
#
# Bulk Modulus (GPa) = 6.42293 20.04128 13.23211
# Shear Modulus (GPa) = 17.03364 31.63402 24.33383
#
# Velocity S-wave (km/s) = 2.73439 3.72635 3.26822
# Velocity P-wave (km/s) = 3.57610 5.22602 4.47771
#
# Compressibility (1/GPa) = 0.15569209
#
# Stress axis : x y z
#
# Youngs Moduli (GPa) = 40.88478 44.10652 13.88357
#
# Poissons Ratio (x) = -0.42196 -0.04420
# Poissons Ratio (y) = -0.39114 -0.07658
# Poissons Ratio (z) = -0.13017 -0.24329
#
# Static dielectric constant tensor:
#      x y z
#    x 2.177740 0.206850 0.175850 
#    y 0.206850 2.103310 0.140530 
#    z 0.175850 0.140530 2.006710 
# 
# From -- ./inp_files/556217.got.cif
#   From: 2010.05.17/outbox.cif.g08.bks.cpg/sg2_279_cif.got.tgz:556217.got - 2010.06.03 11:33:40.
