data_PCOD9089629
_publ_section_title
;
Structure prediction by ZEFSAII (Michael W. Deem and Ramdas Pophale) SiO2 
 PCOD9089629
Probable space group: P -1
;
_chemical_formula_sum "Si O2"
_cell_formula_units_Z 14
_cell_length_a 13.844916
_cell_length_b 8.257587
_cell_length_c 8.108714
_cell_angle_alpha 54.000092
_cell_angle_beta 53.766595
_cell_angle_gamma 51.108772
_cell_volume 546.248998
_symmetry_space_group_name_H-M "P -1"
_symmetry_group_IT_number 2
_symmetry_cell_setting 'triclinic'
loop_
_space_group_symop_operation_xyz
x,y,z
-x,-y,-z
loop_
_atom_site_type_symbol
_atom_site_label
_atom_site_fract_x
_atom_site_fract_y
_atom_site_fract_z
Si Si1 0.559207 0.126523 0.484367
Si Si2 0.314453 0.398757 0.728838
Si Si3 0.576184 0.763380 0.916974
Si Si4 0.041863 0.161896 0.468426
Si Si5 0.259487 0.022668 0.068021
Si Si6 0.816685 0.181095 0.209889
Si Si7 0.189079 0.646080 0.220887
O O1 0.437689 0.358647 0.512700
O O2 0.683494 0.169285 0.285049
O O3 0.500000 0.000000 0.500000
O O4 0.596816 0.972448 0.701000
O O5 0.219205 0.651204 0.699306
O O6 0.371248 0.314918 0.906034
O O7 0.255377 0.227435 0.839650
O O8 0.668239 0.562381 0.823993
O O9 0.416630 0.857964 0.025393
O O10 0.165504 0.150952 0.241901
O O11 0.911271 0.379079 0.528715
O O12 0.094352 0.049500 0.659668
O O13 0.000000 0.000000 0.500000
O O14 0.203060 0.862775 0.141454
O O15 0.865802 0.287274 0.950290
#
# Coordination Sequence:
#
# PCOD9089629 Si02
#       7
#     2   2   2   2   2   2   2
#     4  11  22  36  59  93 122 150 193 245 296 349
#     4  10  21  36  58  87 116 154 194 238 297 349
#     4  10  20  37  59  85 115 153 195 240 294 349
#     4  10  22  39  60  85 117 158 200 241 290 347
#     4  10  19  38  60  84 117 154 195 242 290 348
#     4  11  21  38  59  84 119 156 193 245 292 346
#     4  10  22  38  58  86 117 155 197 241 292 346
#
# _framework density 25.629335999999999
#
# number of rings (size 3 to 8) (size 9 to 14) (size 15 to 20)
#    0.000    1.714    0.000    6.429    0.000    4.571 
#    0.000   10.714    0.000    0.000    0.000    0.000 
#    0.000    0.000    0.000    0.000    0.000    0.000 
#
# Total GULP energy -78176.520644 kJ/mol
# GULP energy per Si atom -5584.037189 kJ/mol
# Density = 2.557100 g / cm^3
# Si number density = 25.629336 Si / 1000 Ang^3
#
#
#
# Elastic Constant Matrix: (Units=GPa)
#
#
# Indices 1 2 3 4 5 6 
#
# 1 36.5260 26.8625 22.0284 13.9297 -8.2769 -0.3353
# 2 26.8625 115.1004 43.9342 42.0936 -13.1024 11.6955
# 3 22.0284 43.9342 111.0708 47.6711 -11.3208 -21.5312
# 4 13.9297 42.0936 47.6711 58.9033 -6.2455 -1.1786
# 5 -8.2769 -13.1024 -11.3208 -6.2455 31.6410 1.0788
# 6 -0.3353 11.6955 -21.5312 -1.1786 1.0788 25.4203
#
#
#
# Elastic Compliance Matrix: (Units=1/GPa)
#
#
# Indices 1 2 3 4 5 6 
#
# 1 0.035561 -0.005969 -0.004158 -0.000226 0.005317 -0.000542
# 2 -0.005969 0.015294 -0.004099 -0.006159 0.002464 -0.010978
# 3 -0.004158 -0.004099 0.020331 -0.012014 0.001489 0.018431
# 4 -0.000226 -0.006159 -0.012014 0.030974 -0.000593 -0.005884
# 5 0.005317 0.002464 0.001489 -0.000593 0.034475 -0.001293
# 6 -0.000542 -0.010978 0.018431 -0.005884 -0.001293 0.059776
#
#
# Mechanical properties :
#
#
# Convention : Reuss Voigt Hill
#
# Bulk Modulus (GPa) = 23.40124 49.81637 36.60881
# Shear Modulus (GPa) = 20.91102 34.51773 27.71437
#
# Velocity S-wave (km/s) = 2.85950 3.67387 3.29196
# Velocity P-wave (km/s) = 4.47803 6.12175 5.36324
#
# Compressibility (1/GPa) = 0.04273277
#
# Stress axis : x y z
#
# Youngs Moduli (GPa) = 28.12043 65.38445 49.18710
#
# Poissons Ratio (x) = 0.39030 0.20451
# Poissons Ratio (y) = 0.16786 0.20164
# Poissons Ratio (z) = 0.11692 0.26804
#
# Static dielectric constant tensor:
#      x y z
#    x 2.078600 -0.015510 0.010590 
#    y -0.015510 2.071920 0.066400 
#    z 0.010590 0.066400 2.040190 
# 
# From -- ./inp_files/179981.got.cif
#   From: 2010.05.17/outbox.cif.g08.bks.cpg/sg2_90_cif.got.tgz:179981.got - 2010.06.03 11:33:40.
