data_PCOD9089452
_publ_section_title
;
Structure prediction by ZEFSAII (Michael W. Deem and Ramdas Pophale) SiO2 
 PCOD9089452
Probable space group: P -1
;
_chemical_formula_sum "Si O2"
_cell_formula_units_Z 16
_cell_length_a 8.336817
_cell_length_b 8.597931
_cell_length_c 13.832250
_cell_angle_alpha 90.176792
_cell_angle_beta 108.181094
_cell_angle_gamma 131.014675
_cell_volume 680.236989
_symmetry_space_group_name_H-M "P -1"
_symmetry_group_IT_number 2
_symmetry_cell_setting 'triclinic'
loop_
_space_group_symop_operation_xyz
x,y,z
-x,-y,-z
loop_
_atom_site_type_symbol
_atom_site_label
_atom_site_fract_x
_atom_site_fract_y
_atom_site_fract_z
Si Si1 0.153282 0.025503 0.744822
Si Si2 0.842063 0.281893 0.910958
Si Si3 0.174812 0.380453 0.822778
Si Si4 0.803067 0.236942 0.600285
Si Si5 0.370593 0.847285 0.844174
Si Si6 0.391160 0.361793 0.380954
Si Si7 0.420767 0.685731 0.299090
Si Si8 0.623198 0.209506 0.382892
O O1 0.244498 0.244159 0.814840
O O2 0.309499 0.113879 0.676254
O O3 0.204865 0.898237 0.816115
O O4 0.879760 0.865512 0.665176
O O5 0.720345 0.312561 0.807912
O O6 0.998309 0.260477 0.880536
O O7 0.629506 0.064875 0.926208
O O8 0.000000 0.500000 0.000000
O O9 0.313027 0.634118 0.869441
O O10 0.034048 0.341246 0.700205
O O11 0.691674 0.325233 0.621990
O O12 0.819715 0.261433 0.488785
O O13 0.608874 0.996543 0.604452
O O14 0.380416 0.834223 0.729060
O O15 0.500000 0.500000 0.500000
O O16 0.380423 0.479682 0.293583
O O17 0.586275 0.366476 0.384004
#
# Coordination Sequence:
#
# PCOD9089452 Si02
#       8
#     2   2   2   2   2   2   2   2
#     4  11  22  40  61  89 129 166 207 267 306 358
#     4  10  22  45  71  91 123 164 203 266 331 375
#     4  11  22  41  66  91 124 168 208 258 319 374
#     4  10  19  38  56  81 125 172 205 252 300 363
#     4  11  23  41  65  94 125 165 214 260 313 382
#     4  12  23  37  58  90 126 172 213 251 307 369
#     4  10  21  41  60  89 123 159 212 257 307 374
#     4  11  20  38  58  83 130 172 209 250 308 366
#
# _framework density 23.521215999999999
#
# number of rings (size 3 to 8) (size 9 to 14) (size 15 to 20)
#    0.000    1.250    6.250    2.250    0.000    1.500 
#    2.250    2.500    0.000   12.750    0.000    0.000 
#    0.000    0.000    0.000    0.000    0.000    0.000 
#
# Total GULP energy -89150.987120 kJ/mol
# GULP energy per Si atom -5571.936695 kJ/mol
# Density = 2.346768 g / cm^3
# Si number density = 23.521216 Si / 1000 Ang^3
#
#
#
# Elastic Constant Matrix: (Units=GPa)
#
#
# Indices 1 2 3 4 5 6 
#
# 1 78.6920 25.8550 18.5899 6.7248 -14.3251 -21.4828
# 2 25.8550 108.1809 6.5726 15.7407 0.0427 -6.3104
# 3 18.5899 6.5726 47.7180 16.6139 -8.3118 5.1908
# 4 6.7248 15.7407 16.6139 30.7025 2.8831 -3.3894
# 5 -14.3251 0.0427 -8.3118 2.8831 14.1040 8.1256
# 6 -21.4828 -6.3104 5.1908 -3.3894 8.1256 46.7242
#
#
#
# Elastic Compliance Matrix: (Units=1/GPa)
#
#
# Indices 1 2 3 4 5 6 
#
# 1 0.019484 -0.003981 -0.005887 0.000588 0.012180 0.006999
# 2 -0.003981 0.010862 0.001859 -0.005652 -0.001401 -0.000736
# 3 -0.005887 0.001859 0.038121 -0.024543 0.029316 -0.013569
# 4 0.000588 -0.005652 -0.024543 0.052828 -0.031277 0.011505
# 5 0.012180 -0.001401 0.029316 -0.031277 0.118929 -0.020797
# 6 0.006999 -0.000736 -0.013569 0.011505 -0.020797 0.030480
#
#
# Mechanical properties :
#
#
# Convention : Reuss Voigt Hill
#
# Bulk Modulus (GPa) = 19.06578 37.40286 28.23432
# Shear Modulus (GPa) = 16.43625 30.54435 23.49030
#
# Velocity S-wave (km/s) = 2.64632 3.60750 3.16363
# Velocity P-wave (km/s) = 4.17860 5.76961 5.03732
#
# Compressibility (1/GPa) = 0.05244999
#
# Stress axis : x y z
#
# Youngs Moduli (GPa) = 51.32344 92.06084 26.23207
#
# Poissons Ratio (x) = 0.36650 0.15442
# Poissons Ratio (y) = 0.20432 -0.04876
# Poissons Ratio (z) = 0.30212 -0.17112
#
# Static dielectric constant tensor:
#      x y z
#    x 1.510320 0.389680 0.260600 
#    y 0.389680 1.675190 -0.212870 
#    z 0.260600 -0.212870 1.715790 
# 
# From -- ./inp_files/495237.got.cif
#   From: 2010.05.17/outbox.cif.g08.bks.cpg/sg2_248_cif.got.tgz:495237.got - 2010.06.03 11:33:40.
