data_PCOD9089127
_publ_section_title
;
Structure prediction by ZEFSAII (Michael W. Deem and Ramdas Pophale) SiO2 
 PCOD9089127
Probable space group: P -1
;
_chemical_formula_sum "Si O2"
_cell_formula_units_Z 12
_cell_length_a 19.522798
_cell_length_b 8.482701
_cell_length_c 7.369286
_cell_angle_alpha 54.090530
_cell_angle_beta 149.607822
_cell_angle_gamma 133.679079
_cell_volume 446.387981
_symmetry_space_group_name_H-M "P -1"
_symmetry_group_IT_number 2
_symmetry_cell_setting 'triclinic'
loop_
_space_group_symop_operation_xyz
x,y,z
-x,-y,-z
loop_
_atom_site_type_symbol
_atom_site_label
_atom_site_fract_x
_atom_site_fract_y
_atom_site_fract_z
Si Si1 0.831452 0.940648 0.315792
Si Si2 0.332000 0.102421 0.678468
Si Si3 0.118929 0.463840 0.171261
Si Si4 0.580832 0.346423 0.832483
Si Si5 0.873017 0.679366 0.098677
Si Si6 0.326378 0.927099 0.421132
O O1 0.706924 0.939892 0.173782
O O2 0.847364 0.721716 0.533783
O O3 0.776112 0.969210 0.973884
O O4 0.987305 0.144917 0.589737
O O5 0.507027 0.261625 0.920579
O O6 0.224822 0.210239 0.292837
O O7 0.292117 0.908512 0.572358
O O8 0.068608 0.398688 0.892513
O O9 0.266999 0.696576 0.345694
O O10 0.000000 0.500000 0.000000
O O11 0.500000 0.500000 0.500000
O O12 0.753649 0.486701 0.079305
O O13 0.495891 0.125040 0.668212
#
# Coordination Sequence:
#
# PCOD9089127 Si02
#       6
#     2   2   2   2   2   2
#     4  11  22  40  72  95 122 176 222 253 326 392
#     4   8  18  39  62  89 129 166 205 264 318 375
#     4  11  23  38  62 101 135 160 217 281 310 374
#     4   8  18  39  67  87 131 176 199 266 339 368
#     4  10  19  37  65  93 128 174 205 266 333 369
#     4  10  22  41  69  94 127 171 219 261 324 386
#
# _framework density 26.882442999999999
#
# number of rings (size 3 to 8) (size 9 to 14) (size 15 to 20)
#    1.000    1.333    0.000    4.000    0.000    4.000 
#    0.000   12.500    3.667    4.000    0.000    0.000 
#    0.000    0.000    0.000    0.000    0.000    0.000 
#
# Total GULP energy -67225.166871 kJ/mol
# GULP energy per Si atom -5602.097239 kJ/mol
# Density = 2.682126 g / cm^3
# Si number density = 26.882443 Si / 1000 Ang^3
#
#
#
# Elastic Constant Matrix: (Units=GPa)
#
#
# Indices 1 2 3 4 5 6 
#
# 1 155.1290 35.4413 43.4090 10.3468 23.4077 4.8821
# 2 35.4413 185.1542 46.3773 -1.1844 5.3004 12.7785
# 3 43.4090 46.3773 103.6364 5.4845 -0.1807 -3.3372
# 4 10.3468 -1.1844 5.4845 41.4990 -2.1752 1.0823
# 5 23.4077 5.3004 -0.1807 -2.1752 48.1046 3.2811
# 6 4.8821 12.7785 -3.3372 1.0823 3.2811 43.1700
#
#
#
# Elastic Compliance Matrix: (Units=1/GPa)
#
#
# Indices 1 2 3 4 5 6 
#
# 1 0.008197 -0.000655 -0.003069 -0.001849 -0.003969 -0.000622
# 2 -0.000655 0.006345 -0.002669 0.000738 -0.000220 -0.002012
# 3 -0.003069 -0.002669 0.012243 -0.000894 0.001658 0.001980
# 4 -0.001849 0.000738 -0.000894 0.024824 0.001995 -0.000853
# 5 -0.003969 -0.000220 0.001658 0.001995 0.022918 -0.001150
# 6 -0.000622 -0.002012 0.001980 -0.000853 -0.001150 0.024092
#
#
# Mechanical properties :
#
#
# Convention : Reuss Voigt Hill
#
# Bulk Modulus (GPa) = 71.44230 77.15276 74.29753
# Shear Modulus (GPa) = 43.07703 47.80084 45.43893
#
# Velocity S-wave (km/s) = 4.00737 4.22138 4.11577
# Velocity P-wave (km/s) = 6.93149 7.24723 7.09112
#
# Compressibility (1/GPa) = 0.01399731
#
# Stress axis : x y z
#
# Youngs Moduli (GPa) = 122.00283 157.61022 81.68004
#
# Poissons Ratio (x) = 0.10331 0.25067
# Poissons Ratio (y) = 0.07997 0.21800
# Poissons Ratio (z) = 0.37442 0.42066
#
# Static dielectric constant tensor:
#      x y z
#    x 2.056440 -0.004260 0.029700 
#    y -0.004260 2.061290 -0.095630 
#    z 0.029700 -0.095630 2.184270 
# 
# From -- ./inp_files/32380.got.cif
#   From: 2010.05.17/outbox.cif.g08.bks.cpg/sg2_17_cif.got.tgz:32380.got - 2010.06.03 11:33:40.
