data_PCOD9089043
_publ_section_title
;
Structure prediction by ZEFSAII (Michael W. Deem and Ramdas Pophale) SiO2 
 PCOD9089043
Probable space group: P -1
;
_chemical_formula_sum "Si O2"
_cell_formula_units_Z 16
_cell_length_a 10.052100
_cell_length_b 14.402761
_cell_length_c 8.748306
_cell_angle_alpha 99.352635
_cell_angle_beta 75.451284
_cell_angle_gamma 148.155591
_cell_volume 643.609863
_symmetry_space_group_name_H-M "P -1"
_symmetry_group_IT_number 2
_symmetry_cell_setting 'triclinic'
loop_
_space_group_symop_operation_xyz
x,y,z
-x,-y,-z
loop_
_atom_site_type_symbol
_atom_site_label
_atom_site_fract_x
_atom_site_fract_y
_atom_site_fract_z
Si Si1 0.069467 0.928211 0.126685
Si Si2 0.343937 0.163039 0.878466
Si Si3 0.171472 0.649876 0.359188
Si Si4 0.682059 0.441539 0.401074
Si Si5 0.891670 0.681827 0.918996
Si Si6 0.786700 0.959047 0.547663
Si Si7 0.458667 0.359979 0.132601
Si Si8 0.916085 0.226104 0.423038
O O1 0.821525 0.857057 0.172085
O O2 0.935355 0.746116 0.095696
O O3 0.207336 0.999640 0.269690
O O4 0.176024 0.975571 0.928354
O O5 0.600867 0.275282 0.761002
O O6 0.309134 0.176948 0.074726
O O7 0.000000 0.500000 0.500000
O O8 0.939819 0.543525 0.282038
O O9 0.264599 0.802684 0.446000
O O10 0.485297 0.247985 0.465661
O O11 0.526124 0.398729 0.298430
O O12 0.804700 0.580971 0.530496
O O13 0.711651 0.651293 0.868955
O O14 0.077690 0.749706 0.752477
O O15 0.683068 0.480082 0.973920
O O16 0.000000 0.000000 0.500000
O O17 0.856023 0.084169 0.447817
#
# Coordination Sequence:
#
# PCOD9089043 Si02
#       8
#     2   2   2   2   2   2   2   2
#     4  10  23  40  70  99 135 174 236 293 347 415
#     4  10  21  41  68  95 134 184 234 283 344 418
#     4  10  24  45  68  96 143 192 234 284 353 423
#     4  10  24  43  67 101 138 182 232 284 354 416
#     4  10  21  38  65  99 135 178 228 289 348 408
#     4  12  25  42  72 109 142 179 231 297 364 411
#     4  10  19  37  64  96 130 175 232 283 348 407
#     4  10  25  44  66 103 141 183 234 286 352 426
#
# _framework density 24.859781000000002
#
# number of rings (size 3 to 8) (size 9 to 14) (size 15 to 20)
#    0.750    1.000    1.250    2.250    5.250    4.500 
#    0.000    4.375    0.000    0.000    0.000    0.000 
#    0.000    0.000    0.000    0.000    0.000    0.000 
#
# Total GULP energy -89121.837545 kJ/mol
# GULP energy per Si atom -5570.114847 kJ/mol
# Density = 2.480320 g / cm^3
# Si number density = 24.859781 Si / 1000 Ang^3
#
#
#
# Elastic Constant Matrix: (Units=GPa)
#
#
# Indices 1 2 3 4 5 6 
#
# 1 49.4558 33.0021 21.2171 -14.0056 -16.4050 -1.4368
# 2 33.0021 73.8906 46.4906 1.1554 -19.5196 12.7755
# 3 21.2171 46.4906 100.6222 -5.6832 -6.6901 6.6710
# 4 -14.0056 1.1554 -5.6832 53.4311 3.2482 -2.4001
# 5 -16.4050 -19.5196 -6.6901 3.2482 52.8783 -1.0013
# 6 -1.4368 12.7755 6.6710 -2.4001 -1.0013 35.3181
#
#
#
# Elastic Compliance Matrix: (Units=1/GPa)
#
#
# Indices 1 2 3 4 5 6 
#
# 1 0.035590 -0.016545 0.000457 0.009825 0.004543 0.008143
# 2 -0.016545 0.030342 -0.009910 -0.006807 0.005041 -0.010096
# 3 0.000457 -0.009910 0.014350 0.002014 -0.001806 0.000979
# 4 0.009825 -0.006807 0.002014 0.021859 -0.000478 0.003953
# 5 0.004543 0.005041 -0.001806 -0.000478 0.021969 -0.000707
# 6 0.008143 -0.010096 0.000979 0.003953 -0.000707 0.032361
#
#
# Mechanical properties :
#
#
# Convention : Reuss Voigt Hill
#
# Bulk Modulus (GPa) = 35.35408 47.26536 41.30972
# Shear Modulus (GPa) = 22.94677 36.54275 29.74476
#
# Velocity S-wave (km/s) = 3.04147 3.83816 3.46280
# Velocity P-wave (km/s) = 5.15619 6.22061 5.71324
#
# Compressibility (1/GPa) = 0.02828528
#
# Stress axis : x y z
#
# Youngs Moduli (GPa) = 28.09764 32.95767 69.68877
#
# Poissons Ratio (x) = 0.54527 -0.03183
# Poissons Ratio (y) = 0.46486 0.69064
# Poissons Ratio (z) = -0.01283 0.32662
#
# Static dielectric constant tensor:
#      x y z
#    x 2.020390 -0.066370 0.077140 
#    y -0.066370 2.158600 -0.031530 
#    z 0.077140 -0.031530 2.054720 
# 
# From -- ./inp_files/279515.got.cif
#   From: 2010.05.17/outbox.cif.g08.bks.cpg/sg2_140_cif.got.tgz:279515.got - 2010.06.03 11:33:40.
