data_PCOD9089546
_publ_section_title
;
Structure prediction by ZEFSAII (Michael W. Deem and Ramdas Pophale) SiO2 
 PCOD9089546
Probable space group: P -1
;
_chemical_formula_sum "Si O2"
_cell_formula_units_Z 14
_cell_length_a 8.176414
_cell_length_b 13.126913
_cell_length_c 7.686184
_cell_angle_alpha 118.136780
_cell_angle_beta 89.342853
_cell_angle_gamma 58.279622
_cell_volume 580.624381
_symmetry_space_group_name_H-M "P -1"
_symmetry_group_IT_number 2
_symmetry_cell_setting 'triclinic'
loop_
_space_group_symop_operation_xyz
x,y,z
-x,-y,-z
loop_
_atom_site_type_symbol
_atom_site_label
_atom_site_fract_x
_atom_site_fract_y
_atom_site_fract_z
Si Si1 0.352095 0.229102 0.128857
Si Si2 0.938931 0.162622 0.895856
Si Si3 0.043888 0.592562 0.949206
Si Si4 0.495933 0.634675 0.293398
Si Si5 0.352923 0.888369 0.276170
Si Si6 0.375838 0.909715 0.678997
Si Si7 0.517873 0.407488 0.263223
O O1 0.127518 0.314828 0.122078
O O2 0.429942 0.147972 0.247609
O O3 0.384856 0.351939 0.241723
O O4 0.515238 0.118996 0.889634
O O5 0.868559 0.070512 0.734957
O O6 0.752457 0.269221 0.114577
O O7 0.164829 0.043032 0.871368
O O8 0.946800 0.278069 0.873217
O O9 0.261785 0.471376 0.763566
O O10 0.000000 0.500000 0.000000
O O11 0.465660 0.718973 0.185804
O O12 0.379898 0.768815 0.536478
O O13 0.431744 0.530220 0.214429
O O14 0.366298 0.951308 0.508551
O O15 0.500000 0.500000 0.500000
#
# Coordination Sequence:
#
# PCOD9089546 Si02
#       7
#     2   2   2   2   2   2   2
#     4  11  22  37  67  85 130 159 202 253 303 361
#     4  10  23  37  66  85 128 162 198 252 312 353
#     4  11  22  39  61  93 117 168 205 245 307 367
#     4   9  20  37  60  86 124 146 206 248 298 348
#     4   9  20  39  62  92 118 162 199 258 297 357
#     4  10  21  41  60  94 122 161 202 253 303 363
#     4  10  19  38  58  96 114 156 203 252 297 357
#
# _framework density 24.111975999999999
#
# number of rings (size 3 to 8) (size 9 to 14) (size 15 to 20)
#    0.857    1.143    2.857    0.429    2.000    5.143 
#    0.000    2.857    0.000    0.000    0.000    0.000 
#    0.000    0.000    0.000    0.000    0.000    0.000 
#
# Total GULP energy -77965.249286 kJ/mol
# GULP energy per Si atom -5568.946378 kJ/mol
# Density = 2.405710 g / cm^3
# Si number density = 24.111976 Si / 1000 Ang^3
#
#
#
# Elastic Constant Matrix: (Units=GPa)
#
#
# Indices 1 2 3 4 5 6 
#
# 1 59.2816 36.8427 -5.5320 14.6875 7.3652 -5.5655
# 2 36.8427 105.9315 19.8836 18.7009 9.4764 -17.2115
# 3 -5.5320 19.8836 78.1533 4.0072 1.4795 -2.9240
# 4 14.6875 18.7009 4.0072 45.1237 -6.0438 5.5133
# 5 7.3652 9.4764 1.4795 -6.0438 16.2302 5.0816
# 6 -5.5655 -17.2115 -2.9240 5.5133 5.0816 54.8914
#
#
#
# Elastic Compliance Matrix: (Units=1/GPa)
#
#
# Indices 1 2 3 4 5 6 
#
# 1 0.024932 -0.006712 0.004165 -0.007522 -0.011343 0.002451
# 2 -0.006712 0.015145 -0.003666 -0.005649 -0.009224 0.005294
# 3 0.004165 -0.003666 0.014135 -0.001349 -0.001638 0.000313
# 4 -0.007522 -0.005649 -0.001349 0.030769 0.020675 -0.007610
# 5 -0.011343 -0.009224 -0.001638 0.020675 0.084384 -0.014018
# 6 0.002451 0.005294 0.000313 -0.007610 -0.014018 0.022205
#
#
# Mechanical properties :
#
#
# Convention : Reuss Voigt Hill
#
# Bulk Modulus (GPa) = 23.93238 38.41723 31.17480
# Shear Modulus (GPa) = 22.94367 36.06054 29.50211
#
# Velocity S-wave (km/s) = 3.08806 3.87142 3.50172
# Velocity P-wave (km/s) = 4.76045 5.99594 5.41356
#
# Compressibility (1/GPa) = 0.04178439
#
# Stress axis : x y z
#
# Youngs Moduli (GPa) = 40.10972 66.02752 70.74776
#
# Poissons Ratio (x) = 0.44318 -0.29463
# Poissons Ratio (y) = 0.26922 0.25936
# Poissons Ratio (z) = -0.16704 0.24206
#
# Static dielectric constant tensor:
#      x y z
#    x 1.985010 0.056430 0.021030 
#    y 0.056430 2.018860 -0.123590 
#    z 0.021030 -0.123590 2.020830 
# 
# From -- ./inp_files/197977.got.cif
#   From: 2010.05.17/outbox.cif.g08.bks.cpg/sg2_99_cif.got.tgz:197977.got - 2010.06.03 11:33:40.
