data_PCOD9089009
_publ_section_title
;
Structure prediction by ZEFSAII (Michael W. Deem and Ramdas Pophale) SiO2 
 PCOD9089009
Probable space group: P -1
;
_chemical_formula_sum "Si O2"
_cell_formula_units_Z 14
_cell_length_a 10.655097
_cell_length_b 12.305326
_cell_length_c 14.472598
_cell_angle_alpha 33.788957
_cell_angle_beta 140.572156
_cell_angle_gamma 125.035025
_cell_volume 657.736604
_symmetry_space_group_name_H-M "P -1"
_symmetry_group_IT_number 2
_symmetry_cell_setting 'triclinic'
loop_
_space_group_symop_operation_xyz
x,y,z
-x,-y,-z
loop_
_atom_site_type_symbol
_atom_site_label
_atom_site_fract_x
_atom_site_fract_y
_atom_site_fract_z
Si Si1 0.896710 0.739020 0.097966
Si Si2 0.869984 0.298679 0.405133
Si Si3 0.785400 0.152967 0.659082
Si Si4 0.721768 0.998761 0.165251
Si Si5 0.234073 0.930951 0.658273
Si Si6 0.552423 0.709008 0.499500
Si Si7 0.235574 0.698792 0.168581
O O1 0.009066 0.810186 0.200636
O O2 0.062659 0.677723 0.156095
O O3 0.823612 0.536765 0.223100
O O4 0.760151 0.934804 0.836617
O O5 0.802145 0.194736 0.531551
O O6 0.755276 0.236930 0.293965
O O7 0.112288 0.208572 0.589444
O O8 0.599014 0.299266 0.496692
O O9 0.679935 0.108849 0.162102
O O10 0.500000 0.000000 0.000000
O O11 0.824886 0.126975 0.061735
O O12 0.324903 0.116027 0.541996
O O13 0.000000 0.000000 0.500000
O O14 0.415688 0.745601 0.302843
O O15 0.694707 0.500751 0.707842
#
# Coordination Sequence:
#
# PCOD9089009 Si02
#       7
#     2   2   2   2   2   2   2
#     4  10  21  40  65  92 124 163 207 254 306 365
#     4  11  23  42  62  90 132 165 197 254 320 365
#     4  10  22  40  63  92 124 163 209 253 303 371
#     4  11  21  36  65  95 122 158 216 257 299 363
#     4  10  22  40  59  91 128 161 201 258 309 367
#     4  10  21  38  61  91 125 158 206 261 302 358
#     4  10  19  37  64  93 119 157 214 259 299 352
#
# _framework density 21.285115999999999
#
# number of rings (size 3 to 8) (size 9 to 14) (size 15 to 20)
#    0.000    1.714    2.857    2.143    4.000    0.571 
#    5.143    2.857    0.000    0.000    0.000    0.000 
#    0.000    0.000    0.000    0.000    0.000    0.000 
#
# Total GULP energy -78126.372769 kJ/mol
# GULP energy per Si atom -5580.455198 kJ/mol
# Density = 2.123667 g / cm^3
# Si number density = 21.285116 Si / 1000 Ang^3
#
#
#
# Elastic Constant Matrix: (Units=GPa)
#
#
# Indices 1 2 3 4 5 6 
#
# 1 63.8326 13.9221 21.8964 6.2621 -10.9415 -14.4986
# 2 13.9221 89.7376 26.4591 1.1937 -9.2272 -8.0687
# 3 21.8964 26.4591 57.7344 -8.9264 -11.6684 -13.8223
# 4 6.2621 1.1937 -8.9264 27.2718 -5.6192 -4.1593
# 5 -10.9415 -9.2272 -11.6684 -5.6192 36.5262 2.8388
# 6 -14.4986 -8.0687 -13.8223 -4.1593 2.8388 31.9671
#
#
#
# Elastic Compliance Matrix: (Units=1/GPa)
#
#
# Indices 1 2 3 4 5 6 
#
# 1 0.020165 -0.000393 -0.006502 -0.005393 0.002622 0.005300
# 2 -0.000393 0.013106 -0.005970 -0.002218 0.000931 0.000177
# 3 -0.006502 -0.005970 0.028197 0.013780 0.006979 0.008909
# 4 -0.005393 -0.002218 0.013780 0.045523 0.008599 0.008112
# 5 0.002622 0.000931 0.006979 0.008599 0.031738 0.002743
# 6 0.005300 0.000177 0.008909 0.008112 0.002743 0.038395
#
#
# Mechanical properties :
#
#
# Convention : Reuss Voigt Hill
#
# Bulk Modulus (GPa) = 27.98218 37.31776 32.64997
# Shear Modulus (GPa) = 23.28127 29.08815 26.18471
#
# Velocity S-wave (km/s) = 3.31082 3.70076 3.51121
# Velocity P-wave (km/s) = 5.27165 5.98592 5.64010
#
# Compressibility (1/GPa) = 0.03573703
#
# Stress axis : x y z
#
# Youngs Moduli (GPa) = 49.59190 76.30147 35.46522
#
# Poissons Ratio (x) = 0.03001 0.23060
# Poissons Ratio (y) = 0.01950 0.21171
# Poissons Ratio (z) = 0.32246 0.45549
#
# Static dielectric constant tensor:
#      x y z
#    x 1.776390 0.009000 0.016330 
#    y 0.009000 1.648050 0.059690 
#    z 0.016330 0.059690 1.778300 
# 
# From -- ./inp_files/205704.got.cif
#   From: 2010.05.17/outbox.cif.g08.bks.cpg/sg2_103_cif.got.tgz:205704.got - 2010.06.03 11:33:40.
