data_PCOD9089075
_publ_section_title
;
Structure prediction by ZEFSAII (Michael W. Deem and Ramdas Pophale) SiO2 
 PCOD9089075
Probable space group: P -1
;
_chemical_formula_sum "Si O2"
_cell_formula_units_Z 14
_cell_length_a 5.026155
_cell_length_b 16.137827
_cell_length_c 8.653249
_cell_angle_alpha 96.549496
_cell_angle_beta 91.959900
_cell_angle_gamma 48.185984
_cell_volume 518.872308
_symmetry_space_group_name_H-M "P -1"
_symmetry_group_IT_number 2
_symmetry_cell_setting 'triclinic'
loop_
_space_group_symop_operation_xyz
x,y,z
-x,-y,-z
loop_
_atom_site_type_symbol
_atom_site_label
_atom_site_fract_x
_atom_site_fract_y
_atom_site_fract_z
Si Si1 0.513683 0.712843 0.011829
Si Si2 0.852764 0.526589 0.759866
Si Si3 0.753087 0.139238 0.263343
Si Si4 0.078770 0.080098 0.548538
Si Si5 0.919380 0.327215 0.801112
Si Si6 0.464659 0.605521 0.475102
Si Si7 0.524058 0.005305 0.183704
O O1 0.843816 0.597363 0.906672
O O2 0.315019 0.798204 0.884461
O O3 0.297146 0.685778 0.088823
O O4 0.685038 0.742445 0.140081
O O5 0.765435 0.454006 0.810091
O O6 0.565612 0.618697 0.647684
O O7 0.218210 0.442088 0.651692
O O8 0.505918 0.108664 0.245106
O O9 0.781652 0.176913 0.442383
O O10 0.172677 0.029355 0.232012
O O11 0.500000 0.000000 0.500000
O O12 0.119605 0.095594 0.734656
O O13 0.000000 0.000000 0.500000
O O14 0.888776 0.306124 0.616034
O O15 0.500000 0.500000 0.500000
O O16 0.500000 0.000000 0.000000
#
# Coordination Sequence:
#
# PCOD9089075 Si02
#       7
#     2   2   2   2   2   2   2
#     4  12  24  35  58  84 125 151 191 256 291 337
#     4  10  21  38  59  85 110 160 211 240 288 346
#     4  10  21  38  53  90 118 147 185 233 297 336
#     4   8  16  32  58  79 108 144 181 219 267 344
#     4  11  22  38  57  85 111 163 204 243 286 343
#     4   9  20  37  60  80 110 146 217 247 281 343
#     4  10  19  37  65  86 111 148 192 230 275 353
#
# _framework density 26.981591999999999
#
# number of rings (size 3 to 8) (size 9 to 14) (size 15 to 20)
#    0.000    2.000    1.429    2.143    4.000    0.000 
#    0.000    2.857    0.000    0.000    0.000    0.000 
#    0.000    0.000    0.000    0.000    0.000    0.000 
#
# Total GULP energy -78102.217337 kJ/mol
# GULP energy per Si atom -5578.729810 kJ/mol
# Density = 2.692018 g / cm^3
# Si number density = 26.981592 Si / 1000 Ang^3
#
#
#
# Elastic Constant Matrix: (Units=GPa)
#
#
# Indices 1 2 3 4 5 6 
#
# 1 159.7485 14.4397 73.9573 -9.3302 -0.9599 -1.1659
# 2 14.4397 52.8042 54.5535 -33.4944 10.1690 0.2310
# 3 73.9573 54.5535 214.4761 -62.9385 37.5612 4.7831
# 4 -9.3302 -33.4944 -62.9385 66.7282 -0.0411 3.6840
# 5 -0.9599 10.1690 37.5612 -0.0411 71.5787 -10.1232
# 6 -1.1659 0.2310 4.7831 3.6840 -10.1232 20.2127
#
#
#
# Elastic Compliance Matrix: (Units=1/GPa)
#
#
# Indices 1 2 3 4 5 6 
#
# 1 0.008109 -0.000528 -0.004215 -0.003300 0.002892 0.003521
# 2 -0.000528 0.031209 -0.003469 0.012505 -0.003093 -0.003395
# 3 -0.004215 -0.003469 0.010606 0.008071 -0.006152 -0.007266
# 4 -0.003300 0.012505 0.008071 0.029037 -0.007646 -0.011365
# 5 0.002892 -0.003093 -0.006152 -0.007646 0.019485 0.012810
# 6 0.003521 -0.003395 -0.007266 -0.011365 0.012810 0.059922
#
#
# Mechanical properties :
#
#
# Convention : Reuss Voigt Hill
#
# Bulk Modulus (GPa) = 29.85075 79.21441 54.53258
# Shear Modulus (GPa) = 26.88756 50.64248 38.76502
#
# Velocity S-wave (km/s) = 3.16019 4.33705 3.79452
# Velocity P-wave (km/s) = 4.93995 7.38258 6.28114
#
# Compressibility (1/GPa) = 0.03350000
#
# Stress axis : x y z
#
# Youngs Moduli (GPa) = 123.31286 32.04208 94.28385
#
# Poissons Ratio (x) = 0.01692 0.39744
# Poissons Ratio (y) = 0.06510 0.32708
# Poissons Ratio (z) = 0.51981 0.11116
#
# Static dielectric constant tensor:
#      x y z
#    x 2.046910 0.017210 0.007870 
#    y 0.017210 2.291020 -0.004800 
#    z 0.007870 -0.004800 2.381760 
# 
# From -- ./inp_files/140193.got.cif
#   From: 2010.05.17/outbox.cif.g08.bks.cpg/sg2_71_cif.got.tgz:140193.got - 2010.06.03 11:33:40.
