data_PCOD9089321
_publ_section_title
;
Structure prediction by ZEFSAII (Michael W. Deem and Ramdas Pophale) SiO2 
 PCOD9089321
Probable space group: P -1
;
_chemical_formula_sum "Si O2"
_cell_formula_units_Z 16
_cell_length_a 22.447699
_cell_length_b 18.423760
_cell_length_c 12.747172
_cell_angle_alpha 154.921749
_cell_angle_beta 26.891242
_cell_angle_gamma 162.669521
_cell_volume 649.928300
_symmetry_space_group_name_H-M "P -1"
_symmetry_group_IT_number 2
_symmetry_cell_setting 'triclinic'
loop_
_space_group_symop_operation_xyz
x,y,z
-x,-y,-z
loop_
_atom_site_type_symbol
_atom_site_label
_atom_site_fract_x
_atom_site_fract_y
_atom_site_fract_z
Si Si1 0.571268 0.279673 0.839934
Si Si2 0.004116 0.797872 0.321942
Si Si3 0.983689 0.536742 0.809672
Si Si4 0.308485 0.019072 0.537984
Si Si5 0.635391 0.289356 0.530827
Si Si6 0.349361 0.361832 0.413392
Si Si7 0.775658 0.910135 0.460204
Si Si8 0.007259 0.784898 0.897810
O O1 0.569717 0.335224 0.793900
O O2 0.806680 0.495233 0.785069
O O3 0.465216 0.995132 0.658018
O O4 0.458758 0.308377 0.121810
O O5 0.781406 0.660750 0.494301
O O6 0.171935 0.112978 0.441807
O O7 0.099328 0.831127 0.325630
O O8 0.989838 0.652011 0.057130
O O9 0.126731 0.514367 0.574868
O O10 0.768228 0.245272 0.726656
O O11 0.065299 0.739149 0.851962
O O12 0.174715 0.943382 0.750345
O O13 0.538522 0.248589 0.521039
O O14 0.269417 0.093387 0.594768
O O15 0.543038 0.659139 0.542378
O O16 0.921610 0.887154 0.196625
#
# Coordination Sequence:
#
# PCOD9089321 Si02
#       8
#     2   2   2   2   2   2   2   2
#     4  10  19  37  68 102 130 163 222 285 322 386
#     4  11  24  43  72  95 127 181 229 277 318 392
#     4  12  24  43  72 102 131 174 233 276 321 392
#     4  12  26  43  64 101 145 178 209 274 345 403
#     4  11  22  37  65 100 134 172 214 274 336 384
#     4  10  22  43  69 101 125 171 231 283 323 381
#     4  11  27  44  66  99 141 177 218 272 339 401
#     4  11  21  43  69 102 133 170 227 280 328 388
#
# _framework density 24.618099999999998
#
# number of rings (size 3 to 8) (size 9 to 14) (size 15 to 20)
#    0.000    1.000    3.750    4.125    1.750    3.500 
#    0.000    2.500    0.000    0.000    0.000    0.000 
#    0.000    0.000    0.000    0.000    0.000    0.000 
#
# Total GULP energy -89474.588175 kJ/mol
# GULP energy per Si atom -5592.161761 kJ/mol
# Density = 2.456207 g / cm^3
# Si number density = 24.618100 Si / 1000 Ang^3
#
#
#
# Elastic Constant Matrix: (Units=GPa)
#
#
# Indices 1 2 3 4 5 6 
#
# 1 164.2354 38.2428 37.1511 -12.9929 18.5996 22.9897
# 2 38.2428 65.7134 3.0828 -11.8393 2.6564 16.1577
# 3 37.1511 3.0828 48.3182 -5.4691 8.5182 2.5911
# 4 -12.9929 -11.8393 -5.4691 22.8303 13.5949 1.8667
# 5 18.5996 2.6564 8.5182 13.5949 25.1276 0.8526
# 6 22.9897 16.1577 2.5911 1.8667 0.8526 49.1820
#
#
#
# Elastic Compliance Matrix: (Units=1/GPa)
#
#
# Indices 1 2 3 4 5 6 
#
# 1 0.010392 -0.002388 -0.004294 0.011006 -0.011801 -0.004060
# 2 -0.002388 0.022071 0.005217 0.019404 -0.012597 -0.006928
# 3 -0.004294 0.005217 0.028474 0.016764 -0.016043 -0.001565
# 4 0.011006 0.019404 0.016764 0.109970 -0.074861 -0.015279
# 5 -0.011801 -0.012597 -0.016043 -0.074861 0.095408 0.011687
# 6 -0.004060 -0.006928 -0.001565 -0.015279 0.011687 0.024966
#
#
# Mechanical properties :
#
#
# Convention : Reuss Voigt Hill
#
# Bulk Modulus (GPa) = 17.23928 48.35783 32.79856
# Shear Modulus (GPa) = 15.94657 32.74733 24.34695
#
# Velocity S-wave (km/s) = 2.54787 3.65117 3.14823
# Velocity P-wave (km/s) = 3.95897 6.12050 5.15432
#
# Compressibility (1/GPa) = 0.05800705
#
# Stress axis : x y z
#
# Youngs Moduli (GPa) = 96.23191 45.30803 35.11942
#
# Poissons Ratio (x) = 0.10819 0.15079
# Poissons Ratio (y) = 0.22979 -0.18320
# Poissons Ratio (z) = 0.41319 -0.23635
#
# Static dielectric constant tensor:
#      x y z
#    x 2.036690 -0.029180 0.016530 
#    y -0.029180 2.004490 0.036820 
#    z 0.016530 0.036820 1.928140 
# 
# From -- ./inp_files/472462.got.cif
#   From: 2010.05.17/outbox.cif.g08.bks.cpg/sg2_237_cif.got.tgz:472462.got - 2010.06.03 11:33:40.
