data_PCOD9089868
_publ_section_title
;
Structure prediction by ZEFSAII (Michael W. Deem and Ramdas Pophale) SiO2 
 PCOD9089868
Probable space group: P -1
;
_chemical_formula_sum "Si O2"
_cell_formula_units_Z 12
_cell_length_a 17.325028
_cell_length_b 9.238351
_cell_length_c 8.851039
_cell_angle_alpha 134.878511
_cell_angle_beta 140.243022
_cell_angle_gamma 30.105818
_cell_volume 450.800395
_symmetry_space_group_name_H-M "P -1"
_symmetry_group_IT_number 2
_symmetry_cell_setting 'triclinic'
loop_
_space_group_symop_operation_xyz
x,y,z
-x,-y,-z
loop_
_atom_site_type_symbol
_atom_site_label
_atom_site_fract_x
_atom_site_fract_y
_atom_site_fract_z
Si Si1 0.902089 0.934027 0.379852
Si Si2 0.437102 0.238134 0.767155
Si Si3 0.755934 0.713627 0.042747
Si Si4 0.762739 0.242685 0.694692
Si Si5 0.189785 0.233651 0.519266
Si Si6 0.471484 0.486071 0.737916
O O1 0.903374 0.995376 0.602755
O O2 0.706577 0.206765 0.233750
O O3 0.000000 0.000000 0.500000
O O4 0.909239 0.678906 0.188584
O O5 0.266418 0.306015 0.572682
O O6 0.488437 0.262226 0.697472
O O7 0.596874 0.920883 0.843006
O O8 0.406858 0.471816 0.004523
O O9 0.804964 0.421833 0.932522
O O10 0.699530 0.874326 0.237935
O O11 0.592838 0.460251 0.491087
O O12 0.771001 0.045713 0.680100
O O13 0.000000 0.500000 0.500000
#
# Coordination Sequence:
#
# PCOD9089868 Si02
#       6
#     2   2   2   2   2   2
#     4   8  17  34  58  83 117 154 185 234 288 339
#     4  10  19  38  62  87 114 155 197 236 293 345
#     4  10  21  38  61  84 119 154 195 242 287 347
#     4   9  21  38  59  88 117 149 201 234 296 345
#     4  11  24  39  61  83 119 158 194 242 292 348
#     4   8  19  35  61  87 112 149 198 236 287 344
#
# _framework density 26.619319999999998
#
# number of rings (size 3 to 8) (size 9 to 14) (size 15 to 20)
#    1.000    1.667    1.667    0.500    4.667    2.667 
#    0.000    0.000    0.000    0.000    0.000    0.000 
#    0.000    0.000    0.000    0.000    0.000    0.000 
#
# Total GULP energy -66884.480509 kJ/mol
# GULP energy per Si atom -5573.706709 kJ/mol
# Density = 2.655873 g / cm^3
# Si number density = 26.619320 Si / 1000 Ang^3
#
#
#
# Elastic Constant Matrix: (Units=GPa)
#
#
# Indices 1 2 3 4 5 6 
#
# 1 94.3271 27.1526 55.1114 19.0223 44.7437 23.4452
# 2 27.1526 97.9012 55.4951 31.1240 23.8871 19.4310
# 3 55.1114 55.4951 158.7985 51.0011 36.5564 6.8464
# 4 19.0223 31.1240 51.0011 67.5855 13.7257 10.7462
# 5 44.7437 23.8871 36.5564 13.7257 52.4730 7.3174
# 6 23.4452 19.4310 6.8464 10.7462 7.3174 37.0068
#
#
#
# Elastic Compliance Matrix: (Units=1/GPa)
#
#
# Indices 1 2 3 4 5 6 
#
# 1 0.023292 0.002343 -0.005158 0.001462 -0.016002 -0.012293
# 2 0.002343 0.015111 -0.003913 -0.002636 -0.004480 -0.007044
# 3 -0.005158 -0.003913 0.011347 -0.005944 -0.000885 0.005124
# 4 0.001462 -0.002636 -0.005944 0.020935 -0.000773 -0.004369
# 5 -0.016002 -0.004480 -0.000885 -0.000773 0.034722 0.006013
# 6 -0.012293 -0.007044 0.005124 -0.004369 0.006013 0.037640
#
#
# Mechanical properties :
#
#
# Convention : Reuss Voigt Hill
#
# Bulk Modulus (GPa) = 27.55193 69.61612 48.58403
# Shear Modulus (GPa) = 29.65581 45.63089 37.64335
#
# Velocity S-wave (km/s) = 3.34139 4.14478 3.76458
# Velocity P-wave (km/s) = 5.02587 7.00820 6.09812
#
# Compressibility (1/GPa) = 0.03629509
#
# Stress axis : x y z
#
# Youngs Moduli (GPa) = 42.93362 66.17478 88.13250
#
# Poissons Ratio (x) = -0.15508 0.45460
# Poissons Ratio (y) = -0.10061 0.34483
# Poissons Ratio (z) = 0.22146 0.25892
#
# Static dielectric constant tensor:
#      x y z
#    x 2.322130 0.029520 0.028160 
#    y 0.029520 2.206750 0.061460 
#    z 0.028160 0.061460 2.318040 
# 
# From -- ./inp_files/469070.got.cif
#   From: 2010.05.17/outbox.cif.g08.bks.cpg/sg2_235_cif.got.tgz:469070.got - 2010.06.03 11:33:40.
