data_PCOD9089469
_publ_section_title
;
Structure prediction by ZEFSAII (Michael W. Deem and Ramdas Pophale) SiO2 
 PCOD9089469
Probable space group: P -1
;
_chemical_formula_sum "Si O2"
_cell_formula_units_Z 12
_cell_length_a 14.031384
_cell_length_b 14.611412
_cell_length_c 9.023291
_cell_angle_alpha 50.351894
_cell_angle_beta 29.511391
_cell_angle_gamma 36.625397
_cell_volume 532.058588
_symmetry_space_group_name_H-M "P -1"
_symmetry_group_IT_number 2
_symmetry_cell_setting 'triclinic'
loop_
_space_group_symop_operation_xyz
x,y,z
-x,-y,-z
loop_
_atom_site_type_symbol
_atom_site_label
_atom_site_fract_x
_atom_site_fract_y
_atom_site_fract_z
Si Si1 0.036767 0.008227 0.690452
Si Si2 0.125092 0.633908 0.724189
Si Si3 0.275069 0.232603 0.632743
Si Si4 0.187502 0.067511 0.699511
Si Si5 0.098611 0.420319 0.168448
Si Si6 0.618179 0.223251 0.800156
O O1 0.768603 0.126921 0.844489
O O2 0.020258 0.908998 0.935120
O O3 0.101187 0.093831 0.620133
O O4 0.242854 0.899887 0.396932
O O5 0.327222 0.657388 0.413931
O O6 0.993833 0.652951 0.727350
O O7 0.213927 0.472010 0.840482
O O8 0.904757 0.759812 0.008121
O O9 0.557097 0.113370 0.438741
O O10 0.148490 0.412585 0.606145
O O11 0.253524 0.166366 0.580913
O O12 0.321573 0.314812 0.092350
#
# Coordination Sequence:
#
# PCOD9089469 Si02
#       6
#     2   2   2   2   2   2
#     4  10  22  35  56  82 111 148 179 227 277 320
#     4   9  18  34  59  87 103 144 187 224 276 316
#     4   9  18  35  59  80 103 148 187 222 266 330
#     4  10  19  38  57  77 113 148 185 214 275 345
#     4   9  19  35  58  86 107 143 185 229 274 317
#     4  11  20  38  56  87 112 137 186 238 268 317
#
# _framework density 22.553908
#
# number of rings (size 3 to 8) (size 9 to 14) (size 15 to 20)
#    1.000    1.333    1.667    1.500    0.000    0.000 
#    9.000    4.167    0.000    0.000    0.000    0.000 
#    0.000    0.000    0.000    0.000    0.000    0.000 
#
# Total GULP energy -66969.936825 kJ/mol
# GULP energy per Si atom -5580.828069 kJ/mol
# Density = 2.250257 g / cm^3
# Si number density = 22.553908 Si / 1000 Ang^3
#
#
#
# Elastic Constant Matrix: (Units=GPa)
#
#
# Indices 1 2 3 4 5 6 
#
# 1 215.3855 63.1151 35.1942 17.8612 -14.0048 -2.9911
# 2 63.1151 59.8397 20.1570 13.4524 7.5965 -12.3642
# 3 35.1942 20.1570 37.3241 5.3298 -3.8720 -10.8773
# 4 17.8612 13.4524 5.3298 33.9612 -5.1917 1.8873
# 5 -14.0048 7.5965 -3.8720 -5.1917 22.3518 -1.7297
# 6 -2.9911 -12.3642 -10.8773 1.8873 -1.7297 20.6603
#
#
#
# Elastic Compliance Matrix: (Units=1/GPa)
#
#
# Indices 1 2 3 4 5 6 
#
# 1 0.008715 -0.010822 -0.003711 0.001944 0.008433 -0.006640
# 2 -0.010822 0.040210 -0.006633 -0.013787 -0.023381 0.018307
# 3 -0.003711 -0.006633 0.039941 -0.001451 0.007851 0.017311
# 4 0.001944 -0.013787 -0.001451 0.036761 0.013342 -0.010974
# 5 0.008433 -0.023381 0.007851 0.013342 0.062067 -0.004661
# 6 -0.006640 0.018307 0.017311 -0.010974 -0.004661 0.068123
#
#
# Mechanical properties :
#
#
# Convention : Reuss Voigt Hill
#
# Bulk Modulus (GPa) = 21.48999 61.05356 41.27177
# Shear Modulus (GPa) = 15.94080 28.33352 22.13716
#
# Velocity S-wave (km/s) = 2.66143 3.54822 3.13632
# Velocity P-wave (km/s) = 4.35812 6.62686 5.60841
#
# Compressibility (1/GPa) = 0.04653330
#
# Stress axis : x y z
#
# Youngs Moduli (GPa) = 114.73995 24.86964 25.03712
#
# Poissons Ratio (x) = 0.26913 0.09292
# Poissons Ratio (y) = 1.24168 0.16607
# Poissons Ratio (z) = 0.42585 0.16496
#
# Static dielectric constant tensor:
#      x y z
#    x 1.821690 -0.009560 0.016070 
#    y -0.009560 1.860070 -0.030720 
#    z 0.016070 -0.030720 1.828340 
# 
# From -- ./inp_files/162672.got.cif
#   From: 2010.05.17/outbox.cif.g08.bks.cpg/sg2_82_cif.got.tgz:162672.got - 2010.06.03 11:33:40.
