data_PCOD9089072
_publ_section_title
;
Structure prediction by ZEFSAII (Michael W. Deem and Ramdas Pophale) SiO2 
 PCOD9089072
Probable space group: P -1
;
_chemical_formula_sum "Si O2"
_cell_formula_units_Z 16
_cell_length_a 6.144122
_cell_length_b 29.314150
_cell_length_c 9.407950
_cell_angle_alpha 33.045335
_cell_angle_beta 66.811738
_cell_angle_gamma 50.891073
_cell_volume 679.497934
_symmetry_space_group_name_H-M "P -1"
_symmetry_group_IT_number 2
_symmetry_cell_setting 'triclinic'
loop_
_space_group_symop_operation_xyz
x,y,z
-x,-y,-z
loop_
_atom_site_type_symbol
_atom_site_label
_atom_site_fract_x
_atom_site_fract_y
_atom_site_fract_z
Si Si1 0.021825 0.586874 0.943919
Si Si2 0.617660 0.241281 0.933750
Si Si3 0.865987 0.263300 0.396030
Si Si4 0.023282 0.434415 0.530202
Si Si5 0.491749 0.095346 0.807714
Si Si6 0.449785 0.823623 0.150039
Si Si7 0.332148 0.777624 0.704393
Si Si8 0.127154 0.635430 0.483867
O O1 0.201405 0.624558 0.874352
O O2 0.092337 0.586092 0.762059
O O3 0.669622 0.672708 0.853089
O O4 0.119187 0.478136 0.265654
O O5 0.262872 0.317828 0.829486
O O6 0.702877 0.153966 0.022628
O O7 0.690283 0.319225 0.656482
O O8 0.729951 0.212266 0.139823
O O9 0.647783 0.239636 0.575708
O O10 0.892274 0.228332 0.318046
O O11 0.155545 0.194143 0.601379
O O12 0.000000 0.500000 0.500000
O O13 0.782049 0.432845 0.505187
O O14 0.590148 0.090164 0.958523
O O15 0.678610 0.123266 0.598601
O O16 0.500000 0.000000 0.000000
O O17 0.799354 0.740021 0.264771
#
# Coordination Sequence:
#
# PCOD9089072 Si02
#       8
#     2   2   2   2   2   2   2   2
#     4  11  20  40  56  86 116 158 204 247 292 341
#     4  11  23  39  59  87 119 166 197 243 300 338
#     4  10  19  37  65  85 114 159 192 239 295 354
#     4  11  25  37  55  86 124 157 205 257 289 338
#     4  10  21  39  66  96 117 145 192 244 294 359
#     4  10  19  39  61  88 118 154 200 241 287 362
#     4  10  22  37  62  87 122 152 197 239 291 363
#     4  11  22  38  59  82 120 161 203 246 291 346
#
# _framework density 23.546797000000002
#
# number of rings (size 3 to 8) (size 9 to 14) (size 15 to 20)
#    0.000    1.500    6.250    0.375    1.750    5.000 
#    0.000    0.625    0.000    3.750    0.000    0.000 
#    0.000    0.000    0.000    0.000    0.000    0.000 
#
# Total GULP energy -89210.644045 kJ/mol
# GULP energy per Si atom -5575.665253 kJ/mol
# Density = 2.349320 g / cm^3
# Si number density = 23.546797 Si / 1000 Ang^3
#
#
#
# Elastic Constant Matrix: (Units=GPa)
#
#
# Indices 1 2 3 4 5 6 
#
# 1 97.5985 44.1105 10.0305 6.7643 -2.3717 46.4974
# 2 44.1105 107.6929 29.1822 32.5709 4.5557 55.1805
# 3 10.0305 29.1822 28.8834 12.2432 -0.2036 17.1422
# 4 6.7643 32.5709 12.2432 35.9552 14.5096 11.1343
# 5 -2.3717 4.5557 -0.2036 14.5096 25.5759 2.2130
# 6 46.4974 55.1805 17.1422 11.1343 2.2130 63.5102
#
#
#
# Elastic Compliance Matrix: (Units=1/GPa)
#
#
# Indices 1 2 3 4 5 6 
#
# 1 0.016127 -0.001766 0.002854 -0.000117 0.002861 -0.011123
# 2 -0.001766 0.025248 -0.008130 -0.017612 0.006615 -0.015592
# 3 0.002854 -0.008130 0.051367 -0.012427 0.009782 -0.007053
# 4 -0.000117 -0.017612 -0.012427 0.057213 -0.030276 0.009766
# 5 0.002861 0.006615 0.009782 -0.030276 0.056057 -0.007128
# 6 -0.011123 -0.015592 -0.007053 0.009766 -0.007128 0.037876
#
#
# Mechanical properties :
#
#
# Convention : Reuss Voigt Hill
#
# Bulk Modulus (GPa) = 12.71294 44.53566 28.62430
# Shear Modulus (GPa) = 17.59378 35.06505 26.32941
#
# Velocity S-wave (km/s) = 2.73643 3.86316 3.34754
# Velocity P-wave (km/s) = 3.92362 6.23325 5.20808
#
# Compressibility (1/GPa) = 0.07865998
#
# Stress axis : x y z
#
# Youngs Moduli (GPa) = 62.00601 39.60709 19.46771
#
# Poissons Ratio (x) = 0.06993 -0.05557
# Poissons Ratio (y) = 0.10948 0.15827
# Poissons Ratio (z) = -0.17699 0.32200
#
# Static dielectric constant tensor:
#      x y z
#    x 1.969090 0.031600 0.012980 
#    y 0.031600 2.022310 -0.021470 
#    z 0.012980 -0.021470 1.910190 
# 
# From -- ./inp_files/37867.got.cif
#   From: 2010.05.17/outbox.cif.g08.bks.cpg/sg2_19_cif.got.tgz:37867.got - 2010.06.03 11:33:40.
