data_PCOD9089553
_publ_section_title
;
Structure prediction by ZEFSAII (Michael W. Deem and Ramdas Pophale) SiO2 
 PCOD9089553
Probable space group: P -1
;
_chemical_formula_sum "Si O2"
_cell_formula_units_Z 14
_cell_length_a 14.203275
_cell_length_b 9.552118
_cell_length_c 17.896699
_cell_angle_alpha 151.184296
_cell_angle_beta 37.248396
_cell_angle_gamma 126.695055
_cell_volume 665.536782
_symmetry_space_group_name_H-M "P -1"
_symmetry_group_IT_number 2
_symmetry_cell_setting 'triclinic'
loop_
_space_group_symop_operation_xyz
x,y,z
-x,-y,-z
loop_
_atom_site_type_symbol
_atom_site_label
_atom_site_fract_x
_atom_site_fract_y
_atom_site_fract_z
Si Si1 0.558312 0.811881 0.450627
Si Si2 0.673582 0.951792 0.160709
Si Si3 0.086622 0.672209 0.330523
Si Si4 0.616328 0.233669 0.720993
Si Si5 0.927889 0.379010 0.416670
Si Si6 0.765069 0.140030 0.040714
Si Si7 0.605882 0.724619 0.855670
O O1 0.397187 0.875721 0.636637
O O2 0.670891 0.958033 0.497442
O O3 0.333610 0.545636 0.791760
O O4 0.500000 0.000000 0.500000
O O5 0.516601 0.854885 0.187209
O O6 0.718722 0.158853 0.166526
O O7 0.824326 0.626194 0.917690
O O8 0.231910 0.719374 0.311440
O O9 0.963363 0.566512 0.411728
O O10 0.000000 0.000000 0.500000
O O11 0.521711 0.534308 0.870906
O O12 0.000000 0.500000 0.500000
O O13 0.736239 0.477120 0.603721
O O14 0.037277 0.019381 0.168161
O O15 0.698296 0.880759 0.927549
O O16 0.500000 0.000000 0.000000
#
# Coordination Sequence:
#
# PCOD9089553 Si02
#       7
#     2   2   2   2   2   2   2
#     4  10  22  37  60  88 120 156 199 239 296 357
#     4   9  21  36  61  82 123 149 203 236 297 345
#     4  11  21  35  61  89 117 155 194 250 296 337
#     4  10  21  37  58  89 119 142 209 240 290 340
#     4   9  19  36  57  80 118 153 194 233 300 344
#     4  10  19  38  59  82 117 164 183 238 307 345
#     4  11  21  34  62  89 116 152 200 247 292 349
#
# _framework density 21.035653
#
# number of rings (size 3 to 8) (size 9 to 14) (size 15 to 20)
#    0.857    1.143    4.286    1.714    2.000    1.143 
#    0.000    0.714    3.143    1.714    0.000    0.000 
#    0.000    0.000    0.000    0.000    0.000    0.000 
#
# Total GULP energy -77980.108621 kJ/mol
# GULP energy per Si atom -5570.007759 kJ/mol
# Density = 2.098778 g / cm^3
# Si number density = 21.035653 Si / 1000 Ang^3
#
#
#
# Elastic Constant Matrix: (Units=GPa)
#
#
# Indices 1 2 3 4 5 6 
#
# 1 18.9284 3.9595 12.4648 -0.2957 -0.1614 -13.1802
# 2 3.9595 79.4355 62.7903 11.4271 -13.1860 -24.5079
# 3 12.4648 62.7903 121.8914 8.5330 -6.1769 -22.1225
# 4 -0.2957 11.4271 8.5330 42.7018 -6.5224 -1.5595
# 5 -0.1614 -13.1860 -6.1769 -6.5224 24.9765 7.1703
# 6 -13.1802 -24.5079 -22.1225 -1.5595 7.1703 28.2891
#
#
#
# Elastic Compliance Matrix: (Units=1/GPa)
#
#
# Indices 1 2 3 4 5 6 
#
# 1 0.092250 0.018238 -0.009441 -0.001605 -0.007829 0.053294
# 2 0.018238 0.030368 -0.012749 -0.003789 0.005325 0.023278
# 3 -0.009441 -0.012749 0.015069 -0.000115 -0.002203 -0.003107
# 4 -0.001605 -0.003789 -0.000115 0.025167 0.005735 -0.004186
# 5 -0.007829 0.005325 -0.002203 0.005735 0.047321 -0.012435
# 6 0.053294 0.023278 -0.003107 -0.004186 -0.012435 0.080838
#
#
# Mechanical properties :
#
#
# Convention : Reuss Voigt Hill
#
# Bulk Modulus (GPa) = 7.70507 42.07606 24.89056
# Shear Modulus (GPa) = 14.61232 28.59619 21.60426
#
# Velocity S-wave (km/s) = 2.63847 3.69103 3.20821
# Velocity P-wave (km/s) = 3.59901 6.18147 5.05784
#
# Compressibility (1/GPa) = 0.12978473
#
# Stress axis : x y z
#
# Youngs Moduli (GPa) = 10.84009 32.92958 66.36037
#
# Poissons Ratio (x) = -0.60057 0.62648
# Poissons Ratio (y) = -0.19770 0.84600
# Poissons Ratio (z) = 0.10234 0.41981
#
# Static dielectric constant tensor:
#      x y z
#    x 1.830740 -0.000080 0.005110 
#    y -0.000080 1.771010 -0.025070 
#    z 0.005110 -0.025070 1.799500 
# 
# From -- ./inp_files/575176.got.cif
#   From: 2010.05.17/outbox.cif.g08.bks.cpg/sg2_288_cif.got.tgz:575176.got - 2010.06.03 11:33:40.
