data_PCOD9089427
_publ_section_title
;
Structure prediction by ZEFSAII (Michael W. Deem and Ramdas Pophale) SiO2 
 PCOD9089427
Probable space group: P -1
;
_chemical_formula_sum "Si O2"
_cell_formula_units_Z 14
_cell_length_a 9.873446
_cell_length_b 9.399506
_cell_length_c 19.307396
_cell_angle_alpha 26.991619
_cell_angle_beta 46.597178
_cell_angle_gamma 43.833837
_cell_volume 557.592586
_symmetry_space_group_name_H-M "P -1"
_symmetry_group_IT_number 2
_symmetry_cell_setting 'triclinic'
loop_
_space_group_symop_operation_xyz
x,y,z
-x,-y,-z
loop_
_atom_site_type_symbol
_atom_site_label
_atom_site_fract_x
_atom_site_fract_y
_atom_site_fract_z
Si Si1 0.872117 0.162644 0.842152
Si Si2 0.357884 0.144544 0.310255
Si Si3 0.501114 0.291379 0.422241
Si Si4 0.119200 0.807355 0.475496
Si Si5 0.548551 0.945974 0.110581
Si Si6 0.861905 0.103454 0.714822
Si Si7 0.263280 0.042912 0.809766
O O1 0.796561 0.536847 0.737592
O O2 0.944675 0.102574 0.763153
O O3 0.060091 0.963464 0.908843
O O4 0.670818 0.078508 0.955341
O O5 0.408331 0.856524 0.473625
O O6 0.291468 0.975832 0.341266
O O7 0.559411 0.200646 0.192277
O O8 0.595678 0.556066 0.246493
O O9 0.275356 0.516295 0.414283
O O10 0.500000 0.000000 0.500000
O O11 0.013880 0.936901 0.382290
O O12 0.205771 0.416851 0.634234
O O13 0.000000 0.000000 0.500000
O O14 0.308356 0.075604 0.142916
O O15 0.654733 0.967990 0.136867
#
# Coordination Sequence:
#
# PCOD9089427 Si02
#       7
#     2   2   2   2   2   2   2
#     4  12  26  41  70 106 139 183 229 277 344 417
#     4  12  21  43  69 100 135 182 234 279 344 404
#     4  10  19  37  73  98 126 182 225 278 345 395
#     4  12  22  42  70 100 130 182 232 288 336 402
#     4  10  22  43  69  95 147 183 222 279 344 410
#     4  10  22  42  68  97 140 174 227 289 340 392
#     4  12  23  42  69 100 144 177 232 285 339 406
#
# _framework density 25.107938000000001
#
# number of rings (size 3 to 8) (size 9 to 14) (size 15 to 20)
#    0.857    0.000    7.143    1.286    0.000    1.143 
#    2.571    0.000    0.000    5.143    0.000    0.000 
#    0.000    0.000    0.000    0.000    0.000    0.000 
#
# Total GULP energy -78097.062373 kJ/mol
# GULP energy per Si atom -5578.361598 kJ/mol
# Density = 2.505079 g / cm^3
# Si number density = 25.107938 Si / 1000 Ang^3
#
#
#
# Elastic Constant Matrix: (Units=GPa)
#
#
# Indices 1 2 3 4 5 6 
#
# 1 86.0386 17.0315 -7.6859 7.0157 4.6594 11.9721
# 2 17.0315 79.0744 7.4284 24.8268 4.6102 4.8332
# 3 -7.6859 7.4284 39.0632 12.0085 -4.7051 15.5524
# 4 7.0157 24.8268 12.0085 33.8500 6.8486 2.3177
# 5 4.6594 4.6102 -4.7051 6.8486 31.0262 7.8675
# 6 11.9721 4.8332 15.5524 2.3177 7.8675 40.3181
#
#
#
# Elastic Compliance Matrix: (Units=1/GPa)
#
#
# Indices 1 2 3 4 5 6 
#
# 1 0.013848 -0.002178 0.007223 -0.003752 0.001890 -0.006790
# 2 -0.002178 0.016935 0.000699 -0.012327 0.000923 -0.001125
# 3 0.007223 0.000699 0.042477 -0.018624 0.014532 -0.020379
# 4 -0.003752 -0.012327 -0.018624 0.048034 -0.013478 0.009645
# 5 0.001890 0.000923 0.014532 -0.013478 0.040382 -0.013382
# 6 -0.006790 -0.001125 -0.020379 0.009645 -0.013382 0.036872
#
#
# Mechanical properties :
#
#
# Convention : Reuss Voigt Hill
#
# Bulk Modulus (GPa) = 11.79955 26.41381 19.10668
# Shear Modulus (GPa) = 23.22253 33.53234 28.37744
#
# Velocity S-wave (km/s) = 3.04453 3.65845 3.36552
# Velocity P-wave (km/s) = 4.13142 5.32810 4.76745
#
# Compressibility (1/GPa) = 0.08474899
#
# Stress axis : x y z
#
# Youngs Moduli (GPa) = 72.21451 59.04932 23.54220
#
# Poissons Ratio (x) = 0.12862 -0.17006
# Poissons Ratio (y) = 0.15729 -0.01647
# Poissons Ratio (z) = -0.52164 -0.04130
#
# Static dielectric constant tensor:
#      x y z
#    x 1.974030 -0.443900 -0.181310 
#    y -0.443900 0.770050 -0.141130 
#    z -0.181310 -0.141130 1.993390 
# 
# From -- ./inp_files/417342.got.cif
#   From: 2010.05.17/outbox.cif.g08.bks.cpg/sg2_209_cif.got.tgz:417342.got - 2010.06.03 11:33:40.
