data_PCOD9089897
_publ_section_title
;
Structure prediction by ZEFSAII (Michael W. Deem and Ramdas Pophale) SiO2 
 PCOD9089897
Probable space group: P -1
;
_chemical_formula_sum "Si O2"
_cell_formula_units_Z 16
_cell_length_a 9.430937
_cell_length_b 14.218394
_cell_length_c 9.076827
_cell_angle_alpha 50.787336
_cell_angle_beta 89.077533
_cell_angle_gamma 63.181700
_cell_volume 775.249793
_symmetry_space_group_name_H-M "P -1"
_symmetry_group_IT_number 2
_symmetry_cell_setting 'triclinic'
loop_
_space_group_symop_operation_xyz
x,y,z
-x,-y,-z
loop_
_atom_site_type_symbol
_atom_site_label
_atom_site_fract_x
_atom_site_fract_y
_atom_site_fract_z
Si Si1 0.309398 0.438422 0.693611
Si Si2 0.791013 0.324101 0.771816
Si Si3 0.349361 0.839981 0.165413
Si Si4 0.144973 0.276629 0.819641
Si Si5 0.442189 0.617996 0.013576
Si Si6 0.731533 0.900383 0.296917
Si Si7 0.631230 0.013253 0.708507
Si Si8 0.180548 0.966672 0.588142
O O1 0.260820 0.585886 0.468517
O O2 0.468177 0.311120 0.718770
O O3 0.160189 0.411685 0.713224
O O4 0.386407 0.413616 0.879492
O O5 0.795542 0.179922 0.873916
O O6 0.967774 0.298248 0.842301
O O7 0.655330 0.402692 0.829327
O O8 0.332725 0.888876 0.283836
O O9 0.349146 0.960759 0.949305
O O10 0.177050 0.232874 0.689154
O O11 0.286023 0.141644 0.054215
O O12 0.312255 0.791159 0.799237
O O13 0.500000 0.500000 0.000000
O O14 0.573456 0.910820 0.370691
O O15 0.842275 0.928580 0.378746
O O16 0.724364 0.998715 0.570671
O O17 0.000000 0.000000 0.500000
#
# Coordination Sequence:
#
# PCOD9089897 Si02
#       8
#     2   2   2   2   2   2   2   2
#     4  11  21  42  64  90 122 162 213 252 304 385
#     4  11  24  38  64  95 124 160 212 265 309 359
#     4  10  19  38  62  89 113 158 216 246 301 364
#     4  11  22  40  65  95 128 153 207 271 318 358
#     4  11  25  44  64  89 130 172 210 251 312 386
#     4  11  21  41  63  89 124 167 201 260 313 376
#     4  11  22  37  66  87 127 165 202 252 318 373
#     4  12  26  40  61  97 133 161 212 262 313 372
#
# _framework density 20.638511999999999
#
# number of rings (size 3 to 8) (size 9 to 14) (size 15 to 20)
#    0.000    1.000    5.000    3.750    5.250    1.000 
#    0.000    0.625    0.000    0.000    0.000    0.000 
#    0.000    0.000    0.000    0.000    0.000    0.000 
#
# Total GULP energy -89336.597852 kJ/mol
# GULP energy per Si atom -5583.537366 kJ/mol
# Density = 2.059154 g / cm^3
# Si number density = 20.638512 Si / 1000 Ang^3
#
#
#
# Elastic Constant Matrix: (Units=GPa)
#
#
# Indices 1 2 3 4 5 6 
#
# 1 148.9048 30.0692 22.0237 8.8412 4.3321 11.0104
# 2 30.0692 63.8151 19.1611 7.9895 4.2870 24.8639
# 3 22.0237 19.1611 67.6662 2.1876 3.1230 12.6515
# 4 8.8412 7.9895 2.1876 13.9677 3.8545 7.0324
# 5 4.3321 4.2870 3.1230 3.8545 30.7758 2.9672
# 6 11.0104 24.8639 12.6515 7.0324 2.9672 22.2871
#
#
#
# Elastic Compliance Matrix: (Units=1/GPa)
#
#
# Indices 1 2 3 4 5 6 
#
# 1 0.007755 -0.003547 -0.001834 -0.003738 -0.000172 0.002369
# 2 -0.003547 0.029691 -0.001501 0.001191 -0.000663 -0.030807
# 3 -0.001834 -0.001501 0.017271 0.003746 -0.000956 -0.008278
# 4 -0.003738 0.001191 0.003746 0.089485 -0.008459 -0.028718
# 5 -0.000172 -0.000663 -0.000956 -0.008459 0.033811 -0.000465
# 6 0.002369 -0.030807 -0.008278 -0.028718 -0.000465 0.091890
#
#
# Mechanical properties :
#
#
# Convention : Reuss Voigt Hill
#
# Bulk Modulus (GPa) = 24.41830 46.98824 35.70327
# Shear Modulus (GPa) = 16.81704 27.34825 22.08265
#
# Velocity S-wave (km/s) = 2.85763 3.64415 3.27459
# Velocity P-wave (km/s) = 4.76919 6.36578 5.62443
#
# Compressibility (1/GPa) = 0.04095290
#
# Stress axis : x y z
#
# Youngs Moduli (GPa) = 128.94963 33.68042 57.89993
#
# Poissons Ratio (x) = 0.11947 0.10618
# Poissons Ratio (y) = 0.45740 0.08691
# Poissons Ratio (z) = 0.23648 0.05056
#
# Static dielectric constant tensor:
#      x y z
#    x 1.758370 0.002800 0.027160 
#    y 0.002800 1.741770 -0.011470 
#    z 0.027160 -0.011470 1.742440 
# 
# From -- ./inp_files/205930.got.cif
#   From: 2010.05.17/outbox.cif.g08.bks.cpg/sg2_103_cif.got.tgz:205930.got - 2010.06.03 11:33:40.
