data_PCOD9089214
_publ_section_title
;
Structure prediction by ZEFSAII (Michael W. Deem and Ramdas Pophale) SiO2 
 PCOD9089214
Probable space group: P -1
;
_chemical_formula_sum "Si O2"
_cell_formula_units_Z 14
_cell_length_a 7.562875
_cell_length_b 16.096665
_cell_length_c 18.743815
_cell_angle_alpha 156.565833
_cell_angle_beta 36.677154
_cell_angle_gamma 131.900497
_cell_volume 519.336356
_symmetry_space_group_name_H-M "P -1"
_symmetry_group_IT_number 2
_symmetry_cell_setting 'triclinic'
loop_
_space_group_symop_operation_xyz
x,y,z
-x,-y,-z
loop_
_atom_site_type_symbol
_atom_site_label
_atom_site_fract_x
_atom_site_fract_y
_atom_site_fract_z
Si Si1 0.082968 0.484032 0.717818
Si Si2 0.697634 0.876125 0.540908
Si Si3 0.627694 0.328611 0.988941
Si Si4 0.486565 0.721957 0.861230
Si Si5 0.676981 0.796781 0.719457
Si Si6 0.947446 0.923210 0.036310
Si Si7 0.676362 0.773681 0.301116
O O1 0.310047 0.563326 0.760165
O O2 0.223256 0.362769 0.503939
O O3 0.869775 0.709801 0.931191
O O4 0.033427 0.294566 0.635723
O O5 0.674486 0.817481 0.420710
O O6 0.724363 0.116113 0.739888
O O7 0.356600 0.892352 0.695974
O O8 0.420763 0.322624 0.121730
O O9 0.536766 0.569033 0.173135
O O10 0.964419 0.308553 0.901730
O O11 0.757705 0.712562 0.707551
O O12 0.263836 0.973221 0.134583
O O13 0.304899 0.861581 0.894768
O O14 0.000000 0.000000 0.000000
O O15 0.500000 0.000000 0.500000
#
# Coordination Sequence:
#
# PCOD9089214 Si02
#       7
#     2   2   2   2   2   2   2
#     4  11  22  39  65  89 134 181 211 264 328 376
#     4  12  25  44  67  97 131 174 216 273 338 386
#     4  11  24  47  69  96 133 167 223 273 329 396
#     4  10  19  37  66  92 127 173 213 259 316 387
#     4  10  21  38  62  96 133 174 214 255 320 383
#     4  11  22  36  63  99 134 170 224 259 309 400
#     4  11  28  46  71  97 126 170 224 279 336 390
#
# _framework density 26.957481000000001
#
# number of rings (size 3 to 8) (size 9 to 14) (size 15 to 20)
#    0.000    1.143    4.286    2.143    4.000    1.714 
#    0.000    2.143    0.000    0.000    0.000    0.000 
#    0.000    0.000    0.000    0.000    0.000    0.000 
#
# Total GULP energy -78090.132049 kJ/mol
# GULP energy per Si atom -5577.866575 kJ/mol
# Density = 2.689612 g / cm^3
# Si number density = 26.957481 Si / 1000 Ang^3
#
#
#
# Elastic Constant Matrix: (Units=GPa)
#
#
# Indices 1 2 3 4 5 6 
#
# 1 79.4747 16.1352 53.2825 16.5507 -11.2720 -50.4762
# 2 16.1352 99.7865 42.2370 18.8124 -4.0791 -37.8843
# 3 53.2825 42.2370 147.6227 44.2674 7.5308 -23.5597
# 4 16.5507 18.8124 44.2674 62.9238 -4.0391 -3.7048
# 5 -11.2720 -4.0791 7.5308 -4.0391 56.6777 10.3340
# 6 -50.4762 -37.8843 -23.5597 -3.7048 10.3340 46.0224
#
#
#
# Elastic Compliance Matrix: (Units=1/GPa)
#
#
# Indices 1 2 3 4 5 6 
#
# 1 0.300860 0.146065 -0.070304 -0.049115 0.001443 0.409945
# 2 0.146065 0.086784 -0.035789 -0.026773 -0.000374 0.211246
# 3 -0.070304 -0.035789 0.026334 0.005060 -0.002917 -0.092025
# 4 -0.049115 -0.026773 0.005060 0.029218 0.002767 -0.071586
# 5 0.001443 -0.000374 -0.002917 0.002767 0.019277 -0.004324
# 6 0.409945 0.211246 -0.092025 -0.071586 -0.004324 0.593335
#
#
# Mechanical properties :
#
#
# Convention : Reuss Voigt Hill
#
# Bulk Modulus (GPa) = 2.02461 61.13261 31.57861
# Shear Modulus (GPa) = 4.38402 47.47340 25.92871
#
# Velocity S-wave (km/s) = 1.27664 4.20104 3.10471
# Velocity P-wave (km/s) = 1.71048 6.80134 4.95903
#
# Compressibility (1/GPa) = 0.49392156
#
# Stress axis : x y z
#
# Youngs Moduli (GPa) = 3.32380 11.52284 37.97373
#
# Poissons Ratio (x) = -1.68308 2.66970
# Poissons Ratio (y) = -0.48549 1.35906
# Poissons Ratio (z) = 0.23368 0.41240
#
# Static dielectric constant tensor:
#      x y z
#    x 2.513470 0.319670 0.115980 
#    y 0.319670 2.595010 0.250980 
#    z 0.115980 0.250980 2.136380 
# 
# From -- ./inp_files/591011.got.cif
#   From: 2010.05.17/outbox.cif.g08.bks.cpg/sg2_296_cif.got.tgz:591011.got - 2010.06.03 11:33:40.
