data_PCOD9089295
_publ_section_title
;
Structure prediction by ZEFSAII (Michael W. Deem and Ramdas Pophale) SiO2 
 PCOD9089295
Probable space group: P -1
;
_chemical_formula_sum "Si O2"
_cell_formula_units_Z 14
_cell_length_a 7.733473
_cell_length_b 11.205288
_cell_length_c 17.753030
_cell_angle_alpha 39.015990
_cell_angle_beta 51.822294
_cell_angle_gamma 81.357310
_cell_volume 567.376978
_symmetry_space_group_name_H-M "P -1"
_symmetry_group_IT_number 2
_symmetry_cell_setting 'triclinic'
loop_
_space_group_symop_operation_xyz
x,y,z
-x,-y,-z
loop_
_atom_site_type_symbol
_atom_site_label
_atom_site_fract_x
_atom_site_fract_y
_atom_site_fract_z
Si Si1 0.238576 0.848885 0.461275
Si Si2 0.173072 0.519873 0.515826
Si Si3 0.323827 0.713088 0.665750
Si Si4 0.644630 0.637518 0.233981
Si Si5 0.732940 0.450903 0.020688
Si Si6 0.218677 0.868636 0.057123
Si Si7 0.387399 0.559988 0.117776
O O1 0.300013 0.768992 0.407565
O O2 0.270219 0.728355 0.583739
O O3 0.887850 0.690175 0.639777
O O4 0.466649 0.152390 0.255631
O O5 0.427861 0.524232 0.418722
O O6 0.000000 0.500000 0.500000
O O7 0.957591 0.292998 0.742531
O O8 0.459321 0.582290 0.687645
O O9 0.057364 0.549788 0.877715
O O10 0.500000 0.000000 0.500000
O O11 0.979446 0.779667 0.099199
O O12 0.629927 0.844374 0.107774
O O13 0.681698 0.603488 0.012750
O O14 0.706514 0.496669 0.917227
O O15 0.406731 0.792109 0.021086
#
# Coordination Sequence:
#
# PCOD9089295 Si02
#       7
#     2   2   2   2   2   2   2
#     4  10  21  41  70  97 136 177 229 272 346 402
#     4  11  24  42  66 105 139 177 222 281 346 405
#     4  11  25  45  65 101 137 178 234 283 333 409
#     4  11  22  43  70  98 134 179 225 287 338 406
#     4  10  19  37  67  94 130 182 220 271 340 400
#     4  10  21  41  73  99 130 175 231 278 346 404
#     4   9  18  37  61 103 128 166 223 275 329 413
#
# _framework density 24.674952999999999
#
# number of rings (size 3 to 8) (size 9 to 14) (size 15 to 20)
#    0.000    1.714    4.286    1.714    2.000    1.143 
#   15.429    0.000    0.000    0.000    0.000    0.000 
#    0.000    0.000    0.000    0.000    0.000    0.000 
#
# Total GULP energy -78228.008371 kJ/mol
# GULP energy per Si atom -5587.714884 kJ/mol
# Density = 2.461879 g / cm^3
# Si number density = 24.674953 Si / 1000 Ang^3
#
#
#
# Elastic Constant Matrix: (Units=GPa)
#
#
# Indices 1 2 3 4 5 6 
#
# 1 76.9091 42.6319 16.3835 2.0246 1.1760 -4.1431
# 2 42.6319 225.4436 72.2662 -0.1505 -6.2182 -55.2277
# 3 16.3835 72.2662 120.1114 -0.8753 6.6662 -31.3624
# 4 2.0246 -0.1505 -0.8753 44.2346 -0.4090 -2.1606
# 5 1.1760 -6.2182 6.6662 -0.4090 14.4687 11.0684
# 6 -4.1431 -55.2277 -31.3624 -2.1606 11.0684 41.9106
#
#
#
# Elastic Compliance Matrix: (Units=1/GPa)
#
#
# Indices 1 2 3 4 5 6 
#
# 1 0.014953 -0.003489 -0.001126 -0.000918 0.001059 -0.004288
# 2 -0.003489 0.007894 -0.001566 0.000602 -0.003016 0.009714
# 3 -0.001126 -0.001566 0.013523 0.000763 -0.016164 0.012254
# 4 -0.000918 0.000602 0.000763 0.022791 -0.001563 0.002861
# 5 0.001059 -0.003016 -0.016164 -0.001563 0.109542 -0.044977
# 6 -0.004288 0.009714 0.012254 0.002861 -0.044977 0.057432
#
#
# Mechanical properties :
#
#
# Convention : Reuss Voigt Hill
#
# Bulk Modulus (GPa) = 41.64882 76.11414 58.88148
# Shear Modulus (GPa) = 20.28401 39.53495 29.90948
#
# Velocity S-wave (km/s) = 2.87025 4.00713 3.48536
# Velocity P-wave (km/s) = 5.28205 7.23347 6.33337
#
# Compressibility (1/GPa) = 0.02401029
#
# Stress axis : x y z
#
# Youngs Moduli (GPa) = 66.87620 126.67768 73.94608
#
# Poissons Ratio (x) = 0.44195 0.08325
# Poissons Ratio (y) = 0.23331 0.11576
# Poissons Ratio (z) = 0.07529 0.19832
#
# Static dielectric constant tensor:
#      x y z
#    x 2.113440 -0.008450 -0.013090 
#    y -0.008450 1.993950 -0.014710 
#    z -0.013090 -0.014710 1.898630 
# 
# From -- ./inp_files/559655.got.cif
#   From: 2010.05.17/outbox.cif.g08.bks.cpg/sg2_280_cif.got.tgz:559655.got - 2010.06.03 11:33:40.
