data_PCOD9089951
_publ_section_title
;
Structure prediction by ZEFSAII (Michael W. Deem and Ramdas Pophale) SiO2 
 PCOD9089951
Probable space group: P -1
;
_chemical_formula_sum "Si O2"
_cell_formula_units_Z 14
_cell_length_a 10.082601
_cell_length_b 8.819744
_cell_length_c 8.934151
_cell_angle_alpha 85.361549
_cell_angle_beta 73.590776
_cell_angle_gamma 45.894273
_cell_volume 539.462370
_symmetry_space_group_name_H-M "P -1"
_symmetry_group_IT_number 2
_symmetry_cell_setting 'triclinic'
loop_
_space_group_symop_operation_xyz
x,y,z
-x,-y,-z
loop_
_atom_site_type_symbol
_atom_site_label
_atom_site_fract_x
_atom_site_fract_y
_atom_site_fract_z
Si Si1 0.305650 0.385201 0.879675
Si Si2 0.562299 0.936453 0.746864
Si Si3 0.451765 0.752500 0.446678
Si Si4 0.790282 0.332284 0.528781
Si Si5 0.761402 0.036560 0.069908
Si Si6 0.842152 0.266736 0.868092
Si Si7 0.049198 0.315268 0.222632
O O1 0.455703 0.135101 0.881967
O O2 0.224413 0.534651 0.033796
O O3 0.430463 0.395828 0.729152
O O4 0.130272 0.461630 0.820914
O O5 0.413793 0.912627 0.795676
O O6 0.778949 0.729452 0.745454
O O7 0.575372 0.047180 0.594228
O O8 0.603810 0.585442 0.537067
O O9 0.263064 0.794411 0.504793
O O10 0.828554 0.294075 0.694415
O O11 0.959019 0.274283 0.379258
O O12 0.715628 0.226038 0.979912
O O13 0.934230 0.937045 0.139337
O O14 0.856023 0.855678 0.926893
#
# Coordination Sequence:
#
# PCOD9089951 Si02
#       7
#     2   2   2   2   2   2   2
#     4   8  20  40  63  94 122 159 217 251 311 365
#     4  10  20  40  68  93 118 165 222 254 297 377
#     4   8  19  37  63  92 119 163 215 252 296 380
#     4  10  19  38  62  95 127 161 210 257 313 377
#     4  10  22  39  61  95 127 157 219 257 306 378
#     4  10  21  38  64  94 126 167 197 268 326 356
#     4  10  20  37  66  91 122 167 208 256 309 369
#
# _framework density 25.951763
#
# number of rings (size 3 to 8) (size 9 to 14) (size 15 to 20)
#    0.857    1.714    0.000    1.286    0.000    5.143 
#    0.000    2.857    3.143    0.000    0.000    0.000 
#    0.000    0.000    0.000    0.000    0.000    0.000 
#
# Total GULP energy -78339.342904 kJ/mol
# GULP energy per Si atom -5595.667350 kJ/mol
# Density = 2.589270 g / cm^3
# Si number density = 25.951763 Si / 1000 Ang^3
#
#
#
# Elastic Constant Matrix: (Units=GPa)
#
#
# Indices 1 2 3 4 5 6 
#
# 1 105.6097 20.9821 64.1538 -5.8876 -39.1626 -33.1714
# 2 20.9821 64.3243 42.1316 -12.5676 -1.2069 -21.2034
# 3 64.1538 42.1316 168.2916 -26.1252 -17.5524 -7.1631
# 4 -5.8876 -12.5676 -26.1252 46.7717 0.5550 7.9838
# 5 -39.1626 -1.2069 -17.5524 0.5550 50.2876 -1.9504
# 6 -33.1714 -21.2034 -7.1631 7.9838 -1.9504 31.8735
#
#
#
# Elastic Compliance Matrix: (Units=1/GPa)
#
#
# Indices 1 2 3 4 5 6 
#
# 1 0.048859 0.014378 -0.017660 -0.010718 0.034725 0.061255
# 2 0.014378 0.028201 -0.010500 -0.002134 0.009493 0.032480
# 3 -0.017660 -0.010500 0.014340 0.007280 -0.010033 -0.024579
# 4 -0.010718 -0.002134 0.007280 0.026685 -0.006852 -0.018042
# 5 0.034725 0.009493 -0.010033 -0.006852 0.045464 0.044697
# 6 0.061255 0.032480 -0.024579 -0.018042 0.044697 0.118461
#
#
# Mechanical properties :
#
#
# Convention : Reuss Voigt Hill
#
# Bulk Modulus (GPa) = 15.66480 65.86228 40.76354
# Shear Modulus (GPa) = 15.11249 39.85041 27.48145
#
# Velocity S-wave (km/s) = 2.41577 3.92287 3.25767
# Velocity P-wave (km/s) = 3.71894 6.77882 5.46731
#
# Compressibility (1/GPa) = 0.06383740
#
# Stress axis : x y z
#
# Youngs Moduli (GPa) = 20.46708 35.45959 69.73312
#
# Poissons Ratio (x) = -0.50986 1.23148
# Poissons Ratio (y) = -0.29429 0.73220
# Poissons Ratio (z) = 0.36145 0.37233
#
# Static dielectric constant tensor:
#      x y z
#    x 2.067240 -0.009500 0.002370 
#    y -0.009500 2.027680 -0.014450 
#    z 0.002370 -0.014450 2.023240 
# 
# From -- ./inp_files/256656.got.cif
#   From: 2010.05.17/outbox.cif.g08.bks.cpg/sg2_129_cif.got.tgz:256656.got - 2010.06.03 11:33:40.
