data_PCOD9089454
_publ_section_title
;
Structure prediction by ZEFSAII (Michael W. Deem and Ramdas Pophale) SiO2 
 PCOD9089454
Probable space group: P -1
;
_chemical_formula_sum "Si O2"
_cell_formula_units_Z 16
_cell_length_a 21.714503
_cell_length_b 11.934646
_cell_length_c 13.801658
_cell_angle_alpha 148.002268
_cell_angle_beta 155.048691
_cell_angle_gamma 31.920250
_cell_volume 746.740762
_symmetry_space_group_name_H-M "P -1"
_symmetry_group_IT_number 2
_symmetry_cell_setting 'triclinic'
loop_
_space_group_symop_operation_xyz
x,y,z
-x,-y,-z
loop_
_atom_site_type_symbol
_atom_site_label
_atom_site_fract_x
_atom_site_fract_y
_atom_site_fract_z
Si Si1 0.476788 0.874448 0.970752
Si Si2 0.925535 0.356211 0.721850
Si Si3 0.996610 0.801611 0.649496
Si Si4 0.127719 0.103260 0.653275
Si Si5 0.152304 0.718019 0.162401
Si Si6 0.373026 0.469643 0.475926
Si Si7 0.917152 0.645586 0.630630
Si Si8 0.647397 0.038092 0.490434
O O1 0.469916 0.634570 0.752844
O O2 0.306050 0.011086 0.873784
O O3 0.500000 0.000000 0.000000
O O4 0.601898 0.883329 0.233834
O O5 0.013882 0.294321 0.700398
O O6 0.741639 0.499478 0.573316
O O7 0.934789 0.106880 0.587613
O O8 0.000000 0.500000 0.000000
O O9 0.862819 0.843435 0.407531
O O10 0.120511 0.580884 0.612958
O O11 0.966919 0.722873 0.654953
O O12 0.989884 0.056380 0.838615
O O13 0.258182 0.567579 0.289944
O O14 0.265588 0.815373 0.334505
O O15 0.064425 0.609064 0.883602
O O16 0.492093 0.219151 0.445601
O O17 0.767446 0.861556 0.604440
#
# Coordination Sequence:
#
# PCOD9089454 Si02
#       8
#     2   2   2   2   2   2   2   2
#     4  11  20  34  56  88 125 153 189 240 313 365
#     4  10  21  38  57  89 117 154 202 259 301 342
#     4  10  19  38  56  82 118 156 200 237 293 352
#     4  10  21  36  60  89 119 153 205 252 295 354
#     4  11  21  37  56  89 122 161 201 242 294 366
#     4  11  23  37  60  91 122 155 199 254 306 353
#     4  10  24  36  58  86 127 166 201 233 297 373
#     4  11  22  35  53  88 123 161 191 240 305 364
#
# _framework density 21.426445000000001
#
# number of rings (size 3 to 8) (size 9 to 14) (size 15 to 20)
#    0.000    1.500    3.750    3.375    3.500    4.000 
#    0.000    0.000    0.000    0.750    0.000    8.750 
#    0.000    0.000    0.000    0.000    0.000    0.000 
#
# Total GULP energy -89112.208014 kJ/mol
# GULP energy per Si atom -5569.513001 kJ/mol
# Density = 2.137768 g / cm^3
# Si number density = 21.426445 Si / 1000 Ang^3
#
#
#
# Elastic Constant Matrix: (Units=GPa)
#
#
# Indices 1 2 3 4 5 6 
#
# 1 64.2481 20.2479 29.8156 1.2898 -3.2065 -15.7361
# 2 20.2479 110.6137 30.6186 6.0037 -5.9202 -25.6253
# 3 29.8156 30.6186 122.2332 16.1689 -9.4694 -3.3391
# 4 1.2898 6.0037 16.1689 28.7268 -0.8185 -6.2325
# 5 -3.2065 -5.9202 -9.4694 -0.8185 25.4686 4.5934
# 6 -15.7361 -25.6253 -3.3391 -6.2325 4.5934 24.8641
#
#
#
# Elastic Compliance Matrix: (Units=1/GPa)
#
#
# Indices 1 2 3 4 5 6 
#
# 1 0.021653 0.000887 -0.005956 0.005515 -0.001910 0.015553
# 2 0.000887 0.012938 -0.003414 0.002221 -0.000623 0.014108
# 3 -0.005956 -0.003414 0.011524 -0.007188 0.004004 -0.008282
# 4 0.005515 0.002221 -0.007188 0.041479 -0.002971 0.015760
# 5 -0.001910 -0.000623 0.004004 -0.002971 0.042044 -0.009826
# 6 0.015553 0.014108 -0.008282 0.015760 -0.009826 0.069255
#
#
# Mechanical properties :
#
#
# Convention : Reuss Voigt Hill
#
# Bulk Modulus (GPa) = 34.30844 50.93990 42.62417
# Shear Modulus (GPa) = 22.16554 30.23943 26.20248
#
# Velocity S-wave (km/s) = 3.21985 3.76082 3.50080
# Velocity P-wave (km/s) = 5.46536 6.53332 6.02306
#
# Compressibility (1/GPa) = 0.02914735
#
# Stress axis : x y z
#
# Youngs Moduli (GPa) = 46.18380 77.29411 86.77641
#
# Poissons Ratio (x) = -0.06854 0.51687
# Poissons Ratio (y) = -0.04095 0.29623
# Poissons Ratio (z) = 0.27509 0.26386
#
# Static dielectric constant tensor:
#      x y z
#    x 1.806350 -0.000850 -0.009460 
#    y -0.000850 1.891280 0.026050 
#    z -0.009460 0.026050 1.774120 
# 
# From -- ./inp_files/543083.got.cif
#   From: 2010.05.17/outbox.cif.g08.bks.cpg/sg2_272_cif.got.tgz:543083.got - 2010.06.03 11:33:40.
