data_PCOD9089726
_publ_section_title
;
Structure prediction by ZEFSAII (Michael W. Deem and Ramdas Pophale) SiO2 
 PCOD9089726
Probable space group: P -1
;
_chemical_formula_sum "Si O2"
_cell_formula_units_Z 16
_cell_length_a 9.161932
_cell_length_b 9.045662
_cell_length_c 8.267846
_cell_angle_alpha 92.501509
_cell_angle_beta 89.163010
_cell_angle_gamma 76.833871
_cell_volume 666.344331
_symmetry_space_group_name_H-M "P -1"
_symmetry_group_IT_number 2
_symmetry_cell_setting 'triclinic'
loop_
_space_group_symop_operation_xyz
x,y,z
-x,-y,-z
loop_
_atom_site_type_symbol
_atom_site_label
_atom_site_fract_x
_atom_site_fract_y
_atom_site_fract_z
Si Si1 0.249254 0.656638 0.659944
Si Si2 0.164503 0.057386 0.360594
Si Si3 0.920791 0.233587 0.626585
Si Si4 0.909251 0.557942 0.164761
Si Si5 0.645111 0.746617 0.777315
Si Si6 0.585870 0.787976 0.137539
Si Si7 0.544895 0.465784 0.808152
Si Si8 0.631194 0.073408 0.352120
O O1 0.219238 0.672658 0.469968
O O2 0.124859 0.583313 0.741326
O O3 0.406585 0.547325 0.701528
O O4 0.259728 0.826107 0.721147
O O5 0.218755 0.173331 0.246393
O O6 0.034308 0.153937 0.479892
O O7 0.115321 0.909718 0.284550
O O8 0.296911 0.986331 0.481769
O O9 0.999545 0.341567 0.731763
O O10 0.745549 0.665632 0.137994
O O11 0.000000 0.500000 0.000000
O O12 0.668683 0.564781 0.781023
O O13 0.528848 0.807058 0.637032
O O14 0.562160 0.812496 0.947750
O O15 0.455488 0.711937 0.207227
O O16 0.608205 0.932174 0.241843
O O17 0.500000 0.500000 0.000000
#
# Coordination Sequence:
#
# PCOD9089726 Si02
#       8
#     2   2   2   2   2   2   2   2
#     4   9  20  36  62  85 114 157 196 237 305 354
#     4  10  21  37  61  88 119 154 197 247 293 352
#     4  10  21  40  59  83 123 162 194 244 304 342
#     4  11  23  39  59  87 119 159 202 247 288 357
#     4  10  20  35  61  87 115 152 203 242 287 365
#     4  10  20  37  58  87 119 157 192 242 308 341
#     4   8  17  36  58  83 122 153 188 243 300 350
#     4  10  19  38  61  85 117 155 192 245 303 350
#
# _framework density 24.011610999999998
#
# number of rings (size 3 to 8) (size 9 to 14) (size 15 to 20)
#    0.000    2.250    1.250    1.125    1.750    1.000 
#    0.000    5.625    2.750    0.000    0.000    0.000 
#    0.000    0.000    0.000    0.000    0.000    0.000 
#
# Total GULP energy -89379.385123 kJ/mol
# GULP energy per Si atom -5586.211570 kJ/mol
# Density = 2.395696 g / cm^3
# Si number density = 24.011611 Si / 1000 Ang^3
#
#
#
# Elastic Constant Matrix: (Units=GPa)
#
#
# Indices 1 2 3 4 5 6 
#
# 1 71.5449 55.7671 24.7471 -8.3562 -1.7506 30.0784
# 2 55.7671 187.9312 53.4576 0.1356 -24.5462 77.9039
# 3 24.7471 53.4576 47.1439 -0.4479 1.8297 19.9673
# 4 -8.3562 0.1356 -0.4479 38.6035 8.7110 2.4309
# 5 -1.7506 -24.5462 1.8297 8.7110 42.5328 -9.7461
# 6 30.0784 77.9039 19.9673 2.4309 -9.7461 71.9014
#
#
#
# Elastic Compliance Matrix: (Units=1/GPa)
#
#
# Indices 1 2 3 4 5 6 
#
# 1 0.020654 -0.003301 -0.005155 0.005339 -0.002890 -0.004204
# 2 -0.003301 0.014504 -0.010567 -0.001732 0.006652 -0.010439
# 3 -0.005155 -0.010567 0.034974 0.000798 -0.007320 0.002874
# 4 0.005339 -0.001732 0.000798 0.028886 -0.007314 -0.002547
# 5 -0.002890 0.006652 -0.007320 -0.007314 0.029096 0.000226
# 6 -0.004204 -0.010439 0.002874 -0.002547 0.000226 0.026296
#
#
# Mechanical properties :
#
#
# Convention : Reuss Voigt Hill
#
# Bulk Modulus (GPa) = 31.16619 63.84039 47.50329
# Shear Modulus (GPa) = 24.61237 42.11743 33.36490
#
# Velocity S-wave (km/s) = 3.20507 4.19267 3.73169
# Velocity P-wave (km/s) = 5.16763 7.07694 6.19627
#
# Compressibility (1/GPa) = 0.03208605
#
# Stress axis : x y z
#
# Youngs Moduli (GPa) = 48.41723 68.94788 28.59273
#
# Poissons Ratio (x) = 0.22760 0.14740
# Poissons Ratio (y) = 0.15983 0.30213
# Poissons Ratio (z) = 0.24960 0.72854
#
# Static dielectric constant tensor:
#      x y z
#    x 2.010970 0.001860 -0.025350 
#    y 0.001860 1.951220 -0.019310 
#    z -0.025350 -0.019310 1.908510 
# 
# From -- ./inp_files/158699.got.cif
#   From: 2010.05.17/outbox.cif.g08.bks.cpg/sg2_80_cif.got.tgz:158699.got - 2010.06.03 11:33:40.
