data_PCOD9089701
_publ_section_title
;
Structure prediction by ZEFSAII (Michael W. Deem and Ramdas Pophale) SiO2 
 PCOD9089701
Probable space group: P -1
;
_chemical_formula_sum "Si O2"
_cell_formula_units_Z 16
_cell_length_a 13.962935
_cell_length_b 5.458011
_cell_length_c 9.153572
_cell_angle_alpha 78.325004
_cell_angle_beta 81.425491
_cell_angle_gamma 75.702098
_cell_volume 658.378011
_symmetry_space_group_name_H-M "P -1"
_symmetry_group_IT_number 2
_symmetry_cell_setting 'triclinic'
loop_
_space_group_symop_operation_xyz
x,y,z
-x,-y,-z
loop_
_atom_site_type_symbol
_atom_site_label
_atom_site_fract_x
_atom_site_fract_y
_atom_site_fract_z
Si Si1 0.142630 0.888299 0.847930
Si Si2 0.285814 0.892297 0.246814
Si Si3 0.823329 0.588935 0.644144
Si Si4 0.313929 0.054002 0.897677
Si Si5 0.412470 0.380099 0.481088
Si Si6 0.211923 0.504747 0.654628
Si Si7 0.026302 0.635293 0.124471
Si Si8 0.487102 0.008502 0.271992
O O1 0.134882 0.731765 0.722583
O O2 0.259935 0.868935 0.839708
O O3 0.104019 0.785551 0.017716
O O4 0.072624 0.169980 0.822438
O O5 0.235858 0.643842 0.282190
O O6 0.231945 0.120429 0.338350
O O7 0.403608 0.852148 0.267263
O O8 0.279844 0.028735 0.073279
O O9 0.837406 0.589066 0.466288
O O10 0.918604 0.527346 0.735084
O O11 0.260723 0.321193 0.800462
O O12 0.433043 0.980400 0.872822
O O13 0.500000 0.500000 0.500000
O O14 0.310903 0.553513 0.544828
O O15 0.428169 0.274152 0.325620
O O16 0.433337 0.120481 0.605776
O O17 0.000000 0.500000 0.000000
#
# Coordination Sequence:
#
# PCOD9089701 Si02
#       8
#     2   2   2   2   2   2   2   2
#     4  11  23  44  72 101 137 187 239 296 368 432
#     4  12  25  48  69 111 147 197 245 296 360 426
#     4  12  27  46  77 106 150 188 244 303 361 433
#     4  11  24  44  68 105 147 190 248 293 361 420
#     4  10  19  38  60  97 143 191 237 287 356 414
#     4  11  24  41  69 105 143 190 234 301 355 431
#     4  11  25  48  75 103 136 189 237 301 372 441
#     4  10  22  37  66  99 142 196 238 294 346 426
#
# _framework density 24.302147999999999
#
# number of rings (size 3 to 8) (size 9 to 14) (size 15 to 20)
#    0.000    1.000    2.500    4.125    3.500    0.500 
#    0.000    3.750    0.000    0.000    0.000    0.000 
#    0.000    0.000    0.000    0.000    0.000    0.000 
#
# Total GULP energy -89222.896381 kJ/mol
# GULP energy per Si atom -5576.431024 kJ/mol
# Density = 2.424684 g / cm^3
# Si number density = 24.302148 Si / 1000 Ang^3
#
#
#
# Elastic Constant Matrix: (Units=GPa)
#
#
# Indices 1 2 3 4 5 6 
#
# 1 117.3156 30.9969 28.0673 -0.0595 7.3559 -6.4783
# 2 30.9969 110.1741 51.1788 23.9349 4.2186 -11.0577
# 3 28.0673 51.1788 130.3901 16.6600 10.6821 -17.9231
# 4 -0.0595 23.9349 16.6600 42.6446 -3.6568 -1.5834
# 5 7.3559 4.2186 10.6821 -3.6568 47.5094 -5.8671
# 6 -6.4783 -11.0577 -17.9231 -1.5834 -5.8671 38.1749
#
#
#
# Elastic Compliance Matrix: (Units=1/GPa)
#
#
# Indices 1 2 3 4 5 6 
#
# 1 0.009529 -0.002449 -0.001215 0.001803 -0.000811 0.000288
# 2 -0.002449 0.012820 -0.003562 -0.005777 -0.000236 0.001350
# 3 -0.001215 -0.003562 0.010148 -0.001980 -0.001534 0.003209
# 4 0.001803 -0.005777 -0.001980 0.027674 0.002719 -0.000731
# 5 -0.000811 -0.000236 -0.001534 0.002719 0.022067 0.002578
# 6 0.000288 0.001350 0.003209 -0.000731 0.002578 0.028508
#
#
# Mechanical properties :
#
#
# Convention : Reuss Voigt Hill
#
# Bulk Modulus (GPa) = 55.40925 64.26286 59.83606
# Shear Modulus (GPa) = 38.10638 42.17491 40.14064
#
# Velocity S-wave (km/s) = 3.96413 4.17038 4.06856
# Velocity P-wave (km/s) = 6.61831 7.04912 6.83711
#
# Compressibility (1/GPa) = 0.01804753
#
# Stress axis : x y z
#
# Youngs Moduli (GPa) = 104.94062 78.00609 98.53784
#
# Poissons Ratio (x) = 0.19101 0.11968
# Poissons Ratio (y) = 0.25696 0.35095
# Poissons Ratio (z) = 0.12746 0.27783
#
# Static dielectric constant tensor:
#      x y z
#    x 2.023470 0.034950 -0.025020 
#    y 0.034950 2.070990 -0.087560 
#    z -0.025020 -0.087560 1.971680 
# 
# From -- ./inp_files/288823.got.cif
#   From: 2010.05.17/outbox.cif.g08.bks.cpg/sg2_145_cif.got.tgz:288823.got - 2010.06.03 11:33:40.
