data_PCOD9089175
_publ_section_title
;
Structure prediction by ZEFSAII (Michael W. Deem and Ramdas Pophale) SiO2 
 PCOD9089175
Probable space group: P -1
;
_chemical_formula_sum "Si O2"
_cell_formula_units_Z 14
_cell_length_a 9.217746
_cell_length_b 9.261202
_cell_length_c 9.418049
_cell_angle_alpha 59.567853
_cell_angle_beta 108.876491
_cell_angle_gamma 130.034088
_cell_volume 530.774927
_symmetry_space_group_name_H-M "P -1"
_symmetry_group_IT_number 2
_symmetry_cell_setting 'triclinic'
loop_
_space_group_symop_operation_xyz
x,y,z
-x,-y,-z
loop_
_atom_site_type_symbol
_atom_site_label
_atom_site_fract_x
_atom_site_fract_y
_atom_site_fract_z
Si Si1 0.452556 0.146601 0.976760
Si Si2 0.720414 0.997426 0.697522
Si Si3 0.310980 0.490703 0.970840
Si Si4 0.836751 0.281816 0.352258
Si Si5 0.658757 0.824431 0.473838
Si Si6 0.252873 0.481538 0.455020
Si Si7 0.855180 0.786254 0.186940
O O1 0.271823 0.131781 0.867544
O O2 0.390346 0.070287 0.158534
O O3 0.631745 0.390616 0.918244
O O4 0.500000 0.000000 0.000000
O O5 0.739244 0.183514 0.523877
O O6 0.636198 0.820371 0.640001
O O7 0.934246 0.080674 0.754768
O O8 0.249955 0.622192 0.807071
O O9 0.157411 0.270913 0.955229
O O10 0.500000 0.500000 0.000000
O O11 0.061068 0.448322 0.362572
O O12 0.786370 0.071499 0.364486
O O13 0.456623 0.697590 0.393870
O O14 0.748185 0.703840 0.524820
O O15 0.238733 0.421330 0.646327
#
# Coordination Sequence:
#
# PCOD9089175 Si02
#       7
#     2   2   2   2   2   2   2
#     4  11  24  41  65  93 130 179 231 282 339 405
#     4   9  21  40  65  98 129 176 232 272 344 403
#     4  10  23  44  64  94 134 179 223 276 345 402
#     4   9  21  39  68  96 136 177 226 281 331 409
#     4   9  20  37  64 106 140 175 220 282 338 411
#     4  10  19  37  66 104 141 172 225 278 344 396
#     4  10  22  41  66  90 139 178 222 278 339 408
#
# _framework density 26.376531
#
# number of rings (size 3 to 8) (size 9 to 14) (size 15 to 20)
#    0.857    1.429    0.000    1.714    2.000    2.857 
#    2.571    0.714    0.000    2.571    0.000    0.000 
#    0.000    0.000    0.000    0.000    0.000    0.143 
#
# Total GULP energy -78232.601978 kJ/mol
# GULP energy per Si atom -5588.042998 kJ/mol
# Density = 2.631650 g / cm^3
# Si number density = 26.376531 Si / 1000 Ang^3
#
#
#
# Elastic Constant Matrix: (Units=GPa)
#
#
# Indices 1 2 3 4 5 6 
#
# 1 86.7945 45.7445 25.4378 24.7828 25.9589 -4.9857
# 2 45.7445 131.3320 31.7937 25.3343 21.8576 -15.4499
# 3 25.4378 31.7937 71.4615 9.8328 27.3427 -1.6928
# 4 24.7828 25.3343 9.8328 50.4163 3.1765 1.4753
# 5 25.9589 21.8576 27.3427 3.1765 51.6353 7.6834
# 6 -4.9857 -15.4499 -1.6928 1.4753 7.6834 49.2514
#
#
#
# Elastic Compliance Matrix: (Units=1/GPa)
#
#
# Indices 1 2 3 4 5 6 
#
# 1 0.017528 -0.003216 -0.001346 -0.006376 -0.006635 0.001945
# 2 -0.003216 0.010648 -0.002310 -0.003294 -0.001962 0.003340
# 3 -0.001346 -0.002310 0.018958 -0.001375 -0.008472 0.001154
# 4 -0.006376 -0.003294 -0.001375 0.024715 0.004274 -0.003133
# 5 -0.006635 -0.001962 -0.008472 0.004274 0.028675 -0.006180
# 6 0.001945 0.003340 0.001154 -0.003133 -0.006180 0.022646
#
#
# Mechanical properties :
#
#
# Convention : Reuss Voigt Hill
#
# Bulk Modulus (GPa) = 29.94909 55.06002 42.50456
# Shear Modulus (GPa) = 33.77340 42.70141 38.23740
#
# Velocity S-wave (km/s) = 3.58220 4.02794 3.81159
# Velocity P-wave (km/s) = 5.33747 6.52322 5.95991
#
# Compressibility (1/GPa) = 0.03338999
#
# Stress axis : x y z
#
# Youngs Moduli (GPa) = 57.05219 93.91001 52.74719
#
# Poissons Ratio (x) = 0.30203 0.07102
# Poissons Ratio (y) = 0.18349 0.12183
# Poissons Ratio (z) = 0.07682 0.21691
#
# Static dielectric constant tensor:
#      x y z
#    x 2.026100 -0.014160 -0.102220 
#    y -0.014160 2.163210 -0.028830 
#    z -0.102220 -0.028830 2.112810 
# 
# From -- ./inp_files/381797.got.cif
#   From: 2010.05.17/outbox.cif.g08.bks.cpg/sg2_191_cif.got.tgz:381797.got - 2010.06.03 11:33:40.
