data_PCOD9089198
_publ_section_title
;
Structure prediction by ZEFSAII (Michael W. Deem and Ramdas Pophale) SiO2 
 PCOD9089198
Probable space group: P -1
;
_chemical_formula_sum "Si O2"
_cell_formula_units_Z 14
_cell_length_a 11.869697
_cell_length_b 9.773480
_cell_length_c 12.123332
_cell_angle_alpha 121.626748
_cell_angle_beta 34.616304
_cell_angle_gamma 99.559095
_cell_volume 568.663173
_symmetry_space_group_name_H-M "P -1"
_symmetry_group_IT_number 2
_symmetry_cell_setting 'triclinic'
loop_
_space_group_symop_operation_xyz
x,y,z
-x,-y,-z
loop_
_atom_site_type_symbol
_atom_site_label
_atom_site_fract_x
_atom_site_fract_y
_atom_site_fract_z
Si Si1 0.977094 0.319915 0.435114
Si Si2 0.995313 0.254390 0.632470
Si Si3 0.124485 0.111364 0.850839
Si Si4 0.186629 0.538182 0.592730
Si Si5 0.488014 0.007029 0.149092
Si Si6 0.541439 0.800797 0.515200
Si Si7 0.278901 0.625159 0.869613
O O1 0.905244 0.271194 0.587515
O O2 0.000000 0.500000 0.500000
O O3 0.803396 0.376078 0.497052
O O4 0.243184 0.162453 0.119381
O O5 0.108660 0.385606 0.586794
O O6 0.226179 0.043248 0.384259
O O7 0.815472 0.327546 0.908987
O O8 0.310091 0.124004 0.630963
O O9 0.284251 0.911576 0.705948
O O10 0.012777 0.283342 0.101619
O O11 0.900033 0.187977 0.981361
O O12 0.451365 0.438855 0.380817
O O13 0.473943 0.135117 0.319621
O O14 0.500000 0.000000 0.000000
O O15 0.696598 0.570454 0.273945
#
# Coordination Sequence:
#
# PCOD9089198 Si02
#       7
#     2   2   2   2   2   2   2
#     4   9  20  38  65  90 124 164 213 262 312 378
#     4  10  21  41  66  90 128 165 212 264 311 374
#     4  11  22  38  60  92 129 163 214 255 311 382
#     4  11  22  40  61  95 126 168 213 255 320 376
#     4  10  19  37  66  91 116 169 211 257 321 370
#     4  11  22  39  67  91 129 169 208 262 319 374
#     4  12  24  40  65  94 131 171 205 262 320 372
#
# _framework density 24.619145
#
# number of rings (size 3 to 8) (size 9 to 14) (size 15 to 20)
#    0.000    1.429    4.286    1.714    0.000    1.143 
#    2.571    0.000    0.000   13.714    0.000    0.000 
#    0.000    0.000    0.000    0.000    0.000    0.000 
#
# Total GULP energy -77996.535327 kJ/mol
# GULP energy per Si atom -5571.181095 kJ/mol
# Density = 2.456311 g / cm^3
# Si number density = 24.619145 Si / 1000 Ang^3
#
#
#
# Elastic Constant Matrix: (Units=GPa)
#
#
# Indices 1 2 3 4 5 6 
#
# 1 78.2302 24.6111 18.9916 33.8930 2.4930 -31.9406
# 2 24.6111 76.0253 21.3225 9.4787 11.8560 -18.5640
# 3 18.9916 21.3225 120.3856 25.1477 28.0836 -15.9890
# 4 33.8930 9.4787 25.1477 -30.1605 -18.8860 -20.2750
# 5 2.4930 11.8560 28.0836 -18.8860 53.0623 0.4498
# 6 -31.9406 -18.5640 -15.9890 -20.2750 0.4498 29.6204
#
#
#
# Elastic Compliance Matrix: (Units=1/GPa)
#
#
# Indices 1 2 3 4 5 6 
#
# 1 0.021561 -0.001357 -0.001209 0.004972 0.001487 0.025128
# 2 -0.001357 0.016379 -0.000724 -0.000365 -0.003412 0.008213
# 3 -0.001209 -0.000724 0.009354 0.004137 -0.003312 0.006174
# 4 0.004972 -0.000365 0.004137 -0.016532 -0.008193 -0.003826
# 5 0.001487 -0.003412 -0.003312 -0.008193 0.018445 -0.008211
# 6 0.025128 0.008213 0.006174 -0.003826 -0.008211 0.066842
#
#
# Mechanical properties :
#
#
# Convention : Reuss Voigt Hill
#
# Bulk Modulus (GPa) = 24.56118 44.94352 34.75235
# Shear Modulus (GPa) = 36.71059 24.48550 30.59805
#
# Velocity S-wave (km/s) = 3.86572 3.15710 3.52924
# Velocity P-wave (km/s) = 5.47020 5.62004 5.54563
#
# Compressibility (1/GPa) = 0.04071466
#
# Stress axis : x y z
#
# Youngs Moduli (GPa) = 46.37992 61.05394 106.90560
#
# Poissons Ratio (x) = 0.08283 0.12927
# Poissons Ratio (y) = 0.06292 0.07738
# Poissons Ratio (z) = 0.05608 0.04419
#
# Static dielectric constant tensor:
#      x y z
#    x 2.086030 -0.009720 0.015790 
#    y -0.009720 2.031450 0.064780 
#    z 0.015790 0.064780 1.934140 
# 
# From -- ./inp_files/425879.got.cif
#   From: 2010.05.17/outbox.cif.g08.bks.cpg/sg2_213_cif.got.tgz:425879.got - 2010.06.03 11:33:40.
