data_PCOD9089313
_publ_section_title
;
Structure prediction by ZEFSAII (Michael W. Deem and Ramdas Pophale) SiO2 
 PCOD9089313
Probable space group: P -1
;
_chemical_formula_sum "Si O2"
_cell_formula_units_Z 14
_cell_length_a 9.598526
_cell_length_b 9.978682
_cell_length_c 7.919082
_cell_angle_alpha 105.572802
_cell_angle_beta 84.025598
_cell_angle_gamma 120.038424
_cell_volume 632.098982
_symmetry_space_group_name_H-M "P -1"
_symmetry_group_IT_number 2
_symmetry_cell_setting 'triclinic'
loop_
_space_group_symop_operation_xyz
x,y,z
-x,-y,-z
loop_
_atom_site_type_symbol
_atom_site_label
_atom_site_fract_x
_atom_site_fract_y
_atom_site_fract_z
Si Si1 0.261683 0.186265 0.427382
Si Si2 0.431791 0.653126 0.750042
Si Si3 0.698502 0.683182 0.191408
Si Si4 0.679096 0.100290 0.600301
Si Si5 0.080570 0.185687 0.111170
Si Si6 0.532304 0.865822 0.121561
Si Si7 0.796330 0.231388 0.284036
O O1 0.451264 0.311597 0.411440
O O2 0.204403 0.231023 0.621477
O O3 0.171154 0.195172 0.277093
O O4 0.255380 0.018113 0.398459
O O5 0.402930 0.501230 0.809464
O O6 0.266449 0.647966 0.719477
O O7 0.522325 0.805123 0.913581
O O8 0.592847 0.767903 0.195175
O O9 0.804005 0.713737 0.022253
O O10 0.638386 0.167741 0.794875
O O11 0.792015 0.221376 0.484836
O O12 0.500000 0.000000 0.500000
O O13 0.955959 0.247348 0.188806
O O14 0.000000 0.000000 0.000000
O O15 0.660123 0.052350 0.183081
#
# Coordination Sequence:
#
# PCOD9089313 Si02
#       7
#     2   2   2   2   2   2   2
#     4  12  23  43  70  98 129 171 216 272 329 372
#     4  12  24  40  70  97 132 171 215 273 327 376
#     4  12  25  43  65 101 134 168 219 265 327 393
#     4  10  19  37  67  98 123 159 225 272 308 376
#     4  12  26  43  66  96 135 171 219 266 322 394
#     4  11  20  40  68  98 128 164 221 273 313 375
#     4  11  22  43  64  98 130 170 222 266 318 388
#
# _framework density 22.148430000000001
#
# number of rings (size 3 to 8) (size 9 to 14) (size 15 to 20)
#    0.000    0.571    8.571    1.286    2.000    2.857 
#    0.000    0.714    0.000    0.000    0.000    0.000 
#    0.000    0.000    0.000    0.000    0.000    0.000 
#
# Total GULP energy -78303.335921 kJ/mol
# GULP energy per Si atom -5593.095423 kJ/mol
# Density = 2.209802 g / cm^3
# Si number density = 22.148430 Si / 1000 Ang^3
#
#
#
# Elastic Constant Matrix: (Units=GPa)
#
#
# Indices 1 2 3 4 5 6 
#
# 1 80.4126 9.1178 24.4878 -6.1467 5.9270 -12.9728
# 2 9.1178 52.2012 -3.3280 -19.7448 7.3638 -20.5990
# 3 24.4878 -3.3280 107.3974 -21.4920 1.8974 1.5686
# 4 -6.1467 -19.7448 -21.4920 27.6595 -5.6818 1.2263
# 5 5.9270 7.3638 1.8974 -5.6818 21.0989 -9.7251
# 6 -12.9728 -20.5990 1.5686 1.2263 -9.7251 19.6446
#
#
#
# Elastic Compliance Matrix: (Units=1/GPa)
#
#
# Indices 1 2 3 4 5 6 
#
# 1 0.015648 0.005865 -0.002597 0.005595 0.003666 0.018157
# 2 0.005865 0.081275 0.013621 0.072571 0.034700 0.100657
# 3 -0.002597 0.013621 0.014203 0.020922 0.006479 0.013335
# 4 0.005595 0.072571 0.020922 0.110326 0.043744 0.092889
# 5 0.003666 0.034700 0.006479 0.043744 0.080125 0.075225
# 6 0.018157 0.100657 0.013335 0.092889 0.075225 0.198819
#
#
# Mechanical properties :
#
#
# Convention : Reuss Voigt Hill
#
# Bulk Modulus (GPa) = 6.90108 33.39627 20.14868
# Shear Modulus (GPa) = 9.71024 27.66284 18.68654
#
# Velocity S-wave (km/s) = 2.09611 3.53792 2.90780
# Velocity P-wave (km/s) = 2.99681 5.63917 4.51559
#
# Compressibility (1/GPa) = 0.14490481
#
# Stress axis : x y z
#
# Youngs Moduli (GPa) = 63.90526 12.30384 70.40800
#
# Poissons Ratio (x) = -0.07216 0.18282
# Poissons Ratio (y) = -0.37480 -0.95901
# Poissons Ratio (z) = 0.16594 -0.16759
#
# Static dielectric constant tensor:
#      x y z
#    x 1.846250 0.023150 0.009250 
#    y 0.023150 1.805820 0.021390 
#    z 0.009250 0.021390 1.880290 
# 
# From -- ./inp_files/159260.got.cif
#   From: 2010.05.17/outbox.cif.g08.bks.cpg/sg2_80_cif.got.tgz:159260.got - 2010.06.03 11:33:40.
