data_PCOD9089010
_publ_section_title
;
Structure prediction by ZEFSAII (Michael W. Deem and Ramdas Pophale) SiO2 
 PCOD9089010
Probable space group: P -1
;
_chemical_formula_sum "Si O2"
_cell_formula_units_Z 14
_cell_length_a 14.958421
_cell_length_b 7.959975
_cell_length_c 6.934481
_cell_angle_alpha 80.515115
_cell_angle_beta 54.646402
_cell_angle_gamma 100.408530
_cell_volume 623.893641
_symmetry_space_group_name_H-M "P -1"
_symmetry_group_IT_number 2
_symmetry_cell_setting 'triclinic'
loop_
_space_group_symop_operation_xyz
x,y,z
-x,-y,-z
loop_
_atom_site_type_symbol
_atom_site_label
_atom_site_fract_x
_atom_site_fract_y
_atom_site_fract_z
Si Si1 0.447881 0.730101 0.157565
Si Si2 0.716621 0.162626 0.898458
Si Si3 0.908400 0.663503 0.051233
Si Si4 0.657853 0.609625 0.913847
Si Si5 0.131010 0.095777 0.243571
Si Si6 0.928852 0.463854 0.400382
Si Si7 0.328587 0.643660 0.721988
O O1 0.404011 0.864512 0.057144
O O2 0.379205 0.526409 0.194295
O O3 0.411676 0.730252 0.424650
O O4 0.581025 0.739303 0.974361
O O5 0.801963 0.337843 0.645425
O O6 0.789254 0.028563 0.831038
O O7 0.696663 0.213043 0.131824
O O8 0.935938 0.644856 0.242407
O O9 0.794654 0.487621 0.182628
O O10 0.879630 0.832124 0.971684
O O11 0.013294 0.642687 0.796151
O O12 0.793220 0.729022 0.756904
O O13 0.624801 0.480542 0.169838
O O14 0.000000 0.000000 0.500000
O O15 0.000000 0.500000 0.500000
#
# Coordination Sequence:
#
# PCOD9089010 Si02
#       7
#     2   2   2   2   2   2   2
#     4  10  20  41  67  95 120 166 225 262 310 373
#     4  11  22  36  62  94 132 166 205 265 325 373
#     4  10  21  36  62  87 119 170 218 256 311 370
#     4   9  22  40  67  93 123 169 215 269 310 372
#     4  11  23  42  62  95 141 168 205 265 326 386
#     4  11  20  36  62  87 120 166 223 264 298 374
#     4  10  19  37  64  93 122 162 216 267 310 376
#
# _framework density 22.439723999999998
#
# number of rings (size 3 to 8) (size 9 to 14) (size 15 to 20)
#    0.000    1.714    4.286    0.429    0.000    0.571 
#    0.000    5.714    0.000    0.000    0.000    0.000 
#    0.000    0.000    0.000    0.000    0.000    0.000 
#
# Total GULP energy -78216.806022 kJ/mol
# GULP energy per Si atom -5586.914716 kJ/mol
# Density = 2.238865 g / cm^3
# Si number density = 22.439724 Si / 1000 Ang^3
#
#
#
# Elastic Constant Matrix: (Units=GPa)
#
#
# Indices 1 2 3 4 5 6 
#
# 1 155.1752 46.6794 48.4115 -0.6682 6.6705 -18.4310
# 2 46.6794 57.4449 30.8626 -0.2096 6.8642 -21.9155
# 3 48.4115 30.8626 108.8612 18.1822 21.0863 -1.9529
# 4 -0.6682 -0.2096 18.1822 23.1859 -0.3597 -9.4287
# 5 6.6705 6.8642 21.0863 -0.3597 40.3003 0.0160
# 6 -18.4310 -21.9155 -1.9529 -9.4287 0.0160 40.9556
#
#
#
# Elastic Compliance Matrix: (Units=1/GPa)
#
#
# Indices 1 2 3 4 5 6 
#
# 1 0.009269 -0.004819 -0.003624 0.004040 0.001218 0.002349
# 2 -0.004819 0.033886 -0.009781 0.015604 0.000275 0.019090
# 3 -0.003624 -0.009781 0.017882 -0.018504 -0.007251 -0.010269
# 4 0.004040 0.015604 -0.018504 0.068162 0.006954 0.024975
# 5 0.001218 0.000275 -0.007251 0.006954 0.028421 0.001939
# 6 0.002349 0.019090 -0.010269 0.024975 0.001939 0.040948
#
#
# Mechanical properties :
#
#
# Convention : Reuss Voigt Hill
#
# Bulk Modulus (GPa) = 40.67086 63.70982 52.19034
# Shear Modulus (GPa) = 20.55834 33.92355 27.24094
#
# Velocity S-wave (km/s) = 3.03009 3.89236 3.48797
# Velocity P-wave (km/s) = 5.51415 6.97523 6.28727
#
# Compressibility (1/GPa) = 0.02458763
#
# Stress axis : x y z
#
# Youngs Moduli (GPa) = 107.88944 29.51104 55.92370
#
# Poissons Ratio (x) = 0.14222 0.20268
# Poissons Ratio (y) = 0.51995 0.54697
# Poissons Ratio (z) = 0.39101 0.28864
#
# Static dielectric constant tensor:
#      x y z
#    x 1.776340 -0.144670 -0.000860 
#    y -0.144670 1.699160 0.011080 
#    z -0.000860 0.011080 1.779340 
# 
# From -- ./inp_files/90276.got.cif
#   From: 2010.05.17/outbox.cif.g08.bks.cpg/sg2_46_cif.got.tgz:90276.got - 2010.06.03 11:33:40.
