data_PCOD9089969
_publ_section_title
;
Structure prediction by ZEFSAII (Michael W. Deem and Ramdas Pophale) SiO2 
 PCOD9089969
Probable space group: P -1
;
_chemical_formula_sum "Si O2"
_cell_formula_units_Z 14
_cell_length_a 9.079971
_cell_length_b 9.128444
_cell_length_c 11.338018
_cell_angle_alpha 120.592345
_cell_angle_beta 61.093227
_cell_angle_gamma 75.958658
_cell_volume 539.110195
_symmetry_space_group_name_H-M "P -1"
_symmetry_group_IT_number 2
_symmetry_cell_setting 'triclinic'
loop_
_space_group_symop_operation_xyz
x,y,z
-x,-y,-z
loop_
_atom_site_type_symbol
_atom_site_label
_atom_site_fract_x
_atom_site_fract_y
_atom_site_fract_z
Si Si1 0.257271 0.165589 0.868765
Si Si2 0.832507 0.302053 0.690526
Si Si3 0.842261 0.692976 0.289703
Si Si4 0.701714 0.450347 0.328872
Si Si5 0.844484 0.444968 0.506760
Si Si6 0.592316 0.178676 0.873279
Si Si7 0.333879 0.852713 0.905401
O O1 0.245080 0.153790 0.728562
O O2 0.479958 0.108688 0.807850
O O3 0.232892 0.019331 0.902197
O O4 0.052990 0.430233 0.075269
O O5 0.852572 0.292462 0.538383
O O6 0.765818 0.174476 0.729808
O O7 0.049907 0.248092 0.636581
O O8 0.618864 0.562801 0.906785
O O9 0.667000 0.666237 0.389018
O O10 0.500000 0.500000 0.500000
O O11 0.880064 0.353212 0.324305
O O12 0.739413 0.296985 0.142984
O O13 0.596968 0.681495 0.709337
O O14 0.000000 0.500000 0.500000
O O15 0.688646 0.065688 0.918338
#
# Coordination Sequence:
#
# PCOD9089969 Si02
#       7
#     2   2   2   2   2   2   2
#     4  10  22  37  59  87 121 149 188 246 293 340
#     4   9  18  34  59  86 108 150 193 238 280 349
#     4  10  21  37  59  87 116 154 192 233 297 344
#     4  10  22  37  60  85 114 159 196 228 284 348
#     4  10  19  38  63  81 114 157 199 228 280 347
#     4   9  19  34  59  84 115 145 189 238 298 335
#     4  10  22  38  58  90 117 149 192 243 291 334
#
# _framework density 25.968713999999999
#
# number of rings (size 3 to 8) (size 9 to 14) (size 15 to 20)
#    0.000    2.286    1.429    0.429   12.000    0.571 
#    0.000    2.857    0.000    1.714    0.000    0.000 
#    0.000    0.000    0.000    0.000    0.000    0.000 
#
# Total GULP energy -78343.493951 kJ/mol
# GULP energy per Si atom -5595.963854 kJ/mol
# Density = 2.590961 g / cm^3
# Si number density = 25.968714 Si / 1000 Ang^3
#
#
#
# Elastic Constant Matrix: (Units=GPa)
#
#
# Indices 1 2 3 4 5 6 
#
# 1 130.0934 41.3054 17.9583 -2.8458 -8.5168 -11.1968
# 2 41.3054 174.1256 35.1902 -10.8302 -3.2516 -30.3856
# 3 17.9583 35.1902 72.6244 -4.2714 -19.9299 -6.6540
# 4 -2.8458 -10.8302 -4.2714 44.0102 -2.7187 1.6907
# 5 -8.5168 -3.2516 -19.9299 -2.7187 31.0723 -12.5297
# 6 -11.1968 -30.3856 -6.6540 1.6907 -12.5297 47.9335
#
#
#
# Elastic Compliance Matrix: (Units=1/GPa)
#
#
# Indices 1 2 3 4 5 6 
#
# 1 0.008567 -0.001598 -0.000499 0.000207 0.002511 0.001568
# 2 -0.001598 0.007455 -0.002665 0.001341 0.000376 0.004034
# 3 -0.000499 -0.002665 0.019598 0.001914 0.014156 0.004547
# 4 0.000207 0.001341 0.001914 0.023447 0.004038 0.001392
# 5 0.002511 0.000376 0.014156 0.004038 0.048526 0.015332
# 6 0.001568 0.004034 0.004547 0.001392 0.015332 0.028375
#
#
# Mechanical properties :
#
#
# Convention : Reuss Voigt Hill
#
# Bulk Modulus (GPa) = 38.32135 62.86124 50.59130
# Shear Modulus (GPa) = 32.42705 43.42919 37.92812
#
# Velocity S-wave (km/s) = 3.53752 4.09389 3.82584
# Velocity P-wave (km/s) = 5.61019 6.82684 6.24820
#
# Compressibility (1/GPa) = 0.02609511
#
# Stress axis : x y z
#
# Youngs Moduli (GPa) = 116.72793 134.13759 51.02492
#
# Poissons Ratio (x) = 0.21434 0.02547
# Poissons Ratio (y) = 0.18652 0.13601
# Poissons Ratio (z) = 0.05826 0.35754
#
# Static dielectric constant tensor:
#      x y z
#    x 2.006020 0.031070 0.010840 
#    y 0.031070 2.066240 0.082590 
#    z 0.010840 0.082590 2.209920 
# 
# From -- ./inp_files/176237.got.cif
#   From: 2010.05.17/outbox.cif.g08.bks.cpg/sg2_89_cif.got.tgz:176237.got - 2010.06.03 11:33:40.
