data_PCOD9089513
_publ_section_title
;
Structure prediction by ZEFSAII (Michael W. Deem and Ramdas Pophale) SiO2 
 PCOD9089513
Probable space group: P -1
;
_chemical_formula_sum "Si O2"
_cell_formula_units_Z 16
_cell_length_a 11.322236
_cell_length_b 15.996249
_cell_length_c 8.836177
_cell_angle_alpha 113.710277
_cell_angle_beta 62.024764
_cell_angle_gamma 151.466738
_cell_volume 674.923063
_symmetry_space_group_name_H-M "P -1"
_symmetry_group_IT_number 2
_symmetry_cell_setting 'triclinic'
loop_
_space_group_symop_operation_xyz
x,y,z
-x,-y,-z
loop_
_atom_site_type_symbol
_atom_site_label
_atom_site_fract_x
_atom_site_fract_y
_atom_site_fract_z
Si Si1 0.224713 0.368226 0.626450
Si Si2 0.228839 0.882140 0.695362
Si Si3 0.442672 0.281012 0.744398
Si Si4 0.785859 0.001400 0.509046
Si Si5 0.105935 0.258638 0.935960
Si Si6 0.039158 0.412347 0.535534
Si Si7 0.633957 0.254892 0.844233
Si Si8 0.449179 0.079463 0.109126
O O1 0.500000 0.500000 0.500000
O O2 0.202836 0.377399 0.824636
O O3 0.113949 0.383435 0.599878
O O4 0.050631 0.178210 0.560004
O O5 0.185360 0.756357 0.563550
O O6 0.215035 0.936077 0.593599
O O7 0.481413 0.070119 0.761252
O O8 0.986562 0.753092 0.859240
O O9 0.251682 0.119546 0.624951
O O10 0.324003 0.310485 0.866457
O O11 0.710475 0.431394 0.602869
O O12 0.471895 0.240963 0.853251
O O13 0.572441 0.905700 0.691675
O O14 0.831135 0.061938 0.896470
O O15 0.905228 0.413827 0.712161
O O16 0.641897 0.251849 0.017797
O O17 0.500000 0.000000 0.000000
#
# Coordination Sequence:
#
# PCOD9089513 Si02
#       8
#     2   2   2   2   2   2   2   2
#     4  10  19  38  58  84 112 151 197 243 279 336
#     4   9  20  37  63  87 112 153 205 244 283 339
#     4  11  23  39  56  88 127 157 186 235 304 359
#     4   9  21  38  61  86 116 155 195 233 301 349
#     4  10  21  37  60  88 121 150 197 243 291 343
#     4  11  21  39  61  86 120 155 199 242 291 343
#     4  10  21  38  61  88 117 153 193 246 294 347
#     4  10  20  38  63  88 112 151 202 247 282 340
#
# _framework density 23.706403999999999
#
# number of rings (size 3 to 8) (size 9 to 14) (size 15 to 20)
#    0.000    2.000    1.250    3.000    0.000   10.000 
#    0.000    3.125    0.000    0.000    0.000    0.000 
#    0.000    0.000    0.000    0.000    0.000    0.000 
#
# Total GULP energy -89270.030801 kJ/mol
# GULP energy per Si atom -5579.376925 kJ/mol
# Density = 2.365245 g / cm^3
# Si number density = 23.706404 Si / 1000 Ang^3
#
#
#
# Elastic Constant Matrix: (Units=GPa)
#
#
# Indices 1 2 3 4 5 6 
#
# 1 116.3904 6.0875 42.4825 -10.4387 20.1394 2.5986
# 2 6.0875 43.9902 15.2550 -18.5467 1.9660 6.1469
# 3 42.4825 15.2550 179.0894 -36.4086 31.2015 -2.8302
# 4 -10.4387 -18.5467 -36.4086 35.0694 1.1806 -0.5051
# 5 20.1394 1.9660 31.2015 1.1806 33.3342 -12.5138
# 6 2.5986 6.1469 -2.8302 -0.5051 -12.5138 22.1325
#
#
#
# Elastic Compliance Matrix: (Units=1/GPa)
#
#
# Indices 1 2 3 4 5 6 
#
# 1 0.010669 0.001544 -0.000519 0.003650 -0.008639 -0.006549
# 2 0.001544 0.033184 0.003053 0.021370 -0.012317 -0.015483
# 3 -0.000519 0.003053 0.009823 0.011968 -0.011688 -0.005866
# 4 0.003650 0.021370 0.011968 0.053856 -0.022759 -0.016472
# 5 -0.008639 -0.012317 -0.011688 -0.022759 0.061695 0.037304
# 6 -0.006549 -0.015483 -0.005866 -0.016472 0.037304 0.070217
#
#
# Mechanical properties :
#
#
# Convention : Reuss Voigt Hill
#
# Bulk Modulus (GPa) = 16.17297 51.90222 34.03759
# Shear Modulus (GPa) = 19.84923 36.48355 28.16639
#
# Velocity S-wave (km/s) = 2.89674 3.92723 3.45067
# Velocity P-wave (km/s) = 4.24560 6.51962 5.50139
#
# Compressibility (1/GPa) = 0.06183158
#
# Stress axis : x y z
#
# Youngs Moduli (GPa) = 93.73152 30.13520 101.79894
#
# Poissons Ratio (x) = -0.04652 0.05279
# Poissons Ratio (y) = -0.14468 -0.31077
# Poissons Ratio (z) = 0.04860 -0.09200
#
# Static dielectric constant tensor:
#      x y z
#    x 1.893070 -0.008370 0.029090 
#    y -0.008370 1.958480 0.013480 
#    z 0.029090 0.013480 1.957070 
# 
# From -- ./inp_files/185920.got.cif
#   From: 2010.05.17/outbox.cif.g08.bks.cpg/sg2_93_cif.got.tgz:185920.got - 2010.06.03 11:33:40.
