data_PCOD9089519
_publ_section_title
;
Structure prediction by ZEFSAII (Michael W. Deem and Ramdas Pophale) SiO2 
 PCOD9089519
Probable space group: P -1
;
_chemical_formula_sum "Si O2"
_cell_formula_units_Z 16
_cell_length_a 5.039371
_cell_length_b 7.863585
_cell_length_c 19.365346
_cell_angle_alpha 115.899395
_cell_angle_beta 76.686474
_cell_angle_gamma 115.402355
_cell_volume 622.712626
_symmetry_space_group_name_H-M "P -1"
_symmetry_group_IT_number 2
_symmetry_cell_setting 'triclinic'
loop_
_space_group_symop_operation_xyz
x,y,z
-x,-y,-z
loop_
_atom_site_type_symbol
_atom_site_label
_atom_site_fract_x
_atom_site_fract_y
_atom_site_fract_z
Si Si1 0.780170 0.055108 0.943609
Si Si2 0.690273 0.896015 0.406029
Si Si3 0.963742 0.261901 0.537362
Si Si4 0.580470 0.724975 0.062030
Si Si5 0.528541 0.719329 0.801133
Si Si6 0.997452 0.637587 0.672090
Si Si7 0.941496 0.651979 0.257838
Si Si8 0.423011 0.045954 0.773372
O O1 0.699966 0.215139 0.927953
O O2 0.105160 0.154677 0.971110
O O3 0.752910 0.848031 0.868223
O O4 0.500000 0.000000 0.000000
O O5 0.347398 0.854400 0.424313
O O6 0.758896 0.786536 0.316903
O O7 0.778816 0.780259 0.444678
O O8 0.897994 0.131176 0.447897
O O9 0.005006 0.497576 0.581809
O O10 0.667922 0.791858 0.149076
O O11 0.500000 0.500000 0.000000
O O12 0.692342 0.654818 0.716832
O O13 0.264445 0.524543 0.811190
O O14 0.423662 0.888247 0.805651
O O15 0.037071 0.492865 0.705939
O O16 0.228330 0.870760 0.700683
O O17 0.255621 0.814749 0.247804
#
# Coordination Sequence:
#
# PCOD9089519 Si02
#       8
#     2   2   2   2   2   2   2   2
#     4  11  24  42  64  88 119 155 198 244 292 357
#     4   9  17  32  53  87 112 151 200 239 286 353
#     4   9  17  31  57  80 117 153 192 244 293 338
#     4  11  24  43  61  89 121 155 195 242 303 350
#     4  10  21  39  59  84 120 151 199 239 299 346
#     4  10  19  38  58  85 114 159 195 243 292 352
#     4  10  21  36  60  87 114 158 200 240 292 354
#     4  10  23  39  58  86 123 151 194 249 293 348
#
# _framework density 25.694037000000002
#
# number of rings (size 3 to 8) (size 9 to 14) (size 15 to 20)
#    0.000    2.000    2.500    0.750    1.750    2.000 
#    0.000    0.625    0.000    0.750    0.000    0.000 
#    0.000    0.000    0.000    0.000    0.000    0.000 
#
# Total GULP energy -89287.309348 kJ/mol
# GULP energy per Si atom -5580.456834 kJ/mol
# Density = 2.563556 g / cm^3
# Si number density = 25.694037 Si / 1000 Ang^3
#
#
#
# Elastic Constant Matrix: (Units=GPa)
#
#
# Indices 1 2 3 4 5 6 
#
# 1 91.6905 41.2352 16.6629 8.7098 -19.6172 18.4384
# 2 41.2352 170.3900 58.3924 46.0719 10.4193 30.7367
# 3 16.6629 58.3924 128.5006 56.6444 -4.9079 10.8343
# 4 8.7098 46.0719 56.6444 48.4474 8.5422 3.9692
# 5 -19.6172 10.4193 -4.9079 8.5422 36.6364 7.1376
# 6 18.4384 30.7367 10.8343 3.9692 7.1376 51.2326
#
#
#
# Elastic Compliance Matrix: (Units=1/GPa)
#
#
# Indices 1 2 3 4 5 6 
#
# 1 0.015977 -0.003258 0.001915 -0.003615 0.011661 -0.005545
# 2 -0.003258 0.009573 -0.000511 -0.007247 -0.002144 -0.003602
# 3 0.001915 -0.000511 0.018629 -0.023047 0.009800 -0.003902
# 4 -0.003615 -0.007247 -0.023047 0.057611 -0.018066 0.008576
# 5 0.011661 -0.002144 0.009800 -0.018066 0.041499 -0.009365
# 6 -0.005545 -0.003602 -0.003902 0.008576 -0.009365 0.025141
#
#
# Mechanical properties :
#
#
# Convention : Reuss Voigt Hill
#
# Bulk Modulus (GPa) = 24.70969 69.24020 46.97495
# Shear Modulus (GPa) = 26.93555 45.54930 36.24243
#
# Velocity S-wave (km/s) = 3.24129 4.21498 3.75979
# Velocity P-wave (km/s) = 4.86269 7.12001 6.09673
#
# Compressibility (1/GPa) = 0.04046995
#
# Stress axis : x y z
#
# Youngs Moduli (GPa) = 62.59063 104.45968 53.68085
#
# Poissons Ratio (x) = 0.34035 -0.10281
# Poissons Ratio (y) = 0.20393 0.02744
# Poissons Ratio (z) = -0.11987 0.05340
#
# Static dielectric constant tensor:
#      x y z
#    x 1.988920 0.005040 0.015710 
#    y 0.005040 2.009930 0.004250 
#    z 0.015710 0.004250 2.075790 
# 
# From -- ./inp_files/11191.got.cif
#   From: 2010.05.17/outbox.cif.g08.bks.cpg/sg2_6_cif.got.tgz:11191.got - 2010.06.03 11:33:40.
