data_PCOD9089723
_publ_section_title
;
Structure prediction by ZEFSAII (Michael W. Deem and Ramdas Pophale) SiO2 
 PCOD9089723
Probable space group: P -1
;
_chemical_formula_sum "Si O2"
_cell_formula_units_Z 16
_cell_length_a 9.403089
_cell_length_b 21.208861
_cell_length_c 14.546962
_cell_angle_alpha 159.073883
_cell_angle_beta 111.922766
_cell_angle_gamma 57.069940
_cell_volume 777.382024
_symmetry_space_group_name_H-M "P -1"
_symmetry_group_IT_number 2
_symmetry_cell_setting 'triclinic'
loop_
_space_group_symop_operation_xyz
x,y,z
-x,-y,-z
loop_
_atom_site_type_symbol
_atom_site_label
_atom_site_fract_x
_atom_site_fract_y
_atom_site_fract_z
Si Si1 0.334844 0.437816 0.716118
Si Si2 0.617713 0.202141 0.801923
Si Si3 0.844191 0.667538 0.318331
Si Si4 0.100936 0.978415 0.207536
Si Si5 0.748533 0.738816 0.174753
Si Si6 0.033571 0.421991 0.294895
Si Si7 0.002066 0.823164 0.820110
Si Si8 0.268177 0.959421 0.794410
O O1 0.297147 0.344663 0.669304
O O2 0.518436 0.241300 0.439909
O O3 0.148783 0.541276 0.747823
O O4 0.375268 0.613359 0.992843
O O5 0.773290 0.113518 0.798160
O O6 0.416211 0.292022 0.921920
O O7 0.673909 0.984730 0.465748
O O8 0.783984 0.708737 0.252850
O O9 0.861577 0.860656 0.612237
O O10 0.051294 0.439583 0.064324
O O11 0.878525 0.102393 0.346255
O O12 0.137723 0.789835 0.892154
O O13 0.000000 0.500000 0.500000
O O14 0.063790 0.591070 0.483385
O O15 0.201756 0.165676 0.993748
O O16 0.796227 0.946464 0.988762
O O17 0.000000 0.000000 0.000000
#
# Coordination Sequence:
#
# PCOD9089723 Si02
#       8
#     2   2   2   2   2   2   2   2
#     4  12  22  37  63  90 114 160 192 243 289 354
#     4  10  19  38  61  84 117 151 198 230 307 343
#     4  10  21  38  60  84 117 148 203 235 296 345
#     4   9  18  38  57  83 119 157 184 248 279 354
#     4   9  21  40  59  82 114 159 183 253 287 354
#     4  10  20  39  58  86 124 152 193 241 286 339
#     4   9  18  35  61  86 117 154 197 237 285 341
#     4   9  21  37  59  84 117 161 186 238 293 334
#
# _framework density 20.581900999999998
#
# number of rings (size 3 to 8) (size 9 to 14) (size 15 to 20)
#    0.750    1.500    1.250    1.500    0.000    3.000 
#    6.750    0.000    0.000    3.750    0.000    0.000 
#    0.000    0.000    0.000    0.000    0.000    0.000 
#
# Total GULP energy -89128.069306 kJ/mol
# GULP energy per Si atom -5570.504332 kJ/mol
# Density = 2.053506 g / cm^3
# Si number density = 20.581901 Si / 1000 Ang^3
#
#
#
# Elastic Constant Matrix: (Units=GPa)
#
#
# Indices 1 2 3 4 5 6 
#
# 1 85.2419 -1.8924 51.6466 -1.4426 31.3212 5.6997
# 2 -1.8924 27.1039 -2.6445 -4.7647 0.6504 -3.4581
# 3 51.6466 -2.6445 94.4466 12.3836 32.9810 2.3562
# 4 -1.4426 -4.7647 12.3836 24.0309 -3.9347 6.4974
# 5 31.3212 0.6504 32.9810 -3.9347 43.3724 3.8866
# 6 5.6997 -3.4581 2.3562 6.4974 3.8866 26.6010
#
#
#
# Elastic Compliance Matrix: (Units=1/GPa)
#
#
# Indices 1 2 3 4 5 6 
#
# 1 0.020293 0.001261 -0.009534 0.006387 -0.006490 -0.003951
# 2 0.001261 0.038595 -0.000242 0.006815 -0.000978 0.003247
# 3 -0.009534 -0.000242 0.021626 -0.015108 -0.011415 0.005454
# 4 0.006387 0.006815 -0.015108 0.057403 0.013336 -0.015114
# 5 -0.006490 -0.000978 -0.011415 0.013336 0.038236 -0.006569
# 6 -0.003951 0.003247 0.005454 -0.015114 -0.006569 0.043030
#
#
# Mechanical properties :
#
#
# Convention : Reuss Voigt Hill
#
# Bulk Modulus (GPa) = 15.75194 33.44575 24.59884
# Shear Modulus (GPa) = 19.42694 29.44637 24.43666
#
# Velocity S-wave (km/s) = 3.07560 3.78655 3.44944
# Velocity P-wave (km/s) = 4.50359 5.95001 5.27660
#
# Compressibility (1/GPa) = 0.06348425
#
# Stress axis : x y z
#
# Youngs Moduli (GPa) = 49.27864 25.90993 46.24071
#
# Poissons Ratio (x) = -0.03267 0.44086
# Poissons Ratio (y) = -0.06214 0.01118
# Poissons Ratio (z) = 0.46983 0.00627
#
# Static dielectric constant tensor:
#      x y z
#    x 1.756310 0.030260 0.038130 
#    y 0.030260 1.774700 -0.001690 
#    z 0.038130 -0.001690 1.771370 
# 
# From -- ./inp_files/563197.got.cif
#   From: 2010.05.17/outbox.cif.g08.bks.cpg/sg2_282_cif.got.tgz:563197.got - 2010.06.03 11:33:40.
