data_PCOD9089985
_publ_section_title
;
Structure prediction by ZEFSAII (Michael W. Deem and Ramdas Pophale) SiO2 
 PCOD9089985
Probable space group: P -1
;
_chemical_formula_sum "Si O2"
_cell_formula_units_Z 16
_cell_length_a 9.749296
_cell_length_b 12.841920
_cell_length_c 12.805407
_cell_angle_alpha 135.196400
_cell_angle_beta 134.644710
_cell_angle_gamma 55.423446
_cell_volume 796.172206
_symmetry_space_group_name_H-M "P -1"
_symmetry_group_IT_number 2
_symmetry_cell_setting 'triclinic'
loop_
_space_group_symop_operation_xyz
x,y,z
-x,-y,-z
loop_
_atom_site_type_symbol
_atom_site_label
_atom_site_fract_x
_atom_site_fract_y
_atom_site_fract_z
Si Si1 0.668886 0.857184 0.978951
Si Si2 0.425096 0.143809 0.299910
Si Si3 0.148896 0.947520 0.632020
Si Si4 0.976806 0.193127 0.341961
Si Si5 0.537284 0.320378 0.888731
Si Si6 0.828053 0.056992 0.868012
Si Si7 0.678506 0.647604 0.413489
Si Si8 0.433522 0.683967 0.870493
O O1 0.706237 0.831361 0.858029
O O2 0.579827 0.719289 0.883832
O O3 0.829108 0.914747 0.179345
O O4 0.500000 0.000000 0.000000
O O5 0.389609 0.274430 0.458514
O O6 0.643539 0.111131 0.350876
O O7 0.359800 0.006129 0.230093
O O8 0.000000 0.000000 0.500000
O O9 0.076855 0.820258 0.575576
O O10 0.099559 0.324183 0.468388
O O11 0.770690 0.210762 0.184023
O O12 0.108355 0.040133 0.269089
O O13 0.758055 0.232196 0.939321
O O14 0.432218 0.279788 0.697834
O O15 0.500000 0.500000 0.000000
O O16 0.472016 0.284138 0.945221
O O17 0.000000 0.000000 0.000000
O O18 0.629528 0.479964 0.276412
#
# Coordination Sequence:
#
# PCOD9089985 Si02
#       8
#     2   2   2   2   2   2   2   2
#     4  10  19  38  63  85 119 164 215 253 325 378
#     4  10  22  41  60  93 126 165 216 267 318 384
#     4  11  24  38  63  94 127 164 209 270 327 378
#     4  11  22  38  62  95 124 164 219 266 312 387
#     4  10  22  39  60  90 132 170 205 266 329 373
#     4  11  21  36  67  94 122 161 224 266 311 380
#     4  10  25  38  62  94 131 167 213 272 328 366
#     4  11  20  41  64  90 127 174 214 261 323 394
#
# _framework density 20.096155
#
# number of rings (size 3 to 8) (size 9 to 14) (size 15 to 20)
#    0.000    1.500    3.750    2.625    5.250    1.500 
#    0.000    0.000    0.000    0.750    0.000    0.000 
#    0.000    0.000    0.000    0.000    0.000    0.000 
#
# Total GULP energy -89157.492466 kJ/mol
# GULP energy per Si atom -5572.343279 kJ/mol
# Density = 2.005042 g / cm^3
# Si number density = 20.096155 Si / 1000 Ang^3
#
#
#
# Elastic Constant Matrix: (Units=GPa)
#
#
# Indices 1 2 3 4 5 6 
#
# 1 131.5030 29.4716 41.5053 4.1036 -6.4782 23.0976
# 2 29.4716 81.7387 27.6830 -0.6098 -6.2095 2.4198
# 3 41.5053 27.6830 104.9423 -11.1214 -20.8676 6.1377
# 4 4.1036 -0.6098 -11.1214 40.2308 10.8908 -4.4240
# 5 -6.4782 -6.2095 -20.8676 10.8908 34.9222 0.7708
# 6 23.0976 2.4198 6.1377 -4.4240 0.7708 24.9572
#
#
#
# Elastic Compliance Matrix: (Units=1/GPa)
#
#
# Indices 1 2 3 4 5 6 
#
# 1 0.011105 -0.002542 -0.003329 -0.003419 0.000903 -0.009847
# 2 -0.002542 0.014061 -0.002736 -0.000223 0.000427 0.001610
# 3 -0.003329 -0.002736 0.012966 0.002325 0.005910 0.000387
# 4 -0.003419 -0.000223 0.002325 0.029032 -0.008515 0.008023
# 5 0.000903 0.000427 0.005910 -0.008515 0.035175 -0.004926
# 6 -0.009847 0.001610 0.000387 0.008023 -0.004926 0.050505
#
#
# Mechanical properties :
#
#
# Convention : Reuss Voigt Hill
#
# Bulk Modulus (GPa) = 47.80574 57.27820 52.54197
# Shear Modulus (GPa) = 28.24371 34.65698 31.45034
#
# Velocity S-wave (km/s) = 3.75297 4.15728 3.96029
# Velocity P-wave (km/s) = 6.52839 7.18387 6.86396
#
# Compressibility (1/GPa) = 0.02091799
#
# Stress axis : x y z
#
# Youngs Moduli (GPa) = 90.04684 71.12046 77.12245
#
# Poissons Ratio (x) = 0.18081 0.25670
# Poissons Ratio (y) = 0.22892 0.21104
# Poissons Ratio (z) = 0.29972 0.19461
#
# Static dielectric constant tensor:
#      x y z
#    x 1.722390 0.009640 0.001870 
#    y 0.009640 1.753050 -0.000680 
#    z 0.001870 -0.000680 1.774210 
# 
# From -- ./inp_files/261960.got.cif
#   From: 2010.05.17/outbox.cif.g08.bks.cpg/sg2_131_cif.got.tgz:261960.got - 2010.06.03 11:33:40.
