data_PCOD9089540
_publ_section_title
;
Structure prediction by ZEFSAII (Michael W. Deem and Ramdas Pophale) SiO2 
 PCOD9089540
Probable space group: P -1
;
_chemical_formula_sum "Si O2"
_cell_formula_units_Z 16
_cell_length_a 10.335168
_cell_length_b 8.002338
_cell_length_c 16.851974
_cell_angle_alpha 94.251822
_cell_angle_beta 146.559651
_cell_angle_gamma 81.979566
_cell_volume 758.252229
_symmetry_space_group_name_H-M "P -1"
_symmetry_group_IT_number 2
_symmetry_cell_setting 'triclinic'
loop_
_space_group_symop_operation_xyz
x,y,z
-x,-y,-z
loop_
_atom_site_type_symbol
_atom_site_label
_atom_site_fract_x
_atom_site_fract_y
_atom_site_fract_z
Si Si1 0.077752 0.450414 0.656390
Si Si2 0.592717 0.053205 0.277296
Si Si3 0.353804 0.099266 0.000839
Si Si4 0.581603 0.511923 0.951485
Si Si5 0.529288 0.836749 0.617531
Si Si6 0.960546 0.775600 0.505657
Si Si7 0.865516 0.012692 0.695524
Si Si8 0.948072 0.634184 0.750626
O O1 0.361731 0.449283 0.791737
O O2 0.960118 0.613767 0.553773
O O3 0.006994 0.288451 0.571015
O O4 0.996000 0.485015 0.705773
O O5 0.475994 0.175380 0.290939
O O6 0.819954 0.126530 0.359088
O O7 0.428933 0.011481 0.120234
O O8 0.712432 0.893936 0.383637
O O9 0.404322 0.290777 0.047124
O O10 0.081216 0.100261 0.839574
O O11 0.500000 0.000000 0.000000
O O12 0.500000 0.500000 0.000000
O O13 0.841766 0.403230 0.078435
O O14 0.681274 0.983834 0.670520
O O15 0.687471 0.669976 0.656167
O O16 0.280429 0.889346 0.447098
O O17 0.969473 0.814429 0.724112
#
# Coordination Sequence:
#
# PCOD9089540 Si02
#       8
#     2   2   2   2   2   2   2   2
#     4  10  19  38  58  90 122 157 199 245 315 355
#     4  11  24  39  60  92 125 156 207 254 299 359
#     4  12  25  38  62  94 122 161 205 255 305 359
#     4  10  21  36  59  88 122 152 200 251 305 358
#     4   9  21  41  66  87 123 162 203 252 296 360
#     4  10  23  35  61  89 123 157 196 260 303 356
#     4   9  21  40  66  88 121 161 207 246 296 364
#     4   9  19  37  65  84 117 159 199 246 296 369
#
# _framework density 21.101157000000001
#
# number of rings (size 3 to 8) (size 9 to 14) (size 15 to 20)
#    0.750    1.250    1.250    2.250    8.750    0.500 
#    0.000    3.125    0.000    0.000    0.000    0.000 
#    0.000    0.000    0.000    0.000    0.000    0.000 
#
# Total GULP energy -89196.462677 kJ/mol
# GULP energy per Si atom -5574.778917 kJ/mol
# Density = 2.105313 g / cm^3
# Si number density = 21.101157 Si / 1000 Ang^3
#
#
#
# Elastic Constant Matrix: (Units=GPa)
#
#
# Indices 1 2 3 4 5 6 
#
# 1 58.8427 -3.9357 30.7098 0.2521 -5.3585 -11.7771
# 2 -3.9357 41.5710 21.3003 -9.5938 10.2662 -11.1070
# 3 30.7098 21.3003 147.2825 -9.5938 6.8967 -12.3278
# 4 0.2521 -9.5938 -9.5938 28.3973 -6.2469 2.9888
# 5 -5.3585 10.2662 6.8967 -6.2469 18.4748 4.5273
# 6 -11.7771 -11.1070 -12.3278 2.9888 4.5273 26.5937
#
#
#
# Elastic Compliance Matrix: (Units=1/GPa)
#
#
# Indices 1 2 3 4 5 6 
#
# 1 0.022180 0.006757 -0.004862 -0.000186 0.001962 0.010078
# 2 0.006757 0.038538 -0.003969 0.004783 -0.021342 0.020344
# 3 -0.004862 -0.003969 0.008583 0.001088 -0.002142 0.000410
# 4 -0.000186 0.004783 0.001088 0.040143 0.011446 -0.004041
# 5 0.001962 -0.021342 -0.002142 0.011446 0.076967 -0.023427
# 6 0.010078 0.020344 0.000410 -0.004041 -0.023427 0.055195
#
#
# Mechanical properties :
#
#
# Convention : Reuss Voigt Hill
#
# Bulk Modulus (GPa) = 15.34853 38.20501 26.77677
# Shear Modulus (GPa) = 18.69351 28.00129 23.34740
#
# Velocity S-wave (km/s) = 2.97964 3.64676 3.32994
# Velocity P-wave (km/s) = 4.37347 5.98972 5.24423
#
# Compressibility (1/GPa) = 0.06515280
#
# Stress axis : x y z
#
# Youngs Moduli (GPa) = 45.08468 25.94825 116.50973
#
# Poissons Ratio (x) = -0.17532 0.56652
# Poissons Ratio (y) = -0.30462 0.46237
# Poissons Ratio (z) = 0.21922 0.10298
#
# Static dielectric constant tensor:
#      x y z
#    x 1.817250 -0.010490 -0.007310 
#    y -0.010490 1.845020 -0.050740 
#    z -0.007310 -0.050740 1.833430 
# 
# From -- ./inp_files/565390.got.cif
#   From: 2010.05.17/outbox.cif.g08.bks.cpg/sg2_283_cif.got.tgz:565390.got - 2010.06.03 11:33:40.
