data_PCOD9089138
_publ_section_title
;
Structure prediction by ZEFSAII (Michael W. Deem and Ramdas Pophale) SiO2 
 PCOD9089138
Probable space group: P -1
;
_chemical_formula_sum "Si O2"
_cell_formula_units_Z 16
_cell_length_a 9.406348
_cell_length_b 11.803440
_cell_length_c 26.340051
_cell_angle_alpha 150.937416
_cell_angle_beta 137.324726
_cell_angle_gamma 63.178609
_cell_volume 783.494345
_symmetry_space_group_name_H-M "P -1"
_symmetry_group_IT_number 2
_symmetry_cell_setting 'triclinic'
loop_
_space_group_symop_operation_xyz
x,y,z
-x,-y,-z
loop_
_atom_site_type_symbol
_atom_site_label
_atom_site_fract_x
_atom_site_fract_y
_atom_site_fract_z
Si Si1 0.916195 0.869010 0.660975
Si Si2 0.475554 0.301927 0.369373
Si Si3 0.705655 0.767890 0.347334
Si Si4 0.293294 0.312315 0.567339
Si Si5 0.794437 0.306433 0.161017
Si Si6 0.831016 0.710966 0.809306
Si Si7 0.263142 0.807451 0.788715
Si Si8 0.727038 0.189294 0.800032
O O1 0.737299 0.527625 0.495084
O O2 0.903861 0.905183 0.612105
O O3 0.185347 0.970708 0.796547
O O4 0.794804 0.013852 0.713142
O O5 0.500000 0.500000 0.500000
O O6 0.257760 0.220235 0.238933
O O7 0.401263 0.008552 0.260647
O O8 0.696937 0.787732 0.413497
O O9 0.672187 0.479114 0.207444
O O10 0.491232 0.789994 0.274109
O O11 0.000000 0.000000 0.500000
O O12 0.576120 0.478883 0.682133
O O13 0.220235 0.534892 0.643932
O O14 0.884089 0.279534 0.229889
O O15 0.016322 0.417119 0.221270
O O16 0.561177 0.002250 0.959388
O O17 0.000000 0.000000 0.000000
O O18 0.000000 0.500000 0.000000
#
# Coordination Sequence:
#
# PCOD9089138 Si02
#       8
#     2   2   2   2   2   2   2   2
#     4  10  21  39  68  93 126 162 217 275 323 372
#     4   9  21  37  65  93 121 163 217 267 310 380
#     4  11  27  43  63  89 131 179 219 254 318 407
#     4  10  23  40  64  94 127 162 210 271 331 382
#     4  10  21  37  62  92 130 167 211 261 322 387
#     4  11  21  38  66 101 126 159 213 281 333 374
#     4  10  19  37  65  95 125 162 209 269 324 379
#     4  11  24  42  65  94 130 177 219 256 317 405
#
# _framework density 20.421334999999999
#
# number of rings (size 3 to 8) (size 9 to 14) (size 15 to 20)
#    0.000    1.750    1.250    2.625   10.500    0.500 
#    0.000    0.000    0.000    2.250    0.000    0.000 
#    0.000    0.000    0.000    0.000    0.000    0.000 
#
# Total GULP energy -89240.581164 kJ/mol
# GULP energy per Si atom -5577.536323 kJ/mol
# Density = 2.037485 g / cm^3
# Si number density = 20.421335 Si / 1000 Ang^3
#
#
#
# Elastic Constant Matrix: (Units=GPa)
#
#
# Indices 1 2 3 4 5 6 
#
# 1 117.6236 51.6222 30.1749 -16.6937 4.9654 13.4384
# 2 51.6222 136.1008 44.3063 -18.9864 3.4926 7.7319
# 3 30.1749 44.3063 72.4799 -10.5909 -6.8315 4.2389
# 4 -16.6937 -18.9864 -10.5909 29.7620 4.4921 2.4324
# 5 4.9654 3.4926 -6.8315 4.4921 30.2319 -3.9868
# 6 13.4384 7.7319 4.2389 2.4324 -3.9868 28.6749
#
#
#
# Elastic Compliance Matrix: (Units=1/GPa)
#
#
# Indices 1 2 3 4 5 6 
#
# 1 0.011771 -0.002485 -0.002676 0.005067 -0.003716 -0.005397
# 2 -0.002485 0.010690 -0.005052 0.004194 -0.002818 -0.001719
# 3 -0.002676 -0.005052 0.018613 0.001085 0.005132 0.000486
# 4 0.005067 0.004194 0.001085 0.041442 -0.008329 -0.008339
# 5 -0.003716 -0.002818 0.005132 -0.008329 0.037420 0.007652
# 6 -0.005397 -0.001719 0.000486 -0.008339 0.007652 0.039566
#
#
# Mechanical properties :
#
#
# Convention : Reuss Voigt Hill
#
# Bulk Modulus (GPa) = 48.43029 64.26789 56.34909
# Shear Modulus (GPa) = 26.76498 31.07382 28.91940
#
# Velocity S-wave (km/s) = 3.62420 3.90505 3.76724
# Velocity P-wave (km/s) = 6.42496 7.20221 6.82466
#
# Compressibility (1/GPa) = 0.02064823
#
# Stress axis : x y z
#
# Youngs Moduli (GPa) = 84.95196 93.54799 53.72508
#
# Poissons Ratio (x) = 0.23245 0.14376
# Poissons Ratio (y) = 0.21109 0.27144
# Poissons Ratio (z) = 0.22732 0.47264
#
# Static dielectric constant tensor:
#      x y z
#    x 1.740220 0.010110 0.040330 
#    y 0.010110 1.755000 -0.013710 
#    z 0.040330 -0.013710 1.629120 
# 
# From -- ./inp_files/616971.got.cif
#   From: 2010.05.17/outbox.cif.g08.bks.cpg/sg2_309_cif.got.tgz:616971.got - 2010.06.03 11:33:40.
