data_PCOD9089061
_publ_section_title
;
Structure prediction by ZEFSAII (Michael W. Deem and Ramdas Pophale) SiO2 
 PCOD9089061
Probable space group: P -1
;
_chemical_formula_sum "Si O2"
_cell_formula_units_Z 14
_cell_length_a 13.820419
_cell_length_b 12.459184
_cell_length_c 8.802616
_cell_angle_alpha 100.316868
_cell_angle_beta 80.305056
_cell_angle_gamma 30.879600
_cell_volume 589.401678
_symmetry_space_group_name_H-M "P -1"
_symmetry_group_IT_number 2
_symmetry_cell_setting 'triclinic'
loop_
_space_group_symop_operation_xyz
x,y,z
-x,-y,-z
loop_
_atom_site_type_symbol
_atom_site_label
_atom_site_fract_x
_atom_site_fract_y
_atom_site_fract_z
Si Si1 0.637961 0.522637 0.791143
Si Si2 0.099922 0.880909 0.773358
Si Si3 0.633876 0.613449 0.149652
Si Si4 0.098708 0.129155 0.127752
Si Si5 0.922264 0.424184 0.534774
Si Si6 0.360664 0.717321 0.417553
Si Si7 0.621441 0.913306 0.602373
O O1 0.822926 0.413640 0.627792
O O2 0.655159 0.378503 0.700556
O O3 0.664957 0.516984 0.961253
O O4 0.362187 0.847300 0.910794
O O5 0.141921 0.931871 0.651528
O O6 0.376604 0.556434 0.636223
O O7 0.933428 0.950149 0.786286
O O8 0.000000 0.000000 0.000000
O O9 0.406127 0.782347 0.332869
O O10 0.879148 0.359046 0.122013
O O11 0.555344 0.818380 0.204026
O O12 0.054148 0.268051 0.297655
O O13 0.693617 0.736134 0.639443
O O14 0.120348 0.287805 0.546069
O O15 0.500000 0.000000 0.500000
#
# Coordination Sequence:
#
# PCOD9089061 Si02
#       7
#     2   2   2   2   2   2   2
#     4  12  24  45  69 105 143 182 230 281 349 422
#     4  10  19  37  65 100 137 186 229 267 340 413
#     4  11  25  43  68 107 139 183 237 283 345 416
#     4  11  22  43  68  98 141 181 227 285 340 411
#     4  11  25  46  74  96 134 190 228 288 353 404
#     4  10  22  39  66 101 146 180 226 282 343 410
#     4  11  24  48  73  97 138 180 238 295 343 406
#
# _framework density 23.752901999999999
#
# number of rings (size 3 to 8) (size 9 to 14) (size 15 to 20)
#    0.000    1.143    5.714    0.429    0.000    1.714 
#    5.143    2.857    0.000    0.000    0.000    0.000 
#    0.000    0.000    0.000    0.000    0.000    0.000 
#
# Total GULP energy -78255.226558 kJ/mol
# GULP energy per Si atom -5589.659040 kJ/mol
# Density = 2.369884 g / cm^3
# Si number density = 23.752902 Si / 1000 Ang^3
#
#
#
# Elastic Constant Matrix: (Units=GPa)
#
#
# Indices 1 2 3 4 5 6 
#
# 1 90.1273 30.3651 16.7550 -6.5741 10.9906 -11.7457
# 2 30.3651 114.9173 19.3393 6.3127 4.4857 -22.9792
# 3 16.7550 19.3393 105.7320 4.5956 7.7714 -0.4902
# 4 -6.5741 6.3127 4.5956 29.1633 -3.6741 2.5497
# 5 10.9906 4.4857 7.7714 -3.6741 31.4943 4.2881
# 6 -11.7457 -22.9792 -0.4902 2.5497 4.2881 50.8914
#
#
#
# Elastic Compliance Matrix: (Units=1/GPa)
#
#
# Indices 1 2 3 4 5 6 
#
# 1 0.013283 -0.002923 -0.001426 0.003214 -0.003749 0.001887
# 2 -0.002923 0.010809 -0.001259 -0.003342 -0.001206 0.004463
# 3 -0.001426 -0.001259 0.010136 -0.001846 -0.001966 -0.000542
# 4 0.003214 -0.003342 -0.001846 0.036862 0.004520 -0.003013
# 5 -0.003749 -0.001206 -0.001966 0.004520 0.034870 -0.004594
# 6 0.001887 0.004463 -0.000542 -0.003013 -0.004594 0.022633
#
#
# Mechanical properties :
#
#
# Convention : Reuss Voigt Hill
#
# Bulk Modulus (GPa) = 43.45367 49.29948 46.37657
# Shear Modulus (GPa) = 33.90299 38.59760 36.25029
#
# Velocity S-wave (km/s) = 3.78209 4.03546 3.91082
# Velocity P-wave (km/s) = 6.11604 6.52023 6.32137
#
# Compressibility (1/GPa) = 0.02301302
#
# Stress axis : x y z
#
# Youngs Moduli (GPa) = 75.28572 92.51294 98.65455
#
# Poissons Ratio (x) = 0.27039 0.14065
# Poissons Ratio (y) = 0.22004 0.12424
# Poissons Ratio (z) = 0.10733 0.11650
#
# Static dielectric constant tensor:
#      x y z
#    x 1.964510 0.041250 0.041570 
#    y 0.041250 1.995930 -0.006650 
#    z 0.041570 -0.006650 1.932760 
# 
# From -- ./inp_files/315420.got.cif
#   From: 2010.05.17/outbox.cif.g08.bks.cpg/sg2_158_cif.got.tgz:315420.got - 2010.06.03 11:33:40.
