data_PCOD9089005
_publ_section_title
;
Structure prediction by ZEFSAII (Michael W. Deem and Ramdas Pophale) SiO2 
 PCOD9089005
Probable space group: P -1
;
_chemical_formula_sum "Si O2"
_cell_formula_units_Z 14
_cell_length_a 15.480718
_cell_length_b 7.337240
_cell_length_c 17.300021
_cell_angle_alpha 46.701051
_cell_angle_beta 25.161312
_cell_angle_gamma 46.047882
_cell_volume 590.724874
_symmetry_space_group_name_H-M "P -1"
_symmetry_group_IT_number 2
_symmetry_cell_setting 'triclinic'
loop_
_space_group_symop_operation_xyz
x,y,z
-x,-y,-z
loop_
_atom_site_type_symbol
_atom_site_label
_atom_site_fract_x
_atom_site_fract_y
_atom_site_fract_z
Si Si1 0.021239 0.636528 0.342472
Si Si2 0.732073 0.255371 0.190415
Si Si3 0.189511 0.058184 0.378277
Si Si4 0.613677 0.398916 0.531796
Si Si5 0.587978 0.193754 0.027966
Si Si6 0.957880 0.693481 0.200942
Si Si7 0.454335 0.066240 0.344396
O O1 0.040483 0.587933 0.247992
O O2 0.778688 0.758081 0.515556
O O3 0.099662 0.349962 0.396693
O O4 0.171369 0.829872 0.183968
O O5 0.601527 0.463357 0.292843
O O6 0.572051 0.147980 0.297625
O O7 0.882522 0.004445 0.179835
O O8 0.867745 0.373507 0.986196
O O9 0.420760 0.067349 0.155063
O O10 0.253934 0.834404 0.453901
O O11 0.000000 0.000000 0.500000
O O12 0.764137 0.591531 0.355952
O O13 0.561816 0.230452 0.551807
O O14 0.566200 0.113429 0.159074
O O15 0.500000 0.500000 0.000000
#
# Coordination Sequence:
#
# PCOD9089005 Si02
#       7
#     2   2   2   2   2   2   2
#     4  11  21  41  65  93 130 173 206 258 324 373
#     4  11  24  45  64  93 127 172 216 264 316 379
#     4  10  19  37  64  92 126 163 204 259 311 376
#     4  11  24  41  64  98 128 161 218 265 315 382
#     4   9  21  36  60  91 126 166 209 248 312 379
#     4  11  23  43  68  89 130 170 213 266 321 374
#     4  11  23  40  69  93 130 169 213 262 318 380
#
# _framework density 23.699695999999999
#
# number of rings (size 3 to 8) (size 9 to 14) (size 15 to 20)
#    0.000    1.429    4.286    0.429    0.000    8.000 
#    0.000    3.571    0.000    0.000    0.000    0.000 
#    0.000    0.000    0.000    0.000    0.000    0.000 
#
# Total GULP energy -78236.400519 kJ/mol
# GULP energy per Si atom -5588.314323 kJ/mol
# Density = 2.364575 g / cm^3
# Si number density = 23.699696 Si / 1000 Ang^3
#
#
#
# Elastic Constant Matrix: (Units=GPa)
#
#
# Indices 1 2 3 4 5 6 
#
# 1 64.9637 4.1826 9.4270 0.6485 -6.6903 -7.8257
# 2 4.1826 66.0542 24.2365 9.5535 23.5851 6.2724
# 3 9.4270 24.2365 117.1651 11.4624 -14.3800 8.0139
# 4 0.6485 9.5535 11.4624 36.6340 0.7444 -1.7856
# 5 -6.6903 23.5851 -14.3800 0.7444 35.1504 1.0579
# 6 -7.8257 6.2724 8.0139 -1.7856 1.0579 26.9875
#
#
#
# Elastic Compliance Matrix: (Units=1/GPa)
#
#
# Indices 1 2 3 4 5 6 
#
# 1 0.016883 -0.003358 -0.000521 0.000915 0.005063 0.005693
# 2 -0.003358 0.026561 -0.007073 -0.004445 -0.021125 -0.004513
# 3 -0.000521 -0.007073 0.011578 -0.002081 0.009501 -0.002455
# 4 0.000915 -0.004445 -0.002081 0.029244 0.001572 0.003790
# 5 0.005063 -0.021125 0.009501 0.001572 0.047387 0.001803
# 6 0.005693 -0.004513 -0.002455 0.003790 0.001803 0.040663
#
#
# Mechanical properties :
#
#
# Convention : Reuss Voigt Hill
#
# Bulk Modulus (GPa) = 30.19676 35.98614 33.09145
# Shear Modulus (GPa) = 24.35924 33.77684 29.06804
#
# Velocity S-wave (km/s) = 3.20946 3.77928 3.50596
# Velocity P-wave (km/s) = 5.14813 5.85330 5.51200
#
# Compressibility (1/GPa) = 0.03311613
#
# Stress axis : x y z
#
# Youngs Moduli (GPa) = 59.23062 37.64869 86.37235
#
# Poissons Ratio (x) = 0.12644 0.04501
# Poissons Ratio (y) = 0.19893 0.61095
# Poissons Ratio (z) = 0.03087 0.26631
#
# Static dielectric constant tensor:
#      x y z
#    x 1.963030 -0.020790 0.001650 
#    y -0.020790 1.874240 -0.031730 
#    z 0.001650 -0.031730 1.942670 
# 
# From -- ./inp_files/338167.got.cif
#   From: 2010.05.17/outbox.cif.g08.bks.cpg/sg2_170_cif.got.tgz:338167.got - 2010.06.03 11:33:40.
