data_PCOD9089783
_publ_section_title
;
Structure prediction by ZEFSAII (Michael W. Deem and Ramdas Pophale) SiO2 
 PCOD9089783
Probable space group: P -1
;
_chemical_formula_sum "Si O2"
_cell_formula_units_Z 16
_cell_length_a 13.202016
_cell_length_b 9.741841
_cell_length_c 8.915556
_cell_angle_alpha 119.244892
_cell_angle_beta 72.575107
_cell_angle_gamma 126.853764
_cell_volume 800.530824
_symmetry_space_group_name_H-M "P -1"
_symmetry_group_IT_number 2
_symmetry_cell_setting 'triclinic'
loop_
_space_group_symop_operation_xyz
x,y,z
-x,-y,-z
loop_
_atom_site_type_symbol
_atom_site_label
_atom_site_fract_x
_atom_site_fract_y
_atom_site_fract_z
Si Si1 0.169137 0.993023 0.844467
Si Si2 0.790544 0.159861 0.537232
Si Si3 0.769039 0.502046 0.810576
Si Si4 0.382640 0.406822 0.894094
Si Si5 0.015565 0.172855 0.934339
Si Si6 0.961543 0.784050 0.393150
Si Si7 0.308016 0.436853 0.442358
Si Si8 0.415803 0.261055 0.492536
O O1 0.188011 0.859351 0.658631
O O2 0.292663 0.197030 0.883794
O O3 0.064252 0.030924 0.842633
O O4 0.127157 0.932269 0.000475
O O5 0.762911 0.316789 0.670441
O O6 0.922653 0.215457 0.583986
O O7 0.674766 0.956311 0.537605
O O8 0.722181 0.561292 0.717977
O O9 0.686774 0.485573 0.982994
O O10 0.907565 0.669173 0.889242
O O11 0.405203 0.378507 0.697708
O O12 0.500000 0.500000 0.000000
O O13 0.042181 0.257036 0.803416
O O14 0.824964 0.644528 0.455193
O O15 0.000000 0.000000 0.500000
O O16 0.355908 0.302216 0.398885
O O17 0.432852 0.643804 0.537125
#
# Coordination Sequence:
#
# PCOD9089783 Si02
#       8
#     2   2   2   2   2   2   2   2
#     4   9  19  35  59  86 124 155 215 247 298 372
#     4  11  23  41  63  97 128 164 205 263 323 370
#     4  11  24  38  65  94 131 157 205 266 325 363
#     4  10  19  38  61  90 118 170 205 256 304 380
#     4  10  21  37  60  90 121 166 209 256 300 375
#     4  12  22  38  66  92 123 169 212 258 306 373
#     4  11  22  39  64  95 122 166 212 260 305 376
#     4  10  22  41  67  92 122 167 219 253 307 384
#
# _framework density 19.986737999999999
#
# number of rings (size 3 to 8) (size 9 to 14) (size 15 to 20)
#    0.000    1.500    3.750    2.250    3.500    3.000 
#    0.000    1.250    0.000    6.750    0.000    0.000 
#    0.000    0.000    0.000    0.000    0.000    0.000 
#
# Total GULP energy -89243.914008 kJ/mol
# GULP energy per Si atom -5577.744625 kJ/mol
# Density = 1.994125 g / cm^3
# Si number density = 19.986738 Si / 1000 Ang^3
#
#
#
# Elastic Constant Matrix: (Units=GPa)
#
#
# Indices 1 2 3 4 5 6 
#
# 1 67.7807 38.7966 39.8916 -3.6031 8.1278 18.8226
# 2 38.7966 83.0531 59.5574 -12.7265 -10.5259 21.1794
# 3 39.8916 59.5574 114.2077 11.7119 -5.1556 -4.7917
# 4 -3.6031 -12.7265 11.7119 33.1027 -5.3274 -8.4512
# 5 8.1278 -10.5259 -5.1556 -5.3274 28.4114 -4.6607
# 6 18.8226 21.1794 -4.7917 -8.4512 -4.6607 33.6840
#
#
#
# Elastic Compliance Matrix: (Units=1/GPa)
#
#
# Indices 1 2 3 4 5 6 
#
# 1 0.029316 -0.005904 -0.008258 -0.002890 -0.015353 -0.016694
# 2 -0.005904 0.037460 -0.019487 0.018463 0.012766 -0.016628
# 3 -0.008258 -0.019487 0.023795 -0.012449 -0.000065 0.017120
# 4 -0.002890 0.018463 -0.012449 0.043922 0.013836 0.001169
# 5 -0.015353 0.012766 -0.000065 0.013836 0.048664 0.010748
# 6 -0.016694 -0.016628 0.017120 0.001169 0.010748 0.053687
#
#
# Mechanical properties :
#
#
# Convention : Reuss Voigt Hill
#
# Bulk Modulus (GPa) = 42.96997 60.17030 51.57014
# Shear Modulus (GPa) = 16.03064 27.49268 21.76166
#
# Velocity S-wave (km/s) = 2.83515 3.71286 3.30328
# Velocity P-wave (km/s) = 5.68008 6.96785 6.35666
#
# Compressibility (1/GPa) = 0.02327207
#
# Stress axis : x y z
#
# Youngs Moduli (GPa) = 34.11058 26.69483 42.02600
#
# Poissons Ratio (x) = 0.15762 0.34705
# Poissons Ratio (y) = 0.20140 0.81898
# Poissons Ratio (z) = 0.28169 0.52021
#
# Static dielectric constant tensor:
#      x y z
#    x 1.734670 0.035650 -0.008180 
#    y 0.035650 1.695070 -0.021370 
#    z -0.008180 -0.021370 1.721010 
# 
# From -- ./inp_files/245442.got.cif
#   From: 2010.05.17/outbox.cif.g08.bks.cpg/sg2_123_cif.got.tgz:245442.got - 2010.06.03 11:33:40.
