data_PCOD9089708
_publ_section_title
;
Structure prediction by ZEFSAII (Michael W. Deem and Ramdas Pophale) SiO2 
 PCOD9089708
Probable space group: P -1
;
_chemical_formula_sum "Si O2"
_cell_formula_units_Z 16
_cell_length_a 15.290551
_cell_length_b 8.809394
_cell_length_c 14.852942
_cell_angle_alpha 94.267537
_cell_angle_beta 27.591802
_cell_angle_gamma 102.365404
_cell_volume 875.236639
_symmetry_space_group_name_H-M "P -1"
_symmetry_group_IT_number 2
_symmetry_cell_setting 'triclinic'
loop_
_space_group_symop_operation_xyz
x,y,z
-x,-y,-z
loop_
_atom_site_type_symbol
_atom_site_label
_atom_site_fract_x
_atom_site_fract_y
_atom_site_fract_z
Si Si1 0.416614 0.350490 0.636527
Si Si2 0.834479 0.023097 0.911900
Si Si3 0.975552 0.726713 0.096257
Si Si4 0.366783 0.364977 0.050814
Si Si5 0.467837 0.929583 0.127553
Si Si6 0.837156 0.348169 0.255151
Si Si7 0.786063 0.667059 0.998366
Si Si8 0.974866 0.086255 0.434914
O O1 0.500000 0.500000 0.500000
O O2 0.219851 0.236114 0.761775
O O3 0.602054 0.289786 0.486272
O O4 0.333589 0.404848 0.805716
O O5 0.926944 0.159380 0.905821
O O6 0.782649 0.849335 0.999656
O O7 0.979216 0.009433 0.697103
O O8 0.637292 0.038084 0.044425
O O9 0.906056 0.540566 0.183212
O O10 0.117405 0.733059 0.881395
O O11 0.317830 0.422737 0.000353
O O12 0.149103 0.258593 0.281451
O O13 0.500000 0.500000 0.000000
O O14 0.485123 0.237581 0.924428
O O15 0.247139 0.906451 0.362043
O O16 0.500000 0.000000 0.000000
O O17 0.985355 0.323368 0.195182
O O18 0.000000 0.000000 0.500000
#
# Coordination Sequence:
#
# PCOD9089708 Si02
#       8
#     2   2   2   2   2   2   2   2
#     4   9  18  35  56  77 110 148 185 229 285 343
#     4  10  22  35  57  85 115 145 199 240 287 344
#     4   9  19  36  53  84 107 143 190 236 281 344
#     4  10  23  39  58  92 121 150 199 252 292 344
#     4  10  19  38  61  80 115 160 194 240 298 346
#     4   9  18  35  57  74 114 146 182 233 292 340
#     4   9  20  37  53  79 117 147 180 240 290 335
#     4  10  19  40  60  79 116 157 196 239 291 347
#
# _framework density 18.280771000000001
#
# number of rings (size 3 to 8) (size 9 to 14) (size 15 to 20)
#    0.000    2.750    2.500    0.750    0.000    8.500 
#    4.500    1.250    0.000    0.000    0.000    0.000 
#    0.000    0.000    0.000    0.000    0.000    0.000 
#
# Total GULP energy -89148.489886 kJ/mol
# GULP energy per Si atom -5571.780618 kJ/mol
# Density = 1.823916 g / cm^3
# Si number density = 18.280771 Si / 1000 Ang^3
#
#
#
# Elastic Constant Matrix: (Units=GPa)
#
#
# Indices 1 2 3 4 5 6 
#
# 1 169.7637 48.4513 61.9109 4.5102 -25.3160 26.9484
# 2 48.4513 41.5703 26.1132 6.8701 -11.1835 25.0274
# 3 61.9109 26.1132 129.9373 17.9143 -30.6818 12.2841
# 4 4.5102 6.8701 17.9143 13.8685 -12.9071 -4.3198
# 5 -25.3160 -11.1835 -30.6818 -12.9071 42.4805 -1.2244
# 6 26.9484 25.0274 12.2841 -4.3198 -1.2244 44.6430
#
#
#
# Elastic Compliance Matrix: (Units=1/GPa)
#
#
# Indices 1 2 3 4 5 6 
#
# 1 0.010706 -0.013113 -0.003471 0.012496 0.004309 0.003171
# 2 -0.013113 0.064292 0.001484 -0.043411 -0.003954 -0.032845
# 3 -0.003471 0.001484 0.011841 -0.013373 0.002719 -0.003214
# 4 0.012496 -0.043411 -0.013373 0.148070 0.032378 0.035689
# 5 0.004309 -0.003954 0.002719 0.032378 0.036955 0.003014
# 6 0.003171 -0.032845 -0.003214 0.035689 0.003014 0.043319
#
#
# Mechanical properties :
#
#
# Convention : Reuss Voigt Hill
#
# Bulk Modulus (GPa) = 17.65564 68.24692 42.95128
# Shear Modulus (GPa) = 13.72633 33.85145 23.78889
#
# Velocity S-wave (km/s) = 2.74316 4.30787 3.61128
# Velocity P-wave (km/s) = 4.43985 7.88399 6.39803
#
# Compressibility (1/GPa) = 0.05663913
#
# Stress axis : x y z
#
# Youngs Moduli (GPa) = 93.40523 15.55413 84.45174
#
# Poissons Ratio (x) = 0.20396 0.29312
# Poissons Ratio (y) = 1.22480 -0.12530
# Poissons Ratio (z) = 0.32419 -0.02308
#
# Static dielectric constant tensor:
#      x y z
#    x 1.655150 -0.017910 0.019100 
#    y -0.017910 1.612750 -0.018070 
#    z 0.019100 -0.018070 1.533920 
# 
# From -- ./inp_files/527506.got.cif
#   From: 2010.05.17/outbox.cif.g08.bks.cpg/sg2_264_cif.got.tgz:527506.got - 2010.06.03 11:33:40.
