data_PCOD9089281
_publ_section_title
;
Structure prediction by ZEFSAII (Michael W. Deem and Ramdas Pophale) SiO2 
 PCOD9089281
Probable space group: P -1
;
_chemical_formula_sum "Si O2"
_cell_formula_units_Z 16
_cell_length_a 20.325280
_cell_length_b 6.899728
_cell_length_c 9.564336
_cell_angle_alpha 133.634643
_cell_angle_beta 124.636310
_cell_angle_gamma 77.802994
_cell_volume 760.963463
_symmetry_space_group_name_H-M "P -1"
_symmetry_group_IT_number 2
_symmetry_cell_setting 'triclinic'
loop_
_space_group_symop_operation_xyz
x,y,z
-x,-y,-z
loop_
_atom_site_type_symbol
_atom_site_label
_atom_site_fract_x
_atom_site_fract_y
_atom_site_fract_z
Si Si1 0.236190 0.269618 0.068477
Si Si2 0.387213 0.022505 0.876882
Si Si3 0.490383 0.810910 0.666579
Si Si4 0.618500 0.390758 0.798297
Si Si5 0.220172 0.587103 0.484939
Si Si6 0.754822 0.340556 0.150797
Si Si7 0.960735 0.341999 0.733540
Si Si8 0.100042 0.306595 0.698162
O O1 0.316835 0.451250 0.168418
O O2 0.231577 0.395177 0.277269
O O3 0.156117 0.276646 0.884582
O O4 0.237946 0.956717 0.939614
O O5 0.427429 0.855919 0.733200
O O6 0.287618 0.890061 0.684056
O O7 0.422786 0.001071 0.065589
O O8 0.412805 0.357795 0.049312
O O9 0.500000 0.500000 0.500000
O O10 0.451285 0.850289 0.489731
O O11 0.674185 0.301635 0.936396
O O12 0.244531 0.496997 0.621457
O O13 0.126150 0.601203 0.378901
O O14 0.836331 0.502168 0.239861
O O15 0.027044 0.422121 0.726498
O O16 0.940821 0.007446 0.564605
O O17 0.000000 0.500000 0.000000
#
# Coordination Sequence:
#
# PCOD9089281 Si02
#       8
#     2   2   2   2   2   2   2   2
#     4  11  21  40  63  89 126 169 205 256 305 366
#     4  10  19  37  67  90 126 163 210 255 307 371
#     4   9  19  35  65  99 119 165 208 251 312 371
#     4  10  20  39  65  90 126 166 209 252 309 365
#     4  12  22  38  62  92 125 165 210 257 314 371
#     4  11  24  40  61  96 127 166 209 255 307 372
#     4  11  22  41  68  90 121 166 212 260 314 363
#     4  10  23  43  64  87 127 166 208 259 312 366
#
# _framework density 21.025977000000001
#
# number of rings (size 3 to 8) (size 9 to 14) (size 15 to 20)
#    0.000    1.500    5.000    0.750    0.000    2.500 
#    0.000    1.875    0.000    4.500    0.000    0.000 
#    0.000    0.000    0.000    0.000    0.000    0.000 
#
# Total GULP energy -89309.168666 kJ/mol
# GULP energy per Si atom -5581.823042 kJ/mol
# Density = 2.097812 g / cm^3
# Si number density = 21.025977 Si / 1000 Ang^3
#
#
#
# Elastic Constant Matrix: (Units=GPa)
#
#
# Indices 1 2 3 4 5 6 
#
# 1 82.8981 36.7744 42.3960 -15.5506 -22.5364 -13.5884
# 2 36.7744 52.8067 22.9666 -18.3436 -10.2292 9.8985
# 3 42.3960 22.9666 154.0207 -23.5670 -20.3748 -3.1234
# 4 -15.5506 -18.3436 -23.5670 26.0327 -8.8973 -1.5507
# 5 -22.5364 -10.2292 -20.3748 -8.8973 43.0659 -6.2745
# 6 -13.5884 9.8985 -3.1234 -1.5507 -6.2745 29.2284
#
#
#
# Elastic Compliance Matrix: (Units=1/GPa)
#
#
# Indices 1 2 3 4 5 6 
#
# 1 0.033210 -0.019418 -0.001231 0.013034 0.018753 0.026601
# 2 -0.019418 0.042909 0.001687 0.019411 0.001634 -0.021998
# 3 -0.001231 0.001687 0.009219 0.011202 0.006706 0.001875
# 4 0.013034 0.019411 0.011202 0.082992 0.035736 0.012758
# 5 0.018753 0.001634 0.006706 0.035736 0.047018 0.020871
# 6 0.026601 -0.021998 0.001875 0.012758 0.020871 0.059388
#
#
# Mechanical properties :
#
#
# Convention : Reuss Voigt Hill
#
# Bulk Modulus (GPa) = 21.09124 54.88884 37.99004
# Shear Modulus (GPa) = 15.22233 32.17131 23.69682
#
# Velocity S-wave (km/s) = 2.69360 3.91586 3.36076
# Velocity P-wave (km/s) = 4.44149 6.82695 5.75908
#
# Compressibility (1/GPa) = 0.04741306
#
# Stress axis : x y z
#
# Youngs Moduli (GPa) = 30.11116 23.30533 108.46846
#
# Poissons Ratio (x) = 0.45254 0.13358
# Poissons Ratio (y) = 0.58470 -0.18297
# Poissons Ratio (z) = 0.03708 -0.03931
#
# Static dielectric constant tensor:
#      x y z
#    x 1.789090 -0.008850 0.012960 
#    y -0.008850 1.744430 -0.015630 
#    z 0.012960 -0.015630 1.791180 
# 
# From -- ./inp_files/351123.got.cif
#   From: 2010.05.17/outbox.cif.g08.bks.cpg/sg2_176_cif.got.tgz:351123.got - 2010.06.03 11:33:40.
