data_PCOD9089911
_publ_section_title
;
Structure prediction by ZEFSAII (Michael W. Deem and Ramdas Pophale) SiO2 
 PCOD9089911
Probable space group: P -1
;
_chemical_formula_sum "Si O2"
_cell_formula_units_Z 16
_cell_length_a 12.872433
_cell_length_b 11.100802
_cell_length_c 11.590091
_cell_angle_alpha 59.159651
_cell_angle_beta 45.017461
_cell_angle_gamma 93.651035
_cell_volume 716.733889
_symmetry_space_group_name_H-M "P -1"
_symmetry_group_IT_number 2
_symmetry_cell_setting 'triclinic'
loop_
_space_group_symop_operation_xyz
x,y,z
-x,-y,-z
loop_
_atom_site_type_symbol
_atom_site_label
_atom_site_fract_x
_atom_site_fract_y
_atom_site_fract_z
Si Si1 0.050186 0.125929 0.009888
Si Si2 0.732075 0.334288 0.961288
Si Si3 0.829093 0.309550 0.560972
Si Si4 0.649700 0.411003 0.234648
Si Si5 0.675305 0.028474 0.284416
Si Si6 0.714638 0.455283 0.407347
Si Si7 0.424249 0.106780 0.126659
Si Si8 0.699155 0.776072 0.035246
O O1 0.247540 0.353597 0.714631
O O2 0.096721 0.079580 0.116263
O O3 0.872132 0.123967 0.159758
O O4 0.000000 0.000000 0.000000
O O5 0.939994 0.542279 0.642120
O O6 0.727482 0.400032 0.059671
O O7 0.733488 0.165537 0.062880
O O8 0.516983 0.219675 0.119960
O O9 0.840103 0.456621 0.403316
O O10 0.743849 0.130328 0.630919
O O11 0.641667 0.200015 0.852296
O O12 0.766633 0.443472 0.243271
O O13 0.657708 0.584133 0.138443
O O14 0.428924 0.192679 0.541138
O O15 0.500000 0.000000 0.500000
O O16 0.479682 0.276998 0.718640
O O17 0.322440 0.156263 0.100843
#
# Coordination Sequence:
#
# PCOD9089911 Si02
#       8
#     2   2   2   2   2   2   2   2
#     4  11  20  35  63  92 123 156 206 258 319 381
#     4  11  22  41  63  92 126 167 214 252 318 379
#     4  10  21  41  64  91 120 166 217 263 308 369
#     4  10  21  38  62  88 126 163 196 261 318 373
#     4  10  21  38  59  95 123 159 204 257 320 373
#     4  10  19  38  62  90 124 155 208 264 318 367
#     4  10  23  42  64  89 125 170 210 264 304 370
#     4  10  22  41  60  90 128 164 206 256 318 376
#
# _framework density 22.323488999999999
#
# number of rings (size 3 to 8) (size 9 to 14) (size 15 to 20)
#    0.000    1.750    1.250    4.125    0.000    3.000 
#   18.000    0.625    0.000    0.000    0.000    0.000 
#    0.000    0.000    0.000    0.000    0.000    0.000 
#
# Total GULP energy -89147.639328 kJ/mol
# GULP energy per Si atom -5571.727458 kJ/mol
# Density = 2.227268 g / cm^3
# Si number density = 22.323489 Si / 1000 Ang^3
#
#
#
# Elastic Constant Matrix: (Units=GPa)
#
#
# Indices 1 2 3 4 5 6 
#
# 1 98.5582 5.5827 12.0798 -0.9967 -17.2452 4.2049
# 2 5.5827 72.4411 7.1594 -3.5671 1.4983 10.9209
# 3 12.0798 7.1594 60.0914 -18.2591 -6.0844 -0.7113
# 4 -0.9967 -3.5671 -18.2591 30.6802 -0.4474 -1.5456
# 5 -17.2452 1.4983 -6.0844 -0.4474 32.1775 -2.6499
# 6 4.2049 10.9209 -0.7113 -1.5456 -2.6499 28.1687
#
#
#
# Elastic Compliance Matrix: (Units=1/GPa)
#
#
# Indices 1 2 3 4 5 6 
#
# 1 0.011453 -0.000704 -0.001896 -0.000804 0.005720 -0.000991
# 2 -0.000704 0.014983 -0.001810 0.000317 -0.001900 -0.005911
# 3 -0.001896 -0.001810 0.021481 0.012692 0.003517 0.002554
# 4 -0.000804 0.000317 0.012692 0.040339 0.002745 0.002789
# 5 0.005720 -0.001900 0.003517 0.002745 0.035218 0.003435
# 6 -0.000991 -0.005911 0.002554 0.002789 0.003435 0.038481
#
#
# Mechanical properties :
#
#
# Convention : Reuss Voigt Hill
#
# Bulk Modulus (GPa) = 25.57580 31.19272 28.38426
# Shear Modulus (GPa) = 27.20249 31.95654 29.57951
#
# Velocity S-wave (km/s) = 3.49457 3.78765 3.64406
# Velocity P-wave (km/s) = 5.26920 5.75602 5.51798
#
# Compressibility (1/GPa) = 0.03909946
#
# Stress axis : x y z
#
# Youngs Moduli (GPa) = 87.30975 66.74049 46.55297
#
# Poissons Ratio (x) = 0.04698 0.08824
# Poissons Ratio (y) = 0.06146 0.08425
# Poissons Ratio (z) = 0.16550 0.12078
#
# Static dielectric constant tensor:
#      x y z
#    x 1.888680 0.046230 -0.039670 
#    y 0.046230 1.899920 -0.024330 
#    z -0.039670 -0.024330 1.907000 
# 
# From -- ./inp_files/427742.got.cif
#   From: 2010.05.17/outbox.cif.g08.bks.cpg/sg2_214_cif.got.tgz:427742.got - 2010.06.03 11:33:40.
