data_PCOD9089823
_publ_section_title
;
Structure prediction by ZEFSAII (Michael W. Deem and Ramdas Pophale) SiO2 
 PCOD9089823
Probable space group: P -1
;
_chemical_formula_sum "Si O2"
_cell_formula_units_Z 16
_cell_length_a 12.071940
_cell_length_b 8.875836
_cell_length_c 11.979696
_cell_angle_alpha 48.838251
_cell_angle_beta 112.211758
_cell_angle_gamma 125.777584
_cell_volume 783.960180
_symmetry_space_group_name_H-M "P -1"
_symmetry_group_IT_number 2
_symmetry_cell_setting 'triclinic'
loop_
_space_group_symop_operation_xyz
x,y,z
-x,-y,-z
loop_
_atom_site_type_symbol
_atom_site_label
_atom_site_fract_x
_atom_site_fract_y
_atom_site_fract_z
Si Si1 0.327018 0.977990 0.525352
Si Si2 0.551132 0.349673 0.664060
Si Si3 0.934418 0.945725 0.309621
Si Si4 0.100648 0.745021 0.367474
Si Si5 0.467540 0.692840 0.732917
Si Si6 0.663513 0.829085 0.137216
Si Si7 0.176012 0.239894 0.415487
Si Si8 0.665222 0.039247 0.804137
O O1 0.456039 0.189059 0.411940
O O2 0.239694 0.064957 0.522267
O O3 0.227985 0.848358 0.448775
O O4 0.368113 0.796180 0.676765
O O5 0.500000 0.500000 0.500000
O O6 0.443562 0.214765 0.784111
O O7 0.697382 0.524238 0.686550
O O8 0.582767 0.179428 0.686576
O O9 0.810986 0.944590 0.196543
O O10 0.866710 0.755322 0.475381
O O11 0.019623 0.885324 0.283806
O O12 0.047552 0.153873 0.325691
O O13 0.000000 0.500000 0.500000
O O14 0.178368 0.798502 0.253572
O O15 0.383667 0.423929 0.809432
O O16 0.587929 0.803525 0.817723
O O17 0.659143 0.977792 0.960932
#
# Coordination Sequence:
#
# PCOD9089823 Si02
#       8
#     2   2   2   2   2   2   2   2
#     4   9  18  32  60  94 119 156 219 266 298 370
#     4  12  23  40  71  96 122 169 221 264 316 382
#     4  10  22  36  62  91 129 168 212 261 318 375
#     4  10  20  37  61  87 123 165 218 264 308 374
#     4  10  20  36  61  92 127 166 207 262 324 369
#     4  12  24  41  64  97 134 171 207 263 333 387
#     4  10  19  38  61  96 125 167 214 271 311 360
#     4  11  26  41  62  96 134 166 212 269 327 384
#
# _framework density 20.409200999999999
#
# number of rings (size 3 to 8) (size 9 to 14) (size 15 to 20)
#    0.000    1.500    2.500    3.000    3.500    0.500 
#    0.000    0.625    0.000    0.000    0.000    0.000 
#    0.000    0.000    0.000    0.000    0.000    0.000 
#
# Total GULP energy -89230.128954 kJ/mol
# GULP energy per Si atom -5576.883060 kJ/mol
# Density = 2.036275 g / cm^3
# Si number density = 20.409201 Si / 1000 Ang^3
#
#
#
# Elastic Constant Matrix: (Units=GPa)
#
#
# Indices 1 2 3 4 5 6 
#
# 1 116.3299 28.4071 43.6424 6.3061 -13.0803 6.0293
# 2 28.4071 63.5812 19.7226 3.6141 7.5976 12.1050
# 3 43.6424 19.7226 83.2448 12.1273 -14.1003 6.8434
# 4 6.3061 3.6141 12.1273 25.9913 -0.4644 2.7546
# 5 -13.0803 7.5976 -14.1003 -0.4644 25.9674 4.6823
# 6 6.0293 12.1050 6.8434 2.7546 4.6823 34.9802
#
#
#
# Elastic Compliance Matrix: (Units=1/GPa)
#
#
# Indices 1 2 3 4 5 6 
#
# 1 0.011892 -0.004529 -0.004258 -0.000145 0.005058 -0.000315
# 2 -0.004529 0.020956 -0.003922 0.000309 -0.009739 -0.004425
# 3 -0.004258 -0.003922 0.017779 -0.006337 0.008919 -0.002082
# 4 -0.000145 0.000309 -0.006337 0.041566 -0.002541 -0.001775
# 5 0.005058 -0.009739 0.008919 -0.002541 0.049732 -0.005703
# 6 -0.000315 -0.004425 -0.002082 -0.001775 -0.005703 0.031484
#
#
# Mechanical properties :
#
#
# Convention : Reuss Voigt Hill
#
# Bulk Modulus (GPa) = 39.66499 49.63337 44.64918
# Shear Modulus (GPa) = 24.12762 28.81336 26.47049
#
# Velocity S-wave (km/s) = 3.44203 3.76145 3.60528
# Velocity P-wave (km/s) = 5.93918 6.57545 6.26540
#
# Compressibility (1/GPa) = 0.02521115
#
# Stress axis : x y z
#
# Youngs Moduli (GPa) = 84.08671 47.71839 56.24495
#
# Poissons Ratio (x) = 0.21610 0.23950
# Poissons Ratio (y) = 0.38079 0.22058
# Poissons Ratio (z) = 0.35806 0.18714
#
# Static dielectric constant tensor:
#      x y z
#    x 1.811730 -0.019890 0.010030 
#    y -0.019890 1.793160 0.006290 
#    z 0.010030 0.006290 1.758090 
# 
# From -- ./inp_files/218275.got.cif
#   From: 2010.05.17/outbox.cif.g08.bks.cpg/sg2_110_cif.got.tgz:218275.got - 2010.06.03 11:33:40.
