data_PCOD9089727
_publ_section_title
;
Structure prediction by ZEFSAII (Michael W. Deem and Ramdas Pophale) SiO2 
 PCOD9089727
Probable space group: P -1
;
_chemical_formula_sum "Si O2"
_cell_formula_units_Z 9
_cell_length_a 10.084961
_cell_length_b 5.890637
_cell_length_c 7.218807
_cell_angle_alpha 119.957346
_cell_angle_beta 78.170847
_cell_angle_gamma 112.888957
_cell_volume 342.264532
_symmetry_space_group_name_H-M "P -1"
_symmetry_group_IT_number 2
_symmetry_cell_setting 'triclinic'
loop_
_space_group_symop_operation_xyz
x,y,z
-x,-y,-z
loop_
_atom_site_type_symbol
_atom_site_label
_atom_site_fract_x
_atom_site_fract_y
_atom_site_fract_z
Si Si1 0.276875 0.751610 0.956883
Si Si2 0.000000 0.500000 0.000000
Si Si3 0.220580 0.629103 0.367433
Si Si4 0.544339 0.603011 0.822953
Si Si5 0.967722 0.070321 0.329509
O O1 0.218516 0.677924 0.161161
O O2 0.126645 0.604396 0.845266
O O3 0.345592 0.081870 0.070847
O O4 0.396338 0.628114 0.801483
O O5 0.970711 0.801649 0.112093
O O6 0.372668 0.594396 0.357530
O O7 0.183420 0.874352 0.579942
O O8 0.095774 0.343590 0.337301
O O9 0.500000 0.500000 0.000000
O O10 0.000000 0.000000 0.500000
#
# Coordination Sequence:
#
# PCOD9089727 Si02
#       5
#     2   1   2   2   2
#     4  10  20  36  61  89 122 153 200 244 295 354
#     4  12  22  38  60  94 120 154 198 250 298 346
#     4  10  19  38  61  85 118 164 196 238 299 355
#     4   9  18  36  60  86 117 164 196 237 298 356
#     4  11  22  38  58  90 125 156 192 249 298 353
#
# _framework density 26.295453999999999
#
# number of rings (size 3 to 8) (size 9 to 14) (size 15 to 20)
#    0.000    1.778    4.444    0.000    0.000    0.889 
#    0.000    1.111    0.000   18.667    0.000    0.000 
#    0.000    0.000    0.000    0.000    0.000    0.000 
#
# Total GULP energy -50131.193102 kJ/mol
# GULP energy per Si atom -5570.132567 kJ/mol
# Density = 2.623560 g / cm^3
# Si number density = 26.295454 Si / 1000 Ang^3
#
#
#
# Elastic Constant Matrix: (Units=GPa)
#
#
# Indices 1 2 3 4 5 6 
#
# 1 122.3586 30.0883 78.2122 8.6191 -82.8804 7.5566
# 2 30.0883 192.8978 49.4341 -12.3487 -4.7307 9.7260
# 3 78.2122 49.4341 102.9573 21.2695 -44.2042 -19.0070
# 4 8.6191 -12.3487 21.2695 44.9002 -29.8955 -1.6738
# 5 -82.8804 -4.7307 -44.2042 -29.8955 83.3366 -1.7900
# 6 7.5566 9.7260 -19.0070 -1.6738 -1.7900 41.5748
#
#
#
# Elastic Compliance Matrix: (Units=1/GPa)
#
#
# Indices 1 2 3 4 5 6 
#
# 1 0.437583 0.044438 -0.284193 0.320730 0.397945 -0.189811
# 2 0.044438 0.011449 -0.034185 0.035996 0.039125 -0.023250
# 3 -0.284193 -0.034185 0.203073 -0.212750 -0.250322 0.133149
# 4 0.320730 0.035996 -0.212750 0.266374 0.300711 -0.140310
# 5 0.397945 0.039125 -0.250322 0.300711 0.381488 -0.167393
# 6 -0.189811 -0.023250 0.133149 -0.140310 -0.167393 0.112009
#
#
# Mechanical properties :
#
#
# Convention : Reuss Voigt Hill
#
# Bulk Modulus (GPa) = 9.59467 81.52034 45.55750
# Shear Modulus (GPa) = 2.50677 51.32758 26.91718
#
# Velocity S-wave (km/s) = 0.97744 4.42289 3.20291
# Velocity P-wave (km/s) = 2.22049 7.55987 5.57145
#
# Compressibility (1/GPa) = 0.10422453
#
# Stress axis : x y z
#
# Youngs Moduli (GPa) = 2.28528 87.34041 4.92434
#
# Poissons Ratio (x) = -3.88120 1.39946
# Poissons Ratio (y) = -0.10155 0.16834
# Poissons Ratio (z) = 0.64946 2.98574
#
# Static dielectric constant tensor:
#      x y z
#    x 1.618440 -0.209940 -0.158930 
#    y -0.209940 2.014450 -0.093840 
#    z -0.158930 -0.093840 1.938020 
# 
# From -- ./inp_files/1889.got.cif
#   From: 2010.05.17/outbox.cif.g08.bks.cpg/sg2_1_cif.got.tgz:1889.got - 2010.06.03 11:33:40.
