data_PCOD9089170
_publ_section_title
;
Structure prediction by ZEFSAII (Michael W. Deem and Ramdas Pophale) SiO2 
 PCOD9089170
Probable space group: P -1
;
_chemical_formula_sum "Si O2"
_cell_formula_units_Z 16
_cell_length_a 10.562774
_cell_length_b 17.049599
_cell_length_c 11.998801
_cell_angle_alpha 42.743329
_cell_angle_beta 119.489597
_cell_angle_gamma 151.576735
_cell_volume 614.121326
_symmetry_space_group_name_H-M "P -1"
_symmetry_group_IT_number 2
_symmetry_cell_setting 'triclinic'
loop_
_space_group_symop_operation_xyz
x,y,z
-x,-y,-z
loop_
_atom_site_type_symbol
_atom_site_label
_atom_site_fract_x
_atom_site_fract_y
_atom_site_fract_z
Si Si1 0.797477 0.589689 0.961659
Si Si2 0.120985 0.183835 0.065777
Si Si3 0.359067 0.767121 0.472531
Si Si4 0.012084 0.167054 0.422982
Si Si5 0.072595 0.193253 0.675582
Si Si6 0.050864 0.561642 0.778396
Si Si7 0.529065 0.131734 0.142857
Si Si8 0.601291 0.446200 0.378875
O O1 0.978121 0.815369 0.869131
O O2 0.856130 0.645754 0.798753
O O3 0.437450 0.347266 0.073034
O O4 0.903486 0.543935 0.101016
O O5 0.911896 0.935565 0.191117
O O6 0.223919 0.351714 0.846444
O O7 0.145587 0.664279 0.588487
O O8 0.276775 0.599379 0.535528
O O9 0.449402 0.947021 0.260115
O O10 0.657876 0.920211 0.500966
O O11 0.241062 0.219214 0.446188
O O12 0.037815 0.215152 0.512877
O O13 0.325381 0.440560 0.591119
O O14 0.766853 0.006504 0.805515
O O15 0.276244 0.751757 0.779723
O O16 0.716134 0.333873 0.921743
#
# Coordination Sequence:
#
# PCOD9089170 Si02
#       8
#     2   2   2   2   2   2   2   2
#     4  10  19  37  66 100 123 162 219 282 327 374
#     4  10  21  39  66  93 128 167 219 276 330 382
#     4  12  23  43  70  99 128 173 226 278 325 380
#     4  11  24  39  68 102 128 167 220 278 333 385
#     4  12  25  43  61  97 140 177 211 266 337 400
#     4  11  21  41  65 103 126 162 226 281 323 377
#     4  11  25  39  68  97 135 173 221 272 327 390
#     4  11  26  42  66  95 135 177 215 268 335 404
#
# _framework density 26.053481999999999
#
# number of rings (size 3 to 8) (size 9 to 14) (size 15 to 20)
#    0.000    1.000    5.000    1.500    5.250    0.500 
#    0.000    0.625    0.000    0.000    0.000    0.000 
#    0.000    0.000    0.000    0.000    0.000    0.000 
#
# Total GULP energy -89567.075647 kJ/mol
# GULP energy per Si atom -5597.942228 kJ/mol
# Density = 2.599418 g / cm^3
# Si number density = 26.053482 Si / 1000 Ang^3
#
#
#
# Elastic Constant Matrix: (Units=GPa)
#
#
# Indices 1 2 3 4 5 6 
#
# 1 130.9965 22.8044 24.2089 -21.2026 6.8238 -30.3389
# 2 22.8044 74.7717 13.2318 -11.3128 0.7397 -25.0692
# 3 24.2089 13.2318 94.2693 -9.0303 -7.2723 -11.7940
# 4 -21.2026 -11.3128 -9.0303 27.8140 -4.9761 2.6745
# 5 6.8238 0.7397 -7.2723 -4.9761 42.2289 -16.2836
# 6 -30.3389 -25.0692 -11.7940 2.6745 -16.2836 38.8218
#
#
#
# Elastic Compliance Matrix: (Units=1/GPa)
#
#
# Indices 1 2 3 4 5 6 
#
# 1 0.011011 0.001287 -0.000775 0.008226 0.002819 0.009816
# 2 0.001287 0.019497 0.000258 0.008656 0.006630 0.015859
# 3 -0.000775 0.000258 0.012092 0.003781 0.004528 0.004873
# 4 0.008226 0.008656 0.003781 0.047438 0.010232 0.014190
# 5 0.002819 0.006630 0.004528 0.010232 0.033227 0.021092
# 6 0.009816 0.015859 0.004873 0.014190 0.021092 0.053021
#
#
# Mechanical properties :
#
#
# Convention : Reuss Voigt Hill
#
# Bulk Modulus (GPa) = 22.65557 46.72532 34.69045
# Shear Modulus (GPa) = 26.39086 37.75913 32.07499
#
# Velocity S-wave (km/s) = 3.18614 3.81109 3.51254
# Velocity P-wave (km/s) = 4.71699 6.11058 5.45844
#
# Compressibility (1/GPa) = 0.04413925
#
# Stress axis : x y z
#
# Youngs Moduli (GPa) = 90.81823 51.28987 82.70017
#
# Poissons Ratio (x) = -0.06600 0.06407
# Poissons Ratio (y) = -0.11686 -0.02130
# Poissons Ratio (z) = 0.07036 -0.01321
#
# Static dielectric constant tensor:
#      x y z
#    x 2.091780 -0.015680 -0.007040 
#    y -0.015680 2.110230 -0.029330 
#    z -0.007040 -0.029330 2.046170 
# 
# From -- ./inp_files/436646.got.cif
#   From: 2010.05.17/outbox.cif.g08.bks.cpg/sg2_219_cif.got.tgz:436646.got - 2010.06.03 11:33:40.
