data_PCOD9089332
_publ_section_title
;
Structure prediction by ZEFSAII (Michael W. Deem and Ramdas Pophale) SiO2 
 PCOD9089332
Probable space group: P -1
;
_chemical_formula_sum "Si O2"
_cell_formula_units_Z 16
_cell_length_a 27.655205
_cell_length_b 5.538758
_cell_length_c 8.315250
_cell_angle_alpha 123.532874
_cell_angle_beta 43.216870
_cell_angle_gamma 107.119544
_cell_volume 713.833425
_symmetry_space_group_name_H-M "P -1"
_symmetry_group_IT_number 2
_symmetry_cell_setting 'triclinic'
loop_
_space_group_symop_operation_xyz
x,y,z
-x,-y,-z
loop_
_atom_site_type_symbol
_atom_site_label
_atom_site_fract_x
_atom_site_fract_y
_atom_site_fract_z
Si Si1 0.474141 0.852198 0.169269
Si Si2 0.036184 0.895732 0.637924
Si Si3 0.329698 0.649781 0.457422
Si Si4 0.601019 0.984981 0.046388
Si Si5 0.167328 0.135466 0.532721
Si Si6 0.704908 0.313767 0.799615
Si Si7 0.718355 0.904771 0.015586
Si Si8 0.952088 0.448955 0.851672
O O1 0.389012 0.863832 0.383248
O O2 0.500000 0.500000 0.000000
O O3 0.516077 0.996942 0.260567
O O4 0.500000 0.000000 0.000000
O O5 0.053947 0.717228 0.362722
O O6 0.992359 0.714108 0.795227
O O7 0.108485 0.937683 0.565245
O O8 0.994282 0.215611 0.792921
O O9 0.368517 0.308191 0.242608
O O10 0.286872 0.649582 0.396090
O O11 0.282367 0.802829 0.773624
O O12 0.648774 0.963004 0.084633
O O13 0.624608 0.255475 0.997613
O O14 0.205817 0.187574 0.292920
O O15 0.235039 0.960905 0.400631
O O16 0.124082 0.412562 0.834465
O O17 0.711544 0.593245 0.995317
#
# Coordination Sequence:
#
# PCOD9089332 Si02
#       8
#     2   2   2   2   2   2   2   2
#     4  10  19  37  68  91 119 170 217 266 329 375
#     4  10  23  42  68  97 125 156 214 258 309 373
#     4  10  21  40  63  87 127 165 215 265 320 373
#     4   9  20  40  60  86 126 160 215 266 323 371
#     4  11  24  39  64  88 127 167 204 249 322 370
#     4  10  22  39  59  88 127 165 210 262 306 384
#     4  10  24  39  58  94 126 167 214 261 310 386
#     4  10  23  43  67  96 126 160 205 265 308 370
#
# _framework density 22.414193000000001
#
# number of rings (size 3 to 8) (size 9 to 14) (size 15 to 20)
#    0.000    2.000    1.250    0.750    3.500    6.500 
#    2.250    0.625    0.000    0.000    0.000    0.000 
#    0.000    0.000    0.000    0.000    0.000    0.000 
#
# Total GULP energy -89166.980301 kJ/mol
# GULP energy per Si atom -5572.936269 kJ/mol
# Density = 2.236318 g / cm^3
# Si number density = 22.414193 Si / 1000 Ang^3
#
#
#
# Elastic Constant Matrix: (Units=GPa)
#
#
# Indices 1 2 3 4 5 6 
#
# 1 41.5008 5.8127 0.5797 2.8995 -2.6739 5.7282
# 2 5.8127 82.5969 16.5947 3.3982 7.3041 -5.0043
# 3 0.5797 16.5947 53.2387 5.8439 10.4749 2.0401
# 4 2.8995 3.3982 5.8439 21.3741 6.0415 1.9399
# 5 -2.6739 7.3041 10.4749 6.0415 25.6676 2.9852
# 6 5.7282 -5.0043 2.0401 1.9399 2.9852 28.0634
#
#
#
# Elastic Compliance Matrix: (Units=1/GPa)
#
#
# Indices 1 2 3 4 5 6 
#
# 1 0.025871 -0.002496 0.000189 -0.004026 0.004972 -0.005990
# 2 -0.002496 0.013513 -0.003711 -0.000286 -0.002933 0.003521
# 3 0.000189 -0.003711 0.021699 -0.003314 -0.006846 -0.001321
# 4 -0.004026 -0.000286 -0.003314 0.051503 -0.010947 -0.001384
# 5 0.004972 -0.002933 -0.006846 -0.010947 0.046289 -0.005207
# 6 -0.005990 0.003521 -0.001321 -0.001384 -0.005207 0.038230
#
#
# Mechanical properties :
#
#
# Convention : Reuss Voigt Hill
#
# Bulk Modulus (GPa) = 20.38811 24.81229 22.60020
# Shear Modulus (GPa) = 22.17400 25.31097 23.74248
#
# Velocity S-wave (km/s) = 3.14870 3.36406 3.25816
# Velocity P-wave (km/s) = 4.72598 5.11695 4.92534
#
# Compressibility (1/GPa) = 0.04904820
#
# Stress axis : x y z
#
# Youngs Moduli (GPa) = 38.65286 74.00461 46.08417
#
# Poissons Ratio (x) = 0.18469 -0.00873
# Poissons Ratio (y) = 0.09647 0.17103
# Poissons Ratio (z) = -0.00732 0.27465
#
# Static dielectric constant tensor:
#      x y z
#    x 1.859920 -0.025160 0.026620 
#    y -0.025160 1.952170 -0.031900 
#    z 0.026620 -0.031900 1.861150 
# 
# From -- ./inp_files/48093.got.cif
#   From: 2010.05.17/outbox.cif.g08.bks.cpg/sg2_25_cif.got.tgz:48093.got - 2010.06.03 11:33:40.
