data_PCOD9089799
_publ_section_title
;
Structure prediction by ZEFSAII (Michael W. Deem and Ramdas Pophale) SiO2 
 PCOD9089799
Probable space group: P -1
;
_chemical_formula_sum "Si O2"
_cell_formula_units_Z 16
_cell_length_a 29.362688
_cell_length_b 9.160293
_cell_length_c 14.843758
_cell_angle_alpha 141.136952
_cell_angle_beta 21.854451
_cell_angle_gamma 142.338522
_cell_volume 890.993743
_symmetry_space_group_name_H-M "P -1"
_symmetry_group_IT_number 2
_symmetry_cell_setting 'triclinic'
loop_
_space_group_symop_operation_xyz
x,y,z
-x,-y,-z
loop_
_atom_site_type_symbol
_atom_site_label
_atom_site_fract_x
_atom_site_fract_y
_atom_site_fract_z
Si Si1 0.573472 0.282455 0.478690
Si Si2 0.929484 0.303968 0.607164
Si Si3 0.650440 0.616741 0.963626
Si Si4 0.646026 0.092715 0.078964
Si Si5 0.067477 0.289011 0.513014
Si Si6 0.784820 0.386089 0.293229
Si Si7 0.023386 0.212386 0.756978
Si Si8 0.569512 0.293558 0.796023
O O1 0.609222 0.271765 0.303849
O O2 0.699868 0.371780 0.352328
O O3 0.500000 0.000000 0.500000
O O4 0.467153 0.409164 0.765324
O O5 0.000000 0.500000 0.500000
O O6 0.981225 0.391856 0.654707
O O7 0.964292 0.055493 0.403035
O O8 0.776805 0.227415 0.854470
O O9 0.791918 0.659407 0.762146
O O10 0.621279 0.377735 0.839963
O O11 0.663376 0.860940 0.995034
O O12 0.534026 0.964959 0.153923
O O13 0.072984 0.355149 0.640165
O O14 0.000000 0.000000 0.500000
O O15 0.885515 0.643148 0.261015
O O16 0.680999 0.315603 0.529659
O O17 0.877190 0.214343 0.035646
O O18 0.500000 0.500000 0.000000
#
# Coordination Sequence:
#
# PCOD9089799 Si02
#       8
#     2   2   2   2   2   2   2   2
#     4  10  19  26  48  85 116 135 164 224 285 323
#     4  11  23  37  55  75 109 153 185 219 272 332
#     4  10  17  29  51  84 107 136 174 229 284 310
#     4  10  18  31  50  77 108 139 180 221 267 322
#     4  10  18  31  53  75 106 134 180 234 259 310
#     4  11  18  29  51  86 117 135 171 233 282 315
#     4  10  21  32  54  83 110 141 184 226 274 316
#     4  10  16  28  49  79 113 138 172 223 276 330
#
# _framework density 17.957477000000001
#
# number of rings (size 3 to 8) (size 9 to 14) (size 15 to 20)
#    0.000    1.750    7.500    1.500    5.250    0.000 
#    0.000    0.000    0.000   10.500    0.000    0.000 
#    0.000    0.000    0.000    0.000    0.000    0.000 
#
# Total GULP energy -89106.106323 kJ/mol
# GULP energy per Si atom -5569.131645 kJ/mol
# Density = 1.791660 g / cm^3
# Si number density = 17.957477 Si / 1000 Ang^3
#
#
#
# Elastic Constant Matrix: (Units=GPa)
#
#
# Indices 1 2 3 4 5 6 
#
# 1 65.8192 38.4986 27.0218 -9.8446 4.3360 28.4194
# 2 38.4986 49.9302 42.1973 -17.3266 6.6908 11.3151
# 3 27.0218 42.1973 150.4381 -25.2103 9.2418 16.6325
# 4 -9.8446 -17.3266 -25.2103 22.3486 10.5098 -0.8438
# 5 4.3360 6.6908 9.2418 10.5098 28.3157 -6.5967
# 6 28.4194 11.3151 16.6325 -0.8438 -6.5967 31.2480
#
#
#
# Elastic Compliance Matrix: (Units=1/GPa)
#
#
# Indices 1 2 3 4 5 6 
#
# 1 0.051313 -0.025731 0.007870 0.020427 -0.022588 -0.045757
# 2 -0.025731 0.063272 -0.003231 0.047163 -0.028028 -0.002433
# 3 0.007870 -0.003231 0.012627 0.022376 -0.016499 -0.015588
# 4 0.020427 0.047163 0.022376 0.157784 -0.094895 -0.063339
# 5 -0.022588 -0.028028 -0.016499 -0.094895 0.099497 0.057917
# 6 -0.045757 -0.002433 -0.015588 -0.063339 0.057917 0.093311
#
#
# Mechanical properties :
#
#
# Convention : Reuss Voigt Hill
#
# Bulk Modulus (GPa) = 11.76096 53.51367 32.63732
# Shear Modulus (GPa) = 9.11857 26.94711 18.03284
#
# Velocity S-wave (km/s) = 2.25586 3.87797 3.17234
# Velocity P-wave (km/s) = 3.65359 7.06516 5.62429
#
# Compressibility (1/GPa) = 0.08502704
#
# Stress axis : x y z
#
# Youngs Moduli (GPa) = 19.48830 15.80470 79.19779
#
# Poissons Ratio (x) = 0.40668 -0.62332
# Poissons Ratio (y) = 0.50146 0.25593
# Poissons Ratio (z) = -0.15338 0.05107
#
# Static dielectric constant tensor:
#      x y z
#    x 1.691820 0.038730 0.019680 
#    y 0.038730 1.600480 0.003000 
#    z 0.019680 0.003000 1.649040 
# 
# From -- ./inp_files/392668.got.cif
#   From: 2010.05.17/outbox.cif.g08.bks.cpg/sg2_197_cif.got.tgz:392668.got - 2010.06.03 11:33:40.
