data_PCOD9089711
_publ_section_title
;
Structure prediction by ZEFSAII (Michael W. Deem and Ramdas Pophale) SiO2 
 PCOD9089711
Probable space group: P -1
;
_chemical_formula_sum "Si O2"
_cell_formula_units_Z 16
_cell_length_a 11.727586
_cell_length_b 11.889634
_cell_length_c 10.131944
_cell_angle_alpha 137.535264
_cell_angle_beta 47.381711
_cell_angle_gamma 128.297660
_cell_volume 681.021175
_symmetry_space_group_name_H-M "P -1"
_symmetry_group_IT_number 2
_symmetry_cell_setting 'triclinic'
loop_
_space_group_symop_operation_xyz
x,y,z
-x,-y,-z
loop_
_atom_site_type_symbol
_atom_site_label
_atom_site_fract_x
_atom_site_fract_y
_atom_site_fract_z
Si Si1 0.679878 0.139762 0.353162
Si Si2 0.559283 0.761388 0.191419
Si Si3 0.241021 0.222132 0.291279
Si Si4 0.998943 0.197251 0.657074
Si Si5 0.427795 0.588406 0.753896
Si Si6 0.263413 0.483805 0.054193
Si Si7 0.076195 0.722122 0.487632
Si Si8 0.765948 0.180646 0.033537
O O1 0.522714 0.196315 0.572007
O O2 0.807791 0.185917 0.410163
O O3 0.752047 0.224289 0.234437
O O4 0.621977 0.934619 0.210942
O O5 0.706477 0.686075 0.052467
O O6 0.411686 0.630724 0.124228
O O7 0.411106 0.337462 0.224647
O O8 0.171430 0.284604 0.537345
O O9 0.100288 0.249255 0.329254
O O10 0.250701 0.025428 0.133834
O O11 0.882034 0.201726 0.627751
O O12 0.932055 0.259195 0.895466
O O13 0.000000 0.000000 0.500000
O O14 0.500000 0.500000 0.500000
O O15 0.296413 0.489261 0.875912
O O16 0.364306 0.746172 0.879856
O O17 0.105663 0.533607 0.276862
#
# Coordination Sequence:
#
# PCOD9089711 Si02
#       8
#     2   2   2   2   2   2   2   2
#     4  10  20  36  61  96 119 151 203 255 283 346
#     4   9  20  37  57  87 124 158 202 238 297 353
#     4   9  21  39  59  85 121 163 195 236 304 361
#     4   8  17  38  58  87 116 160 192 235 298 360
#     4  12  23  37  59  93 123 148 204 255 292 344
#     4  10  19  38  61  81 121 170 193 236 301 362
#     4   9  19  39  63  85 121 161 193 238 305 362
#     4  11  20  38  64  91 119 153 200 247 296 346
#
# _framework density 23.494129999999998
#
# number of rings (size 3 to 8) (size 9 to 14) (size 15 to 20)
#    0.750    1.500    1.250    1.875    0.000    0.500 
#   11.250    3.750    0.000   15.750    0.000    0.000 
#    0.000    0.000    0.000    0.000    0.000    0.000 
#
# Total GULP energy -89224.093347 kJ/mol
# GULP energy per Si atom -5576.505834 kJ/mol
# Density = 2.344066 g / cm^3
# Si number density = 23.494130 Si / 1000 Ang^3
#
#
#
# Elastic Constant Matrix: (Units=GPa)
#
#
# Indices 1 2 3 4 5 6 
#
# 1 69.2009 13.9994 22.2673 7.0659 -23.6300 -11.7677
# 2 13.9994 31.2535 26.5107 -23.8912 -6.0040 -3.3761
# 3 22.2673 26.5107 94.1373 -13.0238 -14.5775 -12.8582
# 4 7.0659 -23.8912 -13.0238 39.2975 -13.1553 -5.7289
# 5 -23.6300 -6.0040 -14.5775 -13.1553 42.0182 1.5461
# 6 -11.7677 -3.3761 -12.8582 -5.7289 1.5461 31.4474
#
#
#
# Elastic Compliance Matrix: (Units=1/GPa)
#
#
# Indices 1 2 3 4 5 6 
#
# 1 0.021896 -0.016823 -0.000694 -0.011920 0.005803 0.003647
# 2 -0.016823 0.123890 -0.011822 0.087155 0.030819 0.016534
# 3 -0.000694 -0.011822 0.015098 -0.000460 0.002852 0.004420
# 4 -0.011920 0.087155 -0.000460 0.094959 0.034573 0.020308
# 5 0.005803 0.030819 0.002852 0.034573 0.042881 0.010836
# 6 0.003647 0.016534 0.004420 0.020308 0.010836 0.039913
#
#
# Mechanical properties :
#
#
# Convention : Reuss Voigt Hill
#
# Bulk Modulus (GPa) = 9.78409 35.57186 22.67798
# Shear Modulus (GPa) = 11.59059 31.34024 21.46542
#
# Velocity S-wave (km/s) = 2.22354 3.65630 3.02594
# Velocity P-wave (km/s) = 3.28111 5.74442 4.67782
#
# Compressibility (1/GPa) = 0.10220675
#
# Stress axis : x y z
#
# Youngs Moduli (GPa) = 45.67023 8.07166 66.23369
#
# Poissons Ratio (x) = 0.13579 0.04598
# Poissons Ratio (y) = 0.76830 0.78301
# Poissons Ratio (z) = 0.03170 0.09542
#
# Static dielectric constant tensor:
#      x y z
#    x 1.896400 -0.006570 -0.008680 
#    y -0.006570 1.853880 0.008460 
#    z -0.008680 0.008460 1.996940 
# 
# From -- ./inp_files/260542.got.cif
#   From: 2010.05.17/outbox.cif.g08.bks.cpg/sg2_131_cif.got.tgz:260542.got - 2010.06.03 11:33:40.
