data_PCOD9089939
_publ_section_title
;
Structure prediction by ZEFSAII (Michael W. Deem and Ramdas Pophale) SiO2 
 PCOD9089939
Probable space group: P -1
;
_chemical_formula_sum "Si O2"
_cell_formula_units_Z 16
_cell_length_a 11.284923
_cell_length_b 21.995154
_cell_length_c 16.446876
_cell_angle_alpha 23.691452
_cell_angle_beta 149.181428
_cell_angle_gamma 135.564047
_cell_volume 786.711240
_symmetry_space_group_name_H-M "P -1"
_symmetry_group_IT_number 2
_symmetry_cell_setting 'triclinic'
loop_
_space_group_symop_operation_xyz
x,y,z
-x,-y,-z
loop_
_atom_site_type_symbol
_atom_site_label
_atom_site_fract_x
_atom_site_fract_y
_atom_site_fract_z
Si Si1 0.107424 0.501099 0.929205
Si Si2 0.981414 0.016959 0.870770
Si Si3 0.513811 0.951486 0.926796
Si Si4 0.410093 0.787402 0.918397
Si Si5 0.569024 0.355858 0.152961
Si Si6 0.671968 0.589666 0.456133
Si Si7 0.885647 0.744261 0.640162
Si Si8 0.661271 0.836114 0.840912
O O1 0.309640 0.577752 0.930680
O O2 0.951037 0.498278 0.760057
O O3 0.925648 0.620613 0.741245
O O4 0.197230 0.331768 0.236092
O O5 0.774520 0.191181 0.511174
O O6 0.903429 0.871608 0.967113
O O7 0.239148 0.013184 0.990121
O O8 0.000000 0.000000 0.000000
O O9 0.387874 0.935236 0.785694
O O10 0.320432 0.082897 0.706829
O O11 0.591349 0.769104 0.227265
O O12 0.517189 0.817423 0.859809
O O13 0.149996 0.762254 0.789566
O O14 0.607433 0.633880 0.269587
O O15 0.342767 0.307137 0.045643
O O16 0.500000 0.500000 0.000000
O O17 0.500000 0.500000 0.500000
O O18 0.500000 0.000000 0.500000
#
# Coordination Sequence:
#
# PCOD9089939 Si02
#       8
#     2   2   2   2   2   2   2   2
#     4  11  22  41  61  90 133 167 211 274 327 381
#     4  11  21  42  66  92 131 170 212 268 319 386
#     4  10  22  37  66  94 128 170 215 257 321 400
#     4  10  19  38  62  93 128 163 212 265 317 391
#     4  11  24  42  67  94 124 172 223 271 327 387
#     4  10  20  38  62  90 130 168 202 259 331 379
#     4  11  23  37  65  96 127 171 214 264 324 390
#     4  10  22  40  66  93 126 171 218 274 325 374
#
# _framework density 20.33783
#
# number of rings (size 3 to 8) (size 9 to 14) (size 15 to 20)
#    0.750    0.750    5.000    0.375    1.750    0.500 
#    0.000    1.875    2.750    0.000    0.000    0.000 
#    0.000    0.000    0.000    0.000    0.000    0.000 
#
# Total GULP energy -89218.303341 kJ/mol
# GULP energy per Si atom -5576.143959 kJ/mol
# Density = 2.029154 g / cm^3
# Si number density = 20.337830 Si / 1000 Ang^3
#
#
#
# Elastic Constant Matrix: (Units=GPa)
#
#
# Indices 1 2 3 4 5 6 
#
# 1 63.6471 26.9176 24.1708 -10.1417 -24.3182 4.7673
# 2 26.9176 146.8696 16.1927 -1.1419 -10.5372 17.9487
# 3 24.1708 16.1927 40.0335 -0.0777 -21.1078 4.6666
# 4 -10.1417 -1.1419 -0.0777 28.1586 1.0220 -4.6765
# 5 -24.3182 -10.5372 -21.1078 1.0220 30.9686 -9.1265
# 6 4.7673 17.9487 4.6666 -4.6765 -9.1265 31.5970
#
#
#
# Elastic Compliance Matrix: (Units=1/GPa)
#
#
# Indices 1 2 3 4 5 6 
#
# 1 0.027513 -0.003647 -0.006787 0.010008 0.016971 0.005306
# 2 -0.003647 0.008069 -0.002005 -0.001687 -0.002847 -0.004809
# 3 -0.006787 -0.002005 0.041914 -0.002877 0.023324 0.002284
# 4 0.010008 -0.001687 -0.002877 0.040078 0.006243 0.007608
# 5 0.016971 -0.002847 0.023324 0.006243 0.064839 0.015264
# 6 0.005306 -0.004809 0.002284 0.007608 0.015264 0.038777
#
#
# Mechanical properties :
#
#
# Convention : Reuss Voigt Hill
#
# Bulk Modulus (GPa) = 19.00546 42.79025 30.89786
# Shear Modulus (GPa) = 18.96753 30.36277 24.66515
#
# Velocity S-wave (km/s) = 3.05720 3.86803 3.48627
# Velocity P-wave (km/s) = 4.67195 6.40580 5.60631
#
# Compressibility (1/GPa) = 0.05261647
#
# Stress axis : x y z
#
# Youngs Moduli (GPa) = 36.34611 123.93696 23.85835
#
# Poissons Ratio (x) = 0.45203 0.16193
# Poissons Ratio (y) = 0.13256 0.04784
# Poissons Ratio (z) = 0.24669 0.24853
#
# Static dielectric constant tensor:
#      x y z
#    x 1.736770 -0.040050 -0.034960 
#    y -0.040050 1.736980 0.022880 
#    z -0.034960 0.022880 1.706660 
# 
# From -- ./inp_files/570936.got.cif
#   From: 2010.05.17/outbox.cif.g08.bks.cpg/sg2_286_cif.got.tgz:570936.got - 2010.06.03 11:33:40.
