data_PCOD9089934
_publ_section_title
;
Structure prediction by ZEFSAII (Michael W. Deem and Ramdas Pophale) SiO2 
 PCOD9089934
Probable space group: P -1
;
_chemical_formula_sum "Si O2"
_cell_formula_units_Z 14
_cell_length_a 17.375085
_cell_length_b 13.070481
_cell_length_c 11.890071
_cell_angle_alpha 144.444497
_cell_angle_beta 40.983225
_cell_angle_gamma 157.000839
_cell_volume 613.277213
_symmetry_space_group_name_H-M "P -1"
_symmetry_group_IT_number 2
_symmetry_cell_setting 'triclinic'
loop_
_space_group_symop_operation_xyz
x,y,z
-x,-y,-z
loop_
_atom_site_type_symbol
_atom_site_label
_atom_site_fract_x
_atom_site_fract_y
_atom_site_fract_z
Si Si1 0.225868 0.838348 0.552455
Si Si2 0.846964 0.848389 0.133474
Si Si3 0.815822 0.350530 0.936261
Si Si4 0.094308 0.180582 0.377470
Si Si5 0.571231 0.190567 0.866256
Si Si6 0.121089 0.920237 0.262681
Si Si7 0.792903 0.293298 0.300384
O O1 0.344345 0.853977 0.353516
O O2 0.285694 0.889017 0.662150
O O3 0.000000 0.500000 0.500000
O O4 0.227399 0.041007 0.691878
O O5 0.674577 0.499751 0.003943
O O6 0.969108 0.965132 0.217502
O O7 0.000000 0.000000 0.000000
O O8 0.988278 0.507610 0.795820
O O9 0.640079 0.216772 0.937566
O O10 0.764618 0.108592 0.840076
O O11 0.925872 0.609729 0.136063
O O12 0.203933 0.491064 0.498382
O O13 0.947450 0.062327 0.533555
O O14 0.216058 0.170565 0.293449
O O15 0.343591 0.920776 0.844668
#
# Coordination Sequence:
#
# PCOD9089934 Si02
#       7
#     2   2   2   2   2   2   2
#     4  12  21  40  63  91 128 168 206 254 315 370
#     4  12  22  38  69  95 123 170 210 255 313 377
#     4  10  19  40  63  89 121 163 211 257 315 365
#     4  10  19  38  62  93 122 164 212 250 316 373
#     4  12  24  41  64  94 130 164 208 265 312 371
#     4   9  19  35  67  86 118 172 206 253 312 372
#     4  11  23  40  63  92 129 163 206 263 315 370
#
# _framework density 22.828174000000001
#
# number of rings (size 3 to 8) (size 9 to 14) (size 15 to 20)
#    0.000    1.143    5.714    1.286    0.000    0.571 
#    2.571    7.143    0.000    0.000    0.000    0.000 
#    0.000    0.000    0.000    0.000    0.000    0.000 
#
# Total GULP energy -78335.836424 kJ/mol
# GULP energy per Si atom -5595.416887 kJ/mol
# Density = 2.277622 g / cm^3
# Si number density = 22.828174 Si / 1000 Ang^3
#
#
#
# Elastic Constant Matrix: (Units=GPa)
#
#
# Indices 1 2 3 4 5 6 
#
# 1 144.3424 31.9237 24.7315 1.7869 0.2813 -10.1646
# 2 31.9237 38.1411 15.4068 -0.1307 -5.0752 3.7373
# 3 24.7315 15.4068 96.9825 -1.6647 -5.1554 -10.2122
# 4 1.7869 -0.1307 -1.6647 33.1739 -10.6659 9.1532
# 5 0.2813 -5.0752 -5.1554 -10.6659 48.7753 9.0798
# 6 -10.1646 3.7373 -10.2122 9.1532 9.0798 32.1485
#
#
#
# Elastic Compliance Matrix: (Units=1/GPa)
#
#
# Indices 1 2 3 4 5 6 
#
# 1 0.009309 -0.008389 -0.000676 -0.002853 -0.002599 0.005250
# 2 -0.008389 0.037225 -0.004575 0.005958 0.006994 -0.012105
# 3 -0.000676 -0.004575 0.011637 -0.000621 -0.000167 0.004239
# 4 -0.002853 0.005958 -0.000621 0.038624 0.012030 -0.016186
# 5 -0.002599 0.006994 -0.000167 0.012030 0.026187 -0.012509
# 6 0.005250 -0.012105 0.004239 -0.016186 -0.012509 0.043661
#
#
# Mechanical properties :
#
#
# Convention : Reuss Voigt Hill
#
# Bulk Modulus (GPa) = 32.37029 47.06555 39.71792
# Shear Modulus (GPa) = 24.48353 36.64648 30.56501
#
# Velocity S-wave (km/s) = 3.27848 4.01099 3.66309
# Velocity P-wave (km/s) = 5.34247 6.48944 5.94368
#
# Compressibility (1/GPa) = 0.03089253
#
# Stress axis : x y z
#
# Youngs Moduli (GPa) = 107.42113 26.86357 85.93280
#
# Poissons Ratio (x) = 0.22536 0.05805
# Poissons Ratio (y) = 0.90114 0.39314
# Poissons Ratio (z) = 0.07257 0.12290
#
# Static dielectric constant tensor:
#      x y z
#    x 1.892540 -0.022060 -0.031630 
#    y -0.022060 1.847290 -0.020310 
#    z -0.031630 -0.020310 1.867050 
# 
# From -- ./inp_files/351617.got.cif
#   From: 2010.05.17/outbox.cif.g08.bks.cpg/sg2_176_cif.got.tgz:351617.got - 2010.06.03 11:33:40.
