data_PCOD9089258
_publ_section_title
;
Structure prediction by ZEFSAII (Michael W. Deem and Ramdas Pophale) SiO2 
 PCOD9089258
Probable space group: P -1
;
_chemical_formula_sum "Si O2"
_cell_formula_units_Z 14
_cell_length_a 13.675252
_cell_length_b 9.364929
_cell_length_c 7.459799
_cell_angle_alpha 95.835738
_cell_angle_beta 63.659690
_cell_angle_gamma 54.813157
_cell_volume 610.787297
_symmetry_space_group_name_H-M "P -1"
_symmetry_group_IT_number 2
_symmetry_cell_setting 'triclinic'
loop_
_space_group_symop_operation_xyz
x,y,z
-x,-y,-z
loop_
_atom_site_type_symbol
_atom_site_label
_atom_site_fract_x
_atom_site_fract_y
_atom_site_fract_z
Si Si1 0.647139 0.936542 0.969970
Si Si2 0.525264 0.841801 0.309320
Si Si3 0.252091 0.493816 0.674487
Si Si4 0.834784 0.208841 0.507009
Si Si5 0.421185 0.724285 0.101132
Si Si6 0.187429 0.254570 0.542111
Si Si7 0.057686 0.766860 0.206658
O O1 0.783831 0.776755 0.701276
O O2 0.618398 0.133889 0.013100
O O3 0.642134 0.858951 0.151489
O O4 0.500000 0.000000 0.000000
O O5 0.583896 0.716874 0.426493
O O6 0.529859 0.716178 0.138617
O O7 0.351207 0.053293 0.464676
O O8 0.255464 0.613929 0.539138
O O9 0.163909 0.437541 0.655197
O O10 0.173645 0.626339 0.934689
O O11 0.736388 0.168003 0.659825
O O12 0.876924 0.269436 0.650314
O O13 0.976003 0.996957 0.274157
O O14 0.500000 0.500000 0.000000
O O15 0.058091 0.261006 0.699876
#
# Coordination Sequence:
#
# PCOD9089258 Si02
#       7
#     2   2   2   2   2   2   2
#     4   8  18  37  65  89 129 168 211 267 323 383
#     4  10  22  43  64 101 137 167 219 279 330 393
#     4  12  26  40  70 100 135 173 225 272 329 403
#     4  11  25  44  71  93 138 179 216 277 334 390
#     4  10  19  37  67 100 126 170 223 265 329 392
#     4  10  21  44  67  96 134 173 221 275 331 385
#     4  11  24  49  65  95 134 180 227 269 326 398
#
# _framework density 22.921236
#
# number of rings (size 3 to 8) (size 9 to 14) (size 15 to 20)
#    0.000    2.000    2.857    2.143    8.000    1.143 
#    2.571    1.429    0.000    0.000    0.000    0.000 
#    0.000    0.000    0.000    0.000    0.000    0.000 
#
# Total GULP energy -78136.750287 kJ/mol
# GULP energy per Si atom -5581.196449 kJ/mol
# Density = 2.286907 g / cm^3
# Si number density = 22.921236 Si / 1000 Ang^3
#
#
#
# Elastic Constant Matrix: (Units=GPa)
#
#
# Indices 1 2 3 4 5 6 
#
# 1 54.0463 44.1329 25.8888 -14.1323 8.9213 15.4083
# 2 44.1329 123.1964 36.7693 -23.7564 4.2534 11.7563
# 3 25.8888 36.7693 74.9354 -2.8977 5.8456 5.3294
# 4 -14.1323 -23.7564 -2.8977 39.5093 12.4265 11.4462
# 5 8.9213 4.2534 5.8456 12.4265 28.5725 6.8115
# 6 15.4083 11.7563 5.3294 11.4462 6.8115 40.0279
#
#
#
# Elastic Compliance Matrix: (Units=1/GPa)
#
#
# Indices 1 2 3 4 5 6 
#
# 1 0.038285 -0.006128 -0.007385 0.018115 -0.013888 -0.014771
# 2 -0.006128 0.012979 -0.003697 0.006561 -0.001500 -0.002581
# 3 -0.007385 -0.003697 0.017278 -0.004627 0.000657 0.002839
# 4 0.018115 0.006561 -0.004627 0.047589 -0.022059 -0.018139
# 5 -0.013888 -0.001500 0.000657 -0.022059 0.048107 0.003821
# 6 -0.014771 -0.002581 0.002839 -0.018139 0.003821 0.035585
#
#
# Mechanical properties :
#
#
# Convention : Reuss Voigt Hill
#
# Bulk Modulus (GPa) = 29.30750 51.75110 40.52930
# Shear Modulus (GPa) = 20.35680 31.31441 25.83560
#
# Velocity S-wave (km/s) = 2.98337 3.70019 3.36094
# Velocity P-wave (km/s) = 4.96802 6.39390 5.72552
#
# Compressibility (1/GPa) = 0.03412095
#
# Stress axis : x y z
#
# Youngs Moduli (GPa) = 26.11991 77.04628 57.87615
#
# Poissons Ratio (x) = 0.47218 0.42743
# Poissons Ratio (y) = 0.16008 0.21397
# Poissons Ratio (z) = 0.19290 0.28484
#
# Static dielectric constant tensor:
#      x y z
#    x 1.869540 -0.007480 0.027310 
#    y -0.007480 1.903600 0.056170 
#    z 0.027310 0.056170 1.948690 
# 
# From -- ./inp_files/295384.got.cif
#   From: 2010.05.17/outbox.cif.g08.bks.cpg/sg2_148_cif.got.tgz:295384.got - 2010.06.03 11:33:40.
