data_PCOD9089598
_publ_section_title
;
Structure prediction by ZEFSAII (Michael W. Deem and Ramdas Pophale) SiO2 
 PCOD9089598
Probable space group: P -1
;
_chemical_formula_sum "Si O2"
_cell_formula_units_Z 12
_cell_length_a 22.392735
_cell_length_b 9.343379
_cell_length_c 16.796516
_cell_angle_alpha 34.071179
_cell_angle_beta 16.631995
_cell_angle_gamma 28.009006
_cell_volume 468.295746
_symmetry_space_group_name_H-M "P -1"
_symmetry_group_IT_number 2
_symmetry_cell_setting 'triclinic'
loop_
_space_group_symop_operation_xyz
x,y,z
-x,-y,-z
loop_
_atom_site_type_symbol
_atom_site_label
_atom_site_fract_x
_atom_site_fract_y
_atom_site_fract_z
Si Si1 0.094543 0.213633 0.260924
Si Si2 0.129241 0.873580 0.065287
Si Si3 0.138387 0.335617 0.317334
Si Si4 0.440701 0.739295 0.586580
Si Si5 0.107217 0.762116 0.656884
Si Si6 0.451974 0.865552 0.343269
O O1 0.020241 0.415440 0.342403
O O2 0.976738 0.337061 0.267759
O O3 0.397268 0.025276 0.949434
O O4 0.000000 0.000000 0.500000
O O5 0.289496 0.501519 0.039961
O O6 0.122416 0.030993 0.083605
O O7 0.835896 0.997493 0.372124
O O8 0.224712 0.943688 0.831645
O O9 0.000000 0.500000 0.500000
O O10 0.196607 0.994049 0.412770
O O11 0.687146 0.531828 0.420555
O O12 0.467966 0.897131 0.402369
O O13 0.397636 0.491950 0.712602
#
# Coordination Sequence:
#
# PCOD9089598 Si02
#       6
#     2   2   2   2   2   2
#     4  10  20  41  59  87 125 155 192 249 301 348
#     4  10  19  38  59  91 116 155 205 244 283 352
#     4   9  18  37  62  85 113 154 198 243 288 346
#     4  10  20  38  62  88 119 161 198 244 288 351
#     4   9  21  37  57  90 122 154 196 242 302 351
#     4  10  21  37  63  89 117 159 204 239 293 350
#
# _framework density 25.624831
#
# number of rings (size 3 to 8) (size 9 to 14) (size 15 to 20)
#    0.000    2.333    1.667    0.500    0.000    1.333 
#   18.000    2.500    0.000    0.000    0.000    0.000 
#    0.000    0.000    0.000    0.000    0.000    0.000 
#
# Total GULP energy -66866.302692 kJ/mol
# GULP energy per Si atom -5572.191891 kJ/mol
# Density = 2.556651 g / cm^3
# Si number density = 25.624831 Si / 1000 Ang^3
#
#
#
# Elastic Constant Matrix: (Units=GPa)
#
#
# Indices 1 2 3 4 5 6 
#
# 1 217.9837 35.4452 54.0936 25.6853 39.3490 18.6695
# 2 35.4452 71.0238 44.8404 4.3508 5.4388 8.1885
# 3 54.0936 44.8404 102.3797 2.2304 23.8167 18.3674
# 4 25.6853 4.3508 2.2304 21.8883 -3.6491 5.9152
# 5 39.3490 5.4388 23.8167 -3.6491 44.3056 4.0164
# 6 18.6695 8.1885 18.3674 5.9152 4.0164 27.9624
#
#
#
# Elastic Compliance Matrix: (Units=1/GPa)
#
#
# Indices 1 2 3 4 5 6 
#
# 1 0.007519 -0.001736 -0.001390 -0.009208 -0.006410 -0.000731
# 2 -0.001736 0.020262 -0.008939 -0.000643 0.003744 0.000695
# 3 -0.001390 -0.008939 0.017067 0.002669 -0.005955 -0.007374
# 4 -0.009208 -0.000643 0.002669 0.061240 0.012792 -0.010208
# 5 -0.006410 0.003744 -0.005955 0.012792 0.032078 -0.000219
# 6 -0.000731 0.000695 -0.007374 -0.010208 -0.000219 0.043081
#
#
# Mechanical properties :
#
#
# Convention : Reuss Voigt Hill
#
# Bulk Modulus (GPa) = 48.26412 73.34950 60.80681
# Shear Modulus (GPa) = 23.55343 35.96513 29.75928
#
# Velocity S-wave (km/s) = 3.03506 3.75043 3.41155
# Velocity P-wave (km/s) = 5.58193 6.88773 6.26892
#
# Compressibility (1/GPa) = 0.02071933
#
# Stress axis : x y z
#
# Youngs Moduli (GPa) = 132.98963 49.35294 58.59275
#
# Poissons Ratio (x) = 0.08568 0.08143
# Poissons Ratio (y) = 0.23087 0.52375
# Poissons Ratio (z) = 0.18482 0.44116
#
# Static dielectric constant tensor:
#      x y z
#    x 2.044850 -0.029220 -0.011390 
#    y -0.029220 2.160270 -0.025370 
#    z -0.011390 -0.025370 2.064050 
# 
# From -- ./inp_files/163703.got.cif
#   From: 2010.05.17/outbox.cif.g08.bks.cpg/sg2_82_cif.got.tgz:163703.got - 2010.06.03 11:33:40.
