data_PCOD9089879
_publ_section_title
;
Structure prediction by ZEFSAII (Michael W. Deem and Ramdas Pophale) SiO2 
 PCOD9089879
Probable space group: P -1
;
_chemical_formula_sum "Si O2"
_cell_formula_units_Z 16
_cell_length_a 5.566193
_cell_length_b 27.021703
_cell_length_c 5.121768
_cell_angle_alpha 113.996029
_cell_angle_beta 84.153481
_cell_angle_gamma 119.953406
_cell_volume 604.771070
_symmetry_space_group_name_H-M "P -1"
_symmetry_group_IT_number 2
_symmetry_cell_setting 'triclinic'
loop_
_space_group_symop_operation_xyz
x,y,z
-x,-y,-z
loop_
_atom_site_type_symbol
_atom_site_label
_atom_site_fract_x
_atom_site_fract_y
_atom_site_fract_z
Si Si1 0.707335 0.783176 0.870385
Si Si2 0.326350 0.017643 0.257326
Si Si3 0.073406 0.630776 0.244784
Si Si4 0.284425 0.426884 0.360104
Si Si5 0.156108 0.099590 0.099752
Si Si6 0.058876 0.749054 0.372674
Si Si7 0.440573 0.332216 0.082795
Si Si8 0.203685 0.868548 0.392624
O O1 0.497682 0.719446 0.907642
O O2 0.975887 0.830572 0.117190
O O3 0.615385 0.832056 0.886111
O O4 0.834995 0.758369 0.583569
O O5 0.256356 0.062765 0.191849
O O6 0.527773 0.064335 0.560178
O O7 0.500000 0.000000 0.000000
O O8 0.042286 0.952760 0.204854
O O9 0.963056 0.594717 0.449275
O O10 0.133307 0.702267 0.408621
O O11 0.357081 0.637510 0.119228
O O12 0.846229 0.594834 0.961617
O O13 0.500000 0.500000 0.500000
O O14 0.438650 0.388742 0.351350
O O15 0.959645 0.115912 0.334137
O O16 0.880365 0.710695 0.059715
O O17 0.279830 0.818338 0.399022
#
# Coordination Sequence:
#
# PCOD9089879 Si02
#       8
#     2   2   2   2   2   2   2   2
#     4  10  19  38  62  87 125 168 213 283 334 389
#     4   9  18  37  55  79 118 163 212 270 333 405
#     4  11  24  42  70 100 133 187 225 271 346 398
#     4  11  25  45  69 102 141 178 227 281 329 403
#     4   9  19  36  57  80 118 163 213 273 332 399
#     4   9  20  39  59  88 131 166 213 278 330 395
#     4  10  23  41  65  95 137 172 223 279 330 402
#     4   9  19  34  56  86 118 163 211 272 338 396
#
# _framework density 26.456292000000001
#
# number of rings (size 3 to 8) (size 9 to 14) (size 15 to 20)
#    0.000    2.250    1.250    0.375    1.750    4.500 
#    0.000   13.125    0.000    0.000    0.000    0.000 
#    0.000    0.000    0.000    0.000    0.000    0.000 
#
# Total GULP energy -89528.874654 kJ/mol
# GULP energy per Si atom -5595.554666 kJ/mol
# Density = 2.639608 g / cm^3
# Si number density = 26.456292 Si / 1000 Ang^3
#
#
#
# Elastic Constant Matrix: (Units=GPa)
#
#
# Indices 1 2 3 4 5 6 
#
# 1 60.7507 27.8365 19.0925 8.8111 4.0842 0.4890
# 2 27.8365 161.5702 56.3935 28.2654 -9.5601 7.4460
# 3 19.0925 56.3935 96.5916 22.2756 6.3038 -1.6802
# 4 8.8111 28.2654 22.2756 51.8336 8.3101 -0.7494
# 5 4.0842 -9.5601 6.3038 8.3101 37.4328 -15.8253
# 6 0.4890 7.4460 -1.6802 -0.7494 -15.8253 29.9284
#
#
#
# Elastic Compliance Matrix: (Units=1/GPa)
#
#
# Indices 1 2 3 4 5 6 
#
# 1 0.018491 -0.002539 -0.001894 -0.000520 -0.002760 -0.001249
# 2 -0.002539 0.008906 -0.004208 -0.003227 0.003765 -0.000500
# 3 -0.001894 -0.004208 0.014046 -0.003040 -0.002320 0.000563
# 4 -0.000520 -0.003227 -0.003040 0.023436 -0.006362 -0.002136
# 5 -0.002760 0.003765 -0.002320 -0.006362 0.037711 0.018759
# 6 -0.001249 -0.000500 0.000563 -0.002136 0.018759 0.043456
#
#
# Mechanical properties :
#
#
# Convention : Reuss Voigt Hill
#
# Bulk Modulus (GPa) = 41.39026 58.39527 49.89277
# Shear Modulus (GPa) = 29.17478 38.21162 33.69320
#
# Velocity S-wave (km/s) = 3.32438 3.80456 3.57254
# Velocity P-wave (km/s) = 5.51489 6.43582 5.99307
#
# Compressibility (1/GPa) = 0.02416027
#
# Stress axis : x y z
#
# Youngs Moduli (GPa) = 54.08182 112.28571 71.19409
#
# Poissons Ratio (x) = 0.28513 0.13484
# Poissons Ratio (y) = 0.13733 0.29957
# Poissons Ratio (z) = 0.10243 0.47247
#
# Static dielectric constant tensor:
#      x y z
#    x 2.150900 -0.050800 0.071790 
#    y -0.050800 2.093610 -0.037460 
#    z 0.071790 -0.037460 2.089020 
# 
# From -- ./inp_files/13680.got.cif
#   From: 2010.05.17/outbox.cif.g08.bks.cpg/sg2_7_cif.got.tgz:13680.got - 2010.06.03 11:33:40.
