data_PCOD9089390
_publ_section_title
;
Structure prediction by ZEFSAII (Michael W. Deem and Ramdas Pophale) SiO2 
 PCOD9089390
Probable space group: P -1
;
_chemical_formula_sum "Si O2"
_cell_formula_units_Z 16
_cell_length_a 6.327989
_cell_length_b 23.648984
_cell_length_c 5.494282
_cell_angle_alpha 66.181003
_cell_angle_beta 103.284442
_cell_angle_gamma 78.023100
_cell_volume 689.160882
_symmetry_space_group_name_H-M "P -1"
_symmetry_group_IT_number 2
_symmetry_cell_setting 'triclinic'
loop_
_space_group_symop_operation_xyz
x,y,z
-x,-y,-z
loop_
_atom_site_type_symbol
_atom_site_label
_atom_site_fract_x
_atom_site_fract_y
_atom_site_fract_z
Si Si1 0.945744 0.327777 0.616846
Si Si2 0.464336 0.430633 0.164155
Si Si3 0.796521 0.231005 0.069407
Si Si4 0.804174 0.568953 0.394621
Si Si5 0.649914 0.784954 0.271496
Si Si6 0.852539 0.014326 0.683597
Si Si7 0.861128 0.879159 0.908592
Si Si8 0.697838 0.157261 0.553338
O O1 0.706908 0.373958 0.365694
O O2 0.080743 0.375346 0.653413
O O3 0.117339 0.276517 0.566234
O O4 0.888581 0.285777 0.893360
O O5 0.317575 0.435332 0.369224
O O6 0.500000 0.500000 0.000000
O O7 0.357195 0.415391 0.912483
O O8 0.716995 0.224140 0.329964
O O9 0.565511 0.233884 0.855332
O O10 0.002682 0.160359 0.219799
O O11 0.000000 0.500000 0.500000
O O12 0.553626 0.819296 0.436952
O O13 0.701861 0.839951 0.029337
O O14 0.716098 0.091852 0.520637
O O15 0.000000 0.000000 0.500000
O O16 0.000000 0.000000 0.000000
O O17 0.739312 0.957044 0.740648
O O18 0.084485 0.865520 0.168039
#
# Coordination Sequence:
#
# PCOD9089390 Si02
#       8
#     2   2   2   2   2   2   2   2
#     4  11  26  49  72 107 152 197 247 298 372 439
#     4  12  27  52  82 116 154 192 242 303 373 439
#     4  10  21  45  62  97 138 189 241 300 357 440
#     4  12  27  52  82 117 150 193 243 303 371 442
#     4  10  23  45  61 100 139 189 247 297 364 435
#     4  10  19  37  69  99 133 186 242 303 375 430
#     4   9  20  39  64  92 137 180 238 300 376 422
#     4  10  21  40  69  93 140 184 247 302 363 434
#
# _framework density 23.216640000000002
#
# number of rings (size 3 to 8) (size 9 to 14) (size 15 to 20)
#    0.000    1.500    2.500    1.500    0.000    2.500 
#   29.250    0.625    0.000    0.000    0.000    0.000 
#    0.000    0.000    0.000    0.000    0.000    0.000 
#
# Total GULP energy -89353.462956 kJ/mol
# GULP energy per Si atom -5584.591435 kJ/mol
# Density = 2.316380 g / cm^3
# Si number density = 23.216640 Si / 1000 Ang^3
#
#
#
# Elastic Constant Matrix: (Units=GPa)
#
#
# Indices 1 2 3 4 5 6 
#
# 1 134.3657 77.4710 65.7215 -14.8975 -19.5882 -4.2310
# 2 77.4710 124.8745 58.7877 -31.5414 -9.8635 -10.2673
# 3 65.7215 58.7877 115.8817 -4.3165 -3.4608 -8.0257
# 4 -14.8975 -31.5414 -4.3165 37.4003 3.0198 -6.7018
# 5 -19.5882 -9.8635 -3.4608 3.0198 44.4931 -0.9095
# 6 -4.2310 -10.2673 -8.0257 -6.7018 -0.9095 43.5501
#
#
#
# Elastic Compliance Matrix: (Units=1/GPa)
#
#
# Indices 1 2 3 4 5 6 
#
# 1 0.013907 -0.006457 -0.004592 -0.000982 0.004379 -0.001077
# 2 -0.006457 0.017745 -0.004544 0.012709 -0.000029 0.004674
# 3 -0.004592 -0.004544 0.013363 -0.003926 -0.001717 0.000305
# 4 -0.000982 0.012709 -0.003926 0.038078 -0.000341 0.008030
# 5 0.004379 -0.000029 -0.001717 -0.000341 0.024298 0.000557
# 6 -0.001077 0.004674 0.000305 0.008030 0.000557 0.025263
#
#
# Mechanical properties :
#
#
# Convention : Reuss Voigt Hill
#
# Bulk Modulus (GPa) = 72.31247 86.56468 79.43857
# Shear Modulus (GPa) = 29.68291 36.63148 33.15720
#
# Velocity S-wave (km/s) = 3.57952 3.97648 3.78321
# Velocity P-wave (km/s) = 6.94970 7.64524 7.30575
#
# Compressibility (1/GPa) = 0.01382887
#
# Stress axis : x y z
#
# Youngs Moduli (GPa) = 71.90868 56.35429 74.83520
#
# Poissons Ratio (x) = 0.36385 0.34364
# Poissons Ratio (y) = 0.46428 0.34006
# Poissons Ratio (z) = 0.33020 0.25608
#
# Static dielectric constant tensor:
#      x y z
#    x 1.873800 0.011530 0.017170 
#    y 0.011530 1.905770 0.037560 
#    z 0.017170 0.037560 1.908110 
# 
# From -- ./inp_files/12972.got.cif
#   From: 2010.05.17/outbox.cif.g08.bks.cpg/sg2_7_cif.got.tgz:12972.got - 2010.06.03 11:33:40.
