data_PCOD9089283
_publ_section_title
;
Structure prediction by ZEFSAII (Michael W. Deem and Ramdas Pophale) SiO2 
 PCOD9089283
Probable space group: P -1
;
_chemical_formula_sum "Si O2"
_cell_formula_units_Z 12
_cell_length_a 14.109147
_cell_length_b 8.676260
_cell_length_c 5.444858
_cell_angle_alpha 55.849807
_cell_angle_beta 115.389445
_cell_angle_gamma 86.530536
_cell_volume 456.090478
_symmetry_space_group_name_H-M "P -1"
_symmetry_group_IT_number 2
_symmetry_cell_setting 'triclinic'
loop_
_space_group_symop_operation_xyz
x,y,z
-x,-y,-z
loop_
_atom_site_type_symbol
_atom_site_label
_atom_site_fract_x
_atom_site_fract_y
_atom_site_fract_z
Si Si1 0.719709 0.884623 0.471602
Si Si2 0.469216 0.825148 0.740893
Si Si3 0.822738 0.174165 0.217526
Si Si4 0.199073 0.346092 0.737569
Si Si5 0.046004 0.118360 0.754732
Si Si6 0.318499 0.597149 0.733143
O O1 0.744500 0.763131 0.356166
O O2 0.594450 0.069642 0.171780
O O3 0.811378 0.985923 0.520944
O O4 0.734544 0.750884 0.849971
O O5 0.371149 0.760475 0.570859
O O6 0.500000 0.000000 0.500000
O O7 0.579705 0.614981 0.045074
O O8 0.714347 0.358249 0.050799
O O9 0.938206 0.204785 0.369949
O O10 0.843836 0.064526 0.077487
O O11 0.085524 0.301428 0.677178
O O12 0.206569 0.564814 0.538481
O O13 0.000000 0.000000 0.000000
#
# Coordination Sequence:
#
# PCOD9089283 Si02
#       6
#     2   2   2   2   2   2
#     4  10  21  40  66  93 132 179 213 267 331 388
#     4  10  20  42  70  94 132 176 218 269 334 394
#     4   9  20  39  62  93 132 171 222 269 326 393
#     4  11  22  40  65  97 133 171 221 270 327 391
#     4  10  19  37  67  90 126 180 217 266 335 388
#     4  10  22  40  64 100 131 169 224 273 327 395
#
# _framework density 26.310566999999999
#
# number of rings (size 3 to 8) (size 9 to 14) (size 15 to 20)
#    0.000    2.000    3.333    0.000    0.000    1.333 
#    3.000    3.333    0.000    0.000    0.000    0.000 
#    0.000    0.000    0.000    0.000    0.000    0.000 
#
# Total GULP energy -66806.334224 kJ/mol
# GULP energy per Si atom -5567.194519 kJ/mol
# Density = 2.625068 g / cm^3
# Si number density = 26.310567 Si / 1000 Ang^3
#
#
#
# Elastic Constant Matrix: (Units=GPa)
#
#
# Indices 1 2 3 4 5 6 
#
# 1 168.8796 81.3225 27.4532 -2.7074 -13.0760 42.0117
# 2 81.3225 167.9299 39.1817 -12.0649 -10.8347 13.9113
# 3 27.4532 39.1817 56.8718 -7.1247 -1.9120 -0.5369
# 4 -2.7074 -12.0649 -7.1247 31.8245 6.4752 -5.8488
# 5 -13.0760 -10.8347 -1.9120 6.4752 30.4692 -2.6607
# 6 42.0117 13.9113 -0.5369 -5.8488 -2.6607 88.3777
#
#
#
# Elastic Compliance Matrix: (Units=1/GPa)
#
#
# Indices 1 2 3 4 5 6 
#
# 1 0.009134 -0.003591 -0.002173 -0.002323 0.002663 -0.003863
# 2 -0.003591 0.008806 -0.004044 0.002019 0.000947 0.000459
# 3 -0.002173 -0.004044 0.021868 0.003882 -0.001648 0.002010
# 4 -0.002323 0.002019 0.003882 0.034855 -0.007189 0.002900
# 5 0.002663 0.000947 -0.001648 -0.007189 0.035652 -0.000827
# 6 -0.003863 0.000459 0.002010 0.002900 -0.000827 0.013259
#
#
# Mechanical properties :
#
#
# Convention : Reuss Voigt Hill
#
# Bulk Modulus (GPa) = 49.52524 76.62179 63.07352
# Shear Modulus (GPa) = 33.35099 46.51587 39.93343
#
# Velocity S-wave (km/s) = 3.56418 4.20927 3.90009
# Velocity P-wave (km/s) = 5.98348 7.26699 6.65625
#
# Compressibility (1/GPa) = 0.02019172
#
# Stress axis : x y z
#
# Youngs Moduli (GPa) = 109.48109 113.56230 45.72824
#
# Poissons Ratio (x) = 0.40784 0.09936
# Poissons Ratio (y) = 0.39318 0.18492
# Poissons Ratio (z) = 0.23789 0.45924
#
# Static dielectric constant tensor:
#      x y z
#    x 2.075740 -0.012440 0.038240 
#    y -0.012440 2.122380 0.048760 
#    z 0.038240 0.048760 2.300230 
# 
# From -- ./inp_files/49966.got.cif
#   From: 2010.05.17/outbox.cif.g08.bks.cpg/sg2_25_cif.got.tgz:49966.got - 2010.06.03 11:33:40.
