data_PCOD9089709
_publ_section_title
;
Structure prediction by ZEFSAII (Michael W. Deem and Ramdas Pophale) SiO2 
 PCOD9089709
Probable space group: P -1
;
_chemical_formula_sum "Si O2"
_cell_formula_units_Z 16
_cell_length_a 9.064004
_cell_length_b 10.570664
_cell_length_c 9.451309
_cell_angle_alpha 109.302094
_cell_angle_beta 59.153696
_cell_angle_gamma 85.246455
_cell_volume 697.265110
_symmetry_space_group_name_H-M "P -1"
_symmetry_group_IT_number 2
_symmetry_cell_setting 'triclinic'
loop_
_space_group_symop_operation_xyz
x,y,z
-x,-y,-z
loop_
_atom_site_type_symbol
_atom_site_label
_atom_site_fract_x
_atom_site_fract_y
_atom_site_fract_z
Si Si1 0.917508 0.716464 0.946746
Si Si2 0.625880 0.099579 0.005158
Si Si3 0.202022 0.966734 0.825102
Si Si4 0.474186 0.577776 0.891151
Si Si5 0.027648 0.023056 0.658747
Si Si6 0.306032 0.525276 0.678022
Si Si7 0.853140 0.512741 0.694673
Si Si8 0.078264 0.327919 0.752053
O O1 0.132522 0.664609 0.777062
O O2 0.823850 0.657452 0.847096
O O3 0.792929 0.873771 0.099320
O O4 0.931159 0.642812 0.064881
O O5 0.832743 0.031157 0.824532
O O6 0.567183 0.253861 0.020050
O O7 0.500000 0.000000 0.000000
O O8 0.648790 0.122320 0.171879
O O9 0.179739 0.927804 0.658092
O O10 0.000000 0.000000 0.000000
O O11 0.338108 0.545088 0.836427
O O12 0.673951 0.511896 0.705005
O O13 0.500000 0.500000 0.000000
O O14 0.079859 0.167226 0.688014
O O15 0.000000 0.000000 0.500000
O O16 0.500000 0.500000 0.500000
O O17 0.235407 0.389831 0.643391
O O18 0.000000 0.500000 0.500000
O O19 0.918281 0.400931 0.747502
#
# Coordination Sequence:
#
# PCOD9089709 Si02
#       8
#     2   2   2   2   2   2   2   2
#     4  10  19  38  61  81 116 171 210 245 310 398
#     4  11  24  42  66  97 132 172 219 270 323 386
#     4   9  19  38  63  88 119 169 218 252 314 397
#     4  12  23  40  62  94 130 166 210 266 321 381
#     4  10  22  42  67  94 123 167 218 271 326 392
#     4  11  22  36  59  93 126 159 208 272 322 370
#     4  11  22  35  58  91 122 160 206 258 314 374
#     4  10  21  41  62  84 121 170 213 250 319 402
#
# _framework density 22.946798000000001
#
# number of rings (size 3 to 8) (size 9 to 14) (size 15 to 20)
#    0.000    1.500    0.000    8.250    0.000    5.000 
#    0.000    5.625    0.000    0.000    0.000    0.000 
#    0.000    0.000    0.000    0.000    0.000    0.000 
#
# Total GULP energy -89107.386708 kJ/mol
# GULP energy per Si atom -5569.211669 kJ/mol
# Density = 2.289457 g / cm^3
# Si number density = 22.946798 Si / 1000 Ang^3
#
#
#
# Elastic Constant Matrix: (Units=GPa)
#
#
# Indices 1 2 3 4 5 6 
#
# 1 151.1608 36.0986 23.2620 -12.1535 18.1780 6.0255
# 2 36.0986 82.2596 9.1598 -13.8014 9.1799 13.4451
# 3 23.2620 9.1598 74.8532 -15.6018 16.6432 -2.1052
# 4 -12.1535 -13.8014 -15.6018 15.1990 3.0138 2.7183
# 5 18.1780 9.1799 16.6432 3.0138 53.3131 -3.7421
# 6 6.0255 13.4451 -2.1052 2.7183 -3.7421 39.5301
#
#
#
# Elastic Compliance Matrix: (Units=1/GPa)
#
#
# Indices 1 2 3 4 5 6 
#
# 1 0.007939 -0.002292 -0.000853 0.004029 -0.002342 -0.000975
# 2 -0.002292 0.018043 0.003792 0.020820 -0.005213 -0.007511
# 3 -0.000853 0.003792 0.020303 0.025727 -0.008340 -0.002637
# 4 0.004029 0.020820 0.025727 0.121481 -0.021028 -0.016670
# 5 -0.002342 -0.005213 -0.008340 -0.021028 0.024629 0.005463
# 6 -0.000975 -0.007511 -0.002637 -0.016670 0.005463 0.029523
#
#
# Mechanical properties :
#
#
# Convention : Reuss Voigt Hill
#
# Bulk Modulus (GPa) = 21.01845 49.47939 35.24892
# Shear Modulus (GPa) = 21.14306 37.59200 29.36753
#
# Velocity S-wave (km/s) = 3.03874 4.05189 3.58132
# Velocity P-wave (km/s) = 4.63589 6.59544 5.70050
#
# Compressibility (1/GPa) = 0.04757724
#
# Stress axis : x y z
#
# Youngs Moduli (GPa) = 125.96673 55.42377 49.25340
#
# Poissons Ratio (x) = 0.12703 0.04204
# Poissons Ratio (y) = 0.28872 -0.18676
# Poissons Ratio (z) = 0.10751 -0.21016
#
# Static dielectric constant tensor:
#      x y z
#    x 1.861110 -0.050480 -0.015040 
#    y -0.050480 1.973270 -0.026730 
#    z -0.015040 -0.026730 1.917340 
# 
# From -- ./inp_files/179902.got.cif
#   From: 2010.05.17/outbox.cif.g08.bks.cpg/sg2_90_cif.got.tgz:179902.got - 2010.06.03 11:33:40.
