data_PCOD9089098
_publ_section_title
;
Structure prediction by ZEFSAII (Michael W. Deem and Ramdas Pophale) SiO2 
 PCOD9089098
Probable space group: P -1
;
_chemical_formula_sum "Si O2"
_cell_formula_units_Z 14
_cell_length_a 7.499131
_cell_length_b 12.176244
_cell_length_c 10.130654
_cell_angle_alpha 39.983265
_cell_angle_beta 99.653531
_cell_angle_gamma 79.520679
_cell_volume 510.828259
_symmetry_space_group_name_H-M "P -1"
_symmetry_group_IT_number 2
_symmetry_cell_setting 'triclinic'
loop_
_space_group_symop_operation_xyz
x,y,z
-x,-y,-z
loop_
_atom_site_type_symbol
_atom_site_label
_atom_site_fract_x
_atom_site_fract_y
_atom_site_fract_z
Si Si1 0.643582 0.431325 0.950538
Si Si2 0.912328 0.674536 0.141236
Si Si3 0.244099 0.232311 0.673116
Si Si4 0.742232 0.712590 0.797622
Si Si5 0.993937 0.026832 0.768753
Si Si6 0.255982 0.922233 0.571066
Si Si7 0.576032 0.336169 0.547604
O O1 0.806846 0.508845 0.921171
O O2 0.508870 0.532205 0.715102
O O3 0.500000 0.500000 0.000000
O O4 0.743336 0.200481 0.189859
O O5 0.775714 0.746861 0.190144
O O6 0.076561 0.447158 0.397346
O O7 0.780688 0.695038 0.974827
O O8 0.014863 0.814574 0.999674
O O9 0.460291 0.208736 0.670938
O O10 0.183545 0.069729 0.771482
O O11 0.492821 0.830764 0.635577
O O12 0.819045 0.852556 0.617322
O O13 0.872008 0.093200 0.552592
O O14 0.818610 0.186910 0.700022
O O15 0.500000 0.500000 0.500000
#
# Coordination Sequence:
#
# PCOD9089098 Si02
#       7
#     2   2   2   2   2   2   2
#     4  10  19  37  65  90 126 176 214 267 330 396
#     4  10  22  41  70  95 137 185 222 271 341 405
#     4  11  25  42  65  99 141 179 219 282 336 398
#     4   9  17  33  63  98 115 168 232 260 319 400
#     4  11  22  46  69  96 136 185 222 272 341 406
#     4   9  18  33  66  94 120 166 228 268 315 395
#     4  12  26  42  68 106 136 172 233 280 333 399
#
# _framework density 27.406473999999999
#
# number of rings (size 3 to 8) (size 9 to 14) (size 15 to 20)
#    0.000    1.714    2.857    3.000    6.000    0.571 
#    0.000    7.143    0.000    3.429    0.000    0.000 
#    0.000    0.000    0.000    0.000    0.000    0.000 
#
# Total GULP energy -78581.750438 kJ/mol
# GULP energy per Si atom -5612.982174 kJ/mol
# Density = 2.734410 g / cm^3
# Si number density = 27.406474 Si / 1000 Ang^3
#
#
#
# Elastic Constant Matrix: (Units=GPa)
#
#
# Indices 1 2 3 4 5 6 
#
# 1 107.7999 21.7135 20.7276 7.5136 -11.3567 8.0757
# 2 21.7135 144.0274 65.1648 -2.3899 -6.1367 20.6385
# 3 20.7276 65.1648 157.8753 -4.0654 -20.9232 3.7021
# 4 7.5136 -2.3899 -4.0654 68.5941 -0.4064 -7.8003
# 5 -11.3567 -6.1367 -20.9232 -0.4064 50.7644 -4.3097
# 6 8.0757 20.6385 3.7021 -7.8003 -4.3097 35.9881
#
#
#
# Elastic Compliance Matrix: (Units=1/GPa)
#
#
# Indices 1 2 3 4 5 6 
#
# 1 0.009995 -0.000880 -0.000721 -0.001358 0.001672 -0.001758
# 2 -0.000880 0.009482 -0.003830 -0.000381 -0.001062 -0.005056
# 3 -0.000721 -0.003830 0.008379 0.000688 0.003005 0.002005
# 4 -0.001358 -0.000381 0.000688 0.015188 0.000377 0.003790
# 5 0.001672 -0.001062 0.003005 0.000377 0.021404 0.002569
# 6 -0.001758 -0.005056 0.002005 0.003790 0.002569 0.032004
#
#
# Mechanical properties :
#
#
# Convention : Reuss Voigt Hill
#
# Bulk Modulus (GPa) = 58.84824 69.43495 64.14160
# Shear Modulus (GPa) = 44.25649 51.20907 47.73278
#
# Velocity S-wave (km/s) = 4.02284 4.32731 4.17785
# Velocity P-wave (km/s) = 6.56480 7.09632 6.83573
#
# Compressibility (1/GPa) = 0.01699286
#
# Stress axis : x y z
#
# Youngs Moduli (GPa) = 100.05099 105.46734 119.35145
#
# Poissons Ratio (x) = 0.09280 0.08607
# Poissons Ratio (y) = 0.08803 0.45712
# Poissons Ratio (z) = 0.07216 0.40395
#
# Static dielectric constant tensor:
#      x y z
#    x 2.227240 -0.083770 0.029540 
#    y -0.083770 2.244310 -0.108120 
#    z 0.029540 -0.108120 2.152860 
# 
# From -- ./inp_files/398239.got.cif
#   From: 2010.05.17/outbox.cif.g08.bks.cpg/sg2_200_cif.got.tgz:398239.got - 2010.06.03 11:33:40.
