data_PCOD9089496
_publ_section_title
;
Structure prediction by ZEFSAII (Michael W. Deem and Ramdas Pophale) SiO2 
 PCOD9089496
Probable space group: P -1
;
_chemical_formula_sum "Si O2"
_cell_formula_units_Z 16
_cell_length_a 21.087735
_cell_length_b 5.330619
_cell_length_c 27.210658
_cell_angle_alpha 105.948991
_cell_angle_beta 18.844696
_cell_angle_gamma 116.224087
_cell_volume 770.128144
_symmetry_space_group_name_H-M "P -1"
_symmetry_group_IT_number 2
_symmetry_cell_setting 'triclinic'
loop_
_space_group_symop_operation_xyz
x,y,z
-x,-y,-z
loop_
_atom_site_type_symbol
_atom_site_label
_atom_site_fract_x
_atom_site_fract_y
_atom_site_fract_z
Si Si1 0.218767 0.132118 0.089460
Si Si2 0.259334 0.637981 0.500128
Si Si3 0.712048 0.899612 0.426229
Si Si4 0.704867 0.219231 0.901113
Si Si5 0.545133 0.316923 0.269994
Si Si6 0.767189 0.121739 0.297994
Si Si7 0.809481 0.696229 0.188254
Si Si8 0.830028 0.194092 0.987773
O O1 0.309583 0.493512 0.054138
O O2 0.311814 0.991460 0.052098
O O3 0.275851 0.090604 0.989277
O O4 0.925200 0.926403 0.301388
O O5 0.397586 0.472673 0.383654
O O6 0.972121 0.389624 0.690333
O O7 0.285292 0.795207 0.543171
O O8 0.383067 0.959519 0.393281
O O9 0.441999 0.587481 0.615533
O O10 0.807148 0.952280 0.303944
O O11 0.500000 0.000000 0.000000
O O12 0.767202 0.554183 0.157497
O O13 0.645184 0.276751 0.144158
O O14 0.955037 0.497159 0.182610
O O15 0.500000 0.000000 0.500000
O O16 0.797253 0.999287 0.217907
O O17 0.047419 0.805480 0.050601
#
# Coordination Sequence:
#
# PCOD9089496 Si02
#       8
#     2   2   2   2   2   2   2   2
#     4  11  23  39  65  98 128 157 197 254 324 370
#     4  10  22  42  63  88 120 161 202 254 315 372
#     4  10  19  38  57  89 123 163 212 267 311 357
#     4  11  23  44  75 102 121 143 190 259 331 396
#     4  11  26  40  59  83 130 178 218 245 289 354
#     4  12  21  33  56  80 121 164 221 275 309 331
#     4  11  22  36  53  83 120 174 226 256 291 339
#     4  12  25  38  56  86 126 176 215 256 291 354
#
# _framework density 20.775763999999999
#
# number of rings (size 3 to 8) (size 9 to 14) (size 15 to 20)
#    0.000    1.000    2.500    6.375    3.500    0.500 
#    0.000    0.000    0.000    4.500    0.000    0.000 
#    0.000    0.000    0.000    0.000    0.000    0.000 
#
# Total GULP energy -89381.740080 kJ/mol
# GULP energy per Si atom -5586.358755 kJ/mol
# Density = 2.072848 g / cm^3
# Si number density = 20.775764 Si / 1000 Ang^3
#
#
#
# Elastic Constant Matrix: (Units=GPa)
#
#
# Indices 1 2 3 4 5 6 
#
# 1 86.6152 63.5822 39.2953 3.6307 -18.0428 3.7497
# 2 63.5822 183.0606 64.1065 24.0785 -15.0884 7.8550
# 3 39.2953 64.1065 73.8417 11.5692 -7.9102 14.6454
# 4 3.6307 24.0785 11.5692 32.4790 5.6208 1.6558
# 5 -18.0428 -15.0884 -7.9102 5.6208 32.0780 -1.2308
# 6 3.7497 7.8550 14.6454 1.6558 -1.2308 34.5880
#
#
#
# Elastic Compliance Matrix: (Units=1/GPa)
#
#
# Indices 1 2 3 4 5 6 
#
# 1 0.018622 -0.004014 -0.006341 0.001895 0.006757 0.001727
# 2 -0.004014 0.009484 -0.005272 -0.005061 0.001821 0.000821
# 3 -0.006341 -0.005272 0.023610 -0.003399 0.000066 -0.007947
# 4 0.001895 -0.005061 -0.003399 0.037018 -0.008627 0.000304
# 5 0.006757 0.001821 0.000066 -0.008627 0.037381 0.000569
# 6 0.001727 0.000821 -0.007947 0.000304 0.000569 0.031909
#
#
# Mechanical properties :
#
#
# Convention : Reuss Voigt Hill
#
# Bulk Modulus (GPa) = 48.87185 75.27619 62.07402
# Shear Modulus (GPa) = 25.49770 31.59790 28.54780
#
# Velocity S-wave (km/s) = 3.50706 3.90411 3.71090
# Velocity P-wave (km/s) = 6.32249 7.52556 6.95010
#
# Compressibility (1/GPa) = 0.02046168
#
# Stress axis : x y z
#
# Youngs Moduli (GPa) = 53.70084 105.44447 42.35582
#
# Poissons Ratio (x) = 0.42324 0.26856
# Poissons Ratio (y) = 0.21555 0.22330
# Poissons Ratio (z) = 0.34050 0.55591
#
# Static dielectric constant tensor:
#      x y z
#    x 1.908130 -0.031100 -0.004620 
#    y -0.031100 1.777960 0.033480 
#    z -0.004620 0.033480 1.753230 
# 
# From -- ./inp_files/118349.got.cif
#   From: 2010.05.17/outbox.cif.g08.bks.cpg/sg2_60_cif.got.tgz:118349.got - 2010.06.03 11:33:40.
