data_PCOD9089363
_publ_section_title
;
Structure prediction by ZEFSAII (Michael W. Deem and Ramdas Pophale) SiO2 
 PCOD9089363
Probable space group: P -1
;
_chemical_formula_sum "Si O2"
_cell_formula_units_Z 12
_cell_length_a 7.851989
_cell_length_b 10.834364
_cell_length_c 12.140673
_cell_angle_alpha 36.310128
_cell_angle_beta 82.880591
_cell_angle_gamma 61.420763
_cell_volume 464.194487
_symmetry_space_group_name_H-M "P -1"
_symmetry_group_IT_number 2
_symmetry_cell_setting 'triclinic'
loop_
_space_group_symop_operation_xyz
x,y,z
-x,-y,-z
loop_
_atom_site_type_symbol
_atom_site_label
_atom_site_fract_x
_atom_site_fract_y
_atom_site_fract_z
Si Si1 0.475713 0.771266 0.179445
Si Si2 0.235129 0.704555 0.899373
Si Si3 0.814959 0.660224 0.682008
Si Si4 0.180281 0.789737 0.353090
Si Si5 0.396962 0.959957 0.371293
Si Si6 0.739590 0.544807 0.127427
O O1 0.247600 0.859628 0.185877
O O2 0.670416 0.533900 0.416816
O O3 0.527908 0.642616 0.145880
O O4 0.500000 0.000000 0.000000
O O5 0.154263 0.705407 0.782928
O O6 0.500000 0.500000 0.000000
O O7 0.190295 0.548468 0.097334
O O8 0.083257 0.008097 0.742154
O O9 0.662813 0.748133 0.524409
O O10 0.071960 0.526181 0.751538
O O11 0.701554 0.921337 0.584123
O O12 0.289521 0.850899 0.395736
O O13 0.330739 0.209043 0.122110
#
# Coordination Sequence:
#
# PCOD9089363 Si02
#       6
#     2   2   2   2   2   2
#     4  11  24  42  72  97 137 193 230 276 355 410
#     4  11  23  41  68 107 138 174 234 291 350 410
#     4  10  20  37  67 100 140 174 221 290 346 407
#     4  11  23  44  70 100 142 183 230 287 345 417
#     4  10  19  37  68  98 133 179 224 277 351 401
#     4  11  21  43  70  96 139 178 227 291 340 410
#
# _framework density 25.851234000000002
#
# number of rings (size 3 to 8) (size 9 to 14) (size 15 to 20)
#    0.000    1.333    5.000    1.000    2.333    4.667 
#    0.000    1.667    7.333    0.000    0.000    0.000 
#    0.000    0.000    0.000    0.000    0.000    0.000 
#
# Total GULP energy -67118.016329 kJ/mol
# GULP energy per Si atom -5593.168027 kJ/mol
# Density = 2.579240 g / cm^3
# Si number density = 25.851234 Si / 1000 Ang^3
#
#
#
# Elastic Constant Matrix: (Units=GPa)
#
#
# Indices 1 2 3 4 5 6 
#
# 1 72.9599 19.5152 23.6994 0.3694 21.5750 -21.1863
# 2 19.5152 126.2714 32.7106 -13.8544 2.9100 -31.7609
# 3 23.6994 32.7106 101.7918 -8.2035 -5.8232 -12.9943
# 4 0.3694 -13.8544 -8.2035 30.5478 -2.2430 7.9256
# 5 21.5750 2.9100 -5.8232 -2.2430 56.2808 -3.0880
# 6 -21.1863 -31.7609 -12.9943 7.9256 -3.0880 31.4113
#
#
#
# Elastic Compliance Matrix: (Units=1/GPa)
#
#
# Indices 1 2 3 4 5 6 
#
# 1 0.021413 0.001001 -0.004389 -0.005257 -0.008147 0.014165
# 2 0.001001 0.011240 -0.002394 0.001657 -0.000566 0.010576
# 3 -0.004389 -0.002394 0.011898 0.002600 0.003096 -0.000810
# 4 -0.005257 0.001657 0.002600 0.037029 0.003135 -0.009829
# 5 -0.008147 -0.000566 0.003096 0.003135 0.021174 -0.003496
# 6 0.014165 0.010576 -0.000810 -0.009829 -0.003496 0.053885
#
#
# Mechanical properties :
#
#
# Convention : Reuss Voigt Hill
#
# Bulk Modulus (GPa) = 30.31311 50.31929 40.31620
# Shear Modulus (GPa) = 27.90216 38.65452 33.27834
#
# Velocity S-wave (km/s) = 3.28889 3.87106 3.59179
# Velocity P-wave (km/s) = 5.11604 6.28390 5.72980
#
# Compressibility (1/GPa) = 0.03298903
#
# Stress axis : x y z
#
# Youngs Moduli (GPa) = 46.70101 88.96843 84.04584
#
# Poissons Ratio (x) = -0.08910 0.36885
# Poissons Ratio (y) = -0.04677 0.20119
# Poissons Ratio (z) = 0.20495 0.21297
#
# Static dielectric constant tensor:
#      x y z
#    x 2.123810 -0.002360 0.018200 
#    y -0.002360 2.069160 -0.066570 
#    z 0.018200 -0.066570 2.093190 
# 
# From -- ./inp_files/190469.got.cif
#   From: 2010.05.17/outbox.cif.g08.bks.cpg/sg2_96_cif.got.tgz:190469.got - 2010.06.03 11:33:40.
