data_PCOD9089924
_publ_section_title
;
Structure prediction by ZEFSAII (Michael W. Deem and Ramdas Pophale) SiO2 
 PCOD9089924
Probable space group: P -1
;
_chemical_formula_sum "Si O2"
_cell_formula_units_Z 16
_cell_length_a 15.987757
_cell_length_b 10.854292
_cell_length_c 8.109901
_cell_angle_alpha 91.724869
_cell_angle_beta 79.034418
_cell_angle_gamma 145.147852
_cell_volume 769.395260
_symmetry_space_group_name_H-M "P -1"
_symmetry_group_IT_number 2
_symmetry_cell_setting 'triclinic'
loop_
_space_group_symop_operation_xyz
x,y,z
-x,-y,-z
loop_
_atom_site_type_symbol
_atom_site_label
_atom_site_fract_x
_atom_site_fract_y
_atom_site_fract_z
Si Si1 0.499083 0.507662 0.804156
Si Si2 0.228218 0.368542 0.851417
Si Si3 0.270000 0.027141 0.883110
Si Si4 0.768497 0.999614 0.721190
Si Si5 0.682259 0.355558 0.439556
Si Si6 0.316029 0.926663 0.549818
Si Si7 0.977608 0.098635 0.174711
Si Si8 0.040786 0.192889 0.505633
O O1 0.382543 0.476022 0.798232
O O2 0.664803 0.754949 0.701934
O O3 0.418999 0.284220 0.775227
O O4 0.500000 0.500000 0.000000
O O5 0.261080 0.536024 0.758542
O O6 0.104113 0.132956 0.795696
O O7 0.149107 0.288427 0.053659
O O8 0.127338 0.948905 0.910730
O O9 0.253244 0.900505 0.748488
O O10 0.278939 0.012175 0.076261
O O11 0.739147 0.063180 0.589720
O O12 0.939795 0.152235 0.666961
O O13 0.500823 0.155748 0.503557
O O14 0.781218 0.565648 0.525211
O O15 0.721214 0.262191 0.463233
O O16 0.984179 0.172624 0.348496
O O17 0.000000 0.000000 0.500000
#
# Coordination Sequence:
#
# PCOD9089924 Si02
#       8
#     2   2   2   2   2   2   2   2
#     4   9  20  33  64  95 124 165 211 272 322 382
#     4  10  19  38  62  91 133 166 208 270 331 381
#     4  10  22  41  65  96 129 171 215 269 324 387
#     4  11  23  43  67  97 132 168 221 270 320 389
#     4  11  25  45  64  94 132 174 219 273 312 390
#     4  11  25  47  67  91 133 179 225 258 318 388
#     4  10  21  37  63  98 129 165 210 270 338 386
#     4  12  25  39  66  99 133 168 213 274 335 382
#
# _framework density 20.795553999999999
#
# number of rings (size 3 to 8) (size 9 to 14) (size 15 to 20)
#    0.000    1.500    3.750    0.750    7.000    2.000 
#    2.250    2.500    0.000    0.000    0.000    0.000 
#    0.000    0.000    0.000    0.000    0.000    0.000 
#
# Total GULP energy -89212.943813 kJ/mol
# GULP energy per Si atom -5575.808988 kJ/mol
# Density = 2.074822 g / cm^3
# Si number density = 20.795554 Si / 1000 Ang^3
#
#
#
# Elastic Constant Matrix: (Units=GPa)
#
#
# Indices 1 2 3 4 5 6 
#
# 1 72.9069 25.4348 25.6913 -0.7035 13.4803 -10.9277
# 2 25.4348 70.4159 21.5802 -3.7486 6.6690 -6.4545
# 3 25.6913 21.5802 85.0720 5.4250 8.5596 -12.7420
# 4 -0.7035 -3.7486 5.4250 25.3702 2.7584 -1.3254
# 5 13.4803 6.6690 8.5596 2.7584 31.6173 -3.5146
# 6 -10.9277 -6.4545 -12.7420 -1.3254 -3.5146 29.9617
#
#
#
# Elastic Compliance Matrix: (Units=1/GPa)
#
#
# Indices 1 2 3 4 5 6 
#
# 1 0.018051 -0.004591 -0.003271 0.001314 -0.005556 0.003610
# 2 -0.004591 0.017098 -0.002931 0.003180 -0.001046 0.000780
# 3 -0.003271 -0.002931 0.014414 -0.003270 -0.001157 0.004025
# 4 0.001314 0.003180 -0.003270 0.041095 -0.003804 0.001145
# 5 -0.005556 -0.001046 -0.001157 -0.003804 0.034995 0.001193
# 6 0.003610 0.000780 0.004025 0.001145 0.001193 0.036763
#
#
# Mechanical properties :
#
#
# Convention : Reuss Voigt Hill
#
# Bulk Modulus (GPa) = 35.74399 41.53416 38.63907
# Shear Modulus (GPa) = 25.86261 27.76906 26.81584
#
# Velocity S-wave (km/s) = 3.53038 3.65819 3.59485
# Velocity P-wave (km/s) = 5.81754 6.15298 5.98761
#
# Compressibility (1/GPa) = 0.02797673
#
# Stress axis : x y z
#
# Youngs Moduli (GPa) = 55.39732 58.48677 69.37710
#
# Poissons Ratio (x) = 0.26850 0.22693
# Poissons Ratio (y) = 0.25432 0.20338
# Poissons Ratio (z) = 0.18120 0.17145
#
# Static dielectric constant tensor:
#      x y z
#    x 2.155060 0.200590 0.720230 
#    y 0.200590 1.829440 0.287450 
#    z 0.720230 0.287450 2.887830 
# 
# From -- ./inp_files/298538.got.cif
#   From: 2010.05.17/outbox.cif.g08.bks.cpg/sg2_150_cif.got.tgz:298538.got - 2010.06.03 11:33:40.
