data_PCOD9089525
_publ_section_title
;
Structure prediction by ZEFSAII (Michael W. Deem and Ramdas Pophale) SiO2 
 PCOD9089525
Probable space group: P -1
;
_chemical_formula_sum "Si O2"
_cell_formula_units_Z 14
_cell_length_a 9.729349
_cell_length_b 19.043415
_cell_length_c 9.977807
_cell_angle_alpha 142.868735
_cell_angle_beta 74.737683
_cell_angle_gamma 133.161638
_cell_volume 624.950539
_symmetry_space_group_name_H-M "P -1"
_symmetry_group_IT_number 2
_symmetry_cell_setting 'triclinic'
loop_
_space_group_symop_operation_xyz
x,y,z
-x,-y,-z
loop_
_atom_site_type_symbol
_atom_site_label
_atom_site_fract_x
_atom_site_fract_y
_atom_site_fract_z
Si Si1 0.389823 0.747297 0.693310
Si Si2 0.030314 0.513621 0.192293
Si Si3 0.766379 0.756919 0.195606
Si Si4 0.782967 0.124593 0.981001
Si Si5 0.666366 0.540705 0.623901
Si Si6 0.853146 0.142121 0.675121
Si Si7 0.602991 0.298476 0.840810
O O1 0.145207 0.576769 0.404619
O O2 0.339831 0.829221 0.917648
O O3 0.434554 0.654875 0.612534
O O4 0.609694 0.925867 0.808746
O O5 0.256261 0.672836 0.273252
O O6 0.886748 0.298123 0.870417
O O7 0.825182 0.473442 0.152671
O O8 0.535245 0.685667 0.168470
O O9 0.885289 0.744639 0.249960
O O10 0.694144 0.637924 0.899134
O O11 0.000000 0.000000 0.500000
O O12 0.051089 0.297019 0.241724
O O13 0.817579 0.111553 0.798912
O O14 0.500000 0.500000 0.500000
O O15 0.609068 0.912434 0.344117
#
# Coordination Sequence:
#
# PCOD9089525 Si02
#       7
#     2   2   2   2   2   2   2
#     4  11  22  40  63  87 120 166 198 247 316 354
#     4  11  21  35  60  85 116 155 200 247 298 350
#     4   9  20  39  61  85 121 163 194 244 309 354
#     4  10  22  39  64  86 120 156 203 251 304 365
#     4  11  24  41  65  93 121 159 209 254 297 368
#     4  10  19  38  58  86 114 156 197 247 298 356
#     4  10  22  36  55  88 122 148 200 253 288 361
#
# _framework density 22.401772000000001
#
# number of rings (size 3 to 8) (size 9 to 14) (size 15 to 20)
#    0.000    1.714    4.286    0.857    2.000    1.143 
#    0.000    0.000    0.000    0.000    0.000    0.000 
#    0.000    0.000    0.000    0.000    0.000    0.000 
#
# Total GULP energy -78067.912030 kJ/mol
# GULP energy per Si atom -5576.279431 kJ/mol
# Density = 2.235078 g / cm^3
# Si number density = 22.401772 Si / 1000 Ang^3
#
#
#
# Elastic Constant Matrix: (Units=GPa)
#
#
# Indices 1 2 3 4 5 6 
#
# 1 160.1046 33.3682 37.9098 13.6024 6.1990 4.1842
# 2 33.3682 40.9894 28.2273 28.6871 -4.7099 -4.3699
# 3 37.9098 28.2273 68.2368 19.8126 -11.6388 -0.0570
# 4 13.6024 28.6871 19.8126 36.2026 -1.5076 1.3759
# 5 6.1990 -4.7099 -11.6388 -1.5076 25.6876 3.8269
# 6 4.1842 -4.3699 -0.0570 1.3759 3.8269 21.1514
#
#
#
# Elastic Compliance Matrix: (Units=1/GPa)
#
#
# Indices 1 2 3 4 5 6 
#
# 1 0.008974 -0.010796 -0.003347 0.006955 -0.004715 -0.003614
# 2 -0.010796 0.083423 -0.010974 -0.056610 0.006348 0.021876
# 3 -0.003347 -0.010974 0.023383 -0.002319 0.009723 -0.003151
# 4 0.006955 -0.056610 -0.002319 0.071497 -0.006445 -0.016563
# 5 -0.004715 0.006348 0.009723 -0.006445 0.046100 -0.005651
# 6 -0.003614 0.021876 -0.003151 -0.016563 -0.005651 0.054604
#
#
# Mechanical properties :
#
#
# Convention : Reuss Voigt Hill
#
# Bulk Modulus (GPa) = 15.25618 52.03794 33.64706
# Shear Modulus (GPa) = 13.88641 27.93000 20.90820
#
# Velocity S-wave (km/s) = 2.49244 3.53480 3.05836
# Velocity P-wave (km/s) = 3.88691 6.31978 5.24631
#
# Compressibility (1/GPa) = 0.06554721
#
# Stress axis : x y z
#
# Youngs Moduli (GPa) = 111.42686 11.98705 42.76661
#
# Poissons Ratio (x) = 0.12941 0.14312
# Poissons Ratio (y) = 1.20299 0.46932
# Poissons Ratio (z) = 0.37290 0.13154
#
# Static dielectric constant tensor:
#      x y z
#    x 1.893510 0.039070 0.001110 
#    y 0.039070 1.845150 -0.001770 
#    z 0.001110 -0.001770 1.904470 
# 
# From -- ./inp_files/251486.got.cif
#   From: 2010.05.17/outbox.cif.g08.bks.cpg/sg2_126_cif.got.tgz:251486.got - 2010.06.03 11:33:40.
