data_PCOD9089255
_publ_section_title
;
Structure prediction by ZEFSAII (Michael W. Deem and Ramdas Pophale) SiO2 
 PCOD9089255
Probable space group: P -1
;
_chemical_formula_sum "Si O2"
_cell_formula_units_Z 16
_cell_length_a 20.191104
_cell_length_b 7.434622
_cell_length_c 11.166407
_cell_angle_alpha 49.047418
_cell_angle_beta 145.946120
_cell_angle_gamma 119.674687
_cell_volume 704.336784
_symmetry_space_group_name_H-M "P -1"
_symmetry_group_IT_number 2
_symmetry_cell_setting 'triclinic'
loop_
_space_group_symop_operation_xyz
x,y,z
-x,-y,-z
loop_
_atom_site_type_symbol
_atom_site_label
_atom_site_fract_x
_atom_site_fract_y
_atom_site_fract_z
Si Si1 0.759139 0.808794 0.597680
Si Si2 0.499176 0.461689 0.156222
Si Si3 0.304146 0.789331 0.835347
Si Si4 0.263005 0.859965 0.349746
Si Si5 0.362391 0.600000 0.268064
Si Si6 0.979818 0.263467 0.913666
Si Si7 0.102168 0.486669 0.558251
Si Si8 0.305266 0.109086 0.078967
O O1 0.695599 0.600338 0.655703
O O2 0.718861 0.930227 0.357309
O O3 0.736637 0.031338 0.563259
O O4 0.899312 0.715919 0.844600
O O5 0.631635 0.346332 0.428814
O O6 0.410684 0.267846 0.143156
O O7 0.500000 0.500000 0.000000
O O8 0.435980 0.696018 0.023910
O O9 0.198561 0.665613 0.664656
O O10 0.305348 0.686201 0.016699
O O11 0.278318 0.083291 0.189739
O O12 0.140733 0.750714 0.188228
O O13 0.500000 0.500000 0.500000
O O14 0.347549 0.846927 0.210150
O O15 0.954149 0.442083 0.685745
O O16 0.000000 0.000000 0.000000
O O17 0.000000 0.500000 0.500000
O O18 0.183435 0.232482 0.785019
#
# Coordination Sequence:
#
# PCOD9089255 Si02
#       8
#     2   2   2   2   2   2   2   2
#     4  11  22  43  68  99 128 175 224 271 336 395
#     4  11  20  39  65  97 124 157 228 288 331 380
#     4  11  23  42  69  97 129 177 222 277 333 394
#     4  11  19  39  67  93 129 160 225 287 328 385
#     4  12  27  47  62  94 146 185 219 261 336 412
#     4  10  19  37  66  99 125 158 215 280 329 388
#     4  11  20  40  71  99 128 166 224 284 337 384
#     4  11  25  39  62 100 130 176 220 274 334 396
#
# _framework density 22.716405999999999
#
# number of rings (size 3 to 8) (size 9 to 14) (size 15 to 20)
#    0.000    1.000    3.750    6.375    0.000    0.500 
#    4.500    3.125    0.000    0.000    0.000    0.000 
#    0.000    0.000    0.000    0.000    0.000    0.000 
#
# Total GULP energy -89455.046183 kJ/mol
# GULP energy per Si atom -5590.940386 kJ/mol
# Density = 2.266470 g / cm^3
# Si number density = 22.716406 Si / 1000 Ang^3
#
#
#
# Elastic Constant Matrix: (Units=GPa)
#
#
# Indices 1 2 3 4 5 6 
#
# 1 95.3659 37.7420 56.8812 -5.5535 7.4177 38.7885
# 2 37.7420 77.3250 48.6202 -11.9278 6.3203 30.6521
# 3 56.8812 48.6202 178.5519 -22.7900 14.4125 28.5232
# 4 -5.5535 -11.9278 -22.7900 27.1418 11.6286 -1.1818
# 5 7.4177 6.3203 14.4125 11.6286 63.7723 1.5724
# 6 38.7885 30.6521 28.5232 -1.1818 1.5724 48.1972
#
#
#
# Elastic Compliance Matrix: (Units=1/GPa)
#
#
# Indices 1 2 3 4 5 6 
#
# 1 0.017848 -0.002278 -0.003283 -0.000242 -0.000794 -0.010952
# 2 -0.002278 0.020605 -0.002207 0.007331 -0.002376 -0.009708
# 3 -0.003283 -0.002207 0.008369 0.006402 -0.002442 -0.000671
# 4 -0.000242 0.007331 0.006402 0.049844 -0.011070 -0.006673
# 5 -0.000794 -0.002376 -0.002442 -0.011070 0.018512 0.002720
# 6 -0.010952 -0.009708 -0.000671 -0.006673 0.002720 0.035880
#
#
# Mechanical properties :
#
#
# Convention : Reuss Voigt Hill
#
# Bulk Modulus (GPa) = 31.96304 70.85883 51.41093
# Shear Modulus (GPa) = 28.24505 41.68887 34.96696
#
# Velocity S-wave (km/s) = 3.52998 4.28856 3.92763
# Velocity P-wave (km/s) = 5.54214 7.46879 6.57640
#
# Compressibility (1/GPa) = 0.03128614
#
# Stress axis : x y z
#
# Youngs Moduli (GPa) = 56.02942 48.53118 119.49306
#
# Poissons Ratio (x) = 0.11057 0.39225
# Poissons Ratio (y) = 0.12766 0.26369
# Poissons Ratio (z) = 0.18392 0.10710
#
# Static dielectric constant tensor:
#      x y z
#    x 1.894260 0.012820 -0.065680 
#    y 0.012820 1.870600 -0.016630 
#    z -0.065680 -0.016630 1.911440 
# 
# From -- ./inp_files/283293.got.cif
#   From: 2010.05.17/outbox.cif.g08.bks.cpg/sg2_142_cif.got.tgz:283293.got - 2010.06.03 11:33:40.
