data_PCOD9089054
_publ_section_title
;
Structure prediction by ZEFSAII (Michael W. Deem and Ramdas Pophale) SiO2 
 PCOD9089054
Probable space group: P -1
;
_chemical_formula_sum "Si O2"
_cell_formula_units_Z 14
_cell_length_a 19.815000
_cell_length_b 7.145831
_cell_length_c 5.573926
_cell_angle_alpha 111.436817
_cell_angle_beta 126.699143
_cell_angle_gamma 55.335378
_cell_volume 520.082806
_symmetry_space_group_name_H-M "P -1"
_symmetry_group_IT_number 2
_symmetry_cell_setting 'triclinic'
loop_
_space_group_symop_operation_xyz
x,y,z
-x,-y,-z
loop_
_atom_site_type_symbol
_atom_site_label
_atom_site_fract_x
_atom_site_fract_y
_atom_site_fract_z
Si Si1 0.152167 0.036532 0.593640
Si Si2 0.609752 0.342999 0.445480
Si Si3 0.927790 0.324218 0.250709
Si Si4 0.374787 0.126659 0.542395
Si Si5 0.459217 0.798154 0.179899
Si Si6 0.832439 0.465771 0.614888
Si Si7 0.803986 0.080208 0.869478
O O1 0.040814 0.210180 0.449866
O O2 0.167405 0.778019 0.501066
O O3 0.190705 0.054990 0.424472
O O4 0.198958 0.040181 0.948020
O O5 0.524797 0.596543 0.409259
O O6 0.708086 0.318794 0.746681
O O7 0.613012 0.109274 0.433948
O O8 0.604413 0.298316 0.129257
O O9 0.881714 0.461172 0.461741
O O10 0.890599 0.450765 0.976220
O O11 0.895024 0.125176 0.087528
O O12 0.460666 0.184501 0.805555
O O13 0.275128 0.336801 0.493608
O O14 0.395313 0.046248 0.269485
#
# Coordination Sequence:
#
# PCOD9089054 Si02
#       7
#     2   2   2   2   2   2   2
#     4  10  19  37  64  98 131 178 227 271 335 409
#     4  11  24  43  67  99 135 176 228 280 341 405
#     4  10  19  37  64  98 131 178 227 271 335 409
#     4  11  24  43  67  99 135 176 228 280 341 405
#     4  10  24  46  68  94 134 182 226 276 346 408
#     4  10  20  34  63  95 130 169 221 280 325 393
#     4  10  20  34  63  95 130 169 221 280 325 393
#
# _framework density 26.918792
#
# number of rings (size 3 to 8) (size 9 to 14) (size 15 to 20)
#    0.000    1.714    0.000    6.857    4.000    0.000 
#   10.286    0.000    0.000    9.429    0.000    0.000 
#    0.000    0.000    0.000    0.000    0.000    0.000 
#
# Total GULP energy -78289.155699 kJ/mol
# GULP energy per Si atom -5592.082550 kJ/mol
# Density = 2.685752 g / cm^3
# Si number density = 26.918792 Si / 1000 Ang^3
#
#
#
# Elastic Constant Matrix: (Units=GPa)
#
#
# Indices 1 2 3 4 5 6 
#
# 1 105.2237 51.8054 67.3055 -1.9573 -14.8499 -27.9090
# 2 51.8054 177.7479 42.0341 6.0426 -9.1029 -33.5480
# 3 67.3055 42.0341 145.2791 -20.7404 -32.2606 -36.5565
# 4 -1.9573 6.0426 -20.7404 27.7742 -6.5554 13.8419
# 5 -14.8499 -9.1029 -32.2606 -6.5554 49.0185 11.7574
# 6 -27.9090 -33.5480 -36.5565 13.8419 11.7574 60.4543
#
#
#
# Elastic Compliance Matrix: (Units=1/GPa)
#
#
# Indices 1 2 3 4 5 6 
#
# 1 0.015556 -0.002127 -0.006962 -0.005823 -0.001880 0.003490
# 2 -0.002127 0.007347 -0.001274 -0.004993 -0.001697 0.003798
# 3 -0.006962 -0.001274 0.014189 0.012332 0.008603 0.000162
# 4 -0.005823 -0.004993 0.012332 0.056855 0.016438 -0.014217
# 5 -0.001880 -0.001697 0.008603 0.016438 0.028809 -0.005974
# 6 0.003490 0.003798 0.000162 -0.014217 -0.005974 0.024775
#
#
# Mechanical properties :
#
#
# Convention : Reuss Voigt Hill
#
# Bulk Modulus (GPa) = 61.10600 83.39342 72.24971
# Shear Modulus (GPa) = 28.78309 45.25643 37.01976
#
# Velocity S-wave (km/s) = 3.27350 4.10472 3.71244
# Velocity P-wave (km/s) = 6.08581 7.31518 6.72863
#
# Compressibility (1/GPa) = 0.01636500
#
# Stress axis : x y z
#
# Youngs Moduli (GPa) = 64.28353 136.11197 70.47633
#
# Poissons Ratio (x) = 0.28952 0.49066
# Poissons Ratio (y) = 0.13674 0.08982
# Poissons Ratio (z) = 0.44755 0.17346
#
# Static dielectric constant tensor:
#      x y z
#    x 2.189160 0.019590 -0.123220 
#    y 0.019590 2.058130 0.038340 
#    z -0.123220 0.038340 2.225380 
# 
# From -- ./inp_files/123021.got.cif
#   From: 2010.05.17/outbox.cif.g08.bks.cpg/sg2_62_cif.got.tgz:123021.got - 2010.06.03 11:33:40.
