data_PCOD9089373
_publ_section_title
;
Structure prediction by ZEFSAII (Michael W. Deem and Ramdas Pophale) SiO2 
 PCOD9089373
Probable space group: P -1
;
_chemical_formula_sum "Si O2"
_cell_formula_units_Z 14
_cell_length_a 7.246673
_cell_length_b 8.984767
_cell_length_c 9.313273
_cell_angle_alpha 116.426477
_cell_angle_beta 97.140882
_cell_angle_gamma 106.730591
_cell_volume 496.996776
_symmetry_space_group_name_H-M "P -1"
_symmetry_group_IT_number 2
_symmetry_cell_setting 'triclinic'
loop_
_space_group_symop_operation_xyz
x,y,z
-x,-y,-z
loop_
_atom_site_type_symbol
_atom_site_label
_atom_site_fract_x
_atom_site_fract_y
_atom_site_fract_z
Si Si1 0.047821 0.541815 0.693109
Si Si2 0.336061 0.521691 0.206711
Si Si3 0.573687 0.007247 0.306110
Si Si4 0.261678 0.962117 0.938189
Si Si5 0.811098 0.043370 0.634301
Si Si6 0.351790 0.234747 0.298868
Si Si7 0.247196 0.336371 0.806092
O O1 0.116596 0.754983 0.825840
O O2 0.215782 0.484221 0.759264
O O3 0.000000 0.500000 0.500000
O O4 0.849363 0.441277 0.729314
O O5 0.330912 0.897039 0.243666
O O6 0.384319 0.419034 0.304594
O O7 0.269228 0.406146 0.003229
O O8 0.545178 0.672543 0.236649
O O9 0.708083 0.958285 0.183607
O O10 0.692727 0.037116 0.475923
O O11 0.554617 0.198892 0.339009
O O12 0.500000 0.000000 0.000000
O O13 0.222191 0.087959 0.104357
O O14 0.038835 0.168623 0.698706
O O15 0.776863 0.843053 0.603472
#
# Coordination Sequence:
#
# PCOD9089373 Si02
#       7
#     2   2   2   2   2   2   2
#     4  12  27  47  73 104 148 195 233 293 370 432
#     4  11  26  46  71 104 145 187 241 295 353 428
#     4   8  17  35  63 103 136 177 227 293 355 417
#     4  10  19  37  69 102 132 178 238 291 343 415
#     4   9  18  36  68  99 139 181 232 288 360 415
#     4   9  19  39  67 100 137 175 241 301 342 411
#     4  11  24  45  68 105 142 189 238 289 358 433
#
# _framework density 28.169197
#
# number of rings (size 3 to 8) (size 9 to 14) (size 15 to 20)
#    0.857    1.143    0.000    3.857    0.000    2.857 
#    5.143    1.429    0.000    3.429    0.000    0.000 
#    0.000    0.000    0.000    0.000    0.000    0.000 
#
# Total GULP energy -78304.840895 kJ/mol
# GULP energy per Si atom -5593.202921 kJ/mol
# Density = 2.810508 g / cm^3
# Si number density = 28.169197 Si / 1000 Ang^3
#
#
#
# Elastic Constant Matrix: (Units=GPa)
#
#
# Indices 1 2 3 4 5 6 
#
# 1 161.6257 35.1543 28.8840 2.9371 6.4304 11.7781
# 2 35.1543 99.6555 27.3020 -13.4440 9.2150 17.1725
# 3 28.8840 27.3020 113.5794 -6.2612 3.3201 14.6455
# 4 2.9371 -13.4440 -6.2612 53.8044 1.6022 5.4245
# 5 6.4304 9.2150 3.3201 1.6022 42.3958 -1.3952
# 6 11.7781 17.1725 14.6455 5.4245 -1.3952 54.4163
#
#
#
# Elastic Compliance Matrix: (Units=1/GPa)
#
#
# Indices 1 2 3 4 5 6 
#
# 1 0.006939 -0.002129 -0.001242 -0.001000 -0.000468 -0.000408
# 2 -0.002129 0.012564 -0.001771 0.003471 -0.002514 -0.003438
# 3 -0.001242 -0.001771 0.009857 0.000976 -0.000299 -0.001930
# 4 -0.001000 0.003471 0.000976 0.019987 -0.001539 -0.003173
# 5 -0.000468 -0.002514 -0.000299 -0.001539 0.024344 0.001753
# 6 -0.000408 -0.003438 -0.001930 -0.003173 0.001753 0.020431
#
#
# Mechanical properties :
#
#
# Convention : Reuss Voigt Hill
#
# Bulk Modulus (GPa) = 52.41756 61.94903 57.18329
# Shear Modulus (GPa) = 45.14165 49.02465 47.08315
#
# Velocity S-wave (km/s) = 4.00749 4.17629 4.09276
# Velocity P-wave (km/s) = 6.32944 6.73014 6.53286
#
# Compressibility (1/GPa) = 0.01907758
#
# Stress axis : x y z
#
# Youngs Moduli (GPa) = 144.12155 79.59455 101.44836
#
# Poissons Ratio (x) = 0.16944 0.12596
# Poissons Ratio (y) = 0.30680 0.17962
# Poissons Ratio (z) = 0.17895 0.14093
#
# Static dielectric constant tensor:
#      x y z
#    x 2.206910 -0.005520 -0.109140 
#    y -0.005520 2.418150 -0.092820 
#    z -0.109140 -0.092820 2.296580 
# 
# From -- ./inp_files/159985.got.cif
#   From: 2010.05.17/outbox.cif.g08.bks.cpg/sg2_80_cif.got.tgz:159985.got - 2010.06.03 11:33:40.
