data_PCOD9089311
_publ_section_title
;
Structure prediction by ZEFSAII (Michael W. Deem and Ramdas Pophale) SiO2 
 PCOD9089311
Probable space group: P -1
;
_chemical_formula_sum "Si O2"
_cell_formula_units_Z 16
_cell_length_a 16.346128
_cell_length_b 11.727772
_cell_length_c 21.119824
_cell_angle_alpha 32.135641
_cell_angle_beta 17.629588
_cell_angle_gamma 31.936874
_cell_volume 630.121054
_symmetry_space_group_name_H-M "P -1"
_symmetry_group_IT_number 2
_symmetry_cell_setting 'triclinic'
loop_
_space_group_symop_operation_xyz
x,y,z
-x,-y,-z
loop_
_atom_site_type_symbol
_atom_site_label
_atom_site_fract_x
_atom_site_fract_y
_atom_site_fract_z
Si Si1 0.921656 0.760946 0.671735
Si Si2 0.342187 0.063813 0.402055
Si Si3 0.197373 0.174601 0.632499
Si Si4 0.386762 0.696517 0.442626
Si Si5 0.688103 0.648285 0.104844
Si Si6 0.329304 0.582245 0.022418
Si Si7 0.887205 0.168534 0.227790
Si Si8 0.206138 0.649121 0.378291
O O1 0.080957 0.676262 0.658704
O O2 0.044516 0.679238 0.550854
O O3 0.665072 0.643196 0.914955
O O4 0.000000 0.000000 0.500000
O O5 0.519660 0.238526 0.199682
O O6 0.015801 0.202676 0.574766
O O7 0.400335 0.924452 0.359418
O O8 0.374844 0.880759 0.518886
O O9 0.251794 0.388009 0.456117
O O10 0.500000 0.000000 0.500000
O O11 0.013708 0.045324 0.787939
O O12 0.991328 0.273625 0.796044
O O13 0.500000 0.500000 0.500000
O O14 0.536743 0.679409 0.271465
O O15 0.817193 0.384031 0.133727
O O16 0.484698 0.714951 0.164153
O O17 0.919074 0.779320 0.884019
O O18 0.500000 0.500000 0.000000
#
# Coordination Sequence:
#
# PCOD9089311 Si02
#       8
#     2   2   2   2   2   2   2   2
#     4  10  19  37  67  97 127 168 221 273 341 402
#     4  12  23  42  65 101 137 170 223 295 329 401
#     4  11  22  43  69  91 132 184 223 270 342 415
#     4  11  21  39  66  96 131 171 221 289 338 395
#     4  10  22  42  65  93 128 181 224 267 348 410
#     4  11  22  42  70 101 133 178 229 276 351 405
#     4  11  24  40  65  95 132 177 226 276 339 404
#     4  10  21  40  67  92 130 170 224 271 336 404
#
# _framework density 25.391946000000001
#
# number of rings (size 3 to 8) (size 9 to 14) (size 15 to 20)
#    0.000    1.250    6.250    0.750    0.000    2.000 
#    0.000    5.000    0.000    0.000    0.000    0.000 
#    0.000    0.000    0.000    0.000    0.000    0.000 
#
# Total GULP energy -89215.016901 kJ/mol
# GULP energy per Si atom -5575.938556 kJ/mol
# Density = 2.533415 g / cm^3
# Si number density = 25.391946 Si / 1000 Ang^3
#
#
#
# Elastic Constant Matrix: (Units=GPa)
#
#
# Indices 1 2 3 4 5 6 
#
# 1 84.5788 34.7574 34.2284 -10.5456 -25.5289 -1.4106
# 2 34.7574 135.4726 47.8253 -30.3586 -20.1762 2.5399
# 3 34.2284 47.8253 129.0314 -38.2526 -30.6926 -3.9259
# 4 -10.5456 -30.3586 -38.2526 54.1496 11.0168 -14.1504
# 5 -25.5289 -20.1762 -30.6926 11.0168 41.1057 3.6424
# 6 -1.4106 2.5399 -3.9259 -14.1504 3.6424 41.9426
#
#
#
# Elastic Compliance Matrix: (Units=1/GPa)
#
#
# Indices 1 2 3 4 5 6 
#
# 1 0.015719 -0.002550 -0.001855 -0.001374 0.007548 -0.000610
# 2 -0.002550 0.009532 -0.001538 0.003661 0.000934 0.000347
# 3 -0.001855 -0.001538 0.012249 0.007241 0.005016 0.003185
# 4 -0.001374 0.003661 0.007241 0.028480 -0.002187 0.010208
# 5 0.007548 0.000934 0.005016 -0.002187 0.034073 -0.003030
# 6 -0.000610 0.000347 0.003185 0.010208 -0.003030 0.027806
#
#
# Mechanical properties :
#
#
# Convention : Reuss Voigt Hill
#
# Bulk Modulus (GPa) = 39.04341 64.74500 51.89420
# Shear Modulus (GPa) = 33.71904 42.92437 38.32171
#
# Velocity S-wave (km/s) = 3.64805 4.11600 3.88907
# Velocity P-wave (km/s) = 5.75795 6.93845 6.37558
#
# Compressibility (1/GPa) = 0.02561252
#
# Stress axis : x y z
#
# Youngs Moduli (GPa) = 63.61850 104.90906 81.63930
#
# Poissons Ratio (x) = 0.26756 0.15144
# Poissons Ratio (y) = 0.16225 0.12558
# Poissons Ratio (z) = 0.11801 0.16138
#
# Static dielectric constant tensor:
#      x y z
#    x 2.095090 0.043280 -0.180220 
#    y 0.043280 2.166100 -0.047400 
#    z -0.180220 -0.047400 2.466820 
# 
# From -- ./inp_files/613163.got.cif
#   From: 2010.05.17/outbox.cif.g08.bks.cpg/sg2_307_cif.got.tgz:613163.got - 2010.06.03 11:33:40.
