data_PCOD9089699
_publ_section_title
;
Structure prediction by ZEFSAII (Michael W. Deem and Ramdas Pophale) SiO2 
 PCOD9089699
Probable space group: P -1
;
_chemical_formula_sum "Si O2"
_cell_formula_units_Z 16
_cell_length_a 8.454534
_cell_length_b 8.726348
_cell_length_c 20.688465
_cell_angle_alpha 138.496810
_cell_angle_beta 131.689780
_cell_angle_gamma 61.130508
_cell_volume 754.943114
_symmetry_space_group_name_H-M "P -1"
_symmetry_group_IT_number 2
_symmetry_cell_setting 'triclinic'
loop_
_space_group_symop_operation_xyz
x,y,z
-x,-y,-z
loop_
_atom_site_type_symbol
_atom_site_label
_atom_site_fract_x
_atom_site_fract_y
_atom_site_fract_z
Si Si1 0.492029 0.694395 0.143346
Si Si2 0.073406 0.473094 0.272324
Si Si3 0.273152 0.926941 0.443178
Si Si4 0.710210 0.788116 0.036973
Si Si5 0.925619 0.731252 0.199614
Si Si6 0.462383 0.235618 0.151255
Si Si7 0.174221 0.027551 0.111451
Si Si8 0.291543 0.309455 0.672120
O O1 0.686064 0.760210 0.169428
O O2 0.558315 0.786850 0.261117
O O3 0.275034 0.796918 0.092386
O O4 0.460987 0.417215 0.055027
O O5 0.263891 0.665111 0.386531
O O6 0.105033 0.203560 0.204041
O O7 0.993458 0.503884 0.185582
O O8 0.897264 0.572265 0.302902
O O9 0.092724 0.914607 0.334473
O O10 0.500000 0.000000 0.500000
O O11 0.217087 0.110131 0.540584
O O12 0.911204 0.740397 0.121667
O O13 0.622049 0.038240 0.109548
O O14 0.717529 0.767669 0.955169
O O15 0.367053 0.164595 0.170950
O O16 0.575721 0.485912 0.262432
O O17 0.000000 0.000000 0.000000
#
# Coordination Sequence:
#
# PCOD9089699 Si02
#       8
#     2   2   2   2   2   2   2   2
#     4  10  21  37  66  88 129 164 213 247 309 385
#     4   9  22  37  66  88 122 166 205 257 311 367
#     4  10  21  40  69  94 123 160 211 267 309 366
#     4  10  19  38  60  94 118 170 204 255 302 381
#     4   9  19  36  67  87 119 166 208 247 310 375
#     4  10  23  34  64  86 134 155 211 257 312 368
#     4  12  24  38  58  99 132 164 201 261 320 364
#     4  10  21  44  65  92 118 173 214 250 310 378
#
# _framework density 21.193650999999999
#
# number of rings (size 3 to 8) (size 9 to 14) (size 15 to 20)
#    0.750    1.250    1.250    2.250    7.000    0.000 
#    2.250    3.125    0.000    0.000    0.000    0.000 
#    0.000    0.000    0.000    0.000    0.000    0.000 
#
# Total GULP energy -89235.296291 kJ/mol
# GULP energy per Si atom -5577.206018 kJ/mol
# Density = 2.114541 g / cm^3
# Si number density = 21.193651 Si / 1000 Ang^3
#
#
#
# Elastic Constant Matrix: (Units=GPa)
#
#
# Indices 1 2 3 4 5 6 
#
# 1 39.7362 2.5886 7.0558 2.1463 0.9482 1.9041
# 2 2.5886 56.1289 9.7000 7.2615 -0.9889 -1.2803
# 3 7.0558 9.7000 105.3033 2.8807 -1.3844 -2.1017
# 4 2.1463 7.2615 2.8807 30.4658 -1.3597 -6.0443
# 5 0.9482 -0.9889 -1.3844 -1.3597 24.6979 1.2914
# 6 1.9041 -1.2803 -2.1017 -6.0443 1.2914 24.9130
#
#
#
# Elastic Compliance Matrix: (Units=1/GPa)
#
#
# Indices 1 2 3 4 5 6 
#
# 1 0.025770 -0.000713 -0.001671 -0.002050 -0.001089 -0.002588
# 2 -0.000713 0.018674 -0.001553 -0.004268 0.000462 -0.000176
# 3 -0.001671 -0.001553 0.009781 -0.000259 0.000495 0.000784
# 4 -0.002050 -0.004268 -0.000259 0.035763 0.001417 0.008519
# 5 -0.001089 0.000462 0.000495 0.001417 0.040740 -0.001619
# 6 -0.002588 -0.000176 0.000784 0.008519 -0.001619 0.042545
#
#
# Mechanical properties :
#
#
# Convention : Reuss Voigt Hill
#
# Bulk Modulus (GPa) = 21.57469 26.65081 24.11275
# Shear Modulus (GPa) = 25.43280 28.13693 26.78487
#
# Velocity S-wave (km/s) = 3.46789 3.64759 3.55888
# Velocity P-wave (km/s) = 5.12220 5.50837 5.31879
#
# Compressibility (1/GPa) = 0.04635061
#
# Stress axis : x y z
#
# Youngs Moduli (GPa) = 38.80512 53.55125 102.24263
#
# Poissons Ratio (x) = 0.03817 0.17084
# Poissons Ratio (y) = 0.02766 0.15879
# Poissons Ratio (z) = 0.06484 0.08317
#
# Static dielectric constant tensor:
#      x y z
#    x 1.825740 -0.001630 -0.010430 
#    y -0.001630 1.797670 -0.011960 
#    z -0.010430 -0.011960 1.759940 
# 
# From -- ./inp_files/588234.got.cif
#   From: 2010.05.17/outbox.cif.g08.bks.cpg/sg2_295_cif.got.tgz:588234.got - 2010.06.03 11:33:40.
