data_PCOD9089740
_publ_section_title
;
Structure prediction by ZEFSAII (Michael W. Deem and Ramdas Pophale) SiO2 
 PCOD9089740
Probable space group: P -1
;
_chemical_formula_sum "Si O2"
_cell_formula_units_Z 16
_cell_length_a 5.198814
_cell_length_b 15.662134
_cell_length_c 19.139036
_cell_angle_alpha 150.981253
_cell_angle_beta 57.348586
_cell_angle_gamma 120.292438
_cell_volume 634.467298
_symmetry_space_group_name_H-M "P -1"
_symmetry_group_IT_number 2
_symmetry_cell_setting 'triclinic'
loop_
_space_group_symop_operation_xyz
x,y,z
-x,-y,-z
loop_
_atom_site_type_symbol
_atom_site_label
_atom_site_fract_x
_atom_site_fract_y
_atom_site_fract_z
Si Si1 0.714250 0.672341 0.652048
Si Si2 0.184620 0.464657 0.214408
Si Si3 0.690959 0.174565 0.572544
Si Si4 0.865061 0.678704 0.034975
Si Si5 0.356374 0.337845 0.503732
Si Si6 0.817690 0.289866 0.787035
Si Si7 0.967930 0.198655 0.168582
Si Si8 0.133064 0.979625 0.290744
O O1 0.652593 0.472934 0.547378
O O2 0.794318 0.667473 0.555540
O O3 0.378216 0.750454 0.756580
O O4 0.929993 0.779399 0.750853
O O5 0.427127 0.636962 0.296655
O O6 0.868762 0.563470 0.341486
O O7 0.186858 0.332334 0.184055
O O8 0.190870 0.357358 0.064548
O O9 0.870951 0.224650 0.654320
O O10 0.500000 0.000000 0.500000
O O11 0.859730 0.105909 0.430911
O O12 0.548639 0.708812 0.143082
O O13 0.100438 0.847660 0.136226
O O14 0.954477 0.491600 0.917916
O O15 0.406574 0.133503 0.366542
O O16 0.908266 0.151994 0.732059
O O17 0.000000 0.000000 0.000000
#
# Coordination Sequence:
#
# PCOD9089740 Si02
#       8
#     2   2   2   2   2   2   2   2
#     4  10  23  46  70  98 134 175 217 275 332 396
#     4   9  22  40  59  93 130 166 211 272 325 388
#     4  10  19  38  61  86 124 164 212 266 315 385
#     4  10  21  39  57  84 133 161 212 263 321 386
#     4   9  22  42  65  96 125 168 219 272 328 388
#     4  10  21  37  57  87 120 168 208 260 326 375
#     4  11  24  44  72 101 138 173 220 271 339 395
#     4  11  21  37  63  91 119 166 218 263 319 387
#
# _framework density 25.218005999999999
#
# number of rings (size 3 to 8) (size 9 to 14) (size 15 to 20)
#    0.000    2.000    1.250    1.125    1.750    6.500 
#    6.750    1.250    0.000    0.000    0.000    0.000 
#    0.000    0.000    0.000    0.000    0.000    0.000 
#
# Total GULP energy -89396.735887 kJ/mol
# GULP energy per Si atom -5587.295993 kJ/mol
# Density = 2.516061 g / cm^3
# Si number density = 25.218006 Si / 1000 Ang^3
#
#
#
# Elastic Constant Matrix: (Units=GPa)
#
#
# Indices 1 2 3 4 5 6 
#
# 1 67.5460 8.3794 45.7313 -2.3563 -0.5314 -4.1057
# 2 8.3794 104.4815 44.4592 -7.4675 0.7056 0.8033
# 3 45.7313 44.4592 174.1320 15.4370 27.2006 -0.9945
# 4 -2.3563 -7.4675 15.4370 40.7445 -4.6842 3.5978
# 5 -0.5314 0.7056 27.2006 -4.6842 26.3407 -1.5215
# 6 -4.1057 0.8033 -0.9945 3.5978 -1.5215 24.8834
#
#
#
# Elastic Compliance Matrix: (Units=1/GPa)
#
#
# Indices 1 2 3 4 5 6 
#
# 1 0.020236 0.001969 -0.007751 0.005311 0.009464 0.002776
# 2 0.001969 0.011768 -0.004809 0.004779 0.005506 -0.000602
# 3 -0.007751 -0.004809 0.011758 -0.007298 -0.013492 -0.000423
# 4 0.005311 0.004779 -0.007298 0.030232 0.012709 -0.003164
# 5 0.009464 0.005506 -0.013492 0.012709 0.054334 0.002329
# 6 0.002776 -0.000602 -0.000423 -0.003164 0.002329 0.041248
#
#
# Mechanical properties :
#
#
# Convention : Reuss Voigt Hill
#
# Bulk Modulus (GPa) = 44.28196 60.36658 52.32427
# Shear Modulus (GPa) = 25.21621 34.89969 30.05795
#
# Velocity S-wave (km/s) = 3.16560 3.72414 3.45617
# Velocity P-wave (km/s) = 5.56409 6.51783 6.05976
#
# Compressibility (1/GPa) = 0.02258256
#
# Stress axis : x y z
#
# Youngs Moduli (GPa) = 49.41591 84.97273 85.04684
#
# Poissons Ratio (x) = -0.16735 0.65917
# Poissons Ratio (y) = -0.09732 0.40899
# Poissons Ratio (z) = 0.38301 0.40864
#
# Static dielectric constant tensor:
#      x y z
#    x 2.177030 0.117400 -0.000900 
#    y 0.117400 2.087230 0.025010 
#    z -0.000900 0.025010 1.962700 
# 
# From -- ./inp_files/323887.got.cif
#   From: 2010.05.17/outbox.cif.g08.bks.cpg/sg2_162_cif.got.tgz:323887.got - 2010.06.03 11:33:40.
