data_PCOD9089989
_publ_section_title
;
Structure prediction by ZEFSAII (Michael W. Deem and Ramdas Pophale) SiO2 
 PCOD9089989
Probable space group: P -1
;
_chemical_formula_sum "Si O2"
_cell_formula_units_Z 16
_cell_length_a 8.615504
_cell_length_b 11.936965
_cell_length_c 9.682005
_cell_angle_alpha 93.740170
_cell_angle_beta 97.043503
_cell_angle_gamma 134.089946
_cell_volume 693.770421
_symmetry_space_group_name_H-M "P -1"
_symmetry_group_IT_number 2
_symmetry_cell_setting 'triclinic'
loop_
_space_group_symop_operation_xyz
x,y,z
-x,-y,-z
loop_
_atom_site_type_symbol
_atom_site_label
_atom_site_fract_x
_atom_site_fract_y
_atom_site_fract_z
Si Si1 0.997243 0.852297 0.537400
Si Si2 0.846401 0.971405 0.691518
Si Si3 0.003261 0.866968 0.011161
Si Si4 0.150657 0.719853 0.932870
Si Si5 0.440224 0.341673 0.209834
Si Si6 0.954764 0.577315 0.607462
Si Si7 0.480926 0.383685 0.664513
Si Si8 0.329792 0.597740 0.033568
O O1 0.996642 0.936179 0.674867
O O2 0.996427 0.721794 0.560398
O O3 0.758090 0.761557 0.436357
O O4 0.176959 0.977972 0.452387
O O5 0.632122 0.808084 0.730420
O O6 0.960206 0.117137 0.819797
O O7 0.771276 0.719669 0.903495
O O8 0.174917 0.866092 0.963407
O O9 0.000000 0.000000 0.000000
O O10 0.110432 0.658013 0.767180
O O11 0.914794 0.569887 0.967588
O O12 0.326951 0.731388 0.029831
O O13 0.497513 0.470221 0.329368
O O14 0.616567 0.416213 0.115074
O O15 0.697753 0.442276 0.619699
O O16 0.000000 0.500000 0.500000
O O17 0.503851 0.358421 0.825472
#
# Coordination Sequence:
#
# PCOD9089989 Si02
#       8
#     2   2   2   2   2   2   2   2
#     4  11  23  41  62  93 131 168 215 255 305 383
#     4  10  23  37  62  91 124 170 210 254 309 370
#     4  10  19  38  63  85 124 165 211 257 303 374
#     4  10  22  40  59  97 134 156 208 261 326 380
#     4  11  20  38  64  96 121 160 218 267 315 363
#     4  11  23  39  63  96 131 169 201 260 327 372
#     4  11  22  39  64  99 127 156 218 272 305 377
#     4  10  22  36  64  97 127 157 201 277 329 360
#
# _framework density 23.062384999999999
#
# number of rings (size 3 to 8) (size 9 to 14) (size 15 to 20)
#    0.000    1.500    3.750    2.250    3.500    2.000 
#    0.000    2.500    0.000   15.000    0.000    0.000 
#    0.000    0.000    0.000    0.000    0.000    0.000 
#
# Total GULP energy -89336.797894 kJ/mol
# GULP energy per Si atom -5583.549868 kJ/mol
# Density = 2.300989 g / cm^3
# Si number density = 23.062385 Si / 1000 Ang^3
#
#
#
# Elastic Constant Matrix: (Units=GPa)
#
#
# Indices 1 2 3 4 5 6 
#
# 1 61.8364 24.8154 20.7551 -8.2715 -9.4010 -25.7486
# 2 24.8154 81.2336 36.6064 -10.5391 -3.6907 -16.1512
# 3 20.7551 36.6064 107.0143 -13.8339 -23.9233 0.2066
# 4 -8.2715 -10.5391 -13.8339 39.2397 -2.1811 -2.9960
# 5 -9.4010 -3.6907 -23.9233 -2.1811 45.3795 1.1092
# 6 -25.7486 -16.1512 0.2066 -2.9960 1.1092 30.0499
#
#
#
# Elastic Compliance Matrix: (Units=1/GPa)
#
#
# Indices 1 2 3 4 5 6 
#
# 1 0.030155 -0.001393 -0.003660 0.006868 0.003907 0.025655
# 2 -0.001393 0.017290 -0.005731 0.002869 -0.001974 0.008498
# 3 -0.003660 -0.005731 0.013744 0.002403 0.006291 -0.006304
# 4 0.006868 0.002869 0.002403 0.029557 0.004094 0.010206
# 5 0.003907 -0.001974 0.006291 0.004094 0.026157 0.001687
# 6 0.025655 0.008498 -0.006304 0.010206 0.001687 0.060827
#
#
# Mechanical properties :
#
#
# Convention : Reuss Voigt Hill
#
# Bulk Modulus (GPa) = 25.23923 46.04868 35.64395
# Shear Modulus (GPa) = 23.52877 34.12765 28.82821
#
# Velocity S-wave (km/s) = 3.19756 3.85099 3.53938
# Velocity P-wave (km/s) = 4.95985 6.30744 5.67380
#
# Compressibility (1/GPa) = 0.03962086
#
# Stress axis : x y z
#
# Youngs Moduli (GPa) = 33.16223 57.83535 72.75902
#
# Poissons Ratio (x) = 0.08056 0.26631
# Poissons Ratio (y) = 0.04619 0.41699
# Poissons Ratio (z) = 0.12138 0.33146
#
# Static dielectric constant tensor:
#      x y z
#    x 1.880910 -0.018550 -0.020700 
#    y -0.018550 1.940020 0.017930 
#    z -0.020700 0.017930 1.932730 
# 
# From -- ./inp_files/188570.got.cif
#   From: 2010.05.17/outbox.cif.g08.bks.cpg/sg2_95_cif.got.tgz:188570.got - 2010.06.03 11:33:40.
