data_PCOD9089393
_publ_section_title
;
Structure prediction by ZEFSAII (Michael W. Deem and Ramdas Pophale) SiO2 
 PCOD9089393
Probable space group: P -1
;
_chemical_formula_sum "Si O2"
_cell_formula_units_Z 15
_cell_length_a 15.568743
_cell_length_b 8.942694
_cell_length_c 14.026390
_cell_angle_alpha 55.439646
_cell_angle_beta 30.262220
_cell_angle_gamma 77.929567
_cell_volume 596.704413
_symmetry_space_group_name_H-M "P -1"
_symmetry_group_IT_number 2
_symmetry_cell_setting 'triclinic'
loop_
_space_group_symop_operation_xyz
x,y,z
-x,-y,-z
loop_
_atom_site_type_symbol
_atom_site_label
_atom_site_fract_x
_atom_site_fract_y
_atom_site_fract_z
Si Si1 0.316624 0.917175 0.624309
Si Si2 0.459454 0.168349 0.712663
Si Si3 0.077099 0.586761 0.286429
Si Si4 0.588448 0.458636 0.114764
Si Si5 0.000000 0.500000 0.000000
Si Si6 0.321289 0.794869 0.321912
Si Si7 0.159091 0.243050 0.039726
Si Si8 0.815383 0.898923 0.629016
O O1 0.338780 0.771373 0.571482
O O2 0.061872 0.669232 0.982908
O O3 0.500000 0.000000 0.500000
O O4 0.381075 0.163820 0.436640
O O5 0.553062 0.222221 0.709738
O O6 0.328408 0.263639 0.796025
O O7 0.258623 0.877608 0.997990
O O8 0.862853 0.452270 0.470540
O O9 0.000000 0.500000 0.500000
O O10 0.217821 0.516327 0.136856
O O11 0.685692 0.583428 0.080404
O O12 0.585374 0.630667 0.984477
O O13 0.960957 0.671168 0.921618
O O14 0.226391 0.917373 0.408660
O O15 0.500000 0.000000 0.000000
O O16 0.962912 0.961629 0.370008
O O17 0.000000 0.000000 0.500000
#
# Coordination Sequence:
#
# PCOD9089393 Si02
#       8
#     2   2   2   2   1   2   2   2
#     4  11  25  48  72 101 138 187 237 296 352 415
#     4  11  26  42  70 104 133 185 242 287 350 418
#     4  11  21  39  63 101 148 183 224 285 342 422
#     4  10  21  42  72  96 143 183 227 291 347 410
#     4  12  26  48  76  94 140 186 234 284 368 416
#     4  12  21  38  65 100 148 192 221 280 357 414
#     4  11  22  46  72 102 140 183 233 295 348 427
#     4  10  19  37  70 100 137 187 221 284 353 408
#
# _framework density 25.138072999999999
#
# number of rings (size 3 to 8) (size 9 to 14) (size 15 to 20)
#    0.000    1.067    5.333    3.200    0.000    0.533 
#    4.800    4.000    0.000    0.000    0.000    0.000 
#    0.000    0.000    0.000    0.000    0.000    0.000 
#
# Total GULP energy -83655.027189 kJ/mol
# GULP energy per Si atom -5577.001813 kJ/mol
# Density = 2.508086 g / cm^3
# Si number density = 25.138073 Si / 1000 Ang^3
#
#
#
# Elastic Constant Matrix: (Units=GPa)
#
#
# Indices 1 2 3 4 5 6 
#
# 1 105.7426 28.8919 26.3822 -14.0243 -9.2547 -3.4267
# 2 28.8919 113.2515 38.8420 3.7972 3.4261 -9.4138
# 3 26.3822 38.8420 108.1930 -36.0759 -0.9541 -2.5580
# 4 -14.0243 3.7972 -36.0759 63.2097 8.1647 -1.8477
# 5 -9.2547 3.4261 -0.9541 8.1647 37.6432 -9.3089
# 6 -3.4267 -9.4138 -2.5580 -1.8477 -9.3089 44.7869
#
#
#
# Elastic Compliance Matrix: (Units=1/GPa)
#
#
# Indices 1 2 3 4 5 6 
#
# 1 0.010898 -0.002417 -0.001235 0.001529 0.002757 0.000891
# 2 -0.002417 0.011344 -0.004713 -0.003793 -0.000511 0.001668
# 3 -0.001235 -0.004713 0.013927 0.008125 -0.001341 -0.000233
# 4 0.001529 -0.003793 0.008125 0.021507 -0.003766 -0.000112
# 5 0.002757 -0.000511 -0.001341 -0.003766 0.029560 0.006015
# 6 0.000891 0.001668 -0.000233 -0.000112 0.006015 0.023979
#
#
# Mechanical properties :
#
#
# Convention : Reuss Voigt Hill
#
# Bulk Modulus (GPa) = 51.43993 57.26882 54.35438
# Shear Modulus (GPa) = 37.19503 44.66604 40.93053
#
# Velocity S-wave (km/s) = 3.85077 4.21982 4.03951
# Velocity P-wave (km/s) = 6.34654 6.82449 6.58985
#
# Compressibility (1/GPa) = 0.01944015
#
# Stress axis : x y z
#
# Youngs Moduli (GPa) = 91.75686 88.14993 71.80045
#
# Poissons Ratio (x) = 0.21310 0.08864
# Poissons Ratio (y) = 0.22182 0.33840
# Poissons Ratio (z) = 0.11328 0.41545
#
# Static dielectric constant tensor:
#      x y z
#    x 1.983300 0.022040 -0.207180 
#    y 0.022040 2.155280 -0.004720 
#    z -0.207180 -0.004720 1.665570 
# 
# From -- ./inp_files/529373.got.cif
#   From: 2010.05.17/outbox.cif.g08.bks.cpg/sg2_265_cif.got.tgz:529373.got - 2010.06.03 11:33:40.
