data_PCOD9089919
_publ_section_title
;
Structure prediction by ZEFSAII (Michael W. Deem and Ramdas Pophale) SiO2 
 PCOD9089919
Probable space group: P -1
;
_chemical_formula_sum "Si O2"
_cell_formula_units_Z 16
_cell_length_a 9.757421
_cell_length_b 11.401146
_cell_length_c 9.960827
_cell_angle_alpha 123.507412
_cell_angle_beta 91.826125
_cell_angle_gamma 63.442049
_cell_volume 791.388809
_symmetry_space_group_name_H-M "P -1"
_symmetry_group_IT_number 2
_symmetry_cell_setting 'triclinic'
loop_
_space_group_symop_operation_xyz
x,y,z
-x,-y,-z
loop_
_atom_site_type_symbol
_atom_site_label
_atom_site_fract_x
_atom_site_fract_y
_atom_site_fract_z
Si Si1 0.457902 0.513523 0.163784
Si Si2 0.474808 0.781077 0.837534
Si Si3 0.124430 0.604534 0.118994
Si Si4 0.950176 0.459766 0.190458
Si Si5 0.239229 0.149709 0.123196
Si Si6 0.874949 0.952197 0.410498
Si Si7 0.747675 0.805564 0.536416
Si Si8 0.456263 0.769181 0.522601
O O1 0.528106 0.338680 0.127619
O O2 0.265753 0.598439 0.203944
O O3 0.497746 0.625307 0.327987
O O4 0.500000 0.500000 0.000000
O O5 0.630791 0.797289 0.875864
O O6 0.488428 0.714562 0.644561
O O7 0.320009 0.963624 0.957083
O O8 0.066460 0.499939 0.133463
O O9 0.975880 0.788969 0.222835
O O10 0.166762 0.540863 0.927750
O O11 0.856661 0.610173 0.385080
O O12 0.065159 0.283765 0.148417
O O13 0.230318 0.153451 0.286205
O O14 0.798426 0.899948 0.495049
O O15 0.729331 0.097088 0.417941
O O16 0.000000 0.000000 0.500000
O O17 0.566035 0.846921 0.543849
#
# Coordination Sequence:
#
# PCOD9089919 Si02
#       8
#     2   2   2   2   2   2   2   2
#     4  12  24  40  64  90 133 169 214 267 312 379
#     4  10  23  40  62  95 124 175 213 262 325 375
#     4  10  21  37  60  90 124 167 214 255 312 385
#     4  10  19  38  62  91 125 165 210 262 318 370
#     4  10  20  39  65  90 131 163 215 269 317 381
#     4  11  22  40  64  93 128 169 209 261 323 373
#     4  10  23  38  63  99 125 167 215 264 315 385
#     4  11  23  43  65  92 130 169 216 262 317 382
#
# _framework density 20.217623
#
# number of rings (size 3 to 8) (size 9 to 14) (size 15 to 20)
#    0.000    1.500    2.500    2.625    1.750    0.000 
#    4.500    1.250    0.000    5.250    0.000    0.000 
#    0.000    0.000    0.000    0.000    0.000    0.000 
#
# Total GULP energy -89358.808358 kJ/mol
# GULP energy per Si atom -5584.925522 kJ/mol
# Density = 2.017161 g / cm^3
# Si number density = 20.217623 Si / 1000 Ang^3
#
#
#
# Elastic Constant Matrix: (Units=GPa)
#
#
# Indices 1 2 3 4 5 6 
#
# 1 65.7991 22.5008 17.2102 -16.4640 9.2523 -2.7083
# 2 22.5008 84.7740 21.9696 -1.2930 1.7343 1.6296
# 3 17.2102 21.9696 122.4650 -8.5587 4.4829 13.2466
# 4 -16.4640 -1.2930 -8.5587 18.5083 -4.7314 -4.2881
# 5 9.2523 1.7343 4.4829 -4.7314 25.5821 -0.4957
# 6 -2.7083 1.6296 13.2466 -4.2881 -0.4957 30.6584
#
#
#
# Elastic Compliance Matrix: (Units=1/GPa)
#
#
# Indices 1 2 3 4 5 6 
#
# 1 0.023227 -0.005540 -0.001342 0.019943 -0.003992 0.005651
# 2 -0.005540 0.013701 -0.001929 -0.004992 0.000469 -0.001075
# 3 -0.001342 -0.001929 0.009267 0.001898 -0.000730 -0.003766
# 4 0.019943 -0.004992 0.001898 0.076955 0.007260 0.012088
# 5 -0.003992 0.000469 -0.000730 0.007260 0.042004 0.001632
# 6 0.005651 -0.001075 -0.003766 0.012088 0.001632 0.036518
#
#
# Mechanical properties :
#
#
# Convention : Reuss Voigt Hill
#
# Bulk Modulus (GPa) = 34.99722 44.04437 39.52080
# Shear Modulus (GPa) = 21.85130 29.04027 25.44579
#
# Velocity S-wave (km/s) = 3.29113 3.79408 3.55152
# Velocity P-wave (km/s) = 5.63825 6.40514 6.03389
#
# Compressibility (1/GPa) = 0.02857370
#
# Stress axis : x y z
#
# Youngs Moduli (GPa) = 43.05311 72.98521 107.91013
#
# Poissons Ratio (x) = 0.40434 0.14478
# Poissons Ratio (y) = 0.23852 0.20818
# Poissons Ratio (z) = 0.05776 0.14080
#
# Static dielectric constant tensor:
#      x y z
#    x 1.728340 -0.004630 0.001970 
#    y -0.004630 1.692480 0.017870 
#    z 0.001970 0.017870 1.714130 
# 
# From -- ./inp_files/190177.got.cif
#   From: 2010.05.17/outbox.cif.g08.bks.cpg/sg2_96_cif.got.tgz:190177.got - 2010.06.03 11:33:40.
