data_PCOD9089312
_publ_section_title
;
Structure prediction by ZEFSAII (Michael W. Deem and Ramdas Pophale) SiO2 
 PCOD9089312
Probable space group: P -1
;
_chemical_formula_sum "Si O2"
_cell_formula_units_Z 14
_cell_length_a 7.971362
_cell_length_b 14.172007
_cell_length_c 11.115925
_cell_angle_alpha 51.729804
_cell_angle_beta 115.842925
_cell_angle_gamma 75.116756
_cell_volume 591.281315
_symmetry_space_group_name_H-M "P -1"
_symmetry_group_IT_number 2
_symmetry_cell_setting 'triclinic'
loop_
_space_group_symop_operation_xyz
x,y,z
-x,-y,-z
loop_
_atom_site_type_symbol
_atom_site_label
_atom_site_fract_x
_atom_site_fract_y
_atom_site_fract_z
Si Si1 0.750777 0.349060 0.782010
Si Si2 0.189141 0.443219 0.989700
Si Si3 0.148155 0.229990 0.798269
Si Si4 0.782524 0.336227 0.052182
Si Si5 0.112242 0.982415 0.913245
Si Si6 0.266839 0.418346 0.778328
Si Si7 0.818017 0.055792 0.520105
O O1 0.500000 0.500000 0.500000
O O2 0.725501 0.430532 0.834304
O O3 0.026444 0.246699 0.875643
O O4 0.721447 0.220897 0.899136
O O5 0.221824 0.571194 0.914307
O O6 0.490028 0.233719 0.260615
O O7 0.083097 0.477194 0.793650
O O8 0.000000 0.500000 0.000000
O O9 0.333838 0.257338 0.865883
O O10 0.230166 0.061597 0.899868
O O11 0.906948 0.408938 0.499051
O O12 0.537117 0.356341 0.963412
O O13 0.081949 0.129815 0.287797
O O14 0.910031 0.079251 0.654602
O O15 0.000000 0.000000 0.000000
O O16 0.000000 0.000000 0.500000
#
# Coordination Sequence:
#
# PCOD9089312 Si02
#       7
#     2   2   2   2   2   2   2
#     4  10  19  37  67  97 136 180 232 286 354 422
#     4  12  27  46  72 103 141 188 243 293 360 434
#     4  10  21  39  66  97 145 180 236 294 348 427
#     4  11  23  43  73 100 136 189 234 291 361 428
#     4   9  21  40  66 104 138 188 231 290 359 423
#     4  11  22  40  68 103 138 187 237 292 356 417
#     4  11  24  43  74 104 141 182 235 296 356 424
#
# _framework density 23.677394
#
# number of rings (size 3 to 8) (size 9 to 14) (size 15 to 20)
#    0.000    1.429    2.857    2.143    4.000    0.571 
#    0.000    2.857    3.143    0.000    0.000    0.000 
#    0.000    0.000    0.000    0.000    0.000    0.000 
#
# Total GULP energy -78014.444197 kJ/mol
# GULP energy per Si atom -5572.460300 kJ/mol
# Density = 2.362350 g / cm^3
# Si number density = 23.677394 Si / 1000 Ang^3
#
#
#
# Elastic Constant Matrix: (Units=GPa)
#
#
# Indices 1 2 3 4 5 6 
#
# 1 121.8577 39.5872 22.0761 -8.7788 -17.5451 3.1935
# 2 39.5872 162.3345 24.6203 -9.5956 -13.0725 4.9095
# 3 22.0761 24.6203 61.4257 -1.2875 -12.6742 0.2499
# 4 -8.7788 -9.5956 -1.2875 39.6530 -7.8171 -18.0145
# 5 -17.5451 -13.0725 -12.6742 -7.8171 25.9727 -5.7877
# 6 3.1935 4.9095 0.2499 -18.0145 -5.7877 60.6868
#
#
#
# Elastic Compliance Matrix: (Units=1/GPa)
#
#
# Indices 1 2 3 4 5 6 
#
# 1 0.010204 -0.001517 -0.001580 0.003806 0.006810 0.001372
# 2 -0.001517 0.007091 -0.001779 0.001918 0.002321 0.000304
# 3 -0.001580 -0.001779 0.019363 0.002274 0.008535 0.001637
# 4 0.003806 0.001918 0.002274 0.035558 0.018002 0.011907
# 5 0.006810 0.002321 0.008535 0.018002 0.056107 0.010113
# 6 0.001372 0.000304 0.001637 0.011907 0.010113 0.020874
#
#
# Mechanical properties :
#
#
# Convention : Reuss Voigt Hill
#
# Bulk Modulus (GPa) = 37.16642 57.57612 47.37127
# Shear Modulus (GPa) = 29.77660 42.55147 36.16403
#
# Velocity S-wave (km/s) = 3.55011 4.24386 3.91239
# Velocity P-wave (km/s) = 5.70398 6.95583 6.36078
#
# Compressibility (1/GPa) = 0.02690601
#
# Stress axis : x y z
#
# Youngs Moduli (GPa) = 98.00039 141.02464 51.64526
#
# Poissons Ratio (x) = 0.21391 0.08160
# Poissons Ratio (y) = 0.14865 0.09188
# Poissons Ratio (z) = 0.15484 0.25089
#
# Static dielectric constant tensor:
#      x y z
#    x 2.035790 -0.096420 -0.020280 
#    y -0.096420 1.890260 0.024530 
#    z -0.020280 0.024530 1.927670 
# 
# From -- ./inp_files/398604.got.cif
#   From: 2010.05.17/outbox.cif.g08.bks.cpg/sg2_200_cif.got.tgz:398604.got - 2010.06.03 11:33:40.
