data_PCOD9089092
_publ_section_title
;
Structure prediction by ZEFSAII (Michael W. Deem and Ramdas Pophale) SiO2 
 PCOD9089092
Probable space group: P -1
;
_chemical_formula_sum "Si O2"
_cell_formula_units_Z 16
_cell_length_a 14.614480
_cell_length_b 11.310466
_cell_length_c 13.545108
_cell_angle_alpha 130.588212
_cell_angle_beta 30.646708
_cell_angle_gamma 141.866864
_cell_volume 702.312413
_symmetry_space_group_name_H-M "P -1"
_symmetry_group_IT_number 2
_symmetry_cell_setting 'triclinic'
loop_
_space_group_symop_operation_xyz
x,y,z
-x,-y,-z
loop_
_atom_site_type_symbol
_atom_site_label
_atom_site_fract_x
_atom_site_fract_y
_atom_site_fract_z
Si Si1 0.857489 0.646347 0.203361
Si Si2 0.570485 0.744100 0.616335
Si Si3 0.771348 0.836236 0.678440
Si Si4 0.352829 0.953387 0.956227
Si Si5 0.824308 0.695595 0.045385
Si Si6 0.389724 0.480355 0.198331
Si Si7 0.205494 0.965203 0.715470
Si Si8 0.544698 0.147670 0.682851
O O1 0.764578 0.771898 0.384046
O O2 0.661289 0.436446 0.311218
O O3 0.859943 0.615918 0.067361
O O4 0.103787 0.757739 0.076012
O O5 0.626339 0.699305 0.647319
O O6 0.530043 0.904317 0.763664
O O7 0.786489 0.723512 0.695498
O O8 0.652314 0.926873 0.885192
O O9 0.000000 0.000000 0.500000
O O10 0.405606 0.074059 0.872235
O O11 0.592021 0.572463 0.138832
O O12 0.866903 0.894142 0.151632
O O13 0.005291 0.758502 0.827841
O O14 0.318536 0.623962 0.332385
O O15 0.500000 0.500000 0.000000
O O16 0.313405 0.936632 0.506780
O O17 0.377853 0.058111 0.696689
#
# Coordination Sequence:
#
# PCOD9089092 Si02
#       8
#     2   2   2   2   2   2   2   2
#     4  11  22  42  67  99 133 173 224 279 331 394
#     4  11  25  43  65 100 135 176 223 277 331 399
#     4  12  25  47  68  95 135 184 225 270 340 401
#     4  12  23  42  70  96 136 175 227 270 336 398
#     4  10  19  37  65  89 132 168 211 274 338 387
#     4  11  23  43  67  89 129 177 220 273 330 396
#     4   9  19  34  59  96 124 160 208 266 337 382
#     4  10  20  38  61  96 125 163 212 273 322 396
#
# _framework density 22.781884999999999
#
# number of rings (size 3 to 8) (size 9 to 14) (size 15 to 20)
#    0.000    1.250    5.000    1.500    0.000    0.000 
#    4.500    0.625    0.000    0.000    0.000    0.000 
#    0.000    0.000    0.000    0.000    0.000    0.000 
#
# Total GULP energy -89236.319749 kJ/mol
# GULP energy per Si atom -5577.269984 kJ/mol
# Density = 2.273003 g / cm^3
# Si number density = 22.781885 Si / 1000 Ang^3
#
#
#
# Elastic Constant Matrix: (Units=GPa)
#
#
# Indices 1 2 3 4 5 6 
#
# 1 64.5066 11.5315 15.1625 -0.2111 30.9237 -5.1968
# 2 11.5315 53.9375 18.4803 0.0637 9.0975 -9.9310
# 3 15.1625 18.4803 111.1268 5.4514 24.5641 -7.4261
# 4 -0.2111 0.0637 5.4514 28.5363 -5.2685 2.0250
# 5 30.9237 9.0975 24.5641 -5.2685 36.4832 1.1437
# 6 -5.1968 -9.9310 -7.4261 2.0250 1.1437 27.3418
#
#
#
# Elastic Compliance Matrix: (Units=1/GPa)
#
#
# Indices 1 2 3 4 5 6 
#
# 1 0.028530 -0.001227 0.003066 -0.005884 -0.027021 0.007376
# 2 -0.001227 0.021396 -0.002181 -0.000729 -0.003155 0.007132
# 3 0.003066 -0.002181 0.011794 -0.004480 -0.010761 0.003776
# 4 -0.005884 -0.000729 -0.004480 0.038870 0.013989 -0.006064
# 5 -0.027021 -0.003155 -0.010761 0.013989 0.060767 -0.012783
# 6 0.007376 0.007132 0.003776 -0.006064 -0.012783 0.042575
#
#
# Mechanical properties :
#
#
# Convention : Reuss Voigt Hill
#
# Bulk Modulus (GPa) = 16.38410 35.54659 25.96535
# Shear Modulus (GPa) = 22.22609 30.76539 26.49574
#
# Velocity S-wave (km/s) = 3.12685 3.67881 3.41400
# Velocity P-wave (km/s) = 4.49929 5.80360 5.19256
#
# Compressibility (1/GPa) = 0.06103479
#
# Stress axis : x y z
#
# Youngs Moduli (GPa) = 35.05116 46.73827 84.78991
#
# Poissons Ratio (x) = 0.05736 -0.25996
# Poissons Ratio (y) = 0.04302 0.18491
# Poissons Ratio (z) = -0.10746 0.10193
#
# Static dielectric constant tensor:
#      x y z
#    x 1.840080 -0.046640 -0.001980 
#    y -0.046640 1.950020 -0.019310 
#    z -0.001980 -0.019310 1.847690 
# 
# From -- ./inp_files/532662.got.cif
#   From: 2010.05.17/outbox.cif.g08.bks.cpg/sg2_267_cif.got.tgz:532662.got - 2010.06.03 11:33:40.
