data_PCOD9089988
_publ_section_title
;
Structure prediction by ZEFSAII (Michael W. Deem and Ramdas Pophale) SiO2 
 PCOD9089988
Probable space group: P -1
;
_chemical_formula_sum "Si O2"
_cell_formula_units_Z 14
_cell_length_a 12.251012
_cell_length_b 11.311698
_cell_length_c 11.484580
_cell_angle_alpha 104.323088
_cell_angle_beta 106.479197
_cell_angle_gamma 140.981756
_cell_volume 607.374128
_symmetry_space_group_name_H-M "P -1"
_symmetry_group_IT_number 2
_symmetry_cell_setting 'triclinic'
loop_
_space_group_symop_operation_xyz
x,y,z
-x,-y,-z
loop_
_atom_site_type_symbol
_atom_site_label
_atom_site_fract_x
_atom_site_fract_y
_atom_site_fract_z
Si Si1 0.668286 0.209478 0.214320
Si Si2 0.877469 0.871405 0.585365
Si Si3 0.713347 0.062146 0.620090
Si Si4 0.114780 0.505113 0.312506
Si Si5 0.025753 0.235402 0.578058
Si Si6 0.218108 0.904853 0.109409
Si Si7 0.264474 0.229750 0.214438
O O1 0.778167 0.454569 0.286810
O O2 0.919927 0.357581 0.325377
O O3 0.437838 0.006509 0.193400
O O4 0.500000 0.000000 0.000000
O O5 0.984695 0.844815 0.566841
O O6 0.563616 0.583287 0.370029
O O7 0.833880 0.838055 0.700847
O O8 0.075171 0.170170 0.666125
O O9 0.786032 0.271103 0.661093
O O10 0.907652 0.223840 0.829798
O O11 0.757027 0.032008 0.506846
O O12 0.403791 0.726552 0.486119
O O13 0.963037 0.287219 0.108859
O O14 0.330932 0.151866 0.199626
O O15 0.000000 0.000000 0.000000
#
# Coordination Sequence:
#
# PCOD9089988 Si02
#       7
#     2   2   2   2   2   2   2
#     4   9  19  37  60  87 121 157 197 245 298 354
#     4  10  22  41  63  86 121 161 196 256 300 351
#     4  10  20  37  61  88 118 155 197 243 304 355
#     4   9  21  36  59  87 117 151 201 250 287 368
#     4  10  19  38  63  85 123 160 197 241 308 355
#     4  11  20  37  61  84 118 161 192 248 306 347
#     4  11  24  40  63  92 117 157 209 248 300 359
#
# _framework density 23.050042000000001
#
# number of rings (size 3 to 8) (size 9 to 14) (size 15 to 20)
#    0.000    2.000    2.857    0.429    2.000    0.571 
#    0.000    4.286   12.571    0.000    0.000    0.000 
#    0.000    0.000    0.000    0.000    0.000    0.000 
#
# Total GULP energy -77967.930667 kJ/mol
# GULP energy per Si atom -5569.137905 kJ/mol
# Density = 2.299758 g / cm^3
# Si number density = 23.050042 Si / 1000 Ang^3
#
#
#
# Elastic Constant Matrix: (Units=GPa)
#
#
# Indices 1 2 3 4 5 6 
#
# 1 113.0658 23.7985 38.3034 0.4036 -35.3784 20.9920
# 2 23.7985 32.6102 18.9226 -3.9124 -13.8267 10.3406
# 3 38.3034 18.9226 86.7484 -11.4628 -18.4315 17.8592
# 4 0.4036 -3.9124 -11.4628 16.6735 -2.5594 -13.9901
# 5 -35.3784 -13.8267 -18.4315 -2.5594 38.9055 -0.4480
# 6 20.9920 10.3406 17.8592 -13.9901 -0.4480 51.7829
#
#
#
# Elastic Compliance Matrix: (Units=1/GPa)
#
#
# Indices 1 2 3 4 5 6 
#
# 1 0.015139 -0.003624 -0.003378 -0.007035 0.010346 -0.006060
# 2 -0.003624 0.041695 -0.003827 0.005438 0.010021 -0.003981
# 3 -0.003378 -0.003827 0.016184 0.010405 0.003913 -0.000603
# 4 -0.007035 0.005438 0.010405 0.088053 0.006510 0.022023
# 5 0.010346 0.010021 0.003913 0.006510 0.040892 -0.005432
# 6 -0.006060 -0.003981 -0.000603 0.022023 -0.005432 0.028674
#
#
# Mechanical properties :
#
#
# Convention : Reuss Voigt Hill
#
# Bulk Modulus (GPa) = 19.47077 43.83037 31.65057
# Shear Modulus (GPa) = 18.55871 31.56569 25.06220
#
# Velocity S-wave (km/s) = 2.84059 3.70461 3.30099
# Velocity P-wave (km/s) = 4.38453 6.11191 5.31881
#
# Compressibility (1/GPa) = 0.05135904
#
# Stress axis : x y z
#
# Youngs Moduli (GPa) = 66.05516 23.98385 61.78762
#
# Poissons Ratio (x) = 0.08692 0.20872
# Poissons Ratio (y) = 0.23939 0.23649
# Poissons Ratio (z) = 0.22313 0.09180
#
# Static dielectric constant tensor:
#      x y z
#    x 1.981130 0.054630 0.043810 
#    y 0.054630 1.906750 -0.035550 
#    z 0.043810 -0.035550 2.153440 
# 
# From -- ./inp_files/277328.got.cif
#   From: 2010.05.17/outbox.cif.g08.bks.cpg/sg2_139_cif.got.tgz:277328.got - 2010.06.03 11:33:40.
