data_PCOD9089855
_publ_section_title
;
Structure prediction by ZEFSAII (Michael W. Deem and Ramdas Pophale) SiO2 
 PCOD9089855
Probable space group: P -1
;
_chemical_formula_sum "Si O2"
_cell_formula_units_Z 16
_cell_length_a 8.538795
_cell_length_b 15.443185
_cell_length_c 21.234694
_cell_angle_alpha 18.747730
_cell_angle_beta 89.998000
_cell_angle_gamma 98.581961
_cell_volume 797.039229
_symmetry_space_group_name_H-M "P -1"
_symmetry_group_IT_number 2
_symmetry_cell_setting 'triclinic'
loop_
_space_group_symop_operation_xyz
x,y,z
-x,-y,-z
loop_
_atom_site_type_symbol
_atom_site_label
_atom_site_fract_x
_atom_site_fract_y
_atom_site_fract_z
Si Si1 0.577045 0.273854 0.676921
Si Si2 0.649388 0.735832 0.015164
Si Si3 0.097419 0.243722 0.108219
Si Si4 0.983910 0.043111 0.895359
Si Si5 0.939219 0.668639 0.808522
Si Si6 0.742610 0.728253 0.649351
Si Si7 0.089238 0.462328 0.425111
Si Si8 0.756578 0.200090 0.936089
O O1 0.500000 0.500000 0.500000
O O2 0.766165 0.488373 0.557594
O O3 0.596496 0.012457 0.815093
O O4 0.442322 0.060094 0.877786
O O5 0.742548 0.672825 0.998251
O O6 0.794723 0.854517 0.990409
O O7 0.470246 0.429926 0.242109
O O8 0.132066 0.351703 0.106538
O O9 0.963213 0.371830 0.997778
O O10 0.008412 0.880736 0.359484
O O11 0.032908 0.395601 0.646363
O O12 0.000000 0.000000 0.000000
O O13 0.119229 0.934782 0.943481
O O14 0.815543 0.733837 0.715768
O O15 0.138458 0.946780 0.606950
O O16 0.785406 0.490121 0.776165
O O17 0.190375 0.678217 0.217951
#
# Coordination Sequence:
#
# PCOD9089855 Si02
#       8
#     2   2   2   2   2   2   2   2
#     4  10  23  35  58  93 123 159 199 245 301 375
#     4  10  23  38  63  92 129 155 202 252 310 364
#     4  11  23  40  63  90 123 162 203 257 314 353
#     4   9  20  37  60  92 121 162 199 244 296 378
#     4  10  23  42  66  87 115 163 214 258 307 356
#     4  10  21  42  66  88 118 160 209 259 302 362
#     4  10  21  37  59  86 127 160 198 249 300 370
#     4  10  19  38  62  86 119 162 203 243 306 366
#
# _framework density 20.074293999999998
#
# number of rings (size 3 to 8) (size 9 to 14) (size 15 to 20)
#    0.000    2.000    1.250    1.125    7.000    3.000 
#    0.000    0.000    8.250    0.000    0.000    0.000 
#    0.000    0.000    0.000    0.000    0.000    0.000 
#
# Total GULP energy -89158.152159 kJ/mol
# GULP energy per Si atom -5572.384510 kJ/mol
# Density = 2.002860 g / cm^3
# Si number density = 20.074294 Si / 1000 Ang^3
#
#
#
# Elastic Constant Matrix: (Units=GPa)
#
#
# Indices 1 2 3 4 5 6 
#
# 1 96.4535 40.7784 31.2397 -0.5654 13.6770 -16.2443
# 2 40.7784 90.5002 26.7206 8.2757 -5.6523 -12.9383
# 3 31.2397 26.7206 67.9540 7.8175 9.0606 -12.3851
# 4 -0.5654 8.2757 7.8175 20.9493 -4.0939 1.2085
# 5 13.6770 -5.6523 9.0606 -4.0939 30.1142 2.8518
# 6 -16.2443 -12.9383 -12.3851 1.2085 2.8518 27.2420
#
#
#
# Elastic Compliance Matrix: (Units=1/GPa)
#
#
# Indices 1 2 3 4 5 6 
#
# 1 0.016110 -0.006175 -0.003091 0.002154 -0.007820 0.005991
# 2 -0.006175 0.015852 -0.003398 -0.004080 0.006073 0.001847
# 3 -0.003091 -0.003398 0.020682 -0.008284 -0.007253 0.007072
# 4 0.002154 -0.004080 -0.008284 0.054688 0.008920 -0.007780
# 5 -0.007820 0.006073 -0.007253 0.008920 0.042230 -0.009893
# 6 0.005991 0.001847 0.007072 -0.007780 -0.009893 0.045754
#
#
# Mechanical properties :
#
#
# Convention : Reuss Voigt Hill
#
# Bulk Modulus (GPa) = 36.60916 50.26501 43.43709
# Shear Modulus (GPa) = 21.76284 26.07238 23.91761
#
# Velocity S-wave (km/s) = 3.29616 3.60779 3.45549
# Velocity P-wave (km/s) = 5.72387 6.51527 6.13235
#
# Compressibility (1/GPa) = 0.02731557
#
# Stress axis : x y z
#
# Youngs Moduli (GPa) = 62.07262 63.08385 48.35122
#
# Poissons Ratio (x) = 0.38956 0.14945
# Poissons Ratio (y) = 0.38331 0.16430
# Poissons Ratio (z) = 0.19187 0.21436
#
# Static dielectric constant tensor:
#      x y z
#    x 1.732890 -0.018630 0.004900 
#    y -0.018630 1.782180 0.049310 
#    z 0.004900 0.049310 1.735760 
# 
# From -- ./inp_files/216416.got.cif
#   From: 2010.05.17/outbox.cif.g08.bks.cpg/sg2_109_cif.got.tgz:216416.got - 2010.06.03 11:33:40.
