data_PCOD9089497
_publ_section_title
;
Structure prediction by ZEFSAII (Michael W. Deem and Ramdas Pophale) SiO2 
 PCOD9089497
Probable space group: P -1
;
_chemical_formula_sum "Si O2"
_cell_formula_units_Z 14
_cell_length_a 26.771666
_cell_length_b 26.336682
_cell_length_c 17.808626
_cell_angle_alpha 160.814668
_cell_angle_beta 161.000500
_cell_angle_gamma 10.723515
_cell_volume 735.471456
_symmetry_space_group_name_H-M "P -1"
_symmetry_group_IT_number 2
_symmetry_cell_setting 'triclinic'
loop_
_space_group_symop_operation_xyz
x,y,z
-x,-y,-z
loop_
_atom_site_type_symbol
_atom_site_label
_atom_site_fract_x
_atom_site_fract_y
_atom_site_fract_z
Si Si1 0.470530 0.584881 0.346686
Si Si2 0.878704 0.316685 0.315757
Si Si3 0.135524 0.362348 0.834694
Si Si4 0.033425 0.969470 0.635299
Si Si5 0.302238 0.692161 0.092507
Si Si6 0.625274 0.795993 0.823298
Si Si7 0.220817 0.627665 0.284777
O O1 0.686098 0.284490 0.271918
O O2 0.328216 0.644888 0.151988
O O3 0.628703 0.611606 0.590046
O O4 0.229861 0.832397 0.408788
O O5 0.953176 0.423474 0.599745
O O6 0.608324 0.478867 0.200510
O O7 0.818631 0.345491 0.182241
O O8 0.116472 0.996396 0.231799
O O9 0.927439 0.575106 0.906629
O O10 0.385284 0.037729 0.759546
O O11 0.269958 0.406151 0.056163
O O12 0.057769 0.822031 0.398469
O O13 0.966797 0.178806 0.784721
O O14 0.500000 0.000000 0.000000
O O15 0.500000 0.500000 0.500000
#
# Coordination Sequence:
#
# PCOD9089497 Si02
#       7
#     2   2   2   2   2   2   2
#     4  12  20  38  59  90 120 151 187 242 304 360
#     4  10  19  38  57  90 115 160 185 237 290 364
#     4  12  23  39  61  84 120 154 202 241 287 347
#     4  11  24  38  62  81 115 161 203 238 288 341
#     4  10  20  35  61  85 127 145 191 229 304 367
#     4  12  24  36  55  91 124 154 179 245 306 357
#     4  11  25  44  60  82 113 166 213 243 269 345
#
# _framework density 19.035411
#
# number of rings (size 3 to 8) (size 9 to 14) (size 15 to 20)
#    0.000    0.857    4.286    3.857    4.000    0.000 
#    0.000    0.000    0.000    1.714    0.000    0.000 
#    0.000    0.000    0.000    0.000    0.000    0.000 
#
# Total GULP energy -78163.286072 kJ/mol
# GULP energy per Si atom -5583.091862 kJ/mol
# Density = 1.899209 g / cm^3
# Si number density = 19.035411 Si / 1000 Ang^3
#
#
#
# Elastic Constant Matrix: (Units=GPa)
#
#
# Indices 1 2 3 4 5 6 
#
# 1 111.0880 39.4983 38.2122 -7.3805 -11.7235 10.7932
# 2 39.4983 141.9048 6.8077 -10.6691 3.7138 -1.7988
# 3 38.2122 6.8077 77.5172 -6.9487 -7.0939 1.5319
# 4 -7.3805 -10.6691 -6.9487 15.4710 -2.9185 -7.3693
# 5 -11.7235 3.7138 -7.0939 -2.9185 5.2818 -14.0087
# 6 10.7932 -1.7988 1.5319 -7.3693 -14.0087 27.8560
#
#
#
# Elastic Compliance Matrix: (Units=1/GPa)
#
#
# Indices 1 2 3 4 5 6 
#
# 1 0.012408 -0.003466 -0.006687 -0.005141 -0.006532 -0.009309
# 2 -0.003466 0.008457 0.001337 0.005905 -0.001128 0.002811
# 3 -0.006687 0.001337 0.014464 -0.002397 -0.016862 -0.007232
# 4 -0.005141 0.005905 -0.002397 0.033004 -0.087643 -0.032839
# 5 -0.006532 -0.001128 -0.016862 -0.087643 -0.155875 -0.098190
# 6 -0.009309 0.002811 -0.007232 -0.032839 -0.098190 -0.017982
#
#
# Mechanical properties :
#
#
# Convention : Reuss Voigt Hill
#
# Bulk Modulus (GPa) = 56.51012 55.50516 56.00764
# Shear Modulus (GPa) = -60.98129 26.12122 -17.43004
#
# Velocity S-wave (km/s) = -5.66615 3.70840 -3.02928
# Velocity P-wave (km/s) = 3.61327 6.89627 4.15348
#
# Compressibility (1/GPa) = 0.01769594
#
# Stress axis : x y z
#
# Youngs Moduli (GPa) = 80.59265 118.24783 69.13643
#
# Poissons Ratio (x) = 0.40990 0.46230
# Poissons Ratio (y) = 0.27937 -0.09241
# Poissons Ratio (z) = 0.53890 -0.15806
#
# Static dielectric constant tensor:
#      x y z
#    x 1.700730 0.013760 -0.041740 
#    y 0.013760 1.674790 -0.018510 
#    z -0.041740 -0.018510 1.661770 
# 
# From -- ./inp_files/453887.got.cif
#   From: 2010.05.17/outbox.cif.g08.bks.cpg/sg2_227_cif.got.tgz:453887.got - 2010.06.03 11:33:40.
