data_PCOD9089849
_publ_section_title
;
Structure prediction by ZEFSAII (Michael W. Deem and Ramdas Pophale) SiO2 
 PCOD9089849
Probable space group: P -1
;
_chemical_formula_sum "Si O2"
_cell_formula_units_Z 16
_cell_length_a 18.101757
_cell_length_b 8.418928
_cell_length_c 8.632207
_cell_angle_alpha 118.423498
_cell_angle_beta 132.376448
_cell_angle_gamma 52.431926
_cell_volume 765.526967
_symmetry_space_group_name_H-M "P -1"
_symmetry_group_IT_number 2
_symmetry_cell_setting 'triclinic'
loop_
_space_group_symop_operation_xyz
x,y,z
-x,-y,-z
loop_
_atom_site_type_symbol
_atom_site_label
_atom_site_fract_x
_atom_site_fract_y
_atom_site_fract_z
Si Si1 0.456593 0.838118 0.824570
Si Si2 0.644305 0.724487 0.521655
Si Si3 0.657372 0.518677 0.127663
Si Si4 0.800162 0.264853 0.975557
Si Si5 0.417456 0.818526 0.398678
Si Si6 0.850240 0.341794 0.740405
Si Si7 0.057870 0.082696 0.749627
Si Si8 0.250800 0.882367 0.730487
O O1 0.450295 0.806620 0.619602
O O2 0.337225 0.924602 0.775092
O O3 0.540130 0.630569 0.928061
O O4 0.500000 0.000000 0.000000
O O5 0.658533 0.662668 0.333008
O O6 0.535381 0.704001 0.421457
O O7 0.755949 0.568219 0.690258
O O8 0.625805 0.952198 0.615958
O O9 0.683283 0.305863 0.147240
O O10 0.755540 0.461722 0.114047
O O11 0.685756 0.238470 0.781232
O O12 0.850462 0.286073 0.893939
O O13 0.890083 0.080080 0.115012
O O14 0.807584 0.203827 0.515750
O O15 0.968548 0.285126 0.798043
O O16 0.164056 0.066886 0.795089
O O17 0.000000 0.000000 0.500000
#
# Coordination Sequence:
#
# PCOD9089849 Si02
#       8
#     2   2   2   2   2   2   2   2
#     4  12  22  36  57  88 128 159 193 239 298 354
#     4  10  23  40  57  85 128 161 195 237 300 363
#     4  10  22  35  58  87 119 164 193 236 294 356
#     4  11  22  36  63  92 117 149 202 252 294 346
#     4  11  24  38  56  89 125 160 193 243 301 355
#     4  10  19  38  62  85 116 155 203 250 287 343
#     4   9  20  38  62  89 115 153 200 250 297 343
#     4   9  20  35  58  87 118 156 202 243 290 350
#
# _framework density 20.900637
#
# number of rings (size 3 to 8) (size 9 to 14) (size 15 to 20)
#    0.000    1.750    2.500    2.250    7.000    1.000 
#    0.000    0.625    0.000    3.750    0.000    0.000 
#    0.000    0.000    0.000    0.000    0.000    0.000 
#
# Total GULP energy -89323.836183 kJ/mol
# GULP energy per Si atom -5582.739761 kJ/mol
# Density = 2.085307 g / cm^3
# Si number density = 20.900637 Si / 1000 Ang^3
#
#
#
# Elastic Constant Matrix: (Units=GPa)
#
#
# Indices 1 2 3 4 5 6 
#
# 1 91.5368 30.3535 7.4904 5.1845 -23.6635 -28.3866
# 2 30.3535 63.4995 14.3518 -10.0139 -3.6650 -33.6129
# 3 7.4904 14.3518 68.1590 -16.1270 -27.9367 0.5093
# 4 5.1845 -10.0139 -16.1270 27.0423 4.5867 -0.4701
# 5 -23.6635 -3.6650 -27.9367 4.5867 35.2847 -0.9621
# 6 -28.3866 -33.6129 0.5093 -0.4701 -0.9621 29.8085
#
#
#
# Elastic Compliance Matrix: (Units=1/GPa)
#
#
# Indices 1 2 3 4 5 6 
#
# 1 0.023005 0.000847 0.004304 -0.004542 0.020151 0.023368
# 2 0.000847 0.049572 -0.007831 0.014657 -0.000833 0.057043
# 3 0.004304 -0.007831 0.027012 0.008538 0.022232 -0.004341
# 4 -0.004542 0.014657 0.008538 0.048718 -0.000747 0.012801
# 5 0.020151 -0.000833 0.022232 -0.000747 0.060007 0.019796
# 6 0.023368 0.057043 -0.004341 0.012801 0.019796 0.121038
#
#
# Mechanical properties :
#
#
# Convention : Reuss Voigt Hill
#
# Bulk Modulus (GPa) = 10.61248 36.39852 23.50550
# Shear Modulus (GPa) = 13.65665 29.82710 21.74188
#
# Velocity S-wave (km/s) = 2.55896 3.78178 3.22879
# Velocity P-wave (km/s) = 3.71748 6.04334 5.01705
#
# Compressibility (1/GPa) = 0.09422872
#
# Stress axis : x y z
#
# Youngs Moduli (GPa) = 43.46957 20.17285 37.02026
#
# Poissons Ratio (x) = -0.01709 -0.15932
# Poissons Ratio (y) = -0.03682 0.28989
# Poissons Ratio (z) = -0.18708 0.15796
#
# Static dielectric constant tensor:
#      x y z
#    x 1.755190 -0.042970 0.017930 
#    y -0.042970 1.795740 -0.011470 
#    z 0.017930 -0.011470 1.785560 
# 
# From -- ./inp_files/178765.got.cif
#   From: 2010.05.17/outbox.cif.g08.bks.cpg/sg2_90_cif.got.tgz:178765.got - 2010.06.03 11:33:40.
