data_PCOD9089712
_publ_section_title
;
Structure prediction by ZEFSAII (Michael W. Deem and Ramdas Pophale) SiO2 
 PCOD9089712
Probable space group: P -1
;
_chemical_formula_sum "Si O2"
_cell_formula_units_Z 16
_cell_length_a 13.066589
_cell_length_b 26.446376
_cell_length_c 7.820060
_cell_angle_alpha 139.642432
_cell_angle_beta 29.615629
_cell_angle_gamma 152.768550
_cell_volume 610.354807
_symmetry_space_group_name_H-M "P -1"
_symmetry_group_IT_number 2
_symmetry_cell_setting 'triclinic'
loop_
_space_group_symop_operation_xyz
x,y,z
-x,-y,-z
loop_
_atom_site_type_symbol
_atom_site_label
_atom_site_fract_x
_atom_site_fract_y
_atom_site_fract_z
Si Si1 0.893763 0.238587 0.664113
Si Si2 0.860352 0.388287 0.994448
Si Si3 0.220216 0.120715 0.730665
Si Si4 0.800582 0.614324 0.933125
Si Si5 0.181699 0.947685 0.161031
Si Si6 0.762363 0.760404 0.573723
Si Si7 0.393318 0.847328 0.490155
Si Si8 0.248521 0.667398 0.635051
O O1 0.067666 0.213059 0.427790
O O2 0.663930 0.157269 0.640368
O O3 0.050721 0.359544 0.667133
O O4 0.758837 0.248503 0.046696
O O5 0.562855 0.290976 0.073501
O O6 0.759873 0.386083 0.324035
O O7 0.000000 0.500000 0.000000
O O8 0.938487 0.074051 0.914719
O O9 0.311778 0.116569 0.776817
O O10 0.454010 0.252116 0.691359
O O11 0.274825 0.055238 0.375379
O O12 0.718146 0.661702 0.304896
O O13 0.500000 0.500000 0.000000
O O14 0.084180 0.726337 0.702949
O O15 0.962029 0.588230 0.734367
O O16 0.937524 0.853708 0.412452
O O17 0.406839 0.937120 0.787080
#
# Coordination Sequence:
#
# PCOD9089712 Si02
#       8
#     2   2   2   2   2   2   2   2
#     4   9  21  37  55  79 119 146 178 233 275 326
#     4  10  21  35  58  79 106 151 189 218 279 329
#     4  10  19  38  61  82 113 142 191 238 270 334
#     4   9  19  33  56  78 110 146 183 232 277 316
#     4  10  20  36  63  85 104 152 188 228 288 324
#     4  10  20  38  59  78 114 146 192 224 275 342
#     4  10  21  35  54  87 115 144 184 236 280 326
#     4   8  18  38  54  77 113 145 183 229 271 326
#
# _framework density 26.214261
#
# number of rings (size 3 to 8) (size 9 to 14) (size 15 to 20)
#    0.750    1.750    1.250    1.125    1.750    2.500 
#    0.000    4.375    0.000    3.750    0.000    0.000 
#    0.000    0.000    0.000    0.000    0.000    0.000 
#
# Total GULP energy -89156.162656 kJ/mol
# GULP energy per Si atom -5572.260166 kJ/mol
# Density = 2.615460 g / cm^3
# Si number density = 26.214261 Si / 1000 Ang^3
#
#
#
# Elastic Constant Matrix: (Units=GPa)
#
#
# Indices 1 2 3 4 5 6 
#
# 1 187.1126 41.7890 34.7236 -9.7090 -33.8755 17.9285
# 2 41.7890 97.9552 9.5154 -12.9954 -9.3137 -8.7977
# 3 34.7236 9.5154 52.9661 -1.0425 -12.9384 -10.2894
# 4 -9.7090 -12.9954 -1.0425 27.0946 -0.6104 -0.2173
# 5 -33.8755 -9.3137 -12.9384 -0.6104 36.4480 16.9569
# 6 17.9285 -8.7977 -10.2894 -0.2173 16.9569 39.1025
#
#
#
# Elastic Compliance Matrix: (Units=1/GPa)
#
#
# Indices 1 2 3 4 5 6 
#
# 1 0.011120 -0.003805 -0.005853 0.002132 0.013533 -0.013351
# 2 -0.003805 0.012661 0.000815 0.004727 -0.002733 0.006019
# 3 -0.005853 0.000815 0.024155 -0.000726 -0.001200 0.009739
# 4 0.002132 0.004727 -0.000726 0.039997 0.004444 -0.001810
# 5 0.013533 -0.002733 -0.001200 0.004444 0.052956 -0.030075
# 6 -0.013351 0.006019 0.009739 -0.001810 -0.030075 0.048645
#
#
# Mechanical properties :
#
#
# Convention : Reuss Voigt Hill
#
# Bulk Modulus (GPa) = 33.05778 56.67664 44.86721
# Shear Modulus (GPa) = 23.00932 37.32940 30.16936
#
# Velocity S-wave (km/s) = 2.96588 3.77770 3.39614
# Velocity P-wave (km/s) = 4.93625 6.37930 5.70360
#
# Compressibility (1/GPa) = 0.03025007
#
# Stress axis : x y z
#
# Youngs Moduli (GPa) = 89.92598 78.98429 41.39919
#
# Poissons Ratio (x) = 0.30054 0.24229
# Poissons Ratio (y) = 0.34217 -0.03373
# Poissons Ratio (z) = 0.52630 -0.06435
#
# Static dielectric constant tensor:
#      x y z
#    x 2.155050 -0.021980 0.016470 
#    y -0.021980 2.045850 0.037350 
#    z 0.016470 0.037350 2.135960 
# 
# From -- ./inp_files/284902.got.cif
#   From: 2010.05.17/outbox.cif.g08.bks.cpg/sg2_143_cif.got.tgz:284902.got - 2010.06.03 11:33:40.
