data_PCOD9089831
_publ_section_title
;
Structure prediction by ZEFSAII (Michael W. Deem and Ramdas Pophale) SiO2 
 PCOD9089831
Probable space group: P -1
;
_chemical_formula_sum "Si O2"
_cell_formula_units_Z 16
_cell_length_a 15.492743
_cell_length_b 11.357564
_cell_length_c 9.408210
_cell_angle_alpha 107.444167
_cell_angle_beta 39.645943
_cell_angle_gamma 87.721028
_cell_volume 902.635240
_symmetry_space_group_name_H-M "P -1"
_symmetry_group_IT_number 2
_symmetry_cell_setting 'triclinic'
loop_
_space_group_symop_operation_xyz
x,y,z
-x,-y,-z
loop_
_atom_site_type_symbol
_atom_site_label
_atom_site_fract_x
_atom_site_fract_y
_atom_site_fract_z
Si Si1 0.654674 0.012338 0.319361
Si Si2 0.430609 0.693280 0.534413
Si Si3 0.774968 0.342584 0.702586
Si Si4 0.276645 0.565692 0.887084
Si Si5 0.009595 0.474832 0.811596
Si Si6 0.282552 0.366614 0.231974
Si Si7 0.386025 0.791745 0.318665
Si Si8 0.895308 0.715370 0.812573
O O1 0.629602 0.144530 0.302534
O O2 0.673074 0.061992 0.472795
O O3 0.500000 0.000000 0.500000
O O4 0.788103 0.869671 0.052021
O O5 0.329088 0.634677 0.720954
O O6 0.603479 0.596137 0.322586
O O7 0.421089 0.690209 0.374528
O O8 0.712475 0.488653 0.751786
O O9 0.726673 0.236947 0.648291
O O10 0.954724 0.291957 0.453793
O O11 0.711579 0.373428 0.953372
O O12 0.107477 0.586879 0.094166
O O13 0.949624 0.613468 0.842129
O O14 0.178555 0.383581 0.506648
O O15 0.000000 0.500000 0.000000
O O16 0.194322 0.338577 0.201160
O O17 0.453638 0.249907 0.974907
#
# Coordination Sequence:
#
# PCOD9089831 Si02
#       8
#     2   2   2   2   2   2   2   2
#     4  10  19  38  62  82 112 155 205 224 276 350
#     4   9  22  34  59  85 112 150 186 239 294 334
#     4  11  20  33  57  87 119 143 195 243 284 338
#     4  11  19  37  55  86 123 142 186 243 305 326
#     4  11  23  34  58  89 116 148 190 244 292 333
#     4  11  19  37  60  87 112 153 198 229 290 336
#     4  10  21  35  58  89 106 154 195 238 276 337
#     4  11  20  38  62  81 116 161 191 232 280 352
#
# _framework density 17.725874999999998
#
# number of rings (size 3 to 8) (size 9 to 14) (size 15 to 20)
#    0.750    0.750    5.000    1.875    3.500    1.500 
#    0.000    0.625    2.750    1.500    0.000    0.000 
#    0.000    0.000    0.000    0.000    0.000    0.000 
#
# Total GULP energy -89171.154803 kJ/mol
# GULP energy per Si atom -5573.197175 kJ/mol
# Density = 1.768553 g / cm^3
# Si number density = 17.725875 Si / 1000 Ang^3
#
#
#
# Elastic Constant Matrix: (Units=GPa)
#
#
# Indices 1 2 3 4 5 6 
#
# 1 55.0094 11.6625 1.3698 -8.8319 13.7102 20.7945
# 2 11.6625 44.8746 24.9515 0.4604 4.5820 5.9176
# 3 1.3698 24.9515 98.0123 -9.1790 8.7675 2.3102
# 4 -8.8319 0.4604 -9.1790 32.2087 2.2519 7.2168
# 5 13.7102 4.5820 8.7675 2.2519 27.6384 -0.1057
# 6 20.7945 5.9176 2.3102 7.2168 -0.1057 22.1944
#
#
#
# Elastic Compliance Matrix: (Units=1/GPa)
#
#
# Indices 1 2 3 4 5 6 
#
# 1 0.058838 -0.008746 0.009354 0.036000 -0.033888 -0.065636
# 2 -0.008746 0.028325 -0.007975 -0.006036 0.002677 0.003448
# 3 0.009354 -0.007975 0.014061 0.009830 -0.008623 -0.011339
# 4 0.036000 -0.006036 0.009830 0.057160 -0.024832 -0.051848
# 5 -0.033888 0.002677 -0.008623 -0.024832 0.057461 0.040283
# 6 -0.065636 0.003448 -0.011339 -0.051848 0.040283 0.123864
#
#
# Mechanical properties :
#
#
# Convention : Reuss Voigt Hill
#
# Bulk Modulus (GPa) = 11.56189 30.42930 20.99560
# Shear Modulus (GPa) = 13.04551 27.06913 20.05732
#
# Velocity S-wave (km/s) = 2.71580 3.91205 3.36747
# Velocity P-wave (km/s) = 4.04609 6.13265 5.19520
#
# Compressibility (1/GPa) = 0.08649106
#
# Stress axis : x y z
#
# Youngs Moduli (GPa) = 16.99594 35.30391 71.11634
#
# Poissons Ratio (x) = 0.30878 -0.66525
# Poissons Ratio (y) = 0.14865 0.56713
# Poissons Ratio (z) = -0.15899 0.28154
#
# Static dielectric constant tensor:
#      x y z
#    x 1.610120 0.004270 0.002140 
#    y 0.004270 1.589280 0.004110 
#    z 0.002140 0.004110 1.620940 
# 
# From -- ./inp_files/307878.got.cif
#   From: 2010.05.17/outbox.cif.g08.bks.cpg/sg2_154_cif.got.tgz:307878.got - 2010.06.03 11:33:40.
