data_PCOD9089099
_publ_section_title
;
Structure prediction by ZEFSAII (Michael W. Deem and Ramdas Pophale) SiO2 
 PCOD9089099
Probable space group: P -1
;
_chemical_formula_sum "Si O2"
_cell_formula_units_Z 16
_cell_length_a 19.917997
_cell_length_b 6.381844
_cell_length_c 9.491809
_cell_angle_alpha 53.537133
_cell_angle_beta 46.331532
_cell_angle_gamma 75.003234
_cell_volume 677.649804
_symmetry_space_group_name_H-M "P -1"
_symmetry_group_IT_number 2
_symmetry_cell_setting 'triclinic'
loop_
_space_group_symop_operation_xyz
x,y,z
-x,-y,-z
loop_
_atom_site_type_symbol
_atom_site_label
_atom_site_fract_x
_atom_site_fract_y
_atom_site_fract_z
Si Si1 0.684245 0.773502 0.114003
Si Si2 0.917211 0.753374 0.274339
Si Si3 0.627933 0.291068 0.001995
Si Si4 0.636938 0.185634 0.703250
Si Si5 0.182427 0.447785 0.784303
Si Si6 0.468885 0.403616 0.812163
Si Si7 0.962992 0.674549 0.711206
Si Si8 0.807115 0.712161 0.717275
O O1 0.750430 0.698409 0.166230
O O2 0.597392 0.572865 0.234666
O O3 0.760863 0.875462 0.832684
O O4 0.636128 0.998256 0.149564
O O5 0.843107 0.666423 0.288530
O O6 0.873863 0.850253 0.438386
O O7 0.958400 0.494138 0.353600
O O8 0.000000 0.000000 0.000000
O O9 0.634443 0.295065 0.822561
O O10 0.719928 0.498970 0.853732
O O11 0.533321 0.356615 0.174930
O O12 0.743772 0.257622 0.457865
O O13 0.568860 0.339555 0.657745
O O14 0.586927 0.869498 0.913314
O O15 0.085664 0.400614 0.034784
O O16 0.874891 0.576056 0.768651
O O17 0.000000 0.000000 0.500000
#
# Coordination Sequence:
#
# PCOD9089099 Si02
#       8
#     2   2   2   2   2   2   2   2
#     4   9  22  39  63  92 130 169 210 259 318 400
#     4  12  26  41  65  98 129 164 228 284 329 389
#     4  10  19  37  65  90 127 169 217 250 322 398
#     4  10  20  39  63  98 133 164 218 271 318 385
#     4  11  24  42  64  95 132 166 213 281 328 369
#     4   9  20  38  66  95 129 180 208 254 329 402
#     4  11  26  44  68  91 132 178 219 272 339 402
#     4  10  22  40  64  91 122 176 215 257 327 402
#
# _framework density 23.611014000000001
#
# number of rings (size 3 to 8) (size 9 to 14) (size 15 to 20)
#    0.000    1.750    1.250    1.875    5.250    4.500 
#    0.000    0.625    0.000    0.000    0.000    0.000 
#    0.000    0.000    0.000    0.000    0.000    0.000 
#
# Total GULP energy -89357.239572 kJ/mol
# GULP energy per Si atom -5584.827473 kJ/mol
# Density = 2.355727 g / cm^3
# Si number density = 23.611014 Si / 1000 Ang^3
#
#
#
# Elastic Constant Matrix: (Units=GPa)
#
#
# Indices 1 2 3 4 5 6 
#
# 1 121.6381 22.7926 -3.8589 14.8758 17.4361 -15.5931
# 2 22.7926 100.8426 22.3965 12.8535 4.6507 -20.8595
# 3 -3.8589 22.3965 91.3759 15.0227 -3.6011 -1.1967
# 4 14.8758 12.8535 15.0227 20.5089 4.4174 -4.8072
# 5 17.4361 4.6507 -3.6011 4.4174 32.2240 -4.6383
# 6 -15.5931 -20.8595 -1.1967 -4.8072 -4.6383 26.4447
#
#
#
# Elastic Compliance Matrix: (Units=1/GPa)
#
#
# Indices 1 2 3 4 5 6 
#
# 1 0.010229 -0.000953 0.001603 -0.006343 -0.003841 0.003525
# 2 -0.000953 0.012987 -0.002520 -0.003533 0.000132 0.008949
# 3 0.001603 -0.002520 0.013380 -0.010296 0.002124 -0.001936
# 4 -0.006343 -0.003533 -0.010296 0.065230 -0.005592 0.003885
# 5 -0.003841 0.000132 0.002124 -0.005592 0.034524 0.002974
# 6 0.003525 0.008949 -0.001936 0.003885 0.002974 0.048093
#
#
# Mechanical properties :
#
#
# Convention : Reuss Voigt Hill
#
# Bulk Modulus (GPa) = 30.43630 44.05744 37.24687
# Shear Modulus (GPa) = 25.10855 34.00394 29.55624
#
# Velocity S-wave (km/s) = 3.26456 3.79908 3.54192
# Velocity P-wave (km/s) = 5.20850 6.15989 5.70406
#
# Compressibility (1/GPa) = 0.03285550
#
# Stress axis : x y z
#
# Youngs Moduli (GPa) = 97.76354 77.00082 74.73708
#
# Poissons Ratio (x) = 0.07339 -0.11981
# Poissons Ratio (y) = 0.09318 0.18835
# Poissons Ratio (z) = -0.15673 0.19405
#
# Static dielectric constant tensor:
#      x y z
#    x 1.917560 -0.031150 -0.004660 
#    y -0.031150 1.886830 0.001810 
#    z -0.004660 0.001810 1.977740 
# 
# From -- ./inp_files/106313.got.cif
#   From: 2010.05.17/outbox.cif.g08.bks.cpg/sg2_54_cif.got.tgz:106313.got - 2010.06.03 11:33:40.
