data_PCOD9089867
_publ_section_title
;
Structure prediction by ZEFSAII (Michael W. Deem and Ramdas Pophale) SiO2 
 PCOD9089867
Probable space group: P -1
;
_chemical_formula_sum "Si O2"
_cell_formula_units_Z 16
_cell_length_a 8.517047
_cell_length_b 18.026543
_cell_length_c 11.330364
_cell_angle_alpha 39.841439
_cell_angle_beta 73.906489
_cell_angle_gamma 105.436438
_cell_volume 672.518655
_symmetry_space_group_name_H-M "P -1"
_symmetry_group_IT_number 2
_symmetry_cell_setting 'triclinic'
loop_
_space_group_symop_operation_xyz
x,y,z
-x,-y,-z
loop_
_atom_site_type_symbol
_atom_site_label
_atom_site_fract_x
_atom_site_fract_y
_atom_site_fract_z
Si Si1 0.705156 0.017788 0.466145
Si Si2 0.954400 0.753673 0.115093
Si Si3 0.816954 0.933228 0.923553
Si Si4 0.135301 0.611891 0.681550
Si Si5 0.079496 0.340025 0.159889
Si Si6 0.763095 0.401637 0.586069
Si Si7 0.792165 0.828205 0.659353
Si Si8 0.351573 0.993353 0.938234
O O1 0.828241 0.127140 0.430718
O O2 0.500000 0.000000 0.500000
O O3 0.592030 0.825019 0.712352
O O4 0.923411 0.153518 0.152805
O O5 0.830375 0.806868 0.111962
O O6 0.764507 0.541291 0.405765
O O7 0.174784 0.842409 0.057480
O O8 0.536127 0.798339 0.083262
O O9 0.819213 0.014655 0.937551
O O10 0.059033 0.091162 0.594948
O O11 0.951818 0.614605 0.762950
O O12 0.153069 0.606404 0.545971
O O13 0.424384 0.811793 0.414005
O O14 0.088269 0.458841 0.931542
O O15 0.286474 0.349091 0.088332
O O16 0.000000 0.500000 0.500000
O O17 0.000000 0.000000 0.500000
O O18 0.500000 0.000000 0.000000
#
# Coordination Sequence:
#
# PCOD9089867 Si02
#       8
#     2   2   2   2   2   2   2   2
#     4  10  20  35  62  93 124 160 212 266 317 380
#     4  11  21  39  61  90 125 162 212 262 319 380
#     4  10  22  39  62  89 123 165 207 264 324 372
#     4  10  21  37  62  92 127 171 207 261 325 378
#     4  10  19  38  62  86 129 167 209 255 323 389
#     4  11  23  39  61  94 127 166 215 265 314 378
#     4   9  20  37  61  90 118 162 208 259 316 374
#     4  11  22  38  63  90 124 166 219 260 315 379
#
# _framework density 23.791162
#
# number of rings (size 3 to 8) (size 9 to 14) (size 15 to 20)
#    0.000    1.750    1.250    3.750    0.000    3.000 
#    0.000    0.000    0.000   13.500    0.000    0.000 
#    0.000    0.000    0.000    0.000    0.000    0.000 
#
# Total GULP energy -89258.503950 kJ/mol
# GULP energy per Si atom -5578.656497 kJ/mol
# Density = 2.373701 g / cm^3
# Si number density = 23.791162 Si / 1000 Ang^3
#
#
#
# Elastic Constant Matrix: (Units=GPa)
#
#
# Indices 1 2 3 4 5 6 
#
# 1 115.2044 35.2326 8.6945 -9.6576 23.4853 -30.0601
# 2 35.2326 115.7669 20.7738 -15.0322 14.0659 -25.3272
# 3 8.6945 20.7738 37.9801 -16.2214 20.8215 -6.4950
# 4 -9.6576 -15.0322 -16.2214 25.4592 -6.8043 3.3345
# 5 23.4853 14.0659 20.8215 -6.8043 27.6474 -17.6144
# 6 -30.0601 -25.3272 -6.4950 3.3345 -17.6144 50.6628
#
#
#
# Elastic Compliance Matrix: (Units=1/GPa)
#
#
# Indices 1 2 3 4 5 6 
#
# 1 0.012412 -0.002521 0.007610 0.004453 -0.012296 0.002512
# 2 -0.002521 0.011346 -0.006574 0.002248 0.005014 0.004928
# 3 0.007610 -0.006574 0.069061 0.029804 -0.054748 -0.010914
# 4 0.004453 0.002248 0.029804 0.057727 -0.013812 -0.001014
# 5 -0.012296 0.005014 -0.054748 -0.013812 0.096279 0.022575
# 6 0.002512 0.004928 -0.010914 -0.001014 0.022575 0.030209
#
#
# Mechanical properties :
#
#
# Convention : Reuss Voigt Hill
#
# Bulk Modulus (GPa) = 11.12994 44.26148 27.69571
# Shear Modulus (GPa) = 16.13139 34.37058 25.25099
#
# Velocity S-wave (km/s) = 2.60675 3.80502 3.26139
# Velocity P-wave (km/s) = 3.70790 6.16026 5.08416
#
# Compressibility (1/GPa) = 0.08984777
#
# Stress axis : x y z
#
# Youngs Moduli (GPa) = 80.56506 88.13557 14.48003
#
# Poissons Ratio (x) = 0.22223 -0.11020
# Poissons Ratio (y) = 0.20314 0.09520
# Poissons Ratio (z) = -0.61311 0.57944
#
# Static dielectric constant tensor:
#      x y z
#    x 2.187110 -0.039860 -0.006450 
#    y -0.039860 1.916900 0.008060 
#    z -0.006450 0.008060 1.974390 
# 
# From -- ./inp_files/223860.got.cif
#   From: 2010.05.17/outbox.cif.g08.bks.cpg/sg2_112_cif.got.tgz:223860.got - 2010.06.03 11:33:40.
