data_PCOD9089615
_publ_section_title
;
Structure prediction by ZEFSAII (Michael W. Deem and Ramdas Pophale) SiO2 
 PCOD9089615
Probable space group: P -1
;
_chemical_formula_sum "Si O2"
_cell_formula_units_Z 16
_cell_length_a 8.003387
_cell_length_b 7.387434
_cell_length_c 10.892412
_cell_angle_alpha 95.955508
_cell_angle_beta 63.877796
_cell_angle_gamma 88.695780
_cell_volume 573.414938
_symmetry_space_group_name_H-M "P -1"
_symmetry_group_IT_number 2
_symmetry_cell_setting 'triclinic'
loop_
_space_group_symop_operation_xyz
x,y,z
-x,-y,-z
loop_
_atom_site_type_symbol
_atom_site_label
_atom_site_fract_x
_atom_site_fract_y
_atom_site_fract_z
Si Si1 0.410180 0.826879 0.232431
Si Si2 0.434475 0.690092 0.970448
Si Si3 0.995977 0.714398 0.133353
Si Si4 0.344227 0.285588 0.622044
Si Si5 0.726777 0.761126 0.709502
Si Si6 0.935483 0.215495 0.534383
Si Si7 0.028235 0.275199 0.124147
Si Si8 0.310765 0.720657 0.625445
O O1 0.495271 0.820605 0.068773
O O2 0.550103 0.753383 0.286207
O O3 0.213450 0.727482 0.305820
O O4 0.340126 0.034475 0.287957
O O5 0.213715 0.739454 0.044447
O O6 0.500000 0.500000 0.000000
O O7 0.536360 0.677636 0.805840
O O8 0.996933 0.495136 0.134213
O O9 0.860283 0.786355 0.294107
O O10 0.909039 0.783558 0.036080
O O11 0.330619 0.502900 0.622858
O O12 0.486407 0.211024 0.464443
O O13 0.875063 0.686580 0.553162
O O14 0.840245 0.760639 0.802689
O O15 0.805429 0.244684 0.459169
O O16 0.000000 0.000000 0.500000
O O17 0.829361 0.200994 0.219066
#
# Coordination Sequence:
#
# PCOD9089615 Si02
#       8
#     2   2   2   2   2   2   2   2
#     4  10  21  37  59  82 110 148 184 225 277 330
#     4  12  24  36  52  84 118 143 183 232 274 322
#     4  10  20  33  52  76 108 143 179 226 271 318
#     4   9  17  32  53  78 105 140 180 223 267 324
#     4  10  19  38  60  81 109 147 186 223 275 333
#     4   8  16  33  59  84 107 140 186 229 269 326
#     4   9  17  33  56  76 102 145 182 218 272 324
#     4   8  15  27  53  80 103 130 188 222 261 321
#
# _framework density 27.903003999999999
#
# number of rings (size 3 to 8) (size 9 to 14) (size 15 to 20)
#    0.000    2.500    1.250    1.125    3.500    0.000 
#    0.000    4.375    0.000    0.000    0.000   10.500 
#    0.000    0.000    0.000    0.000    0.000    0.000 
#
# Total GULP energy -89432.756889 kJ/mol
# GULP energy per Si atom -5589.547306 kJ/mol
# Density = 2.783950 g / cm^3
# Si number density = 27.903004 Si / 1000 Ang^3
#
#
#
# Elastic Constant Matrix: (Units=GPa)
#
#
# Indices 1 2 3 4 5 6 
#
# 1 133.6595 21.2500 47.2117 -8.5999 -21.2008 -24.2001
# 2 21.2500 86.3517 20.6210 -16.2822 20.9702 -23.8993
# 3 47.2117 20.6210 204.8492 -9.3239 -39.8369 5.4010
# 4 -8.5999 -16.2822 -9.3239 35.9427 -4.0784 10.7542
# 5 -21.2008 20.9702 -39.8369 -4.0784 58.8139 -9.0031
# 6 -24.2001 -23.8993 5.4010 10.7542 -9.0031 29.0285
#
#
#
# Elastic Compliance Matrix: (Units=1/GPa)
#
#
# Indices 1 2 3 4 5 6 
#
# 1 0.010786 -0.000464 -0.001915 -0.000809 0.004324 0.010607
# 2 -0.000464 0.017881 -0.003173 0.002882 -0.006689 0.011783
# 3 -0.001915 -0.003173 0.006698 0.001760 0.004373 -0.004751
# 4 -0.000809 0.002882 0.001760 0.032605 0.000519 -0.010548
# 5 0.004324 -0.006689 0.004373 0.000519 0.024671 0.004744
# 6 0.010607 0.011783 -0.004751 -0.010548 0.004744 0.059256
#
#
# Mechanical properties :
#
#
# Convention : Reuss Voigt Hill
#
# Bulk Modulus (GPa) = 41.21772 67.00287 54.11029
# Shear Modulus (GPa) = 29.22457 47.14220 38.18339
#
# Velocity S-wave (km/s) = 3.23981 4.11482 3.70325
# Velocity P-wave (km/s) = 5.36647 6.82939 6.14164
#
# Compressibility (1/GPa) = 0.02426141
#
# Stress axis : x y z
#
# Youngs Moduli (GPa) = 92.71120 55.92373 149.29562
#
# Poissons Ratio (x) = 0.02595 0.28586
# Poissons Ratio (y) = 0.04303 0.47377
# Poissons Ratio (z) = 0.17752 0.17747
#
# Static dielectric constant tensor:
#      x y z
#    x 2.205780 0.258460 0.358600 
#    y 0.258460 1.734490 -0.786180 
#    z 0.358600 -0.786180 0.654560 
# 
# From -- ./inp_files/239825.got.cif
#   From: 2010.05.17/outbox.cif.g08.bks.cpg/sg2_120_cif.got.tgz:239825.got - 2010.06.03 11:33:40.
