data_PCOD9089775
_publ_section_title
;
Structure prediction by ZEFSAII (Michael W. Deem and Ramdas Pophale) SiO2 
 PCOD9089775
Probable space group: P -1
;
_chemical_formula_sum "Si O2"
_cell_formula_units_Z 16
_cell_length_a 9.653316
_cell_length_b 12.518481
_cell_length_c 9.893749
_cell_angle_alpha 55.975638
_cell_angle_beta 73.532349
_cell_angle_gamma 53.772829
_cell_volume 797.360170
_symmetry_space_group_name_H-M "P -1"
_symmetry_group_IT_number 2
_symmetry_cell_setting 'triclinic'
loop_
_space_group_symop_operation_xyz
x,y,z
-x,-y,-z
loop_
_atom_site_type_symbol
_atom_site_label
_atom_site_fract_x
_atom_site_fract_y
_atom_site_fract_z
Si Si1 0.108358 0.885574 0.174659
Si Si2 0.039999 0.619088 0.973549
Si Si3 0.997337 0.663700 0.269846
Si Si4 0.058906 0.890518 0.686959
Si Si5 0.427523 0.432208 0.922398
Si Si6 0.503988 0.353128 0.665374
Si Si7 0.539056 0.293792 0.250087
Si Si8 0.705206 0.682609 0.487006
O O1 0.083111 0.749353 0.243066
O O2 0.311161 0.789428 0.231207
O O3 0.013041 0.997755 0.245565
O O4 0.000000 0.000000 0.000000
O O5 0.995185 0.772352 0.795621
O O6 0.246762 0.526464 0.982760
O O7 0.973058 0.667114 0.111728
O O8 0.000000 0.500000 0.000000
O O9 0.138114 0.486685 0.392180
O O10 0.815547 0.741177 0.344312
O O11 0.264962 0.799452 0.692534
O O12 0.000000 0.000000 0.500000
O O13 0.395731 0.406525 0.796501
O O14 0.515196 0.530942 0.824846
O O15 0.535454 0.286621 0.093276
O O16 0.500000 0.500000 0.500000
O O17 0.416895 0.312417 0.601096
O O18 0.418334 0.253506 0.392545
#
# Coordination Sequence:
#
# PCOD9089775 Si02
#       8
#     2   2   2   2   2   2   2   2
#     4  12  24  44  68  95 139 181 225 273 343 421
#     4  11  23  42  68  97 136 175 227 278 341 404
#     4  11  23  41  67 101 135 179 221 284 351 400
#     4  11  25  40  68  98 133 177 224 280 337 404
#     4  10  20  34  63  92 122 165 223 271 317 390
#     4  12  22  37  66 102 129 174 229 278 329 404
#     4  10  19  38  61  89 125 172 217 267 328 397
#     4  11  22  39  66  99 134 165 232 292 328 395
#
# _framework density 20.066213999999999
#
# number of rings (size 3 to 8) (size 9 to 14) (size 15 to 20)
#    0.000    1.000    5.000    2.250    3.500    2.000 
#    0.000    1.250    5.500    0.000    0.000    0.000 
#    0.000    0.000    0.000    0.000    0.000    0.000 
#
# Total GULP energy -89083.027753 kJ/mol
# GULP energy per Si atom -5567.689235 kJ/mol
# Density = 2.002054 g / cm^3
# Si number density = 20.066214 Si / 1000 Ang^3
#
#
#
# Elastic Constant Matrix: (Units=GPa)
#
#
# Indices 1 2 3 4 5 6 
#
# 1 36.9600 2.4474 13.1490 -2.5231 4.7152 -10.6862
# 2 2.4474 53.3806 25.9277 8.7058 -5.7503 -1.9722
# 3 13.1490 25.9277 132.8921 6.2615 16.8381 -4.1288
# 4 -2.5231 8.7058 6.2615 27.0288 -8.0154 5.8662
# 5 4.7152 -5.7503 16.8381 -8.0154 29.2250 5.6112
# 6 -10.6862 -1.9722 -4.1288 5.8662 5.6112 34.0475
#
#
#
# Elastic Compliance Matrix: (Units=1/GPa)
#
#
# Indices 1 2 3 4 5 6 
#
# 1 0.031669 -0.000772 -0.001791 -0.000665 -0.006498 0.010863
# 2 -0.000772 0.022527 -0.004876 -0.004438 0.006105 0.000230
# 3 -0.001791 -0.004876 0.009890 -0.003703 -0.007822 0.002282
# 4 -0.000665 -0.004438 -0.003703 0.046610 0.016387 -0.011646
# 5 -0.006498 0.006105 -0.007822 0.016387 0.048036 -0.013374
# 6 0.010863 0.000230 0.002282 -0.011646 -0.013374 0.037281
#
#
# Mechanical properties :
#
#
# Convention : Reuss Voigt Hill
#
# Bulk Modulus (GPa) = 20.32205 34.03124 27.17665
# Shear Modulus (GPa) = 21.99803 30.17416 26.08610
#
# Velocity S-wave (km/s) = 3.31459 3.88200 3.60946
# Velocity P-wave (km/s) = 4.97978 6.09012 5.56272
#
# Compressibility (1/GPa) = 0.04920763
#
# Stress axis : x y z
#
# Youngs Moduli (GPa) = 31.57674 44.39107 101.11349
#
# Poissons Ratio (x) = 0.03429 0.18106
# Poissons Ratio (y) = 0.02439 0.49303
# Poissons Ratio (z) = 0.05654 0.21645
#
# Static dielectric constant tensor:
#      x y z
#    x 1.749210 -0.002620 0.055790 
#    y -0.002620 1.736950 0.004480 
#    z 0.055790 0.004480 1.944960 
# 
# From -- ./inp_files/185050.got.cif
#   From: 2010.05.17/outbox.cif.g08.bks.cpg/sg2_93_cif.got.tgz:185050.got - 2010.06.03 11:33:40.
