data_PCOD9089376
_publ_section_title
;
Structure prediction by ZEFSAII (Michael W. Deem and Ramdas Pophale) SiO2 
 PCOD9089376
Probable space group: P -1
;
_chemical_formula_sum "Si O2"
_cell_formula_units_Z 16
_cell_length_a 7.479370
_cell_length_b 15.269745
_cell_length_c 10.732161
_cell_angle_alpha 96.650374
_cell_angle_beta 46.246155
_cell_angle_gamma 117.928145
_cell_volume 739.482296
_symmetry_space_group_name_H-M "P -1"
_symmetry_group_IT_number 2
_symmetry_cell_setting 'triclinic'
loop_
_space_group_symop_operation_xyz
x,y,z
-x,-y,-z
loop_
_atom_site_type_symbol
_atom_site_label
_atom_site_fract_x
_atom_site_fract_y
_atom_site_fract_z
Si Si1 0.644761 0.921806 0.675855
Si Si2 0.364450 0.561662 0.519646
Si Si3 0.631737 0.512610 0.763026
Si Si4 0.602659 0.807248 0.930634
Si Si5 0.242281 0.224069 0.525240
Si Si6 0.014122 0.253743 0.387030
Si Si7 0.411626 0.894599 0.242680
Si Si8 0.757362 0.433662 0.922123
O O1 0.587253 0.869019 0.829966
O O2 0.586287 0.834192 0.588711
O O3 0.495649 0.988309 0.749022
O O4 0.000000 0.000000 0.500000
O O5 0.500000 0.500000 0.500000
O O6 0.308084 0.527234 0.398383
O O7 0.592757 0.684516 0.441984
O O8 0.082172 0.518433 0.735970
O O9 0.907176 0.632560 0.670983
O O10 0.578997 0.433989 0.886536
O O11 0.356041 0.527134 0.904220
O O12 0.885182 0.798340 0.771318
O O13 0.606661 0.867593 0.061902
O O14 0.328738 0.685175 0.041853
O O15 0.230430 0.272462 0.404724
O O16 0.890090 0.147709 0.701787
O O17 0.702136 0.175059 0.588179
#
# Coordination Sequence:
#
# PCOD9089376 Si02
#       8
#     2   2   2   2   2   2   2   2
#     4   9  16  30  47  68 105 130 163 219 268 304
#     4  12  20  34  53  79 111 144 173 214 271 307
#     4  10  20  38  52  75 108 146 185 209 249 317
#     4  10  16  28  48  72  95 129 173 210 253 306
#     4   8  17  30  44  73 106 127 166 205 266 305
#     4   8  16  30  46  70 103 125 165 215 245 302
#     4   9  16  29  47  71 102 131 166 210 268 304
#     4  10  23  35  53  77 109 147 180 210 253 318
#
# _framework density 21.636759999999999
#
# number of rings (size 3 to 8) (size 9 to 14) (size 15 to 20)
#    0.750    1.750    2.500    2.250    0.000    0.500 
#    4.500    0.000    0.000    0.000    0.000    7.000 
#    0.000    0.125    0.000    0.000    0.000    0.000 
#
# Total GULP energy -89112.294069 kJ/mol
# GULP energy per Si atom -5569.518379 kJ/mol
# Density = 2.158751 g / cm^3
# Si number density = 21.636760 Si / 1000 Ang^3
#
#
#
# Elastic Constant Matrix: (Units=GPa)
#
#
# Indices 1 2 3 4 5 6 
#
# 1 14.9993 17.8584 17.8528 5.3978 3.7613 -6.6974
# 2 17.8584 123.2309 25.3636 12.6616 14.6398 -16.8810
# 3 17.8528 25.3636 69.9163 9.3004 18.8822 -9.9531
# 4 5.3978 12.6616 9.3004 34.0807 -7.1143 7.9008
# 5 3.7613 14.6398 18.8822 -7.1143 18.3149 -4.7952
# 6 -6.6974 -16.8810 -9.9531 7.9008 -4.7952 13.6977
#
#
#
# Elastic Compliance Matrix: (Units=1/GPa)
#
#
# Indices 1 2 3 4 5 6 
#
# 1 0.133150 -0.003990 -0.020753 -0.027767 0.002705 0.062068
# 2 -0.003990 0.013887 0.005089 -0.014138 -0.015353 0.021640
# 3 -0.020753 0.005089 0.032753 -0.019382 -0.036284 0.018401
# 4 -0.027767 -0.014138 -0.019382 0.069958 0.046009 -0.069328
# 5 0.002705 -0.015353 -0.036284 0.046009 0.113546 -0.030752
# 6 0.062068 0.021640 0.018401 -0.069328 -0.030752 0.172615
#
#
# Mechanical properties :
#
#
# Convention : Reuss Voigt Hill
#
# Bulk Modulus (GPa) = 7.11838 36.69958 21.90898
# Shear Modulus (GPa) = 8.03801 23.02344 15.53072
#
# Velocity S-wave (km/s) = 1.92952 3.26558 2.68207
# Velocity P-wave (km/s) = 2.87422 5.58723 4.44288
#
# Compressibility (1/GPa) = 0.14048140
#
# Stress axis : x y z
#
# Youngs Moduli (GPa) = 7.51030 72.01127 30.53170
#
# Poissons Ratio (x) = 0.28736 0.63362
# Poissons Ratio (y) = 0.02997 -0.15537
# Poissons Ratio (z) = 0.15586 -0.36646
#
# Static dielectric constant tensor:
#      x y z
#    x 1.800350 0.005810 -0.029710 
#    y 0.005810 1.758220 -0.003490 
#    z -0.029710 -0.003490 1.808760 
# 
# From -- ./inp_files/399172.got.cif
#   From: 2010.05.17/outbox.cif.g08.bks.cpg/sg2_200_cif.got.tgz:399172.got - 2010.06.03 11:33:40.
