data_PCOD9089532
_publ_section_title
;
Structure prediction by ZEFSAII (Michael W. Deem and Ramdas Pophale) SiO2 
 PCOD9089532
Probable space group: P -1
;
_chemical_formula_sum "Si O2"
_cell_formula_units_Z 16
_cell_length_a 11.581645
_cell_length_b 12.032372
_cell_length_c 18.708964
_cell_angle_alpha 29.149007
_cell_angle_beta 150.599934
_cell_angle_gamma 141.873481
_cell_volume 619.775012
_symmetry_space_group_name_H-M "P -1"
_symmetry_group_IT_number 2
_symmetry_cell_setting 'triclinic'
loop_
_space_group_symop_operation_xyz
x,y,z
-x,-y,-z
loop_
_atom_site_type_symbol
_atom_site_label
_atom_site_fract_x
_atom_site_fract_y
_atom_site_fract_z
Si Si1 0.608253 0.760298 0.214589
Si Si2 0.377469 0.891638 0.358863
Si Si3 0.262602 0.069073 0.576302
Si Si4 0.629024 0.061913 0.885216
Si Si5 0.040001 0.903094 0.290189
Si Si6 0.287693 0.416168 0.986060
Si Si7 0.779347 0.572594 0.886495
Si Si8 0.803978 0.459266 0.660788
O O1 0.537301 0.787346 0.242596
O O2 0.888936 0.771524 0.345888
O O3 0.448024 0.556889 0.203296
O O4 0.500000 0.000000 0.000000
O O5 0.653041 0.936467 0.457400
O O6 0.283614 0.672739 0.383505
O O7 0.261580 0.826124 0.409945
O O8 0.284282 0.135802 0.149723
O O9 0.448840 0.946394 0.794232
O O10 0.305524 0.336042 0.473535
O O11 0.000000 0.000000 0.500000
O O12 0.799930 0.251951 0.831290
O O13 0.810864 0.915745 0.106250
O O14 0.151996 0.154811 0.231991
O O15 0.261267 0.486030 0.017513
O O16 0.500000 0.500000 0.000000
O O17 0.082108 0.524180 0.770725
O O18 0.000000 0.500000 0.000000
#
# Coordination Sequence:
#
# PCOD9089532 Si02
#       8
#     2   2   2   2   2   2   2   2
#     4  10  20  33  59  90 122 162 201 256 308 369
#     4  10  21  39  60  85 128 155 197 258 317 365
#     4  11  25  41  60  88 121 168 210 249 307 385
#     4  10  19  38  58  88 120 155 210 244 307 366
#     4  10  21  37  60  95 124 157 200 262 318 360
#     4  11  23  34  59  99 124 153 202 267 317 360
#     4  11  19  36  54  88 131 160 199 250 315 377
#     4  11  21  38  60  85 120 167 199 244 314 375
#
# _framework density 25.815819999999999
#
# number of rings (size 3 to 8) (size 9 to 14) (size 15 to 20)
#    0.000    1.500    5.000    2.625    3.500    4.000 
#    2.250    0.000    0.000    3.750    0.000    0.000 
#    0.000    0.000    0.000    0.000    0.000    0.000 
#
# Total GULP energy -89135.609985 kJ/mol
# GULP energy per Si atom -5570.975624 kJ/mol
# Density = 2.575706 g / cm^3
# Si number density = 25.815820 Si / 1000 Ang^3
#
#
#
# Elastic Constant Matrix: (Units=GPa)
#
#
# Indices 1 2 3 4 5 6 
#
# 1 182.4435 82.5503 26.2185 12.5421 62.9917 13.3597
# 2 82.5503 88.8819 18.8987 -0.4250 21.4665 14.2545
# 3 26.2185 18.8987 72.8736 -9.5046 23.5953 -4.7407
# 4 12.5421 -0.4250 -9.5046 37.0052 -3.9123 10.6202
# 5 62.9917 21.4665 23.5953 -3.9123 46.9669 1.6186
# 6 13.3597 14.2545 -4.7407 10.6202 1.6186 47.3866
#
#
#
# Elastic Compliance Matrix: (Units=1/GPa)
#
#
# Indices 1 2 3 4 5 6 
#
# 1 0.019073 -0.013348 0.002541 -0.008694 -0.021535 0.001576
# 2 -0.013348 0.022921 -0.003931 0.006367 0.010114 -0.005297
# 3 0.002541 -0.003931 0.017567 0.001893 -0.010353 0.002153
# 4 -0.008694 0.006367 0.001893 0.033746 0.010859 -0.007209
# 5 -0.021535 0.010114 -0.010353 0.010859 0.051734 -0.002207
# 6 0.001576 -0.005297 0.002153 -0.007209 -0.002207 0.024159
#
#
# Mechanical properties :
#
#
# Convention : Reuss Voigt Hill
#
# Bulk Modulus (GPa) = 33.23903 66.61487 49.92695
# Shear Modulus (GPa) = 23.95738 40.70717 32.33228
#
# Velocity S-wave (km/s) = 3.04963 3.97524 3.54280
# Velocity P-wave (km/s) = 5.03028 6.85054 6.00973
#
# Compressibility (1/GPa) = 0.03008511
#
# Stress axis : x y z
#
# Youngs Moduli (GPa) = 52.42945 43.62768 56.92590
#
# Poissons Ratio (x) = 0.58234 -0.14463
# Poissons Ratio (y) = 0.69983 0.22376
# Poissons Ratio (z) = -0.13321 0.17149
#
# Static dielectric constant tensor:
#      x y z
#    x 2.174920 0.033800 -0.075560 
#    y 0.033800 2.112060 0.055620 
#    z -0.075560 0.055620 2.189430 
# 
# From -- ./inp_files/595076.got.cif
#   From: 2010.05.17/outbox.cif.g08.bks.cpg/sg2_298_cif.got.tgz:595076.got - 2010.06.03 11:33:40.
