data_PCOD9089957
_publ_section_title
;
Structure prediction by ZEFSAII (Michael W. Deem and Ramdas Pophale) SiO2 
 PCOD9089957
Probable space group: P -1
;
_chemical_formula_sum "Si O2"
_cell_formula_units_Z 16
_cell_length_a 7.988424
_cell_length_b 14.077223
_cell_length_c 12.398111
_cell_angle_alpha 31.731860
_cell_angle_beta 103.098754
_cell_angle_gamma 112.148322
_cell_volume 666.407803
_symmetry_space_group_name_H-M "P -1"
_symmetry_group_IT_number 2
_symmetry_cell_setting 'triclinic'
loop_
_space_group_symop_operation_xyz
x,y,z
-x,-y,-z
loop_
_atom_site_type_symbol
_atom_site_label
_atom_site_fract_x
_atom_site_fract_y
_atom_site_fract_z
Si Si1 0.761686 0.473822 0.347026
Si Si2 0.671439 0.821891 0.912649
Si Si3 0.404196 0.662372 0.331607
Si Si4 0.584407 0.047469 0.114135
Si Si5 0.153813 0.976445 0.463676
Si Si6 0.928429 0.469286 0.166773
Si Si7 0.380391 0.181430 0.478974
Si Si8 0.711505 0.467874 0.945358
O O1 0.754951 0.414651 0.527161
O O2 0.924362 0.491909 0.271650
O O3 0.586602 0.309307 0.422321
O O4 0.728861 0.675070 0.136046
O O5 0.604167 0.957234 0.849872
O O6 0.822311 0.927535 0.743486
O O7 0.484724 0.694571 0.945252
O O8 0.500000 0.500000 0.500000
O O9 0.545823 0.867107 0.201158
O O10 0.346943 0.743039 0.135665
O O11 0.697202 0.987687 0.281385
O O12 0.344407 0.078509 0.458151
O O13 0.118328 0.754284 0.652309
O O14 0.000000 0.000000 0.500000
O O15 0.124381 0.585331 0.031074
O O16 0.771298 0.519586 0.028568
O O17 0.289555 0.343485 0.300359
#
# Coordination Sequence:
#
# PCOD9089957 Si02
#       8
#     2   2   2   2   2   2   2   2
#     4  10  21  36  65  88 119 159 209 257 304 369
#     4  11  22  39  61  91 119 168 206 245 306 372
#     4  10  19  38  62  98 121 150 205 265 314 360
#     4  10  21  36  65  93 121 158 204 258 309 366
#     4  12  23  36  56  89 130 164 206 253 298 362
#     4  11  22  38  56  89 123 168 204 256 307 353
#     4  10  20  38  56  90 120 166 201 248 304 364
#     4  10  22  38  60  85 126 166 210 245 297 374
#
# _framework density 24.009322000000001
#
# number of rings (size 3 to 8) (size 9 to 14) (size 15 to 20)
#    0.000    1.500    2.500    3.750    1.750    3.500 
#    0.000    0.000    0.000    1.500    6.500    0.000 
#    0.000    0.000    0.000    0.000    0.000    0.000 
#
# Total GULP energy -89370.082415 kJ/mol
# GULP energy per Si atom -5585.630151 kJ/mol
# Density = 2.395468 g / cm^3
# Si number density = 24.009322 Si / 1000 Ang^3
#
#
#
# Elastic Constant Matrix: (Units=GPa)
#
#
# Indices 1 2 3 4 5 6 
#
# 1 60.7960 20.4962 35.4466 -4.2501 -2.6213 -24.8952
# 2 20.4962 55.1265 30.7594 -7.5844 6.8742 -21.6671
# 3 35.4466 30.7594 199.5258 22.7898 13.8400 -19.6498
# 4 -4.2501 -7.5844 22.7898 49.9141 -17.4542 -3.6456
# 5 -2.6213 6.8742 13.8400 -17.4542 31.7818 -0.8097
# 6 -24.8952 -21.6671 -19.6498 -3.6456 -0.8097 32.7395
#
#
#
# Elastic Compliance Matrix: (Units=1/GPa)
#
#
# Indices 1 2 3 4 5 6 
#
# 1 0.028785 0.000132 -0.004987 0.009895 0.010470 0.020343
# 2 0.000132 0.027713 -0.003376 0.006922 -0.000274 0.017179
# 3 -0.004987 -0.003376 0.007425 -0.006872 -0.006752 -0.002502
# 4 0.009895 0.006922 -0.006872 0.033262 0.020889 0.012202
# 5 0.010470 -0.000274 -0.006752 0.020889 0.046984 0.007215
# 6 0.020343 0.017179 -0.002502 0.012202 0.007215 0.057418
#
#
# Mechanical properties :
#
#
# Convention : Reuss Voigt Hill
#
# Bulk Modulus (GPa) = 21.06961 54.31694 37.69327
# Shear Modulus (GPa) = 21.37944 38.13680 29.75812
#
# Velocity S-wave (km/s) = 2.98730 3.98982 3.52439
# Velocity P-wave (km/s) = 4.54899 6.62550 5.68289
#
# Compressibility (1/GPa) = 0.04746172
#
# Stress axis : x y z
#
# Youngs Moduli (GPa) = 34.74014 36.08383 134.67843
#
# Poissons Ratio (x) = -0.00476 0.67166
# Poissons Ratio (y) = -0.00458 0.45462
# Poissons Ratio (z) = 0.17325 0.12180
#
# Static dielectric constant tensor:
#      x y z
#    x 1.982630 0.005810 -0.015050 
#    y 0.005810 1.978950 0.029080 
#    z -0.015050 0.029080 1.977650 
# 
# From -- ./inp_files/398236.got.cif
#   From: 2010.05.17/outbox.cif.g08.bks.cpg/sg2_200_cif.got.tgz:398236.got - 2010.06.03 11:33:40.
