data_PCOD9089197
_publ_section_title
;
Structure prediction by ZEFSAII (Michael W. Deem and Ramdas Pophale) SiO2 
 PCOD9089197
Probable space group: P -1
;
_chemical_formula_sum "Si O2"
_cell_formula_units_Z 14
_cell_length_a 8.278612
_cell_length_b 7.962224
_cell_length_c 10.559092
_cell_angle_alpha 119.967952
_cell_angle_beta 94.308399
_cell_angle_gamma 68.852414
_cell_volume 557.577418
_symmetry_space_group_name_H-M "P -1"
_symmetry_group_IT_number 2
_symmetry_cell_setting 'triclinic'
loop_
_space_group_symop_operation_xyz
x,y,z
-x,-y,-z
loop_
_atom_site_type_symbol
_atom_site_label
_atom_site_fract_x
_atom_site_fract_y
_atom_site_fract_z
Si Si1 0.331755 0.470406 0.024195
Si Si2 0.907708 0.367349 0.561292
Si Si3 0.027360 0.685021 0.983768
Si Si4 0.617333 0.208822 0.567562
Si Si5 0.529197 0.933669 0.259968
Si Si6 0.289374 0.219990 0.150243
Si Si7 0.790799 0.508404 0.337496
O O1 0.175243 0.698053 0.090269
O O2 0.329488 0.287054 0.858302
O O3 0.500000 0.500000 0.000000
O O4 0.358083 0.363426 0.120916
O O5 0.791889 0.258917 0.584908
O O6 0.821731 0.612052 0.689573
O O7 0.866579 0.363648 0.409743
O O8 0.110971 0.322651 0.586522
O O9 0.137678 0.616730 0.834291
O O10 0.841914 0.833678 0.974057
O O11 0.000000 0.500000 0.000000
O O12 0.601929 0.098416 0.656212
O O13 0.419831 0.392949 0.624301
O O14 0.612850 0.074624 0.392686
O O15 0.431052 0.039111 0.166188
#
# Coordination Sequence:
#
# PCOD9089197 Si02
#       7
#     2   2   2   2   2   2   2
#     4  11  22  39  65  87 118 169 214 254 318 382
#     4  10  21  37  66  97 119 173 214 248 321 381
#     4   9  20  38  61  87 118 165 203 252 309 369
#     4  11  22  39  64  90 135 168 207 260 318 380
#     4  11  23  38  59  94 129 161 209 270 311 369
#     4  10  21  38  63  87 126 160 208 265 309 368
#     4  10  19  37  66  90 128 161 215 261 300 383
#
# _framework density 25.108623000000001
#
# number of rings (size 3 to 8) (size 9 to 14) (size 15 to 20)
#    0.000    1.714    2.857    1.714    0.000    0.000 
#    0.000    3.571   12.571    0.000    0.000    0.000 
#    0.000    0.000    0.000    0.000    0.000    0.000 
#
# Total GULP energy -77982.638352 kJ/mol
# GULP energy per Si atom -5570.188454 kJ/mol
# Density = 2.505147 g / cm^3
# Si number density = 25.108623 Si / 1000 Ang^3
#
#
#
# Elastic Constant Matrix: (Units=GPa)
#
#
# Indices 1 2 3 4 5 6 
#
# 1 129.6454 25.7223 6.9777 -19.4221 -4.1145 0.4331
# 2 25.7223 67.5041 20.3438 -35.2084 5.6044 -23.5968
# 3 6.9777 20.3438 97.6474 -13.4403 -11.3012 3.4961
# 4 -19.4221 -35.2084 -13.4403 50.1030 0.4101 1.4860
# 5 -4.1145 5.6044 -11.3012 0.4101 40.8388 -8.2557
# 6 0.4331 -23.5968 3.4961 1.4860 -8.2557 29.2280
#
#
#
# Elastic Compliance Matrix: (Units=1/GPa)
#
#
# Indices 1 2 3 4 5 6 
#
# 1 0.008712 -0.004763 0.000658 0.000312 0.000941 -0.003803
# 2 -0.004763 0.045635 -0.006884 0.027326 -0.001669 0.035876
# 3 0.000658 -0.006884 0.012043 -0.001198 0.003130 -0.006063
# 4 0.000312 0.027326 -0.001198 0.038366 -0.000363 0.020146
# 5 0.000941 -0.001669 0.003130 -0.000363 0.026867 0.005871
# 6 -0.003803 0.035876 -0.006063 0.020146 0.005871 0.064593
#
#
# Mechanical properties :
#
#
# Convention : Reuss Voigt Hill
#
# Bulk Modulus (GPa) = 22.51646 44.54273 33.52959
# Shear Modulus (GPa) = 21.45937 40.15083 30.80510
#
# Velocity S-wave (km/s) = 2.92663 4.00319 3.50648
# Velocity P-wave (km/s) = 4.51745 6.25667 5.45680
#
# Compressibility (1/GPa) = 0.04441195
#
# Stress axis : x y z
#
# Youngs Moduli (GPa) = 114.78120 21.91293 83.03903
#
# Poissons Ratio (x) = 0.10437 -0.05462
# Poissons Ratio (y) = 0.54670 0.57162
# Poissons Ratio (z) = -0.07550 0.15084
#
# Static dielectric constant tensor:
#      x y z
#    x 1.806370 0.494420 0.396240 
#    y 0.494420 1.357370 -0.363720 
#    z 0.396240 -0.363720 1.806230 
# 
# From -- ./inp_files/376664.got.cif
#   From: 2010.05.17/outbox.cif.g08.bks.cpg/sg2_189_cif.got.tgz:376664.got - 2010.06.03 11:33:40.
