data_PCOD9089148
_publ_section_title
;
Structure prediction by ZEFSAII (Michael W. Deem and Ramdas Pophale) SiO2 
 PCOD9089148
Probable space group: P -1
;
_chemical_formula_sum "Si O2"
_cell_formula_units_Z 16
_cell_length_a 7.426877
_cell_length_b 13.587887
_cell_length_c 10.162238
_cell_angle_alpha 123.251488
_cell_angle_beta 90.402488
_cell_angle_gamma 121.471225
_cell_volume 666.768483
_symmetry_space_group_name_H-M "P -1"
_symmetry_group_IT_number 2
_symmetry_cell_setting 'triclinic'
loop_
_space_group_symop_operation_xyz
x,y,z
-x,-y,-z
loop_
_atom_site_type_symbol
_atom_site_label
_atom_site_fract_x
_atom_site_fract_y
_atom_site_fract_z
Si Si1 0.309952 0.630500 0.535772
Si Si2 0.315118 0.369728 0.511173
Si Si3 0.347866 0.876704 0.570070
Si Si4 0.789897 0.786457 0.040736
Si Si5 0.016160 0.682045 0.819722
Si Si6 0.687816 0.394925 0.177684
Si Si7 0.158502 0.932671 0.828732
Si Si8 0.867888 0.060204 0.604306
O O1 0.521777 0.670609 0.476809
O O2 0.244675 0.724663 0.536662
O O3 0.379514 0.676122 0.723207
O O4 0.103426 0.450841 0.388022
O O5 0.500000 0.500000 0.500000
O O6 0.259939 0.447863 0.673077
O O7 0.088132 0.215743 0.337408
O O8 0.352473 0.981271 0.756889
O O9 0.176061 0.857148 0.444315
O O10 0.601660 0.944444 0.570019
O O11 0.962976 0.842007 0.202506
O O12 0.518019 0.689994 0.989829
O O13 0.853397 0.931369 0.066254
O O14 0.816694 0.678908 0.878883
O O15 0.127581 0.629085 0.874460
O O16 0.186852 0.855713 0.895786
O O17 0.000000 0.000000 0.500000
#
# Coordination Sequence:
#
# PCOD9089148 Si02
#       8
#     2   2   2   2   2   2   2   2
#     4  11  20  42  68 104 137 188 222 269 341 429
#     4  10  19  37  65  95 141 189 214 259 332 421
#     4  11  25  43  79  98 125 190 245 276 335 413
#     4  12  27  42  66 104 141 185 224 290 345 397
#     4  12  23  40  68 105 153 174 217 277 350 423
#     4  11  22  39  66  98 146 179 213 273 347 413
#     4  12  22  41  67 107 143 176 227 278 345 420
#     4  11  26  52  69  94 133 185 244 294 332 398
#
# _framework density 23.996333
#
# number of rings (size 3 to 8) (size 9 to 14) (size 15 to 20)
#    0.000    0.750    6.250    3.000    1.750    1.500 
#    0.000    0.625    0.000    3.750    0.000    0.000 
#    0.000    0.000    0.000    0.000    0.000    0.000 
#
# Total GULP energy -89196.023003 kJ/mol
# GULP energy per Si atom -5574.751438 kJ/mol
# Density = 2.394172 g / cm^3
# Si number density = 23.996333 Si / 1000 Ang^3
#
#
#
# Elastic Constant Matrix: (Units=GPa)
#
#
# Indices 1 2 3 4 5 6 
#
# 1 160.7916 35.3815 28.1544 7.9403 4.8703 -26.8078
# 2 35.3815 61.1957 18.2343 -3.5383 5.1473 -18.7201
# 3 28.1544 18.2343 68.1373 4.2434 16.4426 -15.8315
# 4 7.9403 -3.5383 4.2434 29.8851 -9.5454 -2.8601
# 5 4.8703 5.1473 16.4426 -9.5454 42.7330 3.2694
# 6 -26.8078 -18.7201 -15.8315 -2.8601 3.2694 45.6744
#
#
#
# Elastic Compliance Matrix: (Units=1/GPa)
#
#
# Indices 1 2 3 4 5 6 
#
# 1 0.007766 -0.003346 -0.001420 -0.002210 -0.000628 0.002601
# 2 -0.003346 0.021319 -0.003066 0.004259 -0.000516 0.006015
# 3 -0.001420 -0.003066 0.019614 -0.005013 -0.008518 0.005004
# 4 -0.002210 0.004259 -0.005013 0.038578 0.010255 0.000393
# 5 -0.000628 -0.000516 -0.008518 0.010255 0.029486 -0.005001
# 6 0.002601 0.006015 0.005004 0.000393 -0.005001 0.028003
#
#
# Mechanical properties :
#
#
# Convention : Reuss Voigt Hill
#
# Bulk Modulus (GPa) = 30.27100 50.40723 40.33912
# Shear Modulus (GPa) = 29.16461 37.54880 33.35671
#
# Velocity S-wave (km/s) = 3.49001 3.96001 3.73242
# Velocity P-wave (km/s) = 5.37424 6.47771 5.95160
#
# Compressibility (1/GPa) = 0.03303492
#
# Stress axis : x y z
#
# Youngs Moduli (GPa) = 128.76675 46.90701 50.98413
#
# Poissons Ratio (x) = 0.15696 0.07239
# Poissons Ratio (y) = 0.43088 0.15631
# Poissons Ratio (z) = 0.18283 0.14381
#
# Static dielectric constant tensor:
#      x y z
#    x 2.115140 -0.065270 -0.019340 
#    y -0.065270 1.994730 -0.027820 
#    z -0.019340 -0.027820 1.947430 
# 
# From -- ./inp_files/388278.got.cif
#   From: 2010.05.17/outbox.cif.g08.bks.cpg/sg2_195_cif.got.tgz:388278.got - 2010.06.03 11:33:40.
