data_PCOD9089642
_publ_section_title
;
Structure prediction by ZEFSAII (Michael W. Deem and Ramdas Pophale) SiO2 
 PCOD9089642
Probable space group: P -1
;
_chemical_formula_sum "Si O2"
_cell_formula_units_Z 16
_cell_length_a 8.406961
_cell_length_b 12.131011
_cell_length_c 7.119110
_cell_angle_alpha 85.176217
_cell_angle_beta 80.255757
_cell_angle_gamma 86.222594
_cell_volume 712.046201
_symmetry_space_group_name_H-M "P -1"
_symmetry_group_IT_number 2
_symmetry_cell_setting 'triclinic'
loop_
_space_group_symop_operation_xyz
x,y,z
-x,-y,-z
loop_
_atom_site_type_symbol
_atom_site_label
_atom_site_fract_x
_atom_site_fract_y
_atom_site_fract_z
Si Si1 0.912535 0.848049 0.660627
Si Si2 0.402176 0.721202 0.363825
Si Si3 0.072979 0.748373 0.013790
Si Si4 0.254343 0.340457 0.804720
Si Si5 0.382898 0.612585 0.977059
Si Si6 0.814025 0.478019 0.488162
Si Si7 0.324194 0.336925 0.239922
Si Si8 0.172161 0.905397 0.291768
O O1 0.780604 0.760493 0.651492
O O2 0.022531 0.875799 0.458459
O O3 0.828633 0.962821 0.736512
O O4 0.020685 0.794065 0.814623
O O5 0.596534 0.708568 0.346623
O O6 0.400585 0.678671 0.155931
O O7 0.267403 0.640094 0.484208
O O8 0.329428 0.845837 0.365873
O O9 0.191644 0.638014 0.984123
O O10 0.150450 0.845432 0.104716
O O11 0.914239 0.717809 0.166306
O O12 0.227744 0.462975 0.708772
O O13 0.281860 0.341613 0.024044
O O14 0.500000 0.500000 0.000000
O O15 0.481772 0.676258 0.788394
O O16 0.724362 0.549919 0.659733
O O17 0.000000 0.500000 0.500000
#
# Coordination Sequence:
#
# PCOD9089642 Si02
#       8
#     2   2   2   2   2   2   2   2
#     4  10  21  40  63  92 112 159 202 247 297 351
#     4  10  21  39  57  89 120 159 196 244 298 350
#     4  10  21  40  62  88 118 157 202 242 304 353
#     4  10  23  38  57  87 119 155 198 242 290 363
#     4  10  19  38  60  85 123 161 190 242 299 357
#     4  12  22  37  59  84 121 160 191 239 303 352
#     4  10  22  39  58  86 120 151 198 238 296 354
#     4  10  21  41  64  83 125 152 200 253 295 348
#
# _framework density 22.470451000000001
#
# number of rings (size 3 to 8) (size 9 to 14) (size 15 to 20)
#    0.000    1.750    1.250    3.750    0.000    1.500 
#   11.250   11.250    0.000    3.750    0.000    0.000 
#    0.000    0.000    0.000    0.000    0.000    0.000 
#
# Total GULP energy -89170.790636 kJ/mol
# GULP energy per Si atom -5573.174415 kJ/mol
# Density = 2.241931 g / cm^3
# Si number density = 22.470451 Si / 1000 Ang^3
#
#
#
# Elastic Constant Matrix: (Units=GPa)
#
#
# Indices 1 2 3 4 5 6 
#
# 1 114.6373 45.9887 19.9059 0.2274 -10.5790 -19.7364
# 2 45.9887 117.0504 11.1587 6.1336 7.3047 -21.7030
# 3 19.9059 11.1587 63.0345 1.2650 -6.1327 0.8785
# 4 0.2274 6.1336 1.2650 29.7867 3.4610 -0.7464
# 5 -10.5790 7.3047 -6.1327 3.4610 29.7821 6.0788
# 6 -19.7364 -21.7030 0.8785 -0.7464 6.0788 22.7293
#
#
#
# Elastic Compliance Matrix: (Units=1/GPa)
#
#
# Indices 1 2 3 4 5 6 
#
# 1 0.012029 -0.003476 -0.002978 0.000547 0.003138 0.006419
# 2 -0.003476 0.012601 -0.001914 -0.001429 -0.006768 0.010850
# 3 -0.002978 -0.001914 0.017686 -0.001011 0.004462 -0.006323
# 4 0.000547 -0.001429 -0.001011 0.034395 -0.003932 0.001331
# 5 0.003138 -0.006768 0.004462 -0.003932 0.040778 -0.014945
# 6 0.006419 0.010850 -0.006323 0.001331 -0.014945 0.064215
#
#
# Mechanical properties :
#
#
# Convention : Reuss Voigt Hill
#
# Bulk Modulus (GPa) = 39.09537 49.86987 44.48262
# Shear Modulus (GPa) = 24.15844 30.97089 27.56466
#
# Velocity S-wave (km/s) = 3.28246 3.71657 3.50624
# Velocity P-wave (km/s) = 5.63936 6.37643 6.01919
#
# Compressibility (1/GPa) = 0.02557848
#
# Stress axis : x y z
#
# Youngs Moduli (GPa) = 83.13534 79.36084 56.54153
#
# Poissons Ratio (x) = 0.27589 0.16839
# Poissons Ratio (y) = 0.28901 0.10821
# Poissons Ratio (z) = 0.24760 0.15188
#
# Static dielectric constant tensor:
#      x y z
#    x 2.005800 -0.029190 0.007070 
#    y -0.029190 1.843060 -0.044980 
#    z 0.007070 -0.044980 1.893910 
# 
# From -- ./inp_files/177539.got.cif
#   From: 2010.05.17/outbox.cif.g08.bks.cpg/sg2_89_cif.got.tgz:177539.got - 2010.06.03 11:33:40.
