data_PCOD9089942
_publ_section_title
;
Structure prediction by ZEFSAII (Michael W. Deem and Ramdas Pophale) SiO2 
 PCOD9089942
Probable space group: P -1
;
_chemical_formula_sum "Si O2"
_cell_formula_units_Z 15
_cell_length_a 9.973135
_cell_length_b 13.259833
_cell_length_c 7.443232
_cell_angle_alpha 69.502387
_cell_angle_beta 120.115215
_cell_angle_gamma 136.960057
_cell_volume 580.889836
_symmetry_space_group_name_H-M "P -1"
_symmetry_group_IT_number 2
_symmetry_cell_setting 'triclinic'
loop_
_space_group_symop_operation_xyz
x,y,z
-x,-y,-z
loop_
_atom_site_type_symbol
_atom_site_label
_atom_site_fract_x
_atom_site_fract_y
_atom_site_fract_z
Si Si1 0.062988 0.294947 0.433703
Si Si2 0.500000 0.000000 0.500000
Si Si3 0.333603 0.132681 0.147082
Si Si4 0.671277 0.658135 0.110866
Si Si5 0.669862 0.196006 0.797811
Si Si6 0.696896 0.440443 0.830567
Si Si7 0.785217 0.050876 0.172128
Si Si8 0.165836 0.601792 0.707239
O O1 0.153040 0.323409 0.675132
O O2 0.232909 0.429546 0.330265
O O3 0.977907 0.143770 0.383910
O O4 0.878141 0.297436 0.319414
O O5 0.336255 0.028194 0.336293
O O6 0.667007 0.159212 0.614774
O O7 0.583343 0.285640 0.230811
O O8 0.232644 0.204248 0.042607
O O9 0.258436 0.053134 0.951130
O O10 0.533850 0.646864 0.186858
O O11 0.500000 0.500000 0.000000
O O12 0.694328 0.331039 0.778512
O O13 0.429472 0.048881 0.791488
O O14 0.811332 0.178303 0.010956
O O15 0.849725 0.485900 0.075713
O O16 0.000000 0.500000 0.500000
#
# Coordination Sequence:
#
# PCOD9089942 Si02
#       8
#     2   1   2   2   2   2   2   2
#     4  12  23  37  66  97 121 169 223 265 313 388
#     4  10  22  32  70  94 116 170 214 266 308 382
#     4  10  22  44  61  94 128 172 208 265 334 374
#     4  11  25  45  63  88 135 176 210 263 334 388
#     4  10  19  38  62  93 130 161 210 265 332 367
#     4  11  23  42  63  95 129 171 218 271 316 379
#     4  10  19  39  65  87 125 162 211 262 321 387
#     4  11  22  37  64  94 129 168 218 268 315 372
#
# _framework density 25.822451999999998
#
# number of rings (size 3 to 8) (size 9 to 14) (size 15 to 20)
#    0.000    1.333    4.000    4.000    3.733    1.600 
#    0.000    2.667    0.000    4.000    0.000    0.000 
#    0.000    0.000    0.000    0.000    0.000    0.000 
#
# Total GULP energy -83544.887352 kJ/mol
# GULP energy per Si atom -5569.659157 kJ/mol
# Density = 2.576368 g / cm^3
# Si number density = 25.822452 Si / 1000 Ang^3
#
#
#
# Elastic Constant Matrix: (Units=GPa)
#
#
# Indices 1 2 3 4 5 6 
#
# 1 34.5934 5.0916 -10.2586 -4.8345 2.2616 2.7126
# 2 5.0916 132.0036 47.2931 18.7640 -11.5279 -21.5666
# 3 -10.2586 47.2931 149.0993 8.6324 -0.8249 -11.2646
# 4 -4.8345 18.7640 8.6324 54.4601 -7.1175 -1.4807
# 5 2.2616 -11.5279 -0.8249 -7.1175 27.7094 -1.1383
# 6 2.7126 -21.5666 -11.2646 -1.4807 -1.1383 32.6098
#
#
#
# Elastic Compliance Matrix: (Units=1/GPa)
#
#
# Indices 1 2 3 4 5 6 
#
# 1 0.031211 -0.003572 0.002787 0.003015 -0.003339 -0.003976
# 2 -0.003572 0.010545 -0.002933 -0.002774 0.004137 0.006277
# 3 0.002787 -0.002933 0.007868 -0.000136 -0.001228 0.000497
# 4 0.003015 -0.002774 -0.000136 0.020062 0.003704 -0.001092
# 5 -0.003339 0.004137 -0.001228 0.003704 0.039167 0.004125
# 6 -0.003976 0.006277 0.000497 -0.001092 0.004125 0.035414
#
#
# Mechanical properties :
#
#
# Convention : Reuss Voigt Hill
#
# Bulk Modulus (GPa) = 23.70349 44.43871 34.07110
# Shear Modulus (GPa) = 30.16337 41.19387 35.67862
#
# Velocity S-wave (km/s) = 3.42146 3.99842 3.72114
# Velocity P-wave (km/s) = 4.98075 6.20993 5.62899
#
# Compressibility (1/GPa) = 0.04218788
#
# Stress axis : x y z
#
# Youngs Moduli (GPa) = 32.04001 94.83022 127.10274
#
# Poissons Ratio (x) = 0.33875 -0.35425
# Poissons Ratio (y) = 0.11445 0.37278
# Poissons Ratio (z) = -0.08930 0.27813
#
# Static dielectric constant tensor:
#      x y z
#    x 2.142930 0.037820 -0.133300 
#    y 0.037820 2.035050 -0.058970 
#    z -0.133300 -0.058970 2.215210 
# 
# From -- ./inp_files/262343.got.cif
#   From: 2010.05.17/outbox.cif.g08.bks.cpg/sg2_132_cif.got.tgz:262343.got - 2010.06.03 11:33:40.
