data_PCOD9089087
_publ_section_title
;
Structure prediction by ZEFSAII (Michael W. Deem and Ramdas Pophale) SiO2 
 PCOD9089087
Probable space group: P -1
;
_chemical_formula_sum "Si O2"
_cell_formula_units_Z 16
_cell_length_a 8.675608
_cell_length_b 11.238308
_cell_length_c 9.379614
_cell_angle_alpha 57.841829
_cell_angle_beta 95.356994
_cell_angle_gamma 106.598033
_cell_volume 740.000464
_symmetry_space_group_name_H-M "P -1"
_symmetry_group_IT_number 2
_symmetry_cell_setting 'triclinic'
loop_
_space_group_symop_operation_xyz
x,y,z
-x,-y,-z
loop_
_atom_site_type_symbol
_atom_site_label
_atom_site_fract_x
_atom_site_fract_y
_atom_site_fract_z
Si Si1 0.788748 0.606769 0.264411
Si Si2 0.185140 0.297092 0.486183
Si Si3 0.374240 0.081250 0.579441
Si Si4 0.118031 0.102053 0.060322
Si Si5 0.689454 0.292010 0.507008
Si Si6 0.123172 0.917070 0.428970
Si Si7 0.585888 0.392652 0.741483
Si Si8 0.508506 0.897929 0.932027
O O1 0.865835 0.657257 0.393101
O O2 0.788152 0.440773 0.344983
O O3 0.598579 0.598605 0.274200
O O4 0.871578 0.729671 0.079573
O O5 0.285655 0.180293 0.598594
O O6 0.295693 0.444890 0.331518
O O7 0.030814 0.204336 0.445861
O O8 0.532729 0.204109 0.460731
O O9 0.252912 0.000516 0.500084
O O10 0.437781 0.968086 0.750224
O O11 0.304930 0.100098 0.066991
O O12 0.065422 0.032501 0.254139
O O13 0.000000 0.000000 0.000000
O O14 0.792164 0.177623 0.603763
O O15 0.630574 0.337345 0.625906
O O16 0.592133 0.267820 0.934255
O O17 0.500000 0.000000 0.000000
#
# Coordination Sequence:
#
# PCOD9089087 Si02
#       8
#     2   2   2   2   2   2   2   2
#     4  10  19  37  66  87 115 152 205 247 288 349
#     4  11  21  40  61  86 119 158 200 245 296 352
#     4  12  22  41  62  85 122 163 202 233 291 373
#     4  11  22  39  58  91 124 150 193 252 298 343
#     4  11  20  38  61  90 117 155 200 245 292 349
#     4  12  26  38  57  93 126 158 190 244 310 351
#     4  10  19  37  65  89 112 152 206 249 287 343
#     4  11  21  38  63  90 113 155 207 244 283 349
#
# _framework density 21.621607999999998
#
# number of rings (size 3 to 8) (size 9 to 14) (size 15 to 20)
#    0.000    1.000    6.250    2.250    0.000    2.000 
#    2.250    2.500    0.000    0.000    0.000    0.000 
#    0.000    0.000    0.000    0.000    0.000    0.000 
#
# Total GULP energy -89357.399937 kJ/mol
# GULP energy per Si atom -5584.837496 kJ/mol
# Density = 2.157240 g / cm^3
# Si number density = 21.621608 Si / 1000 Ang^3
#
#
#
# Elastic Constant Matrix: (Units=GPa)
#
#
# Indices 1 2 3 4 5 6 
#
# 1 30.8785 30.4648 9.9409 -7.6974 -1.7994 16.4706
# 2 30.4648 146.8395 88.0032 -31.2825 4.3051 38.1842
# 3 9.9409 88.0032 116.0009 -31.9902 18.7434 17.1896
# 4 -7.6974 -31.2825 -31.9902 45.3723 2.9088 1.2364
# 5 -1.7994 4.3051 18.7434 2.9088 21.4988 -1.2256
# 6 16.4706 38.1842 17.1896 1.2364 -1.2256 42.3608
#
#
#
# Elastic Compliance Matrix: (Units=1/GPa)
#
#
# Indices 1 2 3 4 5 6 
#
# 1 0.048076 -0.009070 0.007241 0.007528 -0.002275 -0.013740
# 2 -0.009070 0.018514 -0.012274 0.002444 0.005442 -0.008095
# 3 0.007241 -0.012274 0.023722 0.010784 -0.019205 -0.002248
# 4 0.007528 0.002444 0.010784 0.033829 -0.014460 -0.010911
# 5 -0.002275 0.005442 -0.019205 -0.014460 0.064279 0.006054
# 6 -0.013740 -0.008095 -0.002248 -0.010911 0.006054 0.037652
#
#
# Mechanical properties :
#
#
# Convention : Reuss Voigt Hill
#
# Bulk Modulus (GPa) = 16.10187 61.17076 38.63631
# Shear Modulus (GPa) = 18.18302 32.86705 25.52503
#
# Velocity S-wave (km/s) = 2.90309 3.90308 3.43962
# Velocity P-wave (km/s) = 4.32441 6.97603 5.80368
#
# Compressibility (1/GPa) = 0.06210458
#
# Stress axis : x y z
#
# Youngs Moduli (GPa) = 20.80044 54.01226 42.15498
#
# Poissons Ratio (x) = 0.48991 -0.30524
# Poissons Ratio (y) = 0.18867 0.51742
# Poissons Ratio (z) = -0.15061 0.66296
#
# Static dielectric constant tensor:
#      x y z
#    x 1.850150 0.004410 -0.027620 
#    y 0.004410 1.791060 -0.026680 
#    z -0.027620 -0.026680 1.789960 
# 
# From -- ./inp_files/185255.got.cif
#   From: 2010.05.17/outbox.cif.g08.bks.cpg/sg2_93_cif.got.tgz:185255.got - 2010.06.03 11:33:40.
