data_PCOD9089766
_publ_section_title
;
Structure prediction by ZEFSAII (Michael W. Deem and Ramdas Pophale) SiO2 
 PCOD9089766
Probable space group: P -1
;
_chemical_formula_sum "Si O2"
_cell_formula_units_Z 16
_cell_length_a 12.194070
_cell_length_b 5.533378
_cell_length_c 20.345634
_cell_angle_alpha 73.553299
_cell_angle_beta 149.302230
_cell_angle_gamma 108.231548
_cell_volume 665.368644
_symmetry_space_group_name_H-M "P -1"
_symmetry_group_IT_number 2
_symmetry_cell_setting 'triclinic'
loop_
_space_group_symop_operation_xyz
x,y,z
-x,-y,-z
loop_
_atom_site_type_symbol
_atom_site_label
_atom_site_fract_x
_atom_site_fract_y
_atom_site_fract_z
Si Si1 0.013476 0.649233 0.241338
Si Si2 0.810301 0.781393 0.897150
Si Si3 0.566539 0.802300 0.994830
Si Si4 0.843015 0.155046 0.280834
Si Si5 0.087812 0.493721 0.146850
Si Si6 0.868990 0.625784 0.477390
Si Si7 0.795855 0.130500 0.558487
Si Si8 0.483615 0.104393 0.684855
O O1 0.060261 0.510494 0.208810
O O2 0.205288 0.823042 0.367194
O O3 0.822722 0.819665 0.115317
O O4 0.925759 0.414572 0.262666
O O5 0.848176 0.743919 0.841799
O O6 0.570037 0.850152 0.774239
O O7 0.871606 0.553194 0.991900
O O8 0.000000 0.000000 0.000000
O O9 0.500000 0.500000 0.000000
O O10 0.414848 0.869162 0.852221
O O11 0.500000 0.000000 0.000000
O O12 0.950928 0.192631 0.403772
O O13 0.959908 0.935512 0.324168
O O14 0.296400 0.703744 0.224745
O O15 0.771184 0.397657 0.492416
O O16 0.669698 0.778217 0.351939
O O17 0.000000 0.500000 0.500000
O O18 0.638909 0.936544 0.446166
#
# Coordination Sequence:
#
# PCOD9089766 Si02
#       8
#     2   2   2   2   2   2   2   2
#     4  10  21  37  61  92 124 164 209 259 314 383
#     4   9  20  41  60  82 122 163 201 260 308 365
#     4  10  19  38  61  88 130 171 207 265 325 382
#     4   9  20  37  58  88 127 161 201 259 318 375
#     4  10  21  40  62  91 125 158 212 255 309 376
#     4  10  22  41  61  89 120 160 211 257 310 383
#     4  10  20  39  62  85 125 159 197 258 315 377
#     4  10  21  39  63  87 123 164 199 258 317 366
#
# _framework density 24.046817999999998
#
# number of rings (size 3 to 8) (size 9 to 14) (size 15 to 20)
#    0.000    2.250    1.250    0.750    0.000    4.500 
#   11.250    8.750    0.000    0.000    0.000    0.000 
#    0.000    0.000    0.000    0.000    0.000    0.000 
#
# Total GULP energy -89245.607023 kJ/mol
# GULP energy per Si atom -5577.850439 kJ/mol
# Density = 2.399209 g / cm^3
# Si number density = 24.046818 Si / 1000 Ang^3
#
#
#
# Elastic Constant Matrix: (Units=GPa)
#
#
# Indices 1 2 3 4 5 6 
#
# 1 88.2392 26.3054 37.6803 0.7829 -11.9116 -37.8129
# 2 26.3054 88.1877 30.9197 -7.6709 2.9060 -34.8588
# 3 37.6803 30.9197 142.0238 -17.1780 3.2596 -20.2336
# 4 0.7829 -7.6709 -17.1780 50.2087 -15.9934 -0.0448
# 5 -11.9116 2.9060 3.2596 -15.9934 22.2463 8.1857
# 6 -37.8129 -34.8588 -20.2336 -0.0448 8.1857 44.5115
#
#
#
# Elastic Compliance Matrix: (Units=1/GPa)
#
#
# Indices 1 2 3 4 5 6 
#
# 1 0.019621 0.001091 -0.003382 0.000553 0.005765 0.014926
# 2 0.001091 0.018045 -0.001858 -0.000241 -0.007405 0.015576
# 3 -0.003382 -0.001858 0.008625 0.002390 -0.001035 -0.000215
# 4 0.000553 -0.000241 0.002390 0.027180 0.020384 -0.002353
# 5 0.005765 -0.007405 -0.001035 0.020384 0.068976 -0.014037
# 6 0.014926 0.015576 -0.000215 -0.002353 -0.014037 0.049825
#
#
# Mechanical properties :
#
#
# Convention : Reuss Voigt Hill
#
# Bulk Modulus (GPa) = 26.32053 56.47349 41.39701
# Shear Modulus (GPa) = 23.44820 38.29632 30.87226
#
# Velocity S-wave (km/s) = 3.12606 3.99503 3.58696
# Velocity P-wave (km/s) = 4.89887 6.69449 5.86580
#
# Compressibility (1/GPa) = 0.03799316
#
# Stress axis : x y z
#
# Youngs Moduli (GPa) = 50.96507 55.41578 115.94006
#
# Poissons Ratio (x) = -0.06046 0.39213
# Poissons Ratio (y) = -0.05561 0.21544
# Poissons Ratio (z) = 0.17237 0.10298
#
# Static dielectric constant tensor:
#      x y z
#    x 1.956430 0.038340 -0.014580 
#    y 0.038340 1.242750 -0.093020 
#    z -0.014580 -0.093020 1.945670 
# 
# From -- ./inp_files/83246.got.cif
#   From: 2010.05.17/outbox.cif.g08.bks.cpg/sg2_42_cif.got.tgz:83246.got - 2010.06.03 11:33:40.
