data_PCOD9089185
_publ_section_title
;
Structure prediction by ZEFSAII (Michael W. Deem and Ramdas Pophale) SiO2 
 PCOD9089185
Probable space group: P -1
;
_chemical_formula_sum "Si O2"
_cell_formula_units_Z 16
_cell_length_a 23.526838
_cell_length_b 17.046804
_cell_length_c 11.665955
_cell_angle_alpha 37.282653
_cell_angle_beta 149.557866
_cell_angle_gamma 161.676585
_cell_volume 737.601676
_symmetry_space_group_name_H-M "P -1"
_symmetry_group_IT_number 2
_symmetry_cell_setting 'triclinic'
loop_
_space_group_symop_operation_xyz
x,y,z
-x,-y,-z
loop_
_atom_site_type_symbol
_atom_site_label
_atom_site_fract_x
_atom_site_fract_y
_atom_site_fract_z
Si Si1 0.507701 0.820754 0.637523
Si Si2 0.996894 0.657926 0.051513
Si Si3 0.327243 0.520011 0.137013
Si Si4 0.537662 0.477080 0.218231
Si Si5 0.797891 0.901245 0.551450
Si Si6 0.990836 0.827475 0.615004
Si Si7 0.910641 0.481405 0.756704
Si Si8 0.258017 0.421622 0.871999
O O1 0.496715 0.709690 0.640616
O O2 0.351134 0.788619 0.388032
O O3 0.404500 0.648075 0.771806
O O4 0.758982 0.096802 0.763343
O O5 0.968975 0.478304 0.179898
O O6 0.821471 0.539444 0.971165
O O7 0.009895 0.767657 0.835568
O O8 0.576497 0.766342 0.331133
O O9 0.247830 0.292439 0.270683
O O10 0.288494 0.514663 0.941634
O O11 0.793989 0.735252 0.389922
O O12 0.500000 0.500000 0.000000
O O13 0.374144 0.394769 0.107939
O O14 0.830042 0.928020 0.437144
O O15 0.010820 0.156534 0.700729
O O16 0.943067 0.663672 0.629644
O O17 0.000000 0.500000 0.000000
#
# Coordination Sequence:
#
# PCOD9089185 Si02
#       8
#     2   2   2   2   2   2   2   2
#     4  10  19  37  66  88 115 152 204 250 302 346
#     4  11  23  38  59  93 123 150 203 256 295 357
#     4  11  27  38  54  94 129 163 194 241 309 364
#     4   9  17  32  59  88 110 148 203 242 285 356
#     4  11  22  42  59  83 129 162 200 247 299 358
#     4  10  20  38  66  83 116 158 208 250 298 349
#     4   9  19  39  63  90 115 148 199 262 299 338
#     4  11  21  41  61  87 128 163 198 240 304 367
#
# _framework density 21.691924
#
# number of rings (size 3 to 8) (size 9 to 14) (size 15 to 20)
#    0.000    1.750    3.750    2.250    5.250    0.500 
#    4.500    1.250    0.000    0.000    0.000    0.000 
#    0.000    0.000    0.000    0.000    0.000    0.000 
#
# Total GULP energy -89103.501451 kJ/mol
# GULP energy per Si atom -5568.968841 kJ/mol
# Density = 2.164255 g / cm^3
# Si number density = 21.691924 Si / 1000 Ang^3
#
#
#
# Elastic Constant Matrix: (Units=GPa)
#
#
# Indices 1 2 3 4 5 6 
#
# 1 144.7992 22.2921 52.5384 22.1881 28.4381 15.2781
# 2 22.2921 40.9629 15.5818 22.7912 7.4550 8.4479
# 3 52.5384 15.5818 124.1411 32.9183 29.9513 10.7296
# 4 22.1881 22.7912 32.9183 32.0536 11.8944 3.0449
# 5 28.4381 7.4550 29.9513 11.8944 26.7655 4.3963
# 6 15.2781 8.4479 10.7296 3.0449 4.3963 16.1427
#
#
#
# Elastic Compliance Matrix: (Units=1/GPa)
#
#
# Indices 1 2 3 4 5 6 
#
# 1 0.009803 -0.002072 -0.001618 -0.000596 -0.006922 -0.005121
# 2 -0.002072 0.048265 0.006189 -0.038067 0.002169 -0.020821
# 3 -0.001618 0.006189 0.014382 -0.014209 -0.008766 -0.006199
# 4 -0.000596 -0.038067 -0.014209 0.074934 -0.009169 0.018292
# 5 -0.006922 0.002169 -0.008766 -0.009169 0.058481 -0.002955
# 6 -0.005121 -0.020821 -0.006199 0.018292 -0.002955 0.079165
#
#
# Mechanical properties :
#
#
# Convention : Reuss Voigt Hill
#
# Bulk Modulus (GPa) = 12.91189 54.52531 33.71860
# Shear Modulus (GPa) = 16.34803 29.62509 22.98656
#
# Velocity S-wave (km/s) = 2.74824 3.69957 3.25881
# Velocity P-wave (km/s) = 4.00447 6.59090 5.45324
#
# Compressibility (1/GPa) = 0.07744802
#
# Stress axis : x y z
#
# Youngs Moduli (GPa) = 102.00604 20.71904 69.53275
#
# Poissons Ratio (x) = 0.04293 0.11251
# Poissons Ratio (y) = 0.21136 -0.43036
# Poissons Ratio (z) = 0.16506 -0.12824
#
# Static dielectric constant tensor:
#      x y z
#    x 1.802970 -0.028900 -0.021860 
#    y -0.028900 1.925070 0.038000 
#    z -0.021860 0.038000 1.815630 
# 
# From -- ./inp_files/475361.got.cif
#   From: 2010.05.17/outbox.cif.g08.bks.cpg/sg2_238_cif.got.tgz:475361.got - 2010.06.03 11:33:40.
