data_PCOD9089880
_publ_section_title
;
Structure prediction by ZEFSAII (Michael W. Deem and Ramdas Pophale) SiO2 
 PCOD9089880
Probable space group: P -1
;
_chemical_formula_sum "Si O2"
_cell_formula_units_Z 10
_cell_length_a 7.014499
_cell_length_b 9.894708
_cell_length_c 8.638051
_cell_angle_alpha 54.176208
_cell_angle_beta 99.825022
_cell_angle_gamma 130.239233
_cell_volume 349.615277
_symmetry_space_group_name_H-M "P -1"
_symmetry_group_IT_number 2
_symmetry_cell_setting 'triclinic'
loop_
_space_group_symop_operation_xyz
x,y,z
-x,-y,-z
loop_
_atom_site_type_symbol
_atom_site_label
_atom_site_fract_x
_atom_site_fract_y
_atom_site_fract_z
Si Si1 0.450184 0.740623 0.330951
Si Si2 0.343463 0.222862 0.079336
Si Si3 0.768493 0.000661 0.485170
Si Si4 0.126642 0.268591 0.765478
Si Si5 0.877234 0.493009 0.830747
O O1 0.245371 0.508455 0.557955
O O2 0.675678 0.750609 0.281080
O O3 0.269011 0.702665 0.190514
O O4 0.610008 0.939699 0.346171
O O5 0.401569 0.190603 0.279548
O O6 0.160672 0.263973 0.958458
O O7 0.620099 0.436873 0.899178
O O8 0.166683 0.963123 0.165560
O O9 0.916529 0.256410 0.382148
O O10 0.000000 0.000000 0.500000
O O11 0.000000 0.500000 0.000000
#
# Coordination Sequence:
#
# PCOD9089880 Si02
#       5
#     2   2   2   2   2
#     4  10  19  38  62  87 127 154 198 254 301 353
#     4  10  20  37  63  91 121 159 198 248 309 357
#     4  12  22  39  66  97 119 151 205 260 303 350
#     4   9  17  36  61  93 121 154 193 257 310 346
#     4  11  26  44  59  85 129 170 200 241 300 365
#
# _framework density 28.602868000000001
#
# number of rings (size 3 to 8) (size 9 to 14) (size 15 to 20)
#    0.000    1.600    4.000    2.400    0.000    4.800 
#    0.000    1.000    0.000    0.000    0.000    0.000 
#    0.000    0.000    0.000    0.000    0.000    0.000 
#
# Total GULP energy -55896.662543 kJ/mol
# GULP energy per Si atom -5589.666254 kJ/mol
# Density = 2.853777 g / cm^3
# Si number density = 28.602868 Si / 1000 Ang^3
#
#
#
# Elastic Constant Matrix: (Units=GPa)
#
#
# Indices 1 2 3 4 5 6 
#
# 1 77.3777 29.7530 3.9250 3.9307 7.3490 11.2868
# 2 29.7530 228.3051 50.9332 26.8614 17.0938 22.3255
# 3 3.9250 50.9332 148.9331 11.8426 -6.5862 10.3736
# 4 3.9307 26.8614 11.8426 68.0754 20.3049 11.9259
# 5 7.3490 17.0938 -6.5862 20.3049 27.2405 10.3913
# 6 11.2868 22.3255 10.3736 11.9259 10.3913 33.3446
#
#
#
# Elastic Compliance Matrix: (Units=1/GPa)
#
#
# Indices 1 2 3 4 5 6 
#
# 1 0.014165 -0.001499 0.000203 0.001027 -0.002255 -0.003519
# 2 -0.001499 0.005372 -0.001719 -0.000807 -0.002175 -0.001588
# 3 0.000203 -0.001719 0.007832 -0.001832 0.005163 -0.002308
# 4 0.001027 -0.000807 -0.001832 0.019863 -0.014300 -0.001885
# 5 -0.002255 -0.002175 0.005163 -0.014300 0.054936 -0.011392
# 6 -0.003519 -0.001588 -0.002308 -0.001885 -0.011392 0.037187
#
#
# Mechanical properties :
#
#
# Convention : Reuss Voigt Hill
#
# Bulk Modulus (GPa) = 46.86374 69.31536 58.08955
# Shear Modulus (GPa) = 32.78723 50.39907 41.59315
#
# Velocity S-wave (km/s) = 3.38937 4.20221 3.81748
# Velocity P-wave (km/s) = 5.63355 6.91600 6.30745
#
# Compressibility (1/GPa) = 0.02133846
#
# Stress axis : x y z
#
# Youngs Moduli (GPa) = 70.59612 186.14714 127.68624
#
# Poissons Ratio (x) = 0.27908 -0.02593
# Poissons Ratio (y) = 0.10584 0.21950
# Poissons Ratio (z) = -0.01434 0.31999
#
# Static dielectric constant tensor:
#      x y z
#    x 2.393180 -0.073820 -0.045720 
#    y -0.073820 2.237970 0.119010 
#    z -0.045720 0.119010 2.201500 
# 
# From -- ./inp_files/144093.got.cif
#   From: 2010.05.17/outbox.cif.g08.bks.cpg/sg2_73_cif.got.tgz:144093.got - 2010.06.03 11:33:40.
