data_PCOD9089119
_publ_section_title
;
Structure prediction by ZEFSAII (Michael W. Deem and Ramdas Pophale) SiO2 
 PCOD9089119
Probable space group: P -1
;
_chemical_formula_sum "Si O2"
_cell_formula_units_Z 15
_cell_length_a 6.446984
_cell_length_b 11.385683
_cell_length_c 12.894175
_cell_angle_alpha 75.814846
_cell_angle_beta 46.068961
_cell_angle_gamma 72.391426
_cell_volume 648.837139
_symmetry_space_group_name_H-M "P -1"
_symmetry_group_IT_number 2
_symmetry_cell_setting 'triclinic'
loop_
_space_group_symop_operation_xyz
x,y,z
-x,-y,-z
loop_
_atom_site_type_symbol
_atom_site_label
_atom_site_fract_x
_atom_site_fract_y
_atom_site_fract_z
Si Si1 0.292792 0.203312 0.525257
Si Si2 0.244578 0.736306 0.054974
Si Si3 0.127524 0.841264 0.782376
Si Si4 0.730397 0.372433 0.706246
Si Si5 0.112420 0.989252 0.344944
Si Si6 0.248367 0.584055 0.889906
Si Si7 0.559274 0.790148 0.300857
Si Si8 0.000000 0.000000 0.000000
O O1 0.524403 0.173417 0.359852
O O2 0.475876 0.185208 0.571345
O O3 0.081777 0.337364 0.578456
O O4 0.077545 0.104830 0.619713
O O5 0.343371 0.694275 0.146013
O O6 0.894806 0.738962 0.175506
O O7 0.354558 0.635574 0.950481
O O8 0.236480 0.876139 0.993825
O O9 0.096599 0.704943 0.854004
O O10 0.949402 0.891721 0.730356
O O11 0.033882 0.934430 0.888038
O O12 0.539990 0.507857 0.751637
O O13 0.619911 0.306302 0.660282
O O14 0.450638 0.918453 0.249940
O O15 0.000000 0.000000 0.500000
O O16 0.000000 0.500000 0.000000
#
# Coordination Sequence:
#
# PCOD9089119 Si02
#       8
#     2   2   2   2   2   2   2   1
#     4  10  22  39  68  97 132 166 214 280 335 388
#     4  10  21  40  65  91 129 171 218 275 329 385
#     4  11  23  42  65 101 134 174 218 271 334 390
#     4  10  21  40  68  92 120 178 224 264 332 382
#     4  11  22  38  68 101 132 170 211 270 344 400
#     4  11  23  44  66  90 137 182 227 270 316 391
#     4  10  19  37  65  92 131 165 213 270 334 388
#     4  10  22  38  62  96 130 164 214 272 322 400
#
# _framework density 23.118281
#
# number of rings (size 3 to 8) (size 9 to 14) (size 15 to 20)
#    0.000    1.600    2.667    3.200    1.867    0.533 
#    2.400    4.000    0.000    0.000    0.000    0.000 
#    0.000    0.000    0.000    0.000    0.000    0.000 
#
# Total GULP energy -83571.850083 kJ/mol
# GULP energy per Si atom -5571.456672 kJ/mol
# Density = 2.306566 g / cm^3
# Si number density = 23.118281 Si / 1000 Ang^3
#
#
#
# Elastic Constant Matrix: (Units=GPa)
#
#
# Indices 1 2 3 4 5 6 
#
# 1 83.5848 41.9928 26.9588 7.1509 23.5004 -8.6224
# 2 41.9928 131.0761 52.4362 22.1393 17.3900 2.4734
# 3 26.9588 52.4362 72.1696 11.4611 27.9379 -2.8430
# 4 7.1509 22.1393 11.4611 36.2569 2.3352 -4.7281
# 5 23.5004 17.3900 27.9379 2.3352 39.8158 5.3849
# 6 -8.6224 2.4734 -2.8430 -4.7281 5.3849 24.9018
#
#
#
# Elastic Compliance Matrix: (Units=1/GPa)
#
#
# Indices 1 2 3 4 5 6 
#
# 1 0.018056 -0.005320 0.001455 0.001153 -0.010704 0.009480
# 2 -0.005320 0.013287 -0.008890 -0.005369 0.004731 -0.006219
# 3 0.001455 -0.008890 0.026752 -0.001216 -0.016734 0.007829
# 4 0.001153 -0.005369 -0.001216 0.031938 -0.000291 0.006921
# 5 -0.010704 0.004731 -0.016734 -0.000291 0.043221 -0.015489
# 6 0.009480 -0.006219 0.007829 0.006921 -0.015489 0.049615
#
#
# Mechanical properties :
#
#
# Convention : Reuss Voigt Hill
#
# Bulk Modulus (GPa) = 30.69035 58.84512 44.76773
# Shear Modulus (GPa) = 22.80587 31.22439 27.01513
#
# Velocity S-wave (km/s) = 3.14425 3.67909 3.42213
# Velocity P-wave (km/s) = 5.14644 6.59976 5.91788
#
# Compressibility (1/GPa) = 0.03258353
#
# Stress axis : x y z
#
# Youngs Moduli (GPa) = 55.38174 75.26391 37.38078
#
# Poissons Ratio (x) = 0.40042 -0.05437
# Poissons Ratio (y) = 0.29464 0.33232
# Poissons Ratio (z) = -0.08056 0.66910
#
# Static dielectric constant tensor:
#      x y z
#    x 1.897940 -0.009210 -0.075780 
#    y -0.009210 1.917960 -0.060090 
#    z -0.075780 -0.060090 2.128010 
# 
# From -- ./inp_files/362845.got.cif
#   From: 2010.05.17/outbox.cif.g08.bks.cpg/sg2_182_cif.got.tgz:362845.got - 2010.06.03 11:33:40.
