data_PCOD9089039
_publ_section_title
;
Structure prediction by ZEFSAII (Michael W. Deem and Ramdas Pophale) SiO2 
 PCOD9089039
Probable space group: P -1
;
_chemical_formula_sum "Si O2"
_cell_formula_units_Z 13
_cell_length_a 11.198503
_cell_length_b 7.659998
_cell_length_c 9.961529
_cell_angle_alpha 58.627967
_cell_angle_beta 43.377010
_cell_angle_gamma 78.150349
_cell_volume 478.757045
_symmetry_space_group_name_H-M "P -1"
_symmetry_group_IT_number 2
_symmetry_cell_setting 'triclinic'
loop_
_space_group_symop_operation_xyz
x,y,z
-x,-y,-z
loop_
_atom_site_type_symbol
_atom_site_label
_atom_site_fract_x
_atom_site_fract_y
_atom_site_fract_z
Si Si1 0.733328 0.016040 0.638659
Si Si2 0.500000 0.000000 0.500000
Si Si3 0.151550 0.799356 0.043930
Si Si4 0.870466 0.482044 0.239580
Si Si5 0.577007 0.476746 0.274689
Si Si6 0.382510 0.072807 0.925974
Si Si7 0.286861 0.439358 0.156997
O O1 0.852278 0.247954 0.408741
O O2 0.529740 0.987081 0.753997
O O3 0.795942 0.808642 0.635372
O O4 0.682752 0.008821 0.840013
O O5 0.710535 0.130775 0.223703
O O6 0.458712 0.235132 0.448279
O O7 0.202307 0.013350 0.006466
O O8 0.201582 0.630713 0.177453
O O9 0.956828 0.670430 0.198475
O O10 0.686325 0.494092 0.315651
O O11 0.000000 0.500000 0.000000
O O12 0.502906 0.680978 0.245264
O O13 0.715260 0.548457 0.007364
O O14 0.500000 0.500000 0.000000
#
# Coordination Sequence:
#
# PCOD9089039 Si02
#       7
#     2   1   2   2   2   2   2
#     4  10  23  40  68  91 133 166 212 272 313 372
#     4  10  20  38  64  94 118 170 210 262 302 376
#     4  11  23  38  67  92 133 167 216 261 318 385
#     4  12  24  42  62  97 133 168 209 266 325 378
#     4  10  23  40  65  95 129 162 215 263 322 375
#     4  10  22  44  64  96 125 170 217 260 316 382
#     4  10  19  37  64  96 118 164 221 260 302 375
#
# _framework density 27.153648
#
# number of rings (size 3 to 8) (size 9 to 14) (size 15 to 20)
#    0.000    1.538    4.615    0.923    2.154    4.308 
#    0.000    0.000    3.385    0.000    0.000    0.000 
#    0.000    0.000    0.000    0.000    0.000    0.000 
#
# Total GULP energy -72370.519807 kJ/mol
# GULP energy per Si atom -5566.963062 kJ/mol
# Density = 2.709185 g / cm^3
# Si number density = 27.153648 Si / 1000 Ang^3
#
#
#
# Elastic Constant Matrix: (Units=GPa)
#
#
# Indices 1 2 3 4 5 6 
#
# 1 97.9615 5.5333 29.6718 -21.4523 -9.9976 5.3780
# 2 5.5333 96.6190 42.1425 -51.8912 3.7958 -11.1030
# 3 29.6718 42.1425 171.5894 -49.0829 18.9224 -7.5761
# 4 -21.4523 -51.8912 -49.0829 50.7272 -7.8576 3.8696
# 5 -9.9976 3.7958 18.9224 -7.8576 24.8699 -14.4560
# 6 5.3780 -11.1030 -7.5761 3.8696 -14.4560 37.1903
#
#
#
# Elastic Compliance Matrix: (Units=1/GPa)
#
#
# Indices 1 2 3 4 5 6 
#
# 1 0.014132 0.006612 -0.001549 0.012812 0.011497 0.002751
# 2 0.006612 0.028516 0.000370 0.033807 0.014336 0.009688
# 3 -0.001549 0.000370 0.008662 0.007327 -0.005398 -0.000761
# 4 0.012812 0.033807 0.007327 0.069497 0.023031 0.011454
# 5 0.011497 0.014336 -0.005398 0.023031 0.069136 0.025995
# 6 0.002751 0.009688 -0.000761 0.011454 0.025995 0.038141
#
#
# Mechanical properties :
#
#
# Convention : Reuss Voigt Hill
#
# Bulk Modulus (GPa) = 16.08344 57.87389 36.97867
# Shear Modulus (GPa) = 21.01328 41.81231 31.41280
#
# Velocity S-wave (km/s) = 2.78486 3.92834 3.40494
# Velocity P-wave (km/s) = 4.03443 6.47577 5.39500
#
# Compressibility (1/GPa) = 0.06217574
#
# Stress axis : x y z
#
# Youngs Moduli (GPa) = 70.76224 35.06751 115.44202
#
# Poissons Ratio (x) = -0.23185 0.17884
# Poissons Ratio (y) = -0.46785 -0.04273
# Poissons Ratio (z) = 0.10962 -0.01298
#
# Static dielectric constant tensor:
#      x y z
#    x 2.809270 0.047560 0.129960 
#    y 0.047560 2.371780 0.111740 
#    z 0.129960 0.111740 2.165380 
# 
# From -- ./inp_files/150395.got.cif
#   From: 2010.05.17/outbox.cif.g08.bks.cpg/sg2_76_cif.got.tgz:150395.got - 2010.06.03 11:33:40.
