data_PCOD9089511
_publ_section_title
;
Structure prediction by ZEFSAII (Michael W. Deem and Ramdas Pophale) SiO2 
 PCOD9089511
Probable space group: P -1
;
_chemical_formula_sum "Si O2"
_cell_formula_units_Z 16
_cell_length_a 14.868225
_cell_length_b 11.481461
_cell_length_c 12.984353
_cell_angle_alpha 146.110951
_cell_angle_beta 32.376138
_cell_angle_gamma 142.871997
_cell_volume 626.501022
_symmetry_space_group_name_H-M "P -1"
_symmetry_group_IT_number 2
_symmetry_cell_setting 'triclinic'
loop_
_space_group_symop_operation_xyz
x,y,z
-x,-y,-z
loop_
_atom_site_type_symbol
_atom_site_label
_atom_site_fract_x
_atom_site_fract_y
_atom_site_fract_z
Si Si1 0.669809 0.979370 0.539194
Si Si2 0.623692 0.208825 0.091256
Si Si3 0.104541 0.204922 0.681606
Si Si4 0.513508 0.522331 0.289505
Si Si5 0.756647 0.906596 0.863178
Si Si6 0.802853 0.462364 0.818242
Si Si7 0.991538 0.461162 0.827281
Si Si8 0.037280 0.131674 0.167701
O O1 0.666764 0.220840 0.747216
O O2 0.848842 0.056856 0.352665
O O3 0.731710 0.871514 0.500415
O O4 0.517121 0.773184 0.486473
O O5 0.553624 0.409741 0.274314
O O6 0.811684 0.275512 0.900232
O O7 0.500000 0.000000 0.000000
O O8 0.661159 0.094001 0.074982
O O9 0.137783 0.382100 0.687212
O O10 0.037496 0.330567 0.932390
O O11 0.935950 0.984128 0.676359
O O12 0.359542 0.334273 0.241970
O O13 0.687506 0.560490 0.077430
O O14 0.820827 0.907560 0.918769
O O15 0.973351 0.467981 0.728018
O O16 0.878176 0.613509 0.759320
O O17 0.000000 0.000000 0.000000
#
# Coordination Sequence:
#
# PCOD9089511 Si02
#       8
#     2   2   2   2   2   2   2   2
#     4  11  21  36  59  82 111 146 185 233 280 331
#     4   8  14  28  54  85 105 141 180 216 277 330
#     4   9  16  32  57  86 107 148 188 225 280 327
#     4  10  19  38  58  83 113 146 178 231 284 333
#     4   9  19  32  61  81 108 151 187 224 280 328
#     4  11  21  35  58  83 112 147 188 228 279 329
#     4   9  16  30  55  83 111 142 190 228 270 335
#     4  11  21  40  58  82 109 149 192 231 274 326
#
# _framework density 25.538665999999999
#
# number of rings (size 3 to 8) (size 9 to 14) (size 15 to 20)
#    0.000    2.250    3.750    1.125    0.000    1.000 
#    0.000    0.625   11.000   25.500    0.000    0.000 
#    0.000    0.000    0.000    0.000    0.000    0.000 
#
# Total GULP energy -89322.375862 kJ/mol
# GULP energy per Si atom -5582.648491 kJ/mol
# Density = 2.548054 g / cm^3
# Si number density = 25.538666 Si / 1000 Ang^3
#
#
#
# Elastic Constant Matrix: (Units=GPa)
#
#
# Indices 1 2 3 4 5 6 
#
# 1 145.8716 38.6276 25.2223 18.1894 -1.0748 -16.7726
# 2 38.6276 133.0805 31.0688 42.3510 6.0052 -3.4904
# 3 25.2223 31.0688 89.6780 19.4467 20.4941 -4.8093
# 4 18.1894 42.3510 19.4467 45.7649 -1.4289 2.7334
# 5 -1.0748 6.0052 20.4941 -1.4289 23.2731 7.7955
# 6 -16.7726 -3.4904 -4.8093 2.7334 7.7955 51.0853
#
#
#
# Elastic Compliance Matrix: (Units=1/GPa)
#
#
# Indices 1 2 3 4 5 6 
#
# 1 0.007960 -0.001588 -0.001672 -0.001068 0.001453 0.002183
# 2 -0.001588 0.011454 -0.000445 -0.009973 -0.003690 0.001316
# 3 -0.001672 -0.000445 0.017449 -0.007115 -0.017124 0.004057
# 4 -0.001068 -0.009973 -0.007115 0.035259 0.012811 -0.005544
# 5 0.001453 -0.003690 -0.017124 0.012811 0.063809 -0.011810
# 6 0.002183 0.001316 0.004057 -0.005544 -0.011810 0.022863
#
#
# Mechanical properties :
#
#
# Convention : Reuss Voigt Hill
#
# Bulk Modulus (GPa) = 33.95245 62.05194 48.00219
# Shear Modulus (GPa) = 28.40566 42.27209 35.33887
#
# Velocity S-wave (km/s) = 3.33868 4.07285 3.72390
# Velocity P-wave (km/s) = 5.30902 6.81671 6.10955
#
# Compressibility (1/GPa) = 0.02945296
#
# Stress axis : x y z
#
# Youngs Moduli (GPa) = 125.62872 87.30600 57.30924
#
# Poissons Ratio (x) = 0.13868 0.09580
# Poissons Ratio (y) = 0.19956 0.02550
# Poissons Ratio (z) = 0.21001 0.03885
#
# Static dielectric constant tensor:
#      x y z
#    x 2.117620 0.035260 -0.028930 
#    y 0.035260 2.038770 -0.012320 
#    z -0.028930 -0.012320 2.092860 
# 
# From -- ./inp_files/532132.got.cif
#   From: 2010.05.17/outbox.cif.g08.bks.cpg/sg2_267_cif.got.tgz:532132.got - 2010.06.03 11:33:40.
