data_PCOD9089418
_publ_section_title
;
Structure prediction by ZEFSAII (Michael W. Deem and Ramdas Pophale) SiO2 
 PCOD9089418
Probable space group: P -1
;
_chemical_formula_sum "Si O2"
_cell_formula_units_Z 14
_cell_length_a 7.666740
_cell_length_b 8.238061
_cell_length_c 10.125770
_cell_angle_alpha 117.076694
_cell_angle_beta 116.182230
_cell_angle_gamma 75.318818
_cell_volume 509.904300
_symmetry_space_group_name_H-M "P -1"
_symmetry_group_IT_number 2
_symmetry_cell_setting 'triclinic'
loop_
_space_group_symop_operation_xyz
x,y,z
-x,-y,-z
loop_
_atom_site_type_symbol
_atom_site_label
_atom_site_fract_x
_atom_site_fract_y
_atom_site_fract_z
Si Si1 0.502889 0.638069 0.428373
Si Si2 0.667272 0.989025 0.398820
Si Si3 0.538059 0.223114 0.944989
Si Si4 0.898298 0.487501 0.819700
Si Si5 0.972830 0.099498 0.324488
Si Si6 0.217857 0.137825 0.017712
Si Si7 0.815861 0.469422 0.272356
O O1 0.500000 0.500000 0.500000
O O2 0.484736 0.848063 0.545344
O O3 0.297798 0.613050 0.277523
O O4 0.685837 0.566231 0.377377
O O5 0.786916 0.068636 0.345197
O O6 0.559013 0.817657 0.241873
O O7 0.832425 0.936593 0.541241
O O8 0.367359 0.225713 0.998555
O O9 0.672857 0.386293 0.083578
O O10 0.669043 0.036657 0.946482
O O11 0.037874 0.414371 0.720782
O O12 0.846615 0.700517 0.846837
O O13 0.000000 0.500000 0.000000
O O14 0.929548 0.297518 0.319339
O O15 0.958756 0.942373 0.150735
#
# Coordination Sequence:
#
# PCOD9089418 Si02
#       7
#     2   2   2   2   2   2   2
#     4  12  24  46  73 105 148 196 221 292 365 431
#     4  10  19  37  72 105 147 182 233 290 363 405
#     4   9  18  38  73 101 128 189 235 288 340 432
#     4  12  27  45  72 102 144 190 236 299 353 419
#     4   9  19  37  68 105 138 186 235 292 342 430
#     4   9  17  37  65  95 131 181 231 284 353 404
#     4  11  24  46  74 105 139 188 250 279 355 431
#
# _framework density 27.456130999999999
#
# number of rings (size 3 to 8) (size 9 to 14) (size 15 to 20)
#    0.000    1.714    2.857    2.571    0.000    3.429 
#    0.000    1.429    6.286    3.429    0.000    0.000 
#    0.000    0.000    0.000    0.000    0.000    0.000 
#
# Total GULP energy -78666.468903 kJ/mol
# GULP energy per Si atom -5619.033493 kJ/mol
# Density = 2.739364 g / cm^3
# Si number density = 27.456131 Si / 1000 Ang^3
#
#
#
# Elastic Constant Matrix: (Units=GPa)
#
#
# Indices 1 2 3 4 5 6 
#
# 1 175.4018 40.6745 36.2617 14.1616 -22.2514 0.4835
# 2 40.6745 96.7026 17.8405 -0.0770 -9.7205 -5.2338
# 3 36.2617 17.8405 135.3769 -0.6677 9.6106 -8.1559
# 4 14.1616 -0.0770 -0.6677 49.3149 -7.7213 -4.2340
# 5 -22.2514 -9.7205 9.6106 -7.7213 38.5741 11.8009
# 6 0.4835 -5.2338 -8.1559 -4.2340 11.8009 43.2292
#
#
#
# Elastic Compliance Matrix: (Units=1/GPa)
#
#
# Indices 1 2 3 4 5 6 
#
# 1 0.007409 -0.002386 -0.002132 -0.001636 0.004542 -0.002174
# 2 -0.002386 0.011751 -0.000976 0.001043 0.001766 0.000885
# 3 -0.002132 -0.000976 0.008565 0.000274 -0.004396 0.002748
# 4 -0.001636 0.001043 0.000274 0.021360 0.003084 0.001447
# 5 0.004542 0.001766 -0.004396 0.003084 0.033621 -0.009542
# 6 -0.002174 0.000885 0.002748 0.001447 -0.009542 0.026529
#
#
# Mechanical properties :
#
#
# Convention : Reuss Voigt Hill
#
# Bulk Modulus (GPa) = 59.74436 66.33718 63.04077
# Shear Modulus (GPa) = 39.74488 47.07060 43.40774
#
# Velocity S-wave (km/s) = 3.80883 4.14502 3.98047
# Velocity P-wave (km/s) = 6.41484 6.86453 6.64349
#
# Compressibility (1/GPa) = 0.01673798
#
# Stress axis : x y z
#
# Youngs Moduli (GPa) = 134.96522 85.10024 116.74807
#
# Poissons Ratio (x) = 0.20302 0.24887
# Poissons Ratio (y) = 0.32198 0.11400
# Poissons Ratio (z) = 0.28771 0.08310
#
# Static dielectric constant tensor:
#      x y z
#    x 2.124330 0.002580 -0.003470 
#    y 0.002580 2.134330 -0.029910 
#    z -0.003470 -0.029910 2.125440 
# 
# From -- ./inp_files/332483.got.cif
#   From: 2010.05.17/outbox.cif.g08.bks.cpg/sg2_167_cif.got.tgz:332483.got - 2010.06.03 11:33:40.
