data_PCOD9089186
_publ_section_title
;
Structure prediction by ZEFSAII (Michael W. Deem and Ramdas Pophale) SiO2 
 PCOD9089186
Probable space group: P -1
;
_chemical_formula_sum "Si O2"
_cell_formula_units_Z 16
_cell_length_a 9.904953
_cell_length_b 12.285446
_cell_length_c 14.141911
_cell_angle_alpha 77.318806
_cell_angle_beta 64.811930
_cell_angle_gamma 132.816980
_cell_volume 733.641672
_symmetry_space_group_name_H-M "P -1"
_symmetry_group_IT_number 2
_symmetry_cell_setting 'triclinic'
loop_
_space_group_symop_operation_xyz
x,y,z
-x,-y,-z
loop_
_atom_site_type_symbol
_atom_site_label
_atom_site_fract_x
_atom_site_fract_y
_atom_site_fract_z
Si Si1 0.559104 0.947879 0.391826
Si Si2 0.893948 0.455006 0.647227
Si Si3 0.246547 0.293014 0.466118
Si Si4 0.675188 0.239424 0.179988
Si Si5 0.187179 0.853914 0.240524
Si Si6 0.266670 0.088834 0.824569
Si Si7 0.953340 0.808860 0.139429
Si Si8 0.194730 0.007221 0.508642
O O1 0.628704 0.894174 0.307885
O O2 0.708609 0.011370 0.433324
O O3 0.186128 0.706457 0.558140
O O4 0.688770 0.142019 0.264512
O O5 0.843574 0.298767 0.734060
O O6 0.570737 0.307174 0.757944
O O7 0.000000 0.500000 0.500000
O O8 0.613724 0.538746 0.309641
O O9 0.148304 0.100082 0.547475
O O10 0.100620 0.281840 0.588115
O O11 0.099432 0.223660 0.420773
O O12 0.469081 0.190251 0.313219
O O13 0.476432 0.071982 0.179645
O O14 0.000000 0.500000 0.000000
O O15 0.180524 0.907624 0.130671
O O16 0.084281 0.082385 0.861157
O O17 0.069361 0.871409 0.985874
#
# Coordination Sequence:
#
# PCOD9089186 Si02
#       8
#     2   2   2   2   2   2   2   2
#     4  11  21  42  65  88 121 164 209 248 305 362
#     4  10  19  37  66  88 116 154 202 260 302 351
#     4  10  21  39  62  88 127 153 211 251 294 368
#     4  11  25  41  60  91 131 157 205 258 298 360
#     4  11  21  40  65  93 118 163 205 252 308 364
#     4  10  23  39  59  93 127 154 197 263 309 359
#     4  11  23  38  62  92 126 159 197 253 319 361
#     4  10  23  39  63  90 117 172 209 238 299 371
#
# _framework density 21.809010000000001
#
# number of rings (size 3 to 8) (size 9 to 14) (size 15 to 20)
#    0.000    1.500    2.500    3.750    3.500    1.500 
#    4.500    0.625    0.000    0.000    0.000    0.000 
#    0.000    0.000    0.000    0.000    0.000    0.000 
#
# Total GULP energy -89438.211728 kJ/mol
# GULP energy per Si atom -5589.888233 kJ/mol
# Density = 2.175937 g / cm^3
# Si number density = 21.809010 Si / 1000 Ang^3
#
#
#
# Elastic Constant Matrix: (Units=GPa)
#
#
# Indices 1 2 3 4 5 6 
#
# 1 144.6136 43.6762 34.1208 -4.8613 24.4786 22.1906
# 2 43.6762 78.9766 34.2467 2.3066 14.7151 12.3653
# 3 34.1208 34.2467 80.5080 -12.3340 3.7817 7.5776
# 4 -4.8613 2.3066 -12.3340 22.6868 -3.5261 0.9065
# 5 24.4786 14.7151 3.7817 -3.5261 29.2957 6.8032
# 6 22.1906 12.3653 7.5776 0.9065 6.8032 36.3920
#
#
#
# Elastic Compliance Matrix: (Units=1/GPa)
#
#
# Indices 1 2 3 4 5 6 
#
# 1 0.009819 -0.002856 -0.002289 0.000417 -0.005611 -0.003502
# 2 -0.002856 0.019381 -0.007739 -0.007789 -0.006880 -0.001752
# 3 -0.002289 -0.007739 0.018230 0.011024 0.005002 -0.000980
# 4 0.000417 -0.007789 0.011024 0.052490 0.009136 -0.002919
# 5 -0.005611 -0.006880 0.005002 0.009136 0.043582 -0.003657
# 6 -0.003502 -0.001752 -0.000980 -0.002919 -0.003657 0.031169
#
#
# Mechanical properties :
#
#
# Convention : Reuss Voigt Hill
#
# Bulk Modulus (GPa) = 46.16695 58.68730 52.42712
# Shear Modulus (GPa) = 24.07775 30.47852 27.27814
#
# Velocity S-wave (km/s) = 3.32630 3.74240 3.54046
# Velocity P-wave (km/s) = 5.99725 6.75590 6.38785
#
# Compressibility (1/GPa) = 0.02166052
#
# Stress axis : x y z
#
# Youngs Moduli (GPa) = 101.84589 51.59657 54.85541
#
# Poissons Ratio (x) = 0.14735 0.12559
# Poissons Ratio (y) = 0.29085 0.42454
# Poissons Ratio (z) = 0.23317 0.39932
#
# Static dielectric constant tensor:
#      x y z
#    x 1.825170 -0.026230 -0.008930 
#    y -0.026230 1.800310 -0.016010 
#    z -0.008930 -0.016010 2.000630 
# 
# From -- ./inp_files/381920.got.cif
#   From: 2010.05.17/outbox.cif.g08.bks.cpg/sg2_191_cif.got.tgz:381920.got - 2010.06.03 11:33:40.
