data_PCOD9089461
_publ_section_title
;
Structure prediction by ZEFSAII (Michael W. Deem and Ramdas Pophale) SiO2 
 PCOD9089461
Probable space group: P -1
;
_chemical_formula_sum "Si O2"
_cell_formula_units_Z 14
_cell_length_a 23.843202
_cell_length_b 8.254059
_cell_length_c 5.403008
_cell_angle_alpha 89.686771
_cell_angle_beta 100.949378
_cell_angle_gamma 148.692988
_cell_volume 516.208221
_symmetry_space_group_name_H-M "P -1"
_symmetry_group_IT_number 2
_symmetry_cell_setting 'triclinic'
loop_
_space_group_symop_operation_xyz
x,y,z
-x,-y,-z
loop_
_atom_site_type_symbol
_atom_site_label
_atom_site_fract_x
_atom_site_fract_y
_atom_site_fract_z
Si Si1 0.881960 0.943882 0.331761
Si Si2 0.934259 0.486991 0.825956
Si Si3 0.481598 0.754103 0.481618
Si Si4 0.839622 0.526495 0.038537
Si Si5 0.504951 0.318067 0.994123
Si Si6 0.301168 0.115249 0.123581
Si Si7 0.248913 0.384217 0.275307
O O1 0.880740 0.747455 0.285130
O O2 0.818996 0.830192 0.531770
O O3 0.811891 0.829460 0.027646
O O4 0.009314 0.333012 0.392308
O O5 0.940358 0.669748 -0.009678
O O6 0.801722 0.116033 0.763680
O O7 0.000000 0.500000 0.000000
O O8 0.533844 0.867403 0.792572
O O9 0.380847 0.643219 0.391501
O O10 0.409789 0.406524 0.393965
O O11 0.552849 0.913886 0.286784
O O12 0.743962 0.159260 0.040043
O O13 0.776650 0.487798 0.787187
O O14 0.500000 0.500000 0.000000
O O15 0.643150 0.637658 0.050293
#
# Coordination Sequence:
#
# PCOD9089461 Si02
#       7
#     2   2   2   2   2   2   2
#     4  10  21  38  54  81 119 163 198 229 282 333
#     4  10  19  38  56  87 121 157 199 243 279 334
#     4  10  20  37  61  89 113 145 195 238 291 344
#     4   8  21  36  54  85 117 161 194 238 283 334
#     4  10  21  39  65  89 115 144 189 243 301 349
#     4   8  21  37  56  89 115 153 193 238 294 327
#     4  10  21  36  59  80 118 158 198 229 282 342
#
# _framework density 27.120839
#
# number of rings (size 3 to 8) (size 9 to 14) (size 15 to 20)
#    2.571    0.000    0.000    2.571    2.000    1.714 
#    2.571    1.429    0.000    1.714    0.000    0.000 
#    0.000    0.000    0.000    0.000    0.000    0.000 
#
# Total GULP energy -77998.023356 kJ/mol
# GULP energy per Si atom -5571.287383 kJ/mol
# Density = 2.705911 g / cm^3
# Si number density = 27.120839 Si / 1000 Ang^3
#
#
#
# Elastic Constant Matrix: (Units=GPa)
#
#
# Indices 1 2 3 4 5 6 
#
# 1 170.1212 9.3440 53.9932 -4.3147 -18.8809 -2.7932
# 2 9.3440 57.6450 18.8890 -22.2249 -4.7978 -0.1596
# 3 53.9932 18.8890 169.7960 -23.7874 -23.9272 8.7148
# 4 -4.3147 -22.2249 -23.7874 35.8947 6.4786 -5.5722
# 5 -18.8809 -4.7978 -23.9272 6.4786 40.2415 2.7147
# 6 -2.7932 -0.1596 8.7148 -5.5722 2.7147 43.1050
#
#
#
# Elastic Compliance Matrix: (Units=1/GPa)
#
#
# Indices 1 2 3 4 5 6 
#
# 1 0.006753 -0.000758 -0.001975 -0.001256 0.002069 0.000541
# 2 -0.000758 0.023107 -0.000478 0.014266 -0.000316 0.001997
# 3 -0.001975 -0.000478 0.007590 0.003739 0.003020 -0.001371
# 4 -0.001256 0.014266 0.003739 0.040369 -0.003478 0.004653
# 5 0.002069 -0.000316 0.003020 -0.003478 0.028322 -0.002711
# 6 0.000541 0.001997 -0.001371 0.004653 -0.002711 0.024291
#
#
# Mechanical properties :
#
#
# Convention : Reuss Voigt Hill
#
# Bulk Modulus (GPa) = 32.22896 62.44607 47.33752
# Shear Modulus (GPa) = 33.96787 44.87063 39.41925
#
# Velocity S-wave (km/s) = 3.54286 4.07193 3.81657
# Velocity P-wave (km/s) = 5.35211 6.72180 6.07567
#
# Compressibility (1/GPa) = 0.03102799
#
# Stress axis : x y z
#
# Youngs Moduli (GPa) = 148.07286 43.27777 131.74413
#
# Poissons Ratio (x) = 0.03280 0.26024
# Poissons Ratio (y) = 0.11223 0.06297
# Poissons Ratio (z) = 0.29249 0.02069
#
# Static dielectric constant tensor:
#      x y z
#    x 2.352780 -0.031590 -0.062130 
#    y -0.031590 2.188800 0.042040 
#    z -0.062130 0.042040 2.185570 
# 
# From -- ./inp_files/122526.got.cif
#   From: 2010.05.17/outbox.cif.g08.bks.cpg/sg2_62_cif.got.tgz:122526.got - 2010.06.03 11:33:40.
