data_PCOD9089748
_publ_section_title
;
Structure prediction by ZEFSAII (Michael W. Deem and Ramdas Pophale) SiO2 
 PCOD9089748
Probable space group: P -1
;
_chemical_formula_sum "Si O2"
_cell_formula_units_Z 14
_cell_length_a 14.378645
_cell_length_b 10.313024
_cell_length_c 7.608700
_cell_angle_alpha 92.833507
_cell_angle_beta 113.821879
_cell_angle_gamma 41.305839
_cell_volume 618.110259
_symmetry_space_group_name_H-M "P -1"
_symmetry_group_IT_number 2
_symmetry_cell_setting 'triclinic'
loop_
_space_group_symop_operation_xyz
x,y,z
-x,-y,-z
loop_
_atom_site_type_symbol
_atom_site_label
_atom_site_fract_x
_atom_site_fract_y
_atom_site_fract_z
Si Si1 0.881011 0.192824 0.560567
Si Si2 0.129834 0.413924 0.792380
Si Si3 0.858686 0.497853 0.579736
Si Si4 0.655709 0.653166 0.758468
Si Si5 0.493910 0.384058 0.860700
Si Si6 0.589144 0.040659 0.134291
Si Si7 0.317099 0.678082 0.277490
O O1 0.946626 0.268428 0.669710
O O2 0.693082 0.416632 0.354139
O O3 0.836838 0.149390 0.692741
O O4 0.000000 0.000000 0.500000
O O5 0.147201 0.484134 0.635513
O O6 0.947213 0.542295 0.706724
O O7 0.219700 0.188707 0.778764
O O8 0.219535 0.392710 0.021793
O O9 0.690505 0.656789 0.583919
O O10 0.468200 0.872957 0.704981
O O11 0.692187 0.462623 0.800205
O O12 0.653058 0.246266 0.843365
O O13 0.500000 0.500000 0.000000
O O14 0.520922 0.226999 0.978741
O O15 0.500000 0.000000 0.000000
O O16 0.500000 0.500000 0.500000
#
# Coordination Sequence:
#
# PCOD9089748 Si02
#       7
#     2   2   2   2   2   2   2
#     4  10  22  39  60  89 123 157 205 264 309 365
#     4  10  22  39  60  88 122 163 205 252 308 371
#     4  10  22  39  61  86 124 162 203 253 317 364
#     4  10  19  38  61  87 120 160 202 259 304 369
#     4  11  21  38  65  86 122 165 199 254 311 367
#     4  10  21  37  62  90 120 156 210 249 300 366
#     4   9  20  37  60  90 118 160 207 250 312 374
#
# _framework density 22.64968
#
# number of rings (size 3 to 8) (size 9 to 14) (size 15 to 20)
#    0.000    2.000    1.429    2.143    2.000    0.571 
#    0.000   12.143    0.000    0.000    0.000    0.000 
#    0.000    0.000    0.000    0.000    0.000    0.000 
#
# Total GULP energy -78052.316425 kJ/mol
# GULP energy per Si atom -5575.165459 kJ/mol
# Density = 2.259813 g / cm^3
# Si number density = 22.649680 Si / 1000 Ang^3
#
#
#
# Elastic Constant Matrix: (Units=GPa)
#
#
# Indices 1 2 3 4 5 6 
#
# 1 166.2164 50.4772 28.7396 11.4075 -27.3547 0.0905
# 2 50.4772 89.8210 7.3071 17.9864 -19.6329 -7.0909
# 3 28.7396 7.3071 49.5804 14.0803 -2.0884 3.2997
# 4 11.4075 17.9864 14.0803 30.8102 1.3176 -8.8186
# 5 -27.3547 -19.6329 -2.0884 1.3176 40.2585 11.0512
# 6 0.0905 -7.0909 3.2997 -8.8186 11.0512 34.9230
#
#
#
# Elastic Compliance Matrix: (Units=1/GPa)
#
#
# Indices 1 2 3 4 5 6 
#
# 1 0.008550 -0.003727 -0.004198 0.000277 0.004217 -0.001647
# 2 -0.003727 0.016291 0.003036 -0.010235 0.006333 -0.001558
# 3 -0.004198 0.003036 0.026720 -0.014297 0.002184 -0.006198
# 4 0.000277 -0.010235 -0.014297 0.049774 -0.011416 0.015453
# 5 0.004217 0.006333 0.002184 -0.011416 0.034801 -0.012827
# 6 -0.001647 -0.001558 -0.006198 0.015453 -0.012827 0.036869
#
#
# Mechanical properties :
#
#
# Convention : Reuss Voigt Hill
#
# Bulk Modulus (GPa) = 23.93273 53.18505 38.55889
# Shear Modulus (GPa) = 25.41801 35.80460 30.61131
#
# Velocity S-wave (km/s) = 3.35360 3.98024 3.68028
# Velocity P-wave (km/s) = 5.05815 6.68249 5.92624
#
# Compressibility (1/GPa) = 0.04178379
#
# Stress axis : x y z
#
# Youngs Moduli (GPa) = 116.96086 61.38183 37.42532
#
# Poissons Ratio (x) = 0.22877 0.15712
# Poissons Ratio (y) = 0.43592 -0.11364
# Poissons Ratio (z) = 0.49102 -0.18638
#
# Static dielectric constant tensor:
#      x y z
#    x 1.944370 -0.080490 -0.013130 
#    y -0.080490 1.863070 -0.016530 
#    z -0.013130 -0.016530 1.895390 
# 
# From -- ./inp_files/298871.got.cif
#   From: 2010.05.17/outbox.cif.g08.bks.cpg/sg2_150_cif.got.tgz:298871.got - 2010.06.03 11:33:40.
