data_PCOD9089657
_publ_section_title
;
Structure prediction by ZEFSAII (Michael W. Deem and Ramdas Pophale) SiO2 
 PCOD9089657
Probable space group: P -1
;
_chemical_formula_sum "Si O2"
_cell_formula_units_Z 16
_cell_length_a 15.782691
_cell_length_b 11.513768
_cell_length_c 9.532556
_cell_angle_alpha 55.829745
_cell_angle_beta 106.202171
_cell_angle_gamma 61.385587
_cell_volume 825.723682
_symmetry_space_group_name_H-M "P -1"
_symmetry_group_IT_number 2
_symmetry_cell_setting 'triclinic'
loop_
_space_group_symop_operation_xyz
x,y,z
-x,-y,-z
loop_
_atom_site_type_symbol
_atom_site_label
_atom_site_fract_x
_atom_site_fract_y
_atom_site_fract_z
Si Si1 0.826712 0.895913 0.008952
Si Si2 0.590134 0.632016 0.038616
Si Si3 0.685617 0.325533 0.516196
Si Si4 0.289841 0.957502 0.833480
Si Si5 0.342865 0.146259 0.037850
Si Si6 0.398342 0.531651 0.132293
Si Si7 0.342979 0.404131 0.440437
Si Si8 0.840115 0.595260 0.509437
O O1 0.732669 0.035556 0.014314
O O2 0.757299 0.844939 0.942364
O O3 0.994409 0.650874 0.289267
O O4 0.807030 0.057999 0.796224
O O5 0.553258 0.595508 0.905893
O O6 0.447069 0.818120 0.948204
O O7 0.708132 0.391554 0.344207
O O8 0.642046 0.722794 0.971769
O O9 0.537964 0.422981 0.350803
O O10 0.665213 0.460832 0.541170
O O11 0.175802 0.225826 0.561173
O O12 0.287552 0.803587 0.875073
O O13 0.267023 0.271066 0.766801
O O14 0.503321 0.873764 0.283599
O O15 0.335711 0.489491 0.229827
O O16 0.218359 0.448275 0.383052
#
# Coordination Sequence:
#
# PCOD9089657 Si02
#       8
#     2   2   2   2   2   2   2   2
#     4  11  23  37  63  91 125 154 198 251 302 352
#     4  11  23  37  63  91 125 154 198 251 302 352
#     4  11  20  38  61  91 119 153 201 250 296 348
#     4  10  19  38  60  87 120 154 195 242 300 349
#     4  11  20  38  61  91 119 153 201 250 296 348
#     4  11  23  38  60  95 122 156 196 253 304 346
#     4  12  21  38  66  91 118 150 211 258 290 341
#     4  11  23  38  60  95 122 156 196 253 304 346
#
# _framework density 19.376942
#
# number of rings (size 3 to 8) (size 9 to 14) (size 15 to 20)
#    0.000    1.000    5.000    6.750    0.000    1.000 
#    0.000    0.000    0.000   13.500    0.000    0.000 
#    0.000    0.000    0.000    0.000    0.000    0.000 
#
# Total GULP energy -89268.102779 kJ/mol
# GULP energy per Si atom -5579.256424 kJ/mol
# Density = 1.933284 g / cm^3
# Si number density = 19.376942 Si / 1000 Ang^3
#
#
#
# Elastic Constant Matrix: (Units=GPa)
#
#
# Indices 1 2 3 4 5 6 
#
# 1 74.3450 24.9610 41.0582 -18.5361 -19.2382 12.2534
# 2 24.9610 60.8271 48.6054 -15.2134 -4.5548 2.9381
# 3 41.0582 48.6054 63.2439 -15.6904 -21.6193 15.2925
# 4 -18.5361 -15.2134 -15.6904 16.8787 3.3993 -11.6123
# 5 -19.2382 -4.5548 -21.6193 3.3993 29.0861 -10.2688
# 6 12.2534 2.9381 15.2925 -11.6123 -10.2688 14.5510
#
#
#
# Elastic Compliance Matrix: (Units=1/GPa)
#
#
# Indices 1 2 3 4 5 6 
#
# 1 -0.165182 -0.533038 0.529655 -0.895752 -0.074779 -1.077541
# 2 -0.533038 -1.469649 1.487964 -2.576137 -0.253483 -3.052932
# 3 0.529655 1.487964 -1.475585 2.618946 0.269461 3.084512
# 4 -0.895752 -2.576137 2.618946 -4.288407 -0.370391 -5.161662
# 5 -0.074779 -0.253483 0.269461 -0.370391 0.032981 -0.441353
# 6 -1.077541 -3.052932 3.084512 -5.161662 -0.441353 -6.079848
#
#
# Mechanical properties :
#
#
# Convention : Reuss Voigt Hill
#
# Bulk Modulus (GPa) = -7.07950 47.51833 20.21941
# Shear Modulus (GPa) = -0.30373 17.68925 8.69276
#
# Velocity S-wave (km/s) = -0.39634 3.02470 2.12035
# Velocity P-wave (km/s) = 1.96747 6.06422 4.05610
#
# Compressibility (1/GPa) = -0.14125285
#
# Stress axis : x y z
#
# Youngs Moduli (GPa) = -6.05394 -0.68043 -0.67770
#
# Poissons Ratio (x) = -0.36270 0.35895
# Poissons Ratio (y) = -3.22698 1.00839
# Poissons Ratio (z) = 3.20650 1.01246
#
# Static dielectric constant tensor:
#      x y z
#    x 1.705210 0.014210 -0.034830 
#    y 0.014210 1.671860 -0.014510 
#    z -0.034830 -0.014510 1.689320 
# 
# From -- ./inp_files/333042.got.cif
#   From: 2010.05.17/outbox.cif.g08.bks.cpg/sg2_167_cif.got.tgz:333042.got - 2010.06.03 11:33:40.
