data_PCOD9089235
_publ_section_title
;
Structure prediction by ZEFSAII (Michael W. Deem and Ramdas Pophale) SiO2 
 PCOD9089235
Probable space group: P -1
;
_chemical_formula_sum "Si O2"
_cell_formula_units_Z 14
_cell_length_a 9.763762
_cell_length_b 14.549551
_cell_length_c 8.230211
_cell_angle_alpha 44.606530
_cell_angle_beta 117.908904
_cell_angle_gamma 96.179636
_cell_volume 675.899668
_symmetry_space_group_name_H-M "P -1"
_symmetry_group_IT_number 2
_symmetry_cell_setting 'triclinic'
loop_
_space_group_symop_operation_xyz
x,y,z
-x,-y,-z
loop_
_atom_site_type_symbol
_atom_site_label
_atom_site_fract_x
_atom_site_fract_y
_atom_site_fract_z
Si Si1 0.858524 0.716919 0.070466
Si Si2 0.609376 0.916508 0.316442
Si Si3 0.497251 0.195854 0.091899
Si Si4 0.647070 0.647406 0.524255
Si Si5 0.008172 0.578095 0.663066
Si Si6 0.964199 0.860588 0.681771
Si Si7 0.734771 0.352428 0.058867
O O1 0.918675 0.582793 0.153405
O O2 0.945577 0.670029 0.350606
O O3 0.663811 0.764080 0.936320
O O4 0.906642 0.835927 0.859433
O O5 0.591956 0.764982 0.487439
O O6 0.807537 0.875837 0.460081
O O7 0.557910 0.030885 0.288010
O O8 0.500000 0.000000 0.000000
O O9 0.632806 0.253061 0.168592
O O10 0.443029 0.280365 0.783124
O O11 0.845663 0.602367 0.654165
O O12 0.620544 0.505648 0.737027
O O13 0.151433 0.618780 0.774831
O O14 0.131187 0.731839 0.895249
O O15 0.000000 0.000000 0.500000
#
# Coordination Sequence:
#
# PCOD9089235 Si02
#       7
#     2   2   2   2   2   2   2
#     4  10  23  42  62  90 130 167 199 256 325 370
#     4  10  21  39  62  92 125 166 205 250 309 376
#     4  10  23  39  61  93 136 160 200 259 324 364
#     4  10  19  37  66  95 123 168 212 252 304 374
#     4  10  20  38  66  92 125 163 210 258 311 367
#     4  12  23  41  67  92 123 165 215 258 303 373
#     4  12  21  38  67 100 118 162 219 262 295 366
#
# _framework density 20.713132000000002
#
# number of rings (size 3 to 8) (size 9 to 14) (size 15 to 20)
#    0.000    1.429    4.286    1.714    0.000    1.143 
#    0.000    2.143    0.000    0.000    0.000    0.000 
#    0.000    0.000    0.000    0.000    0.000    0.000 
#
# Total GULP energy -78167.558858 kJ/mol
# GULP energy per Si atom -5583.397061 kJ/mol
# Density = 2.066599 g / cm^3
# Si number density = 20.713132 Si / 1000 Ang^3
#
#
#
# Elastic Constant Matrix: (Units=GPa)
#
#
# Indices 1 2 3 4 5 6 
#
# 1 80.7689 24.8080 15.9212 -12.1112 -11.8422 -0.2534
# 2 24.8080 90.8385 19.2161 -22.7490 -11.7545 1.3827
# 3 15.9212 19.2161 73.9156 -18.7448 -5.9328 -5.2929
# 4 -12.1112 -22.7490 -18.7448 38.1299 -0.5487 8.7615
# 5 -11.8422 -11.7545 -5.9328 -0.5487 27.9571 -4.7444
# 6 -0.2534 1.3827 -5.2929 8.7615 -4.7444 21.7365
#
#
#
# Elastic Compliance Matrix: (Units=1/GPa)
#
#
# Indices 1 2 3 4 5 6 
#
# 1 0.014497 -0.002384 -0.001470 0.002528 0.004878 0.000008
# 2 -0.002384 0.014601 -0.001073 0.008317 0.004454 -0.003598
# 3 -0.001470 -0.001073 0.016116 0.006394 0.002813 0.002012
# 4 0.002528 0.008317 0.006394 0.038279 0.004400 -0.013412
# 5 0.004878 0.004454 0.002813 0.004400 0.041713 0.007790
# 6 0.000008 -0.003598 0.002012 -0.013412 0.007790 0.053831
#
#
# Mechanical properties :
#
#
# Convention : Reuss Voigt Hill
#
# Bulk Modulus (GPa) = 28.28090 40.60153 34.44122
# Shear Modulus (GPa) = 24.91559 29.93654 27.42606
#
# Velocity S-wave (km/s) = 3.47203 3.80582 3.64275
# Velocity P-wave (km/s) = 5.45496 6.24154 5.86146
#
# Compressibility (1/GPa) = 0.03535955
#
# Stress axis : x y z
#
# Youngs Moduli (GPa) = 68.97868 68.49020 62.05094
#
# Poissons Ratio (x) = 0.16329 0.09119
# Poissons Ratio (y) = 0.16446 0.06660
# Poissons Ratio (z) = 0.10137 0.07351
#
# Static dielectric constant tensor:
#      x y z
#    x 1.690660 -0.009810 0.013030 
#    y -0.009810 1.760020 0.010530 
#    z 0.013030 0.010530 1.780780 
# 
# From -- ./inp_files/159121.got.cif
#   From: 2010.05.17/outbox.cif.g08.bks.cpg/sg2_80_cif.got.tgz:159121.got - 2010.06.03 11:33:40.
