data_PCOD9089695
_publ_section_title
;
Structure prediction by ZEFSAII (Michael W. Deem and Ramdas Pophale) SiO2 
 PCOD9089695
Probable space group: P -1
;
_chemical_formula_sum "Si O2"
_cell_formula_units_Z 16
_cell_length_a 12.851761
_cell_length_b 11.121808
_cell_length_c 14.326541
_cell_angle_alpha 32.045842
_cell_angle_beta 115.959006
_cell_angle_gamma 92.677791
_cell_volume 716.464129
_symmetry_space_group_name_H-M "P -1"
_symmetry_group_IT_number 2
_symmetry_cell_setting 'triclinic'
loop_
_space_group_symop_operation_xyz
x,y,z
-x,-y,-z
loop_
_atom_site_type_symbol
_atom_site_label
_atom_site_fract_x
_atom_site_fract_y
_atom_site_fract_z
Si Si1 0.833907 0.691559 0.922185
Si Si2 0.891709 0.606306 0.297077
Si Si3 0.412256 0.255977 0.879037
Si Si4 0.329384 0.821835 0.293609
Si Si5 0.632047 0.656895 0.469345
Si Si6 0.631958 0.271590 0.342244
Si Si7 0.306891 0.604969 0.905207
Si Si8 0.122874 0.307006 0.407479
O O1 0.751100 0.931957 0.818086
O O2 0.762991 0.919205 0.657155
O O3 0.786605 0.491793 0.036834
O O4 0.016350 0.461664 0.171625
O O5 0.770985 0.565381 0.301205
O O6 0.000000 0.500000 0.500000
O O7 0.009604 0.423596 0.376162
O O8 0.766966 0.965838 0.976968
O O9 0.424828 0.506790 0.736269
O O10 0.500000 0.000000 0.000000
O O11 0.510556 0.017362 0.160137
O O12 0.514466 0.642171 0.485974
O O13 0.314420 0.570132 0.448143
O O14 0.779957 0.588941 0.614379
O O15 0.693220 0.365644 0.226125
O O16 0.483450 0.350802 0.182223
O O17 0.233907 0.939412 0.690539
#
# Coordination Sequence:
#
# PCOD9089695 Si02
#       8
#     2   2   2   2   2   2   2   2
#     4  11  24  42  65 100 132 172 228 284 336 397
#     4  10  22  37  59  95 134 176 219 274 346 403
#     4  11  21  38  65  93 129 171 227 272 330 409
#     4   9  21  38  61  90 133 171 222 286 324 403
#     4  10  19  38  60  91 125 177 218 266 343 393
#     4  11  24  42  71  98 126 185 228 278 333 404
#     4  11  24  45  68  96 138 179 229 276 335 404
#     4  11  23  41  67  93 137 179 217 287 345 397
#
# _framework density 22.331892
#
# number of rings (size 3 to 8) (size 9 to 14) (size 15 to 20)
#    0.000    1.500    1.250    4.500    1.750    3.500 
#    0.000    0.000    0.000    0.000    0.000    0.000 
#    0.000    0.000    0.000    0.000    0.000    0.000 
#
# Total GULP energy -89280.056553 kJ/mol
# GULP energy per Si atom -5580.003535 kJ/mol
# Density = 2.228106 g / cm^3
# Si number density = 22.331892 Si / 1000 Ang^3
#
#
#
# Elastic Constant Matrix: (Units=GPa)
#
#
# Indices 1 2 3 4 5 6 
#
# 1 85.7828 53.9879 47.9819 13.5941 10.7359 15.8324
# 2 53.9879 104.6740 40.9297 -4.3255 2.8231 9.9069
# 3 47.9819 40.9297 103.1980 24.0885 -3.0674 5.1220
# 4 13.5941 -4.3255 24.0885 43.4341 8.3211 6.3151
# 5 10.7359 2.8231 -3.0674 8.3211 28.3812 -4.2953
# 6 15.8324 9.9069 5.1220 6.3151 -4.2953 43.1813
#
#
#
# Elastic Compliance Matrix: (Units=1/GPa)
#
#
# Indices 1 2 3 4 5 6 
#
# 1 0.023768 -0.008611 -0.007238 -0.001507 -0.009474 -0.006602
# 2 -0.008611 0.015909 -0.003852 0.006748 -0.000888 -0.001111
# 3 -0.007238 -0.003852 0.016893 -0.009634 0.008342 0.003773
# 4 -0.001507 0.006748 -0.009634 0.032563 -0.011562 -0.005765
# 5 -0.009474 -0.000888 0.008342 -0.011562 0.044531 0.008808
# 6 -0.006602 -0.001111 0.003773 -0.005765 0.008808 0.027106
#
#
# Mechanical properties :
#
#
# Convention : Reuss Voigt Hill
#
# Bulk Modulus (GPa) = 58.24875 64.38375 61.31625
# Shear Modulus (GPa) = 24.28428 33.04967 28.66698
#
# Velocity S-wave (km/s) = 3.30119 3.85116 3.58673
# Velocity P-wave (km/s) = 6.37733 6.97626 6.68351
#
# Compressibility (1/GPa) = 0.01716775
#
# Stress axis : x y z
#
# Youngs Moduli (GPa) = 42.07322 62.85791 59.19692
#
# Poissons Ratio (x) = 0.54124 0.42846
# Poissons Ratio (y) = 0.36228 0.22805
# Poissons Ratio (z) = 0.30452 0.24216
#
# Static dielectric constant tensor:
#      x y z
#    x 1.889810 -0.054730 -0.050320 
#    y -0.054730 1.871840 0.021780 
#    z -0.050320 0.021780 1.839440 
# 
# From -- ./inp_files/519511.got.cif
#   From: 2010.05.17/outbox.cif.g08.bks.cpg/sg2_260_cif.got.tgz:519511.got - 2010.06.03 11:33:40.
