data_PCOD9089203
_publ_section_title
;
Structure prediction by ZEFSAII (Michael W. Deem and Ramdas Pophale) SiO2 
 PCOD9089203
Probable space group: P -1
;
_chemical_formula_sum "Si O2"
_cell_formula_units_Z 16
_cell_length_a 20.208458
_cell_length_b 12.392164
_cell_length_c 8.883205
_cell_angle_alpha 132.090715
_cell_angle_beta 29.006104
_cell_angle_gamma 132.653000
_cell_volume 774.282582
_symmetry_space_group_name_H-M "P -1"
_symmetry_group_IT_number 2
_symmetry_cell_setting 'triclinic'
loop_
_space_group_symop_operation_xyz
x,y,z
-x,-y,-z
loop_
_atom_site_type_symbol
_atom_site_label
_atom_site_fract_x
_atom_site_fract_y
_atom_site_fract_z
Si Si1 0.378975 0.060740 0.374250
Si Si2 0.276137 0.181537 0.953338
Si Si3 0.531880 0.355054 0.223161
Si Si4 0.619234 0.478050 0.848897
Si Si5 0.876461 0.362590 0.179835
Si Si6 0.862792 0.045117 0.752864
Si Si7 0.008800 0.881524 0.741305
Si Si8 0.820112 0.266681 0.548759
O O1 0.394762 0.127396 0.573159
O O2 0.397361 0.215499 0.391435
O O3 0.251549 0.912224 0.496525
O O4 0.500000 0.000000 0.000000
O O5 0.306209 0.356848 0.085173
O O6 0.137307 0.149121 0.090561
O O7 0.256419 0.085547 0.055722
O O8 0.500000 0.500000 0.500000
O O9 0.550220 0.377014 0.030411
O O10 0.688410 0.329992 0.930445
O O11 0.731362 0.406553 0.479114
O O12 0.500000 0.500000 0.000000
O O13 0.875012 0.336019 0.340582
O O14 0.871970 0.207759 0.958555
O O15 0.000000 0.500000 0.000000
O O16 0.872597 0.053482 0.561168
O O17 0.000000 0.000000 0.500000
O O18 0.052118 0.738426 0.596460
O O19 0.000000 0.000000 0.000000
#
# Coordination Sequence:
#
# PCOD9089203 Si02
#       8
#     2   2   2   2   2   2   2   2
#     4  10  19  37  66  91 124 171 214 261 319 371
#     4  11  21  43  66  92 135 170 212 269 320 383
#     4  10  21  39  65  88 128 172 213 268 324 372
#     4  11  26  45  63  94 131 175 222 267 324 391
#     4  11  22  44  67  93 134 176 209 273 330 385
#     4  10  21  38  64  95 128 170 213 260 324 384
#     4  11  21  37  65 102 125 161 212 267 321 386
#     4  10  21  39  64  96 128 164 220 263 318 388
#
# _framework density 20.664289
#
# number of rings (size 3 to 8) (size 9 to 14) (size 15 to 20)
#    0.000    1.500    3.750    2.250    0.000    2.000 
#    2.250    6.250    0.000    0.000    0.000    0.000 
#    0.000    0.000    0.000    0.000    0.000    0.000 
#
# Total GULP energy -89139.216099 kJ/mol
# GULP energy per Si atom -5571.201006 kJ/mol
# Density = 2.061726 g / cm^3
# Si number density = 20.664289 Si / 1000 Ang^3
#
#
#
# Elastic Constant Matrix: (Units=GPa)
#
#
# Indices 1 2 3 4 5 6 
#
# 1 80.0046 7.7295 32.5135 -2.7621 -4.0668 -19.1699
# 2 7.7295 104.2550 32.2048 -10.1964 12.8100 -14.7618
# 3 32.5135 32.2048 133.0072 14.9285 9.8085 -18.9583
# 4 -2.7621 -10.1964 14.9285 47.6815 -10.5777 10.3335
# 5 -4.0668 12.8100 9.8085 -10.5777 28.8170 1.5820
# 6 -19.1699 -14.7618 -18.9583 10.3335 1.5820 30.2822
#
#
#
# Elastic Compliance Matrix: (Units=1/GPa)
#
#
# Indices 1 2 3 4 5 6 
#
# 1 0.015812 0.000670 -0.003260 0.001062 0.003006 0.007776
# 2 0.000670 0.011458 -0.002159 0.001314 -0.004024 0.004420
# 3 -0.003260 -0.002159 0.010963 -0.006818 -0.006086 0.006392
# 4 0.001062 0.001314 -0.006818 0.029395 0.013428 -0.013688
# 5 0.003006 -0.004024 -0.006086 0.013428 0.044506 -0.010776
# 6 0.007776 0.004420 0.006392 -0.013688 -0.010776 0.049336
#
#
# Mechanical properties :
#
#
# Convention : Reuss Voigt Hill
#
# Bulk Modulus (GPa) = 34.79968 51.35137 43.07553
# Shear Modulus (GPa) = 27.69376 37.67741 32.68558
#
# Velocity S-wave (km/s) = 3.66481 4.27466 3.98143
# Velocity P-wave (km/s) = 5.89787 7.01910 6.48277
#
# Compressibility (1/GPa) = 0.02873589
#
# Stress axis : x y z
#
# Youngs Moduli (GPa) = 63.24284 87.27614 91.21473
#
# Poissons Ratio (x) = -0.05850 0.29735
# Poissons Ratio (y) = -0.04239 0.19692
# Poissons Ratio (z) = 0.20617 0.18842
#
# Static dielectric constant tensor:
#      x y z
#    x 1.716750 -0.074500 -0.018940 
#    y -0.074500 1.647760 -0.034680 
#    z -0.018940 -0.034680 1.851370 
# 
# From -- ./inp_files/271029.got.cif
#   From: 2010.05.17/outbox.cif.g08.bks.cpg/sg2_136_cif.got.tgz:271029.got - 2010.06.03 11:33:40.
