data_PCOD9089834
_publ_section_title
;
Structure prediction by ZEFSAII (Michael W. Deem and Ramdas Pophale) SiO2 
 PCOD9089834
Probable space group: P -1
;
_chemical_formula_sum "Si O2"
_cell_formula_units_Z 14
_cell_length_a 7.103843
_cell_length_b 11.181376
_cell_length_c 11.789324
_cell_angle_alpha 142.814940
_cell_angle_beta 108.306937
_cell_angle_gamma 77.489630
_cell_volume 536.404139
_symmetry_space_group_name_H-M "P -1"
_symmetry_group_IT_number 2
_symmetry_cell_setting 'triclinic'
loop_
_space_group_symop_operation_xyz
x,y,z
-x,-y,-z
loop_
_atom_site_type_symbol
_atom_site_label
_atom_site_fract_x
_atom_site_fract_y
_atom_site_fract_z
Si Si1 0.586357 0.250891 0.328587
Si Si2 0.200536 0.017093 0.119034
Si Si3 0.216970 0.170615 0.476211
Si Si4 0.779509 0.437184 0.865104
Si Si5 0.184571 0.940883 0.578762
Si Si6 0.450145 0.816471 0.190233
Si Si7 0.451755 0.537580 0.725005
O O1 0.721065 0.110050 0.318770
O O2 0.541795 0.410908 0.540077
O O3 0.663755 0.318260 0.270878
O O4 0.373751 0.140240 0.178796
O O5 0.319342 0.838101 0.066041
O O6 0.142944 0.146987 0.315356
O O7 0.000000 0.000000 0.000000
O O8 0.395553 0.025531 0.395713
O O9 0.305744 0.394515 0.666230
O O10 0.049361 0.071833 0.450224
O O11 0.791701 0.247319 0.640776
O O12 0.648115 0.358342 0.886783
O O13 0.644956 0.583477 0.876079
O O14 0.000000 0.500000 0.000000
O O15 0.311836 0.146440 0.732195
#
# Coordination Sequence:
#
# PCOD9089834 Si02
#       7
#     2   2   2   2   2   2   2
#     4   8  16  31  54  77 108 145 177 224 272 323
#     4   8  16  32  54  79 108 143 178 226 277 319
#     4   9  19  34  60  87 101 150 191 226 277 324
#     4  11  22  36  58  82 114 152 182 228 289 325
#     4  10  19  38  62  83 108 146 194 227 271 336
#     4   9  20  38  55  84 109 147 191 224 274 337
#     4   9  17  33  52  79 111 143 184 223 267 334
#
# _framework density 26.099720999999999
#
# number of rings (size 3 to 8) (size 9 to 14) (size 15 to 20)
#    0.857    2.000    2.857    0.429    2.000    1.143 
#    0.000    3.571    3.143    0.000    0.000    0.000 
#    0.000    0.000    0.000    0.000    0.000    0.000 
#
# Total GULP energy -78058.186261 kJ/mol
# GULP energy per Si atom -5575.584733 kJ/mol
# Density = 2.604032 g / cm^3
# Si number density = 26.099721 Si / 1000 Ang^3
#
#
#
# Elastic Constant Matrix: (Units=GPa)
#
#
# Indices 1 2 3 4 5 6 
#
# 1 70.9821 11.9473 49.2946 -4.1451 35.6452 11.3654
# 2 11.9473 130.5226 53.1345 -23.9459 32.1680 9.2787
# 3 49.2946 53.1345 168.4131 -34.2789 43.3079 -4.9921
# 4 -4.1451 -23.9459 -34.2789 42.6557 -13.5948 16.8153
# 5 35.6452 32.1680 43.3079 -13.5948 48.7682 -6.2963
# 6 11.3654 9.2787 -4.9921 16.8153 -6.2963 48.6883
#
#
#
# Elastic Compliance Matrix: (Units=1/GPa)
#
#
# Indices 1 2 3 4 5 6 
#
# 1 0.029819 0.005563 -0.005212 -0.000961 -0.022542 -0.011138
# 2 0.005563 0.011731 -0.002067 0.005119 -0.009410 -0.006731
# 3 -0.005212 -0.002067 0.009700 0.005319 -0.001890 0.000524
# 4 -0.000961 0.005119 0.005319 0.035693 0.000950 -0.012410
# 5 -0.022542 -0.009410 -0.001890 0.000950 0.046756 0.012580
# 6 -0.011138 -0.006731 0.000524 -0.012410 0.012580 0.030388
#
#
# Mechanical properties :
#
#
# Convention : Reuss Voigt Hill
#
# Bulk Modulus (GPa) = 20.91313 66.51895 43.71604
# Shear Modulus (GPa) = 27.25427 45.05853 36.15640
#
# Velocity S-wave (km/s) = 3.23497 4.15950 3.72602
# Velocity P-wave (km/s) = 4.68866 6.97212 5.94113
#
# Compressibility (1/GPa) = 0.04781686
#
# Stress axis : x y z
#
# Youngs Moduli (GPa) = 33.53622 85.24679 103.09408
#
# Poissons Ratio (x) = -0.47426 0.53736
# Poissons Ratio (y) = -0.18658 0.21311
# Poissons Ratio (z) = 0.17480 0.17622
#
# Static dielectric constant tensor:
#      x y z
#    x 2.194280 -0.070410 -0.118910 
#    y -0.070410 2.188330 0.017350 
#    z -0.118910 0.017350 2.116010 
# 
# From -- ./inp_files/517215.got.cif
#   From: 2010.05.17/outbox.cif.g08.bks.cpg/sg2_259_cif.got.tgz:517215.got - 2010.06.03 11:33:40.
