data_PCOD9089779
_publ_section_title
;
Structure prediction by ZEFSAII (Michael W. Deem and Ramdas Pophale) SiO2 
 PCOD9089779
Probable space group: P -1
;
_chemical_formula_sum "Si O2"
_cell_formula_units_Z 16
_cell_length_a 8.906191
_cell_length_b 18.338901
_cell_length_c 12.175389
_cell_angle_alpha 41.447630
_cell_angle_beta 100.596091
_cell_angle_gamma 68.547583
_cell_volume 819.364871
_symmetry_space_group_name_H-M "P -1"
_symmetry_group_IT_number 2
_symmetry_cell_setting 'triclinic'
loop_
_space_group_symop_operation_xyz
x,y,z
-x,-y,-z
loop_
_atom_site_type_symbol
_atom_site_label
_atom_site_fract_x
_atom_site_fract_y
_atom_site_fract_z
Si Si1 0.152148 0.427428 0.871186
Si Si2 0.743205 0.481657 0.673357
Si Si3 0.263377 0.961533 0.870492
Si Si4 0.008632 0.103248 0.140798
Si Si5 0.350383 0.879685 0.224873
Si Si6 0.520853 0.107378 0.433384
Si Si7 0.755309 0.579719 0.340622
Si Si8 0.746648 0.791672 0.489596
O O1 0.215608 0.465626 0.730665
O O2 0.976913 0.424179 0.810358
O O3 0.990462 0.588180 0.748193
O O4 0.386487 0.258751 0.157362
O O5 0.503617 0.677056 0.471845
O O6 0.704801 0.518125 0.495930
O O7 0.825442 0.309315 0.892869
O O8 0.133264 0.931350 0.830892
O O9 0.199136 0.112428 0.636963
O O10 0.230308 0.968331 0.990152
O O11 0.547311 0.786226 0.087554
O O12 0.158643 0.007960 0.152357
O O13 0.211429 0.005834 0.370834
O O14 0.565374 0.848088 0.307209
O O15 0.381308 0.170057 0.458486
O O16 0.500000 0.000000 0.500000
O O17 0.000000 0.500000 0.500000
#
# Coordination Sequence:
#
# PCOD9089779 Si02
#       8
#     2   2   2   2   2   2   2   2
#     4  10  19  38  61  90 112 155 207 252 290 345
#     4   9  19  37  60  90 119 155 205 243 298 356
#     4  11  22  39  56  94 126 154 195 245 311 354
#     4  11  23  38  62  89 126 162 196 250 302 358
#     4   9  21  37  61  87 121 160 199 243 299 365
#     4  11  21  39  64  83 115 160 211 245 291 359
#     4   9  20  34  60  87 118 149 197 246 292 358
#     4  10  22  36  61  89 116 154 203 253 291 360
#
# _framework density 19.527322000000002
#
# number of rings (size 3 to 8) (size 9 to 14) (size 15 to 20)
#    0.000    2.000    1.250    2.625    7.000    2.000 
#    2.250    3.125    0.000    0.000    0.000    0.000 
#    0.000    0.000    0.000    0.000    0.000    0.000 
#
# Total GULP energy -89176.923974 kJ/mol
# GULP energy per Si atom -5573.557748 kJ/mol
# Density = 1.948288 g / cm^3
# Si number density = 19.527322 Si / 1000 Ang^3
#
#
#
# Elastic Constant Matrix: (Units=GPa)
#
#
# Indices 1 2 3 4 5 6 
#
# 1 40.1551 9.1226 14.4434 -12.4362 -11.9721 14.7250
# 2 9.1226 51.0414 14.6221 -0.8216 3.7725 5.1489
# 3 14.4434 14.6221 73.2707 2.7029 -6.7641 5.5804
# 4 -12.4362 -0.8216 2.7029 32.9169 4.9728 1.2696
# 5 -11.9721 3.7725 -6.7641 4.9728 15.7188 -5.6547
# 6 14.7250 5.1489 5.5804 1.2696 -5.6547 17.0545
#
#
#
# Elastic Compliance Matrix: (Units=1/GPa)
#
#
# Indices 1 2 3 4 5 6 
#
# 1 0.053986 -0.005464 -0.005490 0.019083 0.020427 -0.037814
# 2 -0.005464 0.023515 -0.004540 0.001262 -0.014209 -0.005701
# 3 -0.005490 -0.004540 0.016155 -0.004628 0.006523 0.003332
# 4 0.019083 0.001262 -0.004628 0.040012 -0.007958 -0.020961
# 5 0.020427 -0.014209 0.006523 -0.007958 0.093735 0.016191
# 6 -0.037814 -0.005701 0.003332 -0.020961 0.016191 0.098844
#
#
# Mechanical properties :
#
#
# Convention : Reuss Voigt Hill
#
# Bulk Modulus (GPa) = 15.95689 26.76038 21.35863
# Shear Modulus (GPa) = 13.22321 21.55666 17.38993
#
# Velocity S-wave (km/s) = 2.60506 3.32614 2.98744
# Velocity P-wave (km/s) = 4.15184 5.33711 4.78134
#
# Compressibility (1/GPa) = 0.06266887
#
# Stress axis : x y z
#
# Youngs Moduli (GPa) = 18.52328 42.52672 61.89942
#
# Poissons Ratio (x) = 0.23237 0.33981
# Poissons Ratio (y) = 0.10122 0.28100
# Poissons Ratio (z) = 0.10169 0.19305
#
# Static dielectric constant tensor:
#      x y z
#    x 1.688790 -0.022750 0.014110 
#    y -0.022750 1.765200 0.011120 
#    z 0.014110 0.011120 1.675440 
# 
# From -- ./inp_files/175203.got.cif
#   From: 2010.05.17/outbox.cif.g08.bks.cpg/sg2_88_cif.got.tgz:175203.got - 2010.06.03 11:33:40.
