data_PCOD9089645
_publ_section_title
;
Structure prediction by ZEFSAII (Michael W. Deem and Ramdas Pophale) SiO2 
 PCOD9089645
Probable space group: P -1
;
_chemical_formula_sum "Si O2"
_cell_formula_units_Z 16
_cell_length_a 7.602166
_cell_length_b 16.869905
_cell_length_c 18.528416
_cell_angle_alpha 158.034841
_cell_angle_beta 50.105947
_cell_angle_gamma 133.022422
_cell_volume 649.475751
_symmetry_space_group_name_H-M "P -1"
_symmetry_group_IT_number 2
_symmetry_cell_setting 'triclinic'
loop_
_space_group_symop_operation_xyz
x,y,z
-x,-y,-z
loop_
_atom_site_type_symbol
_atom_site_label
_atom_site_fract_x
_atom_site_fract_y
_atom_site_fract_z
Si Si1 0.726554 0.347084 0.459120
Si Si2 0.466097 0.681236 0.763855
Si Si3 0.718508 0.571494 0.792531
Si Si4 0.225234 0.882991 0.877996
Si Si5 0.973645 0.571499 0.877600
Si Si6 0.716841 0.104007 0.620111
Si Si7 0.726443 0.777379 0.226233
Si Si8 0.286241 0.628118 0.032573
O O1 0.549043 0.465979 0.569408
O O2 0.687300 0.367873 0.572678
O O3 0.705677 0.127413 0.232809
O O4 0.000000 0.500000 0.500000
O O5 0.363324 0.732408 0.758019
O O6 0.246779 0.656985 0.854987
O O7 0.683551 0.888179 0.909373
O O8 0.823787 0.532173 0.809116
O O9 0.466057 0.622042 0.915380
O O10 0.939637 0.770165 0.869256
O O11 0.903992 0.332736 0.733771
O O12 0.921937 0.759565 0.101317
O O13 0.456375 0.110001 0.666103
O O14 0.783404 0.903317 0.394810
O O15 0.698833 0.134726 0.736546
O O16 0.620808 0.518068 0.056109
O O17 0.000000 0.500000 0.000000
#
# Coordination Sequence:
#
# PCOD9089645 Si02
#       8
#     2   2   2   2   2   2   2   2
#     4  10  22  38  59  86 122 152 193 242 299 353
#     4  10  21  38  66  88 113 155 197 247 295 344
#     4  10  20  38  59  85 121 160 190 234 307 345
#     4   9  21  42  62  86 117 150 203 250 284 352
#     4  10  19  38  60  86 119 155 199 245 292 343
#     4  10  20  38  63  83 118 156 202 249 280 349
#     4  10  20  38  62  88 113 157 207 238 291 344
#     4  11  22  38  60  86 129 158 188 242 294 353
#
# _framework density 24.635252999999999
#
# number of rings (size 3 to 8) (size 9 to 14) (size 15 to 20)
#    0.000    2.000    2.500    1.125    3.500    3.500 
#    0.000   11.250    2.750    0.000    0.000    0.000 
#    0.000    0.000    0.000    0.000    0.000    0.000 
#
# Total GULP energy -89295.139785 kJ/mol
# GULP energy per Si atom -5580.946237 kJ/mol
# Density = 2.457918 g / cm^3
# Si number density = 24.635253 Si / 1000 Ang^3
#
#
#
# Elastic Constant Matrix: (Units=GPa)
#
#
# Indices 1 2 3 4 5 6 
#
# 1 96.2705 13.4791 31.9912 -25.5338 -0.0854 3.6386
# 2 13.4791 85.2349 37.8192 -30.6856 9.9278 19.1791
# 3 31.9912 37.8192 169.1252 -41.6893 24.6381 -3.0977
# 4 -25.5338 -30.6856 -41.6893 41.2899 -10.8408 0.7734
# 5 -0.0854 9.9278 24.6381 -10.8408 41.4330 -7.0520
# 6 3.6386 19.1791 -3.0977 0.7734 -7.0520 32.6504
#
#
#
# Elastic Compliance Matrix: (Units=1/GPa)
#
#
# Indices 1 2 3 4 5 6 
#
# 1 0.012940 0.001962 -0.001010 0.009039 0.002105 -0.002450
# 2 0.001962 0.020625 -0.001168 0.014926 -0.002612 -0.013362
# 3 -0.001010 -0.001168 0.008315 0.006119 -0.002928 0.000810
# 4 0.009039 0.014926 0.006119 0.048258 0.003811 -0.009515
# 5 0.002105 -0.002612 -0.002928 0.003811 0.028718 0.007134
# 6 -0.002450 -0.013362 0.000810 -0.009515 0.007134 0.040593
#
#
# Mechanical properties :
#
#
# Convention : Reuss Voigt Hill
#
# Bulk Modulus (GPa) = 24.12656 57.46771 40.79714
# Shear Modulus (GPa) = 28.78579 40.89740 34.84159
#
# Velocity S-wave (km/s) = 3.42201 4.07887 3.76480
# Velocity P-wave (km/s) = 5.04265 6.74989 5.95774
#
# Compressibility (1/GPa) = 0.04144809
#
# Stress axis : x y z
#
# Youngs Moduli (GPa) = 77.27825 48.48498 120.27081
#
# Poissons Ratio (x) = -0.09513 0.12145
# Poissons Ratio (y) = -0.15162 0.14049
# Poissons Ratio (z) = 0.07804 0.05663
#
# Static dielectric constant tensor:
#      x y z
#    x 2.069810 -0.032550 0.062660 
#    y -0.032550 1.987030 0.012080 
#    z 0.062660 0.012080 1.996690 
# 
# From -- ./inp_files/283318.got.cif
#   From: 2010.05.17/outbox.cif.g08.bks.cpg/sg2_142_cif.got.tgz:283318.got - 2010.06.03 11:33:40.
