data_PCOD9089365
_publ_section_title
;
Structure prediction by ZEFSAII (Michael W. Deem and Ramdas Pophale) SiO2 
 PCOD9089365
Probable space group: P -1
;
_chemical_formula_sum "Si O2"
_cell_formula_units_Z 16
_cell_length_a 9.456687
_cell_length_b 11.511788
_cell_length_c 12.124037
_cell_angle_alpha 53.992005
_cell_angle_beta 126.314832
_cell_angle_gamma 97.091218
_cell_volume 807.570123
_symmetry_space_group_name_H-M "P -1"
_symmetry_group_IT_number 2
_symmetry_cell_setting 'triclinic'
loop_
_space_group_symop_operation_xyz
x,y,z
-x,-y,-z
loop_
_atom_site_type_symbol
_atom_site_label
_atom_site_fract_x
_atom_site_fract_y
_atom_site_fract_z
Si Si1 0.455578 0.945800 0.892458
Si Si2 0.314132 0.903040 0.513617
Si Si3 0.931859 0.474674 0.248545
Si Si4 0.576864 0.579272 0.891709
Si Si5 0.032311 0.118001 0.535959
Si Si6 0.657028 0.576966 0.508509
Si Si7 0.480577 0.101854 0.610337
Si Si8 0.617147 0.600249 0.217673
O O1 0.559171 0.990280 0.812453
O O2 0.504214 0.765520 0.022609
O O3 0.240543 0.041721 0.716727
O O4 0.500000 0.000000 0.000000
O O5 0.465468 0.758243 0.725580
O O6 0.119824 0.875857 0.445039
O O7 0.373457 0.911323 0.411591
O O8 0.324317 0.048827 0.505134
O O9 0.988942 0.290081 0.377717
O O10 0.806081 0.532425 0.269290
O O11 0.123127 0.511881 0.314469
O O12 0.791644 0.542378 0.043656
O O13 0.514397 0.502565 0.800741
O O14 0.500000 0.500000 0.000000
O O15 0.000000 0.000000 0.500000
O O16 0.500000 0.500000 0.500000
O O17 0.597712 0.729892 0.469327
O O18 0.655003 0.613784 0.356296
#
# Coordination Sequence:
#
# PCOD9089365 Si02
#       8
#     2   2   2   2   2   2   2   2
#     4  12  23  42  65  97 135 174 221 276 321 396
#     4  11  22  41  69  99 132 177 216 278 336 402
#     4  11  22  40  67  99 128 174 228 272 323 400
#     4  10  19  37  68  99 126 161 226 276 319 389
#     4  12  21  39  71 100 128 170 228 270 328 398
#     4  12  25  43  63  95 138 178 218 272 339 398
#     4  11  23  42  64  92 139 176 213 273 342 387
#     4  11  22  41  68  98 133 173 223 271 334 397
#
# _framework density 19.812519000000002
#
# number of rings (size 3 to 8) (size 9 to 14) (size 15 to 20)
#    0.000    0.750    6.250    3.375    0.000    0.000 
#    0.000    6.875    0.000    0.000    0.000    0.000 
#    0.000    0.000    0.000    0.000    0.000    0.000 
#
# Total GULP energy -89324.425982 kJ/mol
# GULP energy per Si atom -5582.776624 kJ/mol
# Density = 1.976743 g / cm^3
# Si number density = 19.812519 Si / 1000 Ang^3
#
#
#
# Elastic Constant Matrix: (Units=GPa)
#
#
# Indices 1 2 3 4 5 6 
#
# 1 105.3489 38.1479 44.4155 8.9507 6.3152 7.5882
# 2 38.1479 119.9911 37.4631 -0.3185 8.1417 -11.7569
# 3 44.4155 37.4631 104.7544 5.7585 15.7905 -5.3667
# 4 8.9507 -0.3185 5.7585 37.4964 -4.2139 -3.4806
# 5 6.3152 8.1417 15.7905 -4.2139 33.1982 7.7221
# 6 7.5882 -11.7569 -5.3667 -3.4806 7.7221 32.7786
#
#
#
# Elastic Compliance Matrix: (Units=1/GPa)
#
#
# Indices 1 2 3 4 5 6 
#
# 1 0.013313 -0.003412 -0.004801 -0.002828 0.001569 -0.005762
# 2 -0.003412 0.010628 -0.001874 0.001421 -0.002031 0.004925
# 3 -0.004801 -0.001874 0.013442 -0.001253 -0.006097 0.003943
# 4 -0.002828 0.001421 -0.001253 0.028247 0.003650 0.003099
# 5 0.001569 -0.002031 -0.006097 0.003650 0.036057 -0.010197
# 6 -0.005762 0.004925 0.003943 0.003099 -0.010197 0.036985
#
#
# Mechanical properties :
#
#
# Convention : Reuss Voigt Hill
#
# Bulk Modulus (GPa) = 58.10736 63.34971 60.72853
# Shear Modulus (GPa) = 30.38023 34.69916 32.53969
#
# Velocity S-wave (km/s) = 3.92009 4.18948 4.05703
# Velocity P-wave (km/s) = 7.06270 7.44623 7.25700
#
# Compressibility (1/GPa) = 0.01720952
#
# Stress axis : x y z
#
# Youngs Moduli (GPa) = 75.11413 94.09200 74.39564
#
# Poissons Ratio (x) = 0.32106 0.35714
# Poissons Ratio (y) = 0.25631 0.13940
# Poissons Ratio (z) = 0.36059 0.17630
#
# Static dielectric constant tensor:
#      x y z
#    x 1.750720 0.002640 -0.001000 
#    y 0.002640 1.742170 0.009020 
#    z -0.001000 0.009020 1.673060 
# 
# From -- ./inp_files/389572.got.cif
#   From: 2010.05.17/outbox.cif.g08.bks.cpg/sg2_195_cif.got.tgz:389572.got - 2010.06.03 11:33:40.
