data_PCOD9089194
_publ_section_title
;
Structure prediction by ZEFSAII (Michael W. Deem and Ramdas Pophale) SiO2 
 PCOD9089194
Probable space group: P -1
;
_chemical_formula_sum "Si O2"
_cell_formula_units_Z 16
_cell_length_a 12.007986
_cell_length_b 8.723662
_cell_length_c 11.693105
_cell_angle_alpha 51.205097
_cell_angle_beta 48.872032
_cell_angle_gamma 78.597857
_cell_volume 669.430192
_symmetry_space_group_name_H-M "P -1"
_symmetry_group_IT_number 2
_symmetry_cell_setting 'triclinic'
loop_
_space_group_symop_operation_xyz
x,y,z
-x,-y,-z
loop_
_atom_site_type_symbol
_atom_site_label
_atom_site_fract_x
_atom_site_fract_y
_atom_site_fract_z
Si Si1 0.646545 0.737859 0.128416
Si Si2 0.399766 0.146471 0.659810
Si Si3 0.094160 0.214594 0.763197
Si Si4 0.636140 0.637851 0.928478
Si Si5 0.049588 0.916725 0.316711
Si Si6 0.258950 0.645972 0.722496
Si Si7 0.171965 0.665294 0.017370
Si Si8 0.145942 0.882234 0.503361
O O1 0.545895 0.760270 0.293314
O O2 0.739598 0.587478 0.175307
O O3 0.575578 0.656510 0.089816
O O4 0.781478 0.965688 0.910822
O O5 0.555643 0.211363 0.447402
O O6 0.276599 0.251878 0.648642
O O7 0.303699 0.896231 0.848797
O O8 0.069068 0.190080 0.654916
O O9 0.993614 0.353783 0.805861
O O10 0.000000 0.000000 0.000000
O O11 0.725119 0.878295 0.712414
O O12 0.500000 0.500000 0.000000
O O13 0.757313 0.512807 0.915706
O O14 0.082297 0.798698 0.459702
O O15 0.989944 0.085372 0.341350
O O16 0.156125 0.662709 0.891989
O O17 0.212227 0.737497 0.598804
#
# Coordination Sequence:
#
# PCOD9089194 Si02
#       8
#     2   2   2   2   2   2   2   2
#     4  10  22  40  64  89 127 164 215 252 313 374
#     4  11  21  39  64  97 128 155 210 270 312 359
#     4  10  19  37  66  90 123 162 208 257 310 366
#     4  10  22  42  62  92 129 172 205 256 314 383
#     4  10  20  41  62  91 126 172 201 263 312 367
#     4  11  23  39  64  99 121 166 213 258 314 371
#     4  10  21  39  67  94 118 168 217 243 318 375
#     4  10  22  40  64  90 134 160 212 259 312 369
#
# _framework density 23.900925999999998
#
# number of rings (size 3 to 8) (size 9 to 14) (size 15 to 20)
#    0.000    1.750    2.500    3.000    0.000    3.500 
#    9.000    2.500    0.000    0.000    0.000    0.000 
#    0.000    0.000    0.000    0.000    0.000    0.000 
#
# Total GULP energy -89474.649631 kJ/mol
# GULP energy per Si atom -5592.165602 kJ/mol
# Density = 2.384653 g / cm^3
# Si number density = 23.900926 Si / 1000 Ang^3
#
#
#
# Elastic Constant Matrix: (Units=GPa)
#
#
# Indices 1 2 3 4 5 6 
#
# 1 147.1985 36.2427 42.7292 3.1070 29.9492 18.8784
# 2 36.2427 84.6155 33.8485 2.7680 21.0138 19.1571
# 3 42.7292 33.8485 74.0674 -2.2070 18.7370 2.0359
# 4 3.1070 2.7680 -2.2070 36.4460 2.0309 5.3302
# 5 29.9492 21.0138 18.7370 2.0309 40.1126 0.9134
# 6 18.8784 19.1571 2.0359 5.3302 0.9134 36.2617
#
#
#
# Elastic Compliance Matrix: (Units=1/GPa)
#
#
# Indices 1 2 3 4 5 6 
#
# 1 0.009642 -0.000214 -0.004057 -0.000105 -0.005083 -0.004535
# 2 -0.000214 0.017949 -0.006297 -0.000092 -0.006096 -0.008850
# 3 -0.004057 -0.006297 0.019384 0.001546 -0.002900 0.004196
# 4 -0.000105 -0.000092 0.001546 0.028253 -0.001933 -0.004088
# 5 -0.005083 -0.006096 -0.002900 -0.001933 0.033246 0.005476
# 6 -0.004535 -0.008850 0.004196 -0.004088 0.005476 0.034842
#
#
# Mechanical properties :
#
#
# Convention : Reuss Voigt Hill
#
# Bulk Modulus (GPa) = 38.70107 59.05801 48.87954
# Shear Modulus (GPa) = 28.89085 35.43479 32.16282
#
# Velocity S-wave (km/s) = 3.48052 3.85459 3.67232
# Velocity P-wave (km/s) = 5.69029 6.67635 6.20295
#
# Compressibility (1/GPa) = 0.02583908
#
# Stress axis : x y z
#
# Youngs Moduli (GPa) = 103.71145 55.71215 51.58976
#
# Poissons Ratio (x) = 0.01194 0.20931
# Poissons Ratio (y) = 0.02223 0.32484
# Poissons Ratio (z) = 0.42077 0.35080
#
# Static dielectric constant tensor:
#      x y z
#    x 1.936610 0.033280 -0.020220 
#    y 0.033280 1.926290 -0.024540 
#    z -0.020220 -0.024540 1.919410 
# 
# From -- ./inp_files/418832.got.cif
#   From: 2010.05.17/outbox.cif.g08.bks.cpg/sg2_210_cif.got.tgz:418832.got - 2010.06.03 11:33:40.
