data_PCOD9089506
_publ_section_title
;
Structure prediction by ZEFSAII (Michael W. Deem and Ramdas Pophale) SiO2 
 PCOD9089506
Probable space group: P -1
;
_chemical_formula_sum "Si O2"
_cell_formula_units_Z 16
_cell_length_a 16.408069
_cell_length_b 19.205949
_cell_length_c 9.193248
_cell_angle_alpha 39.528569
_cell_angle_beta 148.712637
_cell_angle_gamma 148.518141
_cell_volume 776.000626
_symmetry_space_group_name_H-M "P -1"
_symmetry_group_IT_number 2
_symmetry_cell_setting 'triclinic'
loop_
_space_group_symop_operation_xyz
x,y,z
-x,-y,-z
loop_
_atom_site_type_symbol
_atom_site_label
_atom_site_fract_x
_atom_site_fract_y
_atom_site_fract_z
Si Si1 0.658850 0.352796 0.927790
Si Si2 0.544002 0.069753 0.109274
Si Si3 0.921065 0.543202 0.556241
Si Si4 0.673471 0.728355 0.950682
Si Si5 0.078567 0.855096 0.274448
Si Si6 0.647787 0.305485 0.318568
Si Si7 0.408331 0.533417 0.610617
Si Si8 0.295528 0.916283 0.237076
O O1 0.578294 0.422741 0.604517
O O2 0.606383 0.222457 0.965254
O O3 0.590819 0.305884 0.064980
O O4 0.891155 0.453016 0.136283
O O5 0.725907 0.077536 0.442473
O O6 0.354180 0.984006 0.060588
O O7 0.500000 0.000000 0.000000
O O8 0.794729 0.453371 0.371441
O O9 0.777425 0.484129 0.569697
O O10 0.995584 0.696629 0.399659
O O11 0.629784 0.609706 0.185950
O O12 0.898496 0.845026 0.085960
O O13 0.540571 0.769975 0.743920
O O14 0.588231 0.648700 0.796165
O O15 0.141927 0.911345 0.116329
O O16 0.752013 0.231389 0.606847
O O17 0.500000 0.000000 0.500000
#
# Coordination Sequence:
#
# PCOD9089506 Si02
#       8
#     2   2   2   2   2   2   2   2
#     4  11  20  34  57  85 115 143 189 241 272 325
#     4  10  22  37  59  84 110 142 195 236 276 317
#     4   9  18  33  55  89 112 143 185 226 287 331
#     4   9  20  37  55  82 114 152 184 213 291 346
#     4   9  18  39  60  80 112 147 184 230 273 339
#     4  11  20  34  60  86 118 146 182 228 279 343
#     4   9  19  35  54  78 120 150 177 229 278 341
#     4  10  19  38  58  80 109 150 186 232 272 314
#
# _framework density 20.618539999999999
#
# number of rings (size 3 to 8) (size 9 to 14) (size 15 to 20)
#    0.000    2.250    3.750    1.500    3.500    0.500 
#    0.000    3.750    0.000    1.500    0.000    0.000 
#    0.000    0.000    0.000    0.000    0.000    0.000 
#
# Total GULP energy -89263.912245 kJ/mol
# GULP energy per Si atom -5578.994515 kJ/mol
# Density = 2.057161 g / cm^3
# Si number density = 20.618540 Si / 1000 Ang^3
#
#
#
# Elastic Constant Matrix: (Units=GPa)
#
#
# Indices 1 2 3 4 5 6 
#
# 1 75.8820 31.5930 21.9074 18.5197 -4.8293 2.9150
# 2 31.5930 79.1077 25.3923 10.8638 -16.9618 -1.8211
# 3 21.9074 25.3923 56.2372 3.8655 -7.9150 8.2460
# 4 18.5197 10.8638 3.8655 19.7306 5.0408 -1.4707
# 5 -4.8293 -16.9618 -7.9150 5.0408 27.6465 6.7004
# 6 2.9150 -1.8211 8.2460 -1.4707 6.7004 30.2496
#
#
#
# Elastic Compliance Matrix: (Units=1/GPa)
#
#
# Indices 1 2 3 4 5 6 
#
# 1 0.020606 -0.003633 -0.004169 -0.017786 0.004109 -0.002843
# 2 -0.003633 0.019484 -0.005099 -0.009284 0.011577 -0.000102
# 3 -0.004169 -0.005099 0.023377 0.000448 0.004512 -0.007255
# 4 -0.017786 -0.009284 0.000448 0.079784 -0.025797 0.010626
# 5 0.004109 0.011577 0.004512 -0.025797 0.053382 -0.014008
# 6 -0.002843 -0.000102 -0.007255 0.010626 -0.014008 0.038923
#
#
# Mechanical properties :
#
#
# Convention : Reuss Voigt Hill
#
# Bulk Modulus (GPa) = 26.55132 41.00136 33.77634
# Shear Modulus (GPa) = 18.25399 24.34763 21.30081
#
# Velocity S-wave (km/s) = 2.97866 3.44009 3.21766
# Velocity P-wave (km/s) = 4.97345 5.97560 5.49741
#
# Compressibility (1/GPa) = 0.03766291
#
# Stress axis : x y z
#
# Youngs Moduli (GPa) = 48.52924 51.32524 42.77769
#
# Poissons Ratio (x) = 0.18647 0.17835
# Poissons Ratio (y) = 0.17631 0.21814
# Poissons Ratio (z) = 0.20233 0.26173
#
# Static dielectric constant tensor:
#      x y z
#    x 1.774240 -0.002450 0.024050 
#    y -0.002450 1.785250 -0.035980 
#    z 0.024050 -0.035980 1.753720 
# 
# From -- ./inp_files/222766.got.cif
#   From: 2010.05.17/outbox.cif.g08.bks.cpg/sg2_112_cif.got.tgz:222766.got - 2010.06.03 11:33:40.
