data_PCOD9089678
_publ_section_title
;
Structure prediction by ZEFSAII (Michael W. Deem and Ramdas Pophale) SiO2 
 PCOD9089678
Probable space group: P -1
;
_chemical_formula_sum "Si O2"
_cell_formula_units_Z 14
_cell_length_a 9.728933
_cell_length_b 14.270998
_cell_length_c 7.775449
_cell_angle_alpha 112.387575
_cell_angle_beta 97.618468
_cell_angle_gamma 42.324378
_cell_volume 652.570093
_symmetry_space_group_name_H-M "P -1"
_symmetry_group_IT_number 2
_symmetry_cell_setting 'triclinic'
loop_
_space_group_symop_operation_xyz
x,y,z
-x,-y,-z
loop_
_atom_site_type_symbol
_atom_site_label
_atom_site_fract_x
_atom_site_fract_y
_atom_site_fract_z
Si Si1 0.668044 0.347394 0.667879
Si Si2 0.000314 0.195928 0.343041
Si Si3 0.966952 0.591066 0.396217
Si Si4 0.417451 0.373511 0.172368
Si Si5 0.323274 0.403002 0.796011
Si Si6 0.195697 0.967255 0.965804
Si Si7 0.907638 0.273127 0.000289
O O1 0.587128 0.503589 0.708198
O O2 0.480930 0.369171 0.662186
O O3 0.862562 0.218722 0.483284
O O4 0.757945 0.314392 0.853938
O O5 0.054495 0.279759 0.466911
O O6 0.865871 0.275975 0.198404
O O7 0.205075 0.024753 0.187280
O O8 0.768296 0.654356 0.309103
O O9 0.000000 0.500000 0.500000
O O10 0.184739 0.464178 0.241239
O O11 0.443395 0.340590 0.951398
O O12 0.601913 0.207598 0.171817
O O13 0.122790 0.589545 0.918907
O O14 0.123742 0.090475 0.898882
O O15 0.000000 0.000000 0.000000
#
# Coordination Sequence:
#
# PCOD9089678 Si02
#       7
#     2   2   2   2   2   2   2
#     4  10  20  38  65  94 115 156 205 250 295 350
#     4   9  22  38  63  86 127 151 202 245 303 351
#     4  11  21  40  58  89 120 160 205 245 293 360
#     4  10  22  37  64  87 119 159 200 250 301 348
#     4  11  20  37  61  90 119 156 206 246 291 361
#     4  10  19  38  60  89 123 154 193 252 308 351
#     4   9  19  37  62  85 127 153 196 248 305 346
#
# _framework density 21.453633
#
# number of rings (size 3 to 8) (size 9 to 14) (size 15 to 20)
#    0.857    1.143    1.429    3.857    0.000    1.714 
#    0.000    7.857    0.000    1.714    0.000    0.000 
#    0.000    0.000    0.000    0.000    0.000    0.000 
#
# Total GULP energy -77979.514438 kJ/mol
# GULP energy per Si atom -5569.965317 kJ/mol
# Density = 2.140480 g / cm^3
# Si number density = 21.453633 Si / 1000 Ang^3
#
#
#
# Elastic Constant Matrix: (Units=GPa)
#
#
# Indices 1 2 3 4 5 6 
#
# 1 101.4923 13.5637 27.1194 14.5708 -2.5434 -0.3094
# 2 13.5637 74.9280 14.1400 15.5722 8.5811 11.1110
# 3 27.1194 14.1400 67.0272 4.6663 3.4267 0.4058
# 4 14.5708 15.5722 4.6663 23.1754 6.4526 0.9987
# 5 -2.5434 8.5811 3.4267 6.4526 25.8537 0.8941
# 6 -0.3094 11.1110 0.4058 0.9987 0.8941 16.4238
#
#
#
# Elastic Compliance Matrix: (Units=1/GPa)
#
#
# Indices 1 2 3 4 5 6 
#
# 1 0.012326 -0.000325 -0.004582 -0.007709 0.003823 0.000826
# 2 -0.000325 0.018024 -0.002759 -0.010100 -0.002735 -0.011368
# 3 -0.004582 -0.002759 0.017339 0.001836 -0.002339 0.001368
# 4 -0.007709 -0.010100 0.001836 0.057636 -0.012166 0.003799
# 5 0.003823 -0.002735 -0.002339 -0.012166 0.043297 0.000363
# 6 0.000826 -0.011368 0.001368 0.003799 0.000363 0.068309
#
#
# Mechanical properties :
#
#
# Convention : Reuss Voigt Hill
#
# Bulk Modulus (GPa) = 30.90626 39.23262 35.06944
# Shear Modulus (GPa) = 20.57215 25.66556 23.11885
#
# Velocity S-wave (km/s) = 3.09999 3.46255 3.28627
# Velocity P-wave (km/s) = 5.22021 5.85769 5.54811
#
# Compressibility (1/GPa) = 0.03235590
#
# Stress axis : x y z
#
# Youngs Moduli (GPa) = 81.13065 55.48299 57.67386
#
# Poissons Ratio (x) = 0.01801 0.26428
# Poissons Ratio (y) = 0.02634 0.15913
# Poissons Ratio (z) = 0.37177 0.15308
#
# Static dielectric constant tensor:
#      x y z
#    x 1.820830 0.000330 -0.002650 
#    y 0.000330 1.840540 0.015510 
#    z -0.002650 0.015510 1.842240 
# 
# From -- ./inp_files/203178.got.cif
#   From: 2010.05.17/outbox.cif.g08.bks.cpg/sg2_102_cif.got.tgz:203178.got - 2010.06.03 11:33:40.
