data_PCOD9089135
_publ_section_title
;
Structure prediction by ZEFSAII (Michael W. Deem and Ramdas Pophale) SiO2 
 PCOD9089135
Probable space group: P -1
;
_chemical_formula_sum "Si O2"
_cell_formula_units_Z 16
_cell_length_a 29.178798
_cell_length_b 9.633431
_cell_length_c 14.308954
_cell_angle_alpha 45.652501
_cell_angle_beta 20.862686
_cell_angle_gamma 35.442460
_cell_volume 791.960373
_symmetry_space_group_name_H-M "P -1"
_symmetry_group_IT_number 2
_symmetry_cell_setting 'triclinic'
loop_
_space_group_symop_operation_xyz
x,y,z
-x,-y,-z
loop_
_atom_site_type_symbol
_atom_site_label
_atom_site_fract_x
_atom_site_fract_y
_atom_site_fract_z
Si Si1 0.189350 0.649548 0.855149
Si Si2 0.640242 0.249843 0.287645
Si Si3 0.878457 0.360360 0.810110
Si Si4 0.497127 0.229973 0.377742
Si Si5 0.766377 0.858487 0.702947
Si Si6 0.510760 0.707893 0.845204
Si Si7 0.181444 0.090203 0.625377
Si Si8 0.808924 0.698896 0.306773
O O1 0.304440 0.470288 0.637341
O O2 0.228421 0.840741 0.701593
O O3 0.209058 0.522822 0.976342
O O4 0.004390 0.779198 0.115575
O O5 0.500000 0.500000 0.500000
O O6 0.574579 0.270398 0.298573
O O7 0.704948 0.980373 0.329158
O O8 0.800655 0.235122 0.983706
O O9 0.830688 0.577926 0.728702
O O10 0.075282 0.168969 0.547100
O O11 0.558300 0.216867 0.164221
O O12 0.500000 0.000000 0.500000
O O13 0.728634 0.945738 0.626214
O O14 0.606147 0.050343 0.980095
O O15 0.696645 0.618176 0.537912
O O16 0.500000 0.500000 0.000000
O O17 0.186647 0.254901 0.613195
O O18 0.000000 0.500000 0.000000
#
# Coordination Sequence:
#
# PCOD9089135 Si02
#       8
#     2   2   2   2   2   2   2   2
#     4  10  19  37  65  95 124 171 228 271 329 399
#     4  12  23  42  72 101 128 173 237 286 323 395
#     4  10  20  39  66  92 129 166 226 281 322 388
#     4  12  23  40  64  98 132 176 224 280 342 399
#     4  10  23  41  62  96 133 177 218 267 343 411
#     4  12  27  43  64  95 143 181 214 278 354 411
#     4  10  21  38  67  93 129 175 222 275 329 410
#     4  12  26  44  68 104 137 175 232 292 338 396
#
# _framework density 20.203030999999999
#
# number of rings (size 3 to 8) (size 9 to 14) (size 15 to 20)
#    0.000    1.000    3.750    3.000    1.750    1.500 
#    0.000    0.625    0.000    0.000    0.000    0.000 
#    0.000    0.000    0.000    0.000    0.000    0.000 
#
# Total GULP energy -89288.740714 kJ/mol
# GULP energy per Si atom -5580.546295 kJ/mol
# Density = 2.015705 g / cm^3
# Si number density = 20.203031 Si / 1000 Ang^3
#
#
#
# Elastic Constant Matrix: (Units=GPa)
#
#
# Indices 1 2 3 4 5 6 
#
# 1 126.9562 25.8986 40.8266 -12.2178 19.5691 5.3184
# 2 25.8986 66.4522 25.4150 -15.3283 -8.1341 -0.0353
# 3 40.8266 25.4150 95.4795 -5.2309 1.6211 4.3867
# 4 -12.2178 -15.3283 -5.2309 40.9287 9.7544 2.1216
# 5 19.5691 -8.1341 1.6211 9.7544 29.8102 -3.7805
# 6 5.3184 -0.0353 4.3867 2.1216 -3.7805 30.5030
#
#
#
# Elastic Compliance Matrix: (Units=1/GPa)
#
#
# Indices 1 2 3 4 5 6 
#
# 1 0.011921 -0.003531 -0.003592 0.004431 -0.010446 -0.003169
# 2 -0.003531 0.019607 -0.003677 0.004125 0.006735 0.001715
# 3 -0.003592 -0.003677 0.012973 -0.000930 0.000817 -0.001078
# 4 0.004431 0.004125 -0.000930 0.030307 -0.012189 -0.004253
# 5 -0.010446 0.006735 0.000817 -0.012189 0.047252 0.008416
# 6 -0.003169 0.001715 -0.001078 -0.004253 0.008416 0.034832
#
#
# Mechanical properties :
#
#
# Convention : Reuss Voigt Hill
#
# Bulk Modulus (GPa) = 43.66218 52.57422 48.11820
# Shear Modulus (GPa) = 26.86360 33.36488 30.11424
#
# Velocity S-wave (km/s) = 3.65044 4.06825 3.86499
# Velocity P-wave (km/s) = 6.27903 6.93880 6.61714
#
# Compressibility (1/GPa) = 0.02290312
#
# Stress axis : x y z
#
# Youngs Moduli (GPa) = 83.88286 51.00099 77.08467
#
# Poissons Ratio (x) = 0.18006 0.27689
# Poissons Ratio (y) = 0.29615 0.28341
# Poissons Ratio (z) = 0.30131 0.18751
#
# Static dielectric constant tensor:
#      x y z
#    x 1.389110 0.174480 0.098160 
#    y 0.174480 1.607720 -0.057710 
#    z 0.098160 -0.057710 1.689200 
# 
# From -- ./inp_files/544873.got.cif
#   From: 2010.05.17/outbox.cif.g08.bks.cpg/sg2_273_cif.got.tgz:544873.got - 2010.06.03 11:33:40.
