data_PCOD9089750
_publ_section_title
;
Structure prediction by ZEFSAII (Michael W. Deem and Ramdas Pophale) SiO2 
 PCOD9089750
Probable space group: P -1
;
_chemical_formula_sum "Si O2"
_cell_formula_units_Z 14
_cell_length_a 15.042974
_cell_length_b 8.872633
_cell_length_c 13.998186
_cell_angle_alpha 123.033157
_cell_angle_beta 30.476124
_cell_angle_gamma 101.153034
_cell_volume 603.699494
_symmetry_space_group_name_H-M "P -1"
_symmetry_group_IT_number 2
_symmetry_cell_setting 'triclinic'
loop_
_space_group_symop_operation_xyz
x,y,z
-x,-y,-z
loop_
_atom_site_type_symbol
_atom_site_label
_atom_site_fract_x
_atom_site_fract_y
_atom_site_fract_z
Si Si1 0.816765 0.134809 0.299775
Si Si2 0.621173 0.903324 0.459497
Si Si3 0.043566 0.054027 0.242164
Si Si4 0.304621 0.513669 0.826196
Si Si5 0.301817 0.833018 0.232025
Si Si6 0.310134 0.216143 0.038644
Si Si7 0.901466 0.354357 0.737472
O O1 0.569319 0.351097 0.560469
O O2 0.918233 0.192610 0.308105
O O3 0.794090 0.955130 0.310390
O O4 0.000000 0.000000 0.000000
O O5 0.708129 0.640496 0.290835
O O6 0.500000 0.000000 0.500000
O O7 0.463475 0.048737 0.747508
O O8 0.848436 0.131234 0.525229
O O9 0.199461 0.114961 0.151882
O O10 0.207817 0.771786 0.976142
O O11 0.153989 0.552024 0.070775
O O12 0.535411 0.765436 0.028191
O O13 0.297555 0.660769 0.109536
O O14 0.141691 0.090730 0.421509
O O15 0.120405 0.470814 0.255100
#
# Coordination Sequence:
#
# PCOD9089750 Si02
#       7
#     2   2   2   2   2   2   2
#     4  11  22  37  60  92 128 162 205 254 305 369
#     4  10  19  38  61  87 123 164 202 242 312 370
#     4  11  24  40  62  96 125 159 213 254 304 372
#     4  10  22  42  61  89 127 167 203 254 311 364
#     4  10  23  44  63  95 122 162 215 254 309 368
#     4  12  22  40  66  91 124 166 204 258 313 364
#     4  10  21  42  69  85 126 168 204 258 312 367
#
# _framework density 23.190346999999999
#
# number of rings (size 3 to 8) (size 9 to 14) (size 15 to 20)
#    0.000    1.429    4.286    2.143    0.000    4.571 
#    2.571    6.429    0.000    0.000    0.000    0.000 
#    0.000    0.000    0.000    0.000    0.000    0.000 
#
# Total GULP energy -78318.016499 kJ/mol
# GULP energy per Si atom -5594.144036 kJ/mol
# Density = 2.313756 g / cm^3
# Si number density = 23.190347 Si / 1000 Ang^3
#
#
#
# Elastic Constant Matrix: (Units=GPa)
#
#
# Indices 1 2 3 4 5 6 
#
# 1 69.2584 8.1200 6.2972 -2.3505 0.6883 0.7598
# 2 8.1200 91.9491 25.7301 3.4383 -18.8735 14.6672
# 3 6.2972 25.7301 53.6882 -2.4914 2.7576 -1.8483
# 4 -2.3505 3.4383 -2.4914 34.4597 2.1136 5.1028
# 5 0.6883 -18.8735 2.7576 2.1136 39.8914 5.7220
# 6 0.7598 14.6672 -1.8483 5.1028 5.7220 22.1504
#
#
#
# Elastic Compliance Matrix: (Units=1/GPa)
#
#
# Indices 1 2 3 4 5 6 
#
# 1 0.014723 -0.001274 -0.001013 0.001077 -0.000877 0.000233
# 2 -0.001274 0.018928 -0.010148 -0.001048 0.012060 -0.016210
# 3 -0.001013 -0.010148 0.024461 0.001652 -0.008068 0.010499
# 4 0.001077 -0.001048 0.001652 0.030264 -0.001398 -0.005816
# 5 -0.000877 0.012060 -0.008068 -0.001398 0.033867 -0.017055
# 6 0.000233 -0.016210 0.010499 -0.005816 -0.017055 0.062494
#
#
# Mechanical properties :
#
#
# Convention : Reuss Voigt Hill
#
# Bulk Modulus (GPa) = 30.08308 32.79894 31.44101
# Shear Modulus (GPa) = 22.65645 30.95017 26.80331
#
# Velocity S-wave (km/s) = 3.12906 3.65720 3.40339
# Velocity P-wave (km/s) = 5.10442 5.65752 5.38807
#
# Compressibility (1/GPa) = 0.03324127
#
# Stress axis : x y z
#
# Youngs Moduli (GPa) = 67.92135 52.83133 40.88166
#
# Poissons Ratio (x) = 0.06731 0.04142
# Poissons Ratio (y) = 0.08654 0.41487
# Poissons Ratio (z) = 0.06882 0.53613
#
# Static dielectric constant tensor:
#      x y z
#    x 1.936470 0.021840 0.000230 
#    y 0.021840 1.869260 0.020140 
#    z 0.000230 0.020140 1.857310 
# 
# From -- ./inp_files/177198.got.cif
#   From: 2010.05.17/outbox.cif.g08.bks.cpg/sg2_89_cif.got.tgz:177198.got - 2010.06.03 11:33:40.
