data_PCOD9089362
_publ_section_title
;
Structure prediction by ZEFSAII (Michael W. Deem and Ramdas Pophale) SiO2 
 PCOD9089362
Probable space group: P -1
;
_chemical_formula_sum "Si O2"
_cell_formula_units_Z 14
_cell_length_a 13.868059
_cell_length_b 7.777241
_cell_length_c 16.331404
_cell_angle_alpha 144.877022
_cell_angle_beta 141.680584
_cell_angle_gamma 42.340916
_cell_volume 604.464334
_symmetry_space_group_name_H-M "P -1"
_symmetry_group_IT_number 2
_symmetry_cell_setting 'triclinic'
loop_
_space_group_symop_operation_xyz
x,y,z
-x,-y,-z
loop_
_atom_site_type_symbol
_atom_site_label
_atom_site_fract_x
_atom_site_fract_y
_atom_site_fract_z
Si Si1 0.177533 0.629347 0.188876
Si Si2 0.582606 0.033043 0.922294
Si Si3 0.510107 0.261395 0.494021
Si Si4 0.009351 0.897044 0.348141
Si Si5 0.533030 0.360196 0.841662
Si Si6 0.105976 0.679941 0.980050
Si Si7 0.731994 0.230044 0.391417
O O1 0.340980 0.734763 0.347998
O O2 0.075426 0.811392 0.267824
O O3 0.080603 0.693063 0.065544
O O4 0.261726 0.257078 0.096731
O O5 0.570029 0.217152 0.901053
O O6 0.419894 0.915350 0.777268
O O7 0.579874 0.289108 0.089804
O O8 0.500000 0.500000 0.500000
O O9 0.347208 0.418073 0.495958
O O10 0.526834 0.908593 0.345364
O O11 0.154115 0.919552 0.513586
O O12 0.853300 0.176290 0.374793
O O13 0.948000 0.592772 0.207728
O O14 0.703254 0.375714 0.924879
O O15 0.000000 0.000000 0.000000
#
# Coordination Sequence:
#
# PCOD9089362 Si02
#       7
#     2   2   2   2   2   2   2
#     4  11  23  42  69  95 132 182 227 263 331 398
#     4  10  20  40  68  99 128 172 221 277 327 394
#     4  11  19  40  70  97 127 174 219 272 332 395
#     4  11  21  39  65  97 132 178 218 261 331 408
#     4  11  21  38  67 100 135 165 217 282 331 384
#     4  12  26  40  64  98 137 175 226 279 331 384
#     4  10  19  37  68  98 128 174 221 256 330 402
#
# _framework density 23.161003000000001
#
# number of rings (size 3 to 8) (size 9 to 14) (size 15 to 20)
#    0.000    1.143    5.714    2.143    0.000    1.143 
#    0.000    0.000    3.143    7.714    0.000    0.000 
#    0.000    0.000    0.000    0.000    0.000    0.000 
#
# Total GULP energy -78191.074955 kJ/mol
# GULP energy per Si atom -5585.076783 kJ/mol
# Density = 2.310829 g / cm^3
# Si number density = 23.161003 Si / 1000 Ang^3
#
#
#
# Elastic Constant Matrix: (Units=GPa)
#
#
# Indices 1 2 3 4 5 6 
#
# 1 73.8757 67.4080 16.3551 7.1044 -20.2700 -50.5140
# 2 67.4080 62.7000 54.8363 -3.4889 -36.8707 -10.4784
# 3 16.3551 54.8363 133.1732 17.9212 -16.2384 -15.1493
# 4 7.1044 -3.4889 17.9212 37.4434 -14.5721 -7.1669
# 5 -20.2700 -36.8707 -16.2384 -14.5721 36.0229 11.4279
# 6 -50.5140 -10.4784 -15.1493 -7.1669 11.4279 35.8621
#
#
#
# Elastic Compliance Matrix: (Units=1/GPa)
#
#
# Indices 1 2 3 4 5 6 
#
# 1 0.001145 0.021021 -0.007847 0.015088 0.024875 -0.000472
# 2 0.021021 -0.000582 0.001085 0.002362 0.003385 0.029291
# 3 -0.007847 0.001085 0.007659 -0.003092 0.001638 -0.008641
# 4 0.015088 0.002362 -0.003092 0.036523 0.017160 0.022467
# 5 0.024875 0.003385 0.001638 0.017160 0.044682 0.025910
# 6 -0.000472 0.029291 -0.008641 0.022467 0.025910 0.028362
#
#
# Mechanical properties :
#
#
# Convention : Reuss Voigt Hill
#
# Bulk Modulus (GPa) = 27.21920 60.77196 43.99558
# Shear Modulus (GPa) = 49.25281 30.60899 39.93090
#
# Velocity S-wave (km/s) = 4.61645 3.63929 4.15668
# Velocity P-wave (km/s) = 6.33980 6.62987 6.48646
#
# Compressibility (1/GPa) = 0.03673877
#
# Stress axis : x y z
#
# Youngs Moduli (GPa) = 873.39943 -1717.37445 130.56825
#
# Poissons Ratio (x) = 36.10035 1.02458
# Poissons Ratio (y) = -18.35944 -0.14168
# Poissons Ratio (z) = 6.85365 1.86347
#
# Static dielectric constant tensor:
#      x y z
#    x 1.970530 0.009200 -0.024730 
#    y 0.009200 1.861850 0.003870 
#    z -0.024730 0.003870 1.940200 
# 
# From -- ./inp_files/473879.got.cif
#   From: 2010.05.17/outbox.cif.g08.bks.cpg/sg2_237_cif.got.tgz:473879.got - 2010.06.03 11:33:40.
