data_PCOD9089755
_publ_section_title
;
Structure prediction by ZEFSAII (Michael W. Deem and Ramdas Pophale) SiO2 
 PCOD9089755
Probable space group: P -1
;
_chemical_formula_sum "Si O2"
_cell_formula_units_Z 14
_cell_length_a 11.355261
_cell_length_b 20.021803
_cell_length_c 7.576209
_cell_angle_alpha 137.437982
_cell_angle_beta 136.013519
_cell_angle_gamma 32.662963
_cell_volume 605.001549
_symmetry_space_group_name_H-M "P -1"
_symmetry_group_IT_number 2
_symmetry_cell_setting 'triclinic'
loop_
_space_group_symop_operation_xyz
x,y,z
-x,-y,-z
loop_
_atom_site_type_symbol
_atom_site_label
_atom_site_fract_x
_atom_site_fract_y
_atom_site_fract_z
Si Si1 0.049866 0.415184 0.646040
Si Si2 0.076843 0.098119 0.912002
Si Si3 0.200734 0.699081 0.486651
Si Si4 0.122815 0.014297 0.391991
Si Si5 0.311116 0.442626 0.196126
Si Si6 0.230625 0.615030 0.956218
Si Si7 0.595164 0.887049 0.525217
O O1 0.202291 0.266834 0.604681
O O2 0.843576 0.540414 0.781791
O O3 0.926234 0.414883 0.342712
O O4 0.234357 0.431332 0.900976
O O5 0.109859 0.047979 0.650648
O O6 0.291052 0.083792 0.154430
O O7 0.028741 0.025911 0.851068
O O8 0.859041 0.254221 0.991723
O O9 0.249344 0.582368 0.423915
O O10 0.428152 0.674394 0.710270
O O11 0.989541 0.852388 0.578362
O O12 0.186918 0.661510 0.201086
O O13 0.383244 0.906286 0.406558
O O14 0.500000 0.500000 0.000000
O O15 0.500000 0.000000 0.500000
#
# Coordination Sequence:
#
# PCOD9089755 Si02
#       7
#     2   2   2   2   2   2   2
#     4  10  22  39  58  86 123 153 200 247 304 359
#     4   9  22  40  63  88 121 163 204 247 303 357
#     4  10  21  37  62  85 117 160 201 245 305 356
#     4  10  21  42  62  89 120 164 206 244 302 367
#     4  10  21  39  58  86 120 158 197 249 303 369
#     4  10  19  38  61  88 116 155 199 253 294 355
#     4  11  23  38  60  93 125 159 197 255 302 364
#
# _framework density 23.140438
#
# number of rings (size 3 to 8) (size 9 to 14) (size 15 to 20)
#    0.000    2.000    1.429    1.286    2.000    2.286 
#    2.571    2.857    0.000    0.000    0.000    0.000 
#    0.000    0.000    0.000    0.000    0.000    0.000 
#
# Total GULP energy -78063.457497 kJ/mol
# GULP energy per Si atom -5575.961250 kJ/mol
# Density = 2.308777 g / cm^3
# Si number density = 23.140438 Si / 1000 Ang^3
#
#
#
# Elastic Constant Matrix: (Units=GPa)
#
#
# Indices 1 2 3 4 5 6 
#
# 1 26.0275 13.2895 10.3343 0.3589 5.3642 -15.1966
# 2 13.2895 108.8414 13.6843 -11.3540 -1.3435 -17.6846
# 3 10.3343 13.6843 124.9484 -20.8654 -8.0913 -13.1962
# 4 0.3589 -11.3540 -20.8654 34.4407 0.1263 7.0539
# 5 5.3642 -1.3435 -8.0913 0.1263 29.4984 0.2089
# 6 -15.1966 -17.6846 -13.1962 7.0539 0.2089 36.7234
#
#
#
# Elastic Compliance Matrix: (Units=1/GPa)
#
#
# Indices 1 2 3 4 5 6 
#
# 1 0.057723 -0.003987 -0.004270 -0.009012 -0.011968 0.022232
# 2 -0.003987 0.010448 0.000051 0.002933 0.001182 0.002830
# 3 -0.004270 0.000051 0.009590 0.005739 0.003380 0.000582
# 4 -0.009012 0.002933 0.005739 0.034994 0.003246 -0.006995
# 5 -0.011968 0.001182 0.003380 0.003246 0.037072 -0.004003
# 6 0.022232 0.002830 0.000582 -0.006995 -0.004003 0.039368
#
#
# Mechanical properties :
#
#
# Convention : Reuss Voigt Hill
#
# Bulk Modulus (GPa) = 16.30000 37.15926 26.72963
# Shear Modulus (GPa) = 22.11831 34.96645 28.54238
#
# Velocity S-wave (km/s) = 3.09500 3.89144 3.51585
# Velocity P-wave (km/s) = 4.45323 6.02363 5.29695
#
# Compressibility (1/GPa) = 0.06134970
#
# Stress axis : x y z
#
# Youngs Moduli (GPa) = 17.32411 95.70808 104.27866
#
# Poissons Ratio (x) = 0.38157 0.44522
# Poissons Ratio (y) = 0.06907 -0.00528
# Poissons Ratio (z) = 0.07397 -0.00484
#
# Static dielectric constant tensor:
#      x y z
#    x 1.906850 0.046460 0.041850 
#    y 0.046460 1.836800 -0.003090 
#    z 0.041850 -0.003090 1.946930 
# 
# From -- ./inp_files/151551.got.cif
#   From: 2010.05.17/outbox.cif.g08.bks.cpg/sg2_76_cif.got.tgz:151551.got - 2010.06.03 11:33:40.
