data_PCOD9089733
_publ_section_title
;
Structure prediction by ZEFSAII (Michael W. Deem and Ramdas Pophale) SiO2 
 PCOD9089733
Probable space group: P -1
;
_chemical_formula_sum "Si O2"
_cell_formula_units_Z 16
_cell_length_a 10.822958
_cell_length_b 24.277261
_cell_length_c 10.004812
_cell_angle_alpha 133.321859
_cell_angle_beta 70.006636
_cell_angle_gamma 147.288252
_cell_volume 827.849117
_symmetry_space_group_name_H-M "P -1"
_symmetry_group_IT_number 2
_symmetry_cell_setting 'triclinic'
loop_
_space_group_symop_operation_xyz
x,y,z
-x,-y,-z
loop_
_atom_site_type_symbol
_atom_site_label
_atom_site_fract_x
_atom_site_fract_y
_atom_site_fract_z
Si Si1 0.234842 0.852375 0.600025
Si Si2 0.933698 0.774126 0.814704
Si Si3 0.557357 0.288026 0.727293
Si Si4 0.936943 0.738975 0.267923
Si Si5 0.402667 0.560219 0.236804
Si Si6 0.660796 0.474447 0.494685
Si Si7 0.116002 0.475921 0.765077
Si Si8 0.802442 0.042364 0.709329
O O1 0.170682 0.876454 0.785333
O O2 0.189238 0.865221 0.492783
O O3 0.990276 0.662275 0.384296
O O4 0.534252 0.963130 0.687147
O O5 0.827286 0.639272 0.689788
O O6 0.663713 0.674285 0.676785
O O7 0.045050 0.878596 0.072438
O O8 0.496572 0.318552 0.687734
O O9 0.847385 0.393287 0.749578
O O10 0.319050 0.102286 0.519760
O O11 0.632729 0.368107 0.971216
O O12 0.658679 0.629927 0.263618
O O13 0.005177 0.826429 0.261927
O O14 0.855852 0.615009 0.034086
O O15 0.322949 0.541586 0.385026
O O16 0.790438 0.482672 0.353648
#
# Coordination Sequence:
#
# PCOD9089733 Si02
#       8
#     2   2   2   2   2   2   2   2
#     4  10  19  38  61  86 120 148 193 247 283 339
#     4  10  20  36  59  91 115 146 195 241 294 337
#     4  10  22  40  59  84 121 154 190 236 289 351
#     4  11  22  37  60  92 114 148 201 241 284 337
#     4  11  22  38  62  86 117 153 194 243 281 343
#     4  10  20  36  62  86 114 151 197 244 276 342
#     4   9  20  38  62  85 113 159 196 228 288 350
#     4  11  23  37  59  88 119 154 189 237 299 340
#
# _framework density 19.327192
#
# number of rings (size 3 to 8) (size 9 to 14) (size 15 to 20)
#    0.000    1.750    3.750    0.750    1.750    1.000 
#    0.000    1.875    0.000    0.000    0.000    0.000 
#    0.000    0.000    0.000    0.000    0.000    0.000 
#
# Total GULP energy -89372.295677 kJ/mol
# GULP energy per Si atom -5585.768480 kJ/mol
# Density = 1.928320 g / cm^3
# Si number density = 19.327192 Si / 1000 Ang^3
#
#
#
# Elastic Constant Matrix: (Units=GPa)
#
#
# Indices 1 2 3 4 5 6 
#
# 1 22.3982 -4.6818 -7.1544 -5.7019 0.3094 -7.8842
# 2 -4.6818 75.8848 26.0660 -24.8197 -5.2360 -0.8617
# 3 -7.1544 26.0660 71.1586 -19.3263 2.2123 -1.3747
# 4 -5.7019 -24.8197 -19.3263 31.1040 -2.8651 0.7112
# 5 0.3094 -5.2360 2.2123 -2.8651 23.0363 -4.8911
# 6 -7.8842 -0.8617 -1.3747 0.7112 -4.8911 18.3054
#
#
#
# Elastic Compliance Matrix: (Units=1/GPa)
#
#
# Indices 1 2 3 4 5 6 
#
# 1 0.069150 0.010956 0.010973 0.028501 0.011052 0.032969
# 2 0.010956 0.021171 -0.001779 0.018430 0.008652 0.007177
# 3 0.010973 -0.001779 0.019298 0.012486 0.000359 0.005703
# 4 0.028501 0.018430 0.012486 0.060724 0.013409 0.015304
# 5 0.011052 0.008652 0.000359 0.013409 0.050731 0.018229
# 6 0.032969 0.007177 0.005703 0.015304 0.018229 0.073870
#
#
# Mechanical properties :
#
#
# Convention : Reuss Voigt Hill
#
# Bulk Modulus (GPa) = 6.67024 21.98901 14.32963
# Shear Modulus (GPa) = 16.41407 24.83659 20.62533
#
# Velocity S-wave (km/s) = 2.91739 3.58866 3.27030
# Velocity P-wave (km/s) = 3.84798 5.34540 4.65726
#
# Compressibility (1/GPa) = 0.14991967
#
# Stress axis : x y z
#
# Youngs Moduli (GPa) = 14.46141 47.23443 51.81898
#
# Poissons Ratio (x) = -0.51749 -0.56862
# Poissons Ratio (y) = -0.15844 0.09216
# Poissons Ratio (z) = -0.15869 0.08401
#
# Static dielectric constant tensor:
#      x y z
#    x 1.664830 0.024360 0.003440 
#    y 0.024360 1.665750 0.001360 
#    z 0.003440 0.001360 1.664560 
# 
# From -- ./inp_files/180480.got.cif
#   From: 2010.05.17/outbox.cif.g08.bks.cpg/sg2_91_cif.got.tgz:180480.got - 2010.06.03 11:33:40.
