data_PCOD9089646
_publ_section_title
;
Structure prediction by ZEFSAII (Michael W. Deem and Ramdas Pophale) SiO2 
 PCOD9089646
Probable space group: P -1
;
_chemical_formula_sum "Si O2"
_cell_formula_units_Z 16
_cell_length_a 7.428553
_cell_length_b 15.983423
_cell_length_c 6.048279
_cell_angle_alpha 59.888171
_cell_angle_beta 73.395092
_cell_angle_gamma 78.135161
_cell_volume 593.634622
_symmetry_space_group_name_H-M "P -1"
_symmetry_group_IT_number 2
_symmetry_cell_setting 'triclinic'
loop_
_space_group_symop_operation_xyz
x,y,z
-x,-y,-z
loop_
_atom_site_type_symbol
_atom_site_label
_atom_site_fract_x
_atom_site_fract_y
_atom_site_fract_z
Si Si1 0.273080 0.629492 0.970262
Si Si2 0.018785 0.118853 0.231534
Si Si3 0.888524 0.701738 0.267737
Si Si4 0.077711 0.927016 0.257533
Si Si5 0.514269 0.115695 0.872229
Si Si6 0.435976 0.822177 0.732493
Si Si7 0.078270 0.581267 0.710823
Si Si8 0.337247 0.462050 0.464045
O O1 0.416187 0.705847 0.897983
O O2 0.242050 0.630266 0.718803
O O3 0.332532 0.518747 0.160677
O O4 0.066958 0.664864 0.097377
O O5 0.045562 0.137403 0.458863
O O6 0.789792 0.136019 0.249840
O O7 0.120738 0.013112 0.297098
O O8 0.119519 0.185789 0.932770
O O9 0.698386 0.649894 0.357463
O O10 0.939902 0.664271 0.543746
O O11 0.263682 0.865251 0.211638
O O12 0.000000 0.000000 0.000000
O O13 0.476400 0.154294 0.574688
O O14 0.467616 0.144269 0.114847
O O15 0.500000 0.000000 0.000000
O O16 0.156790 0.516909 0.568461
O O17 0.000000 0.500000 0.000000
O O18 0.500000 0.500000 0.500000
#
# Coordination Sequence:
#
# PCOD9089646 Si02
#       8
#     2   2   2   2   2   2   2   2
#     4  10  21  38  62  89 113 163 213 258 304 373
#     4   9  20  35  60  91 119 155 211 263 306 364
#     4  10  20  37  60  91 118 158 214 255 310 370
#     4  10  19  38  60  86 120 159 201 257 314 363
#     4  11  23  41  62  89 126 165 204 256 320 385
#     4  10  22  38  65  93 119 161 216 260 307 375
#     4  11  19  38  66  85 116 164 215 256 302 379
#     4  11  23  39  57  89 132 161 198 262 326 377
#
# _framework density 26.952604999999998
#
# number of rings (size 3 to 8) (size 9 to 14) (size 15 to 20)
#    0.000    1.750    3.750    1.125    5.250    1.500 
#    2.250    0.000    0.000    0.000    0.000    0.000 
#    0.000    0.000    0.000    0.000    0.000    0.000 
#
# Total GULP energy -89122.345943 kJ/mol
# GULP energy per Si atom -5570.146621 kJ/mol
# Density = 2.689126 g / cm^3
# Si number density = 26.952605 Si / 1000 Ang^3
#
#
#
# Elastic Constant Matrix: (Units=GPa)
#
#
# Indices 1 2 3 4 5 6 
#
# 1 68.2237 5.1097 46.6601 12.3982 7.6795 21.1406
# 2 5.1097 82.0966 39.7238 1.1784 -12.5824 21.9574
# 3 46.6601 39.7238 185.1695 5.5122 10.2638 10.0539
# 4 12.3982 1.1784 5.5122 52.2406 3.5133 0.6839
# 5 7.6795 -12.5824 10.2638 3.5133 44.7034 7.3249
# 6 21.1406 21.9574 10.0539 0.6839 7.3249 36.4310
#
#
#
# Elastic Compliance Matrix: (Units=1/GPa)
#
#
# Indices 1 2 3 4 5 6 
#
# 1 0.024638 0.006638 -0.006693 -0.005228 0.002340 -0.016823
# 2 0.006638 0.020096 -0.005529 -0.001811 0.008570 -0.016128
# 3 -0.006693 -0.005529 0.008120 0.001003 -0.003270 0.005614
# 4 -0.005228 -0.001811 0.001003 0.020407 -0.002082 0.003884
# 5 0.002340 0.008570 -0.003270 -0.002082 0.027102 -0.011031
# 6 -0.016823 -0.016128 0.005614 0.003884 -0.011031 0.047528
#
#
# Mechanical properties :
#
#
# Convention : Reuss Voigt Hill
#
# Bulk Modulus (GPa) = 23.98923 57.60856 40.79889
# Shear Modulus (GPa) = 28.90950 42.94142 35.92546
#
# Velocity S-wave (km/s) = 3.27862 3.99585 3.65487
# Velocity P-wave (km/s) = 4.82206 6.53525 5.74290
#
# Compressibility (1/GPa) = 0.04168538
#
# Stress axis : x y z
#
# Youngs Moduli (GPa) = 40.58791 49.76104 123.15593
#
# Poissons Ratio (x) = -0.33033 0.82430
# Poissons Ratio (y) = -0.26944 0.68098
# Poissons Ratio (z) = 0.27166 0.27515
#
# Static dielectric constant tensor:
#      x y z
#    x 2.274790 -0.004170 -0.048690 
#    y -0.004170 2.188770 -0.050560 
#    z -0.048690 -0.050560 2.566170 
# 
# From -- ./inp_files/43279.got.cif
#   From: 2010.05.17/outbox.cif.g08.bks.cpg/sg2_22_cif.got.tgz:43279.got - 2010.06.03 11:33:40.
