data_PCOD9089344
_publ_section_title
;
Structure prediction by ZEFSAII (Michael W. Deem and Ramdas Pophale) SiO2 
 PCOD9089344
Probable space group: P -1
;
_chemical_formula_sum "Si O2"
_cell_formula_units_Z 12
_cell_length_a 8.681409
_cell_length_b 7.343495
_cell_length_c 7.755552
_cell_angle_alpha 80.470753
_cell_angle_beta 70.988287
_cell_angle_gamma 86.014846
_cell_volume 460.946173
_symmetry_space_group_name_H-M "P -1"
_symmetry_group_IT_number 2
_symmetry_cell_setting 'triclinic'
loop_
_space_group_symop_operation_xyz
x,y,z
-x,-y,-z
loop_
_atom_site_type_symbol
_atom_site_label
_atom_site_fract_x
_atom_site_fract_y
_atom_site_fract_z
Si Si1 0.803485 0.324380 0.092037
Si Si2 0.853234 0.698317 0.852389
Si Si3 0.322065 0.977845 0.645438
Si Si4 0.220604 0.708759 0.423152
Si Si5 0.444089 0.389264 0.866596
Si Si6 0.110862 0.291969 0.562547
O O1 0.702040 0.137983 0.152718
O O2 0.669217 0.460303 0.217437
O O3 0.980783 0.267908 0.111217
O O4 0.843189 0.472571 0.905739
O O5 0.850218 0.750447 0.646598
O O6 0.685564 0.758738 0.996028
O O7 0.235951 0.849755 0.552368
O O8 0.500000 0.000000 0.500000
O O9 0.231024 0.172817 0.653800
O O10 0.397321 0.679178 0.279822
O O11 0.147384 0.509014 0.536229
O O12 0.074017 0.777055 0.341318
O O13 0.500000 0.500000 0.000000
#
# Coordination Sequence:
#
# PCOD9089344 Si02
#       6
#     2   2   2   2   2   2
#     4   9  20  38  64  91 130 175 211 262 335 379
#     4   9  19  40  67  90 128 182 207 270 328 382
#     4  12  26  41  66 104 138 166 220 284 325 389
#     4  11  23  42  68  97 130 181 221 263 335 399
#     4  10  19  37  68  94 126 173 219 264 322 390
#     4  11  23  43  71  94 130 178 224 270 329 392
#
# _framework density 26.033408999999999
#
# number of rings (size 3 to 8) (size 9 to 14) (size 15 to 20)
#    1.000    0.667    3.333    1.500    0.000    2.667 
#    0.000    0.833    0.000   10.000    0.000    0.000 
#    0.000    0.000    0.000    0.000    0.000    0.000 
#
# Total GULP energy -66967.831904 kJ/mol
# GULP energy per Si atom -5580.652659 kJ/mol
# Density = 2.597416 g / cm^3
# Si number density = 26.033409 Si / 1000 Ang^3
#
#
#
# Elastic Constant Matrix: (Units=GPa)
#
#
# Indices 1 2 3 4 5 6 
#
# 1 143.5020 8.5012 27.8734 12.0564 -39.9125 -6.9612
# 2 8.5012 72.8679 5.3598 2.3019 -5.0878 6.1571
# 3 27.8734 5.3598 79.8813 -4.9280 -28.2142 -2.9481
# 4 12.0564 2.3019 -4.9280 31.7510 4.4688 6.2720
# 5 -39.9125 -5.0878 -28.2142 4.4688 53.3537 4.8102
# 6 -6.9612 6.1571 -2.9481 6.2720 4.8102 36.3619
#
#
#
# Elastic Compliance Matrix: (Units=1/GPa)
#
#
# Indices 1 2 3 4 5 6 
#
# 1 0.009640 -0.000556 -0.001172 -0.005121 0.006803 0.001828
# 2 -0.000556 0.014127 -0.000559 -0.000519 0.000911 -0.002575
# 3 -0.001172 -0.000559 0.015614 0.001928 0.007178 -0.000146
# 4 -0.005121 -0.000519 0.001928 0.035747 -0.005296 -0.006201
# 5 0.006803 0.000911 0.007178 -0.005296 0.028257 -0.001094
# 6 0.001828 -0.002575 -0.000146 -0.006201 -0.001094 0.029490
#
#
# Mechanical properties :
#
#
# Convention : Reuss Voigt Hill
#
# Bulk Modulus (GPa) = 28.73033 42.19110 35.46072
# Shear Modulus (GPa) = 33.54540 41.26111 37.40325
#
# Velocity S-wave (km/s) = 3.59353 3.98544 3.79455
# Velocity P-wave (km/s) = 5.31770 6.11719 5.73140
#
# Compressibility (1/GPa) = 0.03480642
#
# Stress axis : x y z
#
# Youngs Moduli (GPa) = 103.73317 70.78611 64.04479
#
# Poissons Ratio (x) = 0.03937 0.07507
# Poissons Ratio (y) = 0.05769 0.03581
# Poissons Ratio (z) = 0.12159 0.03957
#
# Static dielectric constant tensor:
#      x y z
#    x 2.119560 -0.027820 0.029570 
#    y -0.027820 2.060180 -0.020330 
#    z 0.029570 -0.020330 2.168950 
# 
# From -- ./inp_files/157161.got.cif
#   From: 2010.05.17/outbox.cif.g08.bks.cpg/sg2_79_cif.got.tgz:157161.got - 2010.06.03 11:33:40.
