data_PCOD9089825
_publ_section_title
;
Structure prediction by ZEFSAII (Michael W. Deem and Ramdas Pophale) SiO2 
 PCOD9089825
Probable space group: P -1
;
_chemical_formula_sum "Si O2"
_cell_formula_units_Z 12
_cell_length_a 7.818513
_cell_length_b 11.893778
_cell_length_c 6.232967
_cell_angle_alpha 122.579869
_cell_angle_beta 110.511808
_cell_angle_gamma 77.657657
_cell_volume 457.210982
_symmetry_space_group_name_H-M "P -1"
_symmetry_group_IT_number 2
_symmetry_cell_setting 'triclinic'
loop_
_space_group_symop_operation_xyz
x,y,z
-x,-y,-z
loop_
_atom_site_type_symbol
_atom_site_label
_atom_site_fract_x
_atom_site_fract_y
_atom_site_fract_z
Si Si1 0.390314 0.798170 0.316063
Si Si2 0.737862 0.815774 0.214014
Si Si3 0.743369 0.453136 0.241034
Si Si4 0.001332 0.109625 0.929483
Si Si5 0.010870 0.338149 0.508334
Si Si6 0.535375 0.652443 0.600108
O O1 0.571502 0.855482 0.342407
O O2 0.200854 0.873060 0.243726
O O3 0.420765 0.771473 0.553765
O O4 0.358535 0.647739 0.054749
O O5 0.905551 0.745641 0.346110
O O6 0.840431 0.915259 0.202036
O O7 0.640195 0.713482 0.907582
O O8 0.927182 0.508464 0.273837
O O9 0.661846 0.600578 0.401722
O O10 0.796147 0.370258 0.395287
O O11 0.044995 0.245648 0.216622
O O12 0.000000 0.000000 0.000000
O O13 0.500000 0.500000 0.500000
#
# Coordination Sequence:
#
# PCOD9089825 Si02
#       6
#     2   2   2   2   2   2
#     4  11  24  42  64 100 131 162 213 256 313 387
#     4  12  23  41  67  91 132 166 207 265 316 368
#     4  10  19  38  61  96 139 161 199 257 308 387
#     4  11  27  47  66  89 121 170 226 269 311 364
#     4  10  22  40  62  97 131 165 212 257 312 383
#     4  12  22  36  64 103 136 169 199 247 327 393
#
# _framework density 26.246085999999998
#
# number of rings (size 3 to 8) (size 9 to 14) (size 15 to 20)
#    0.000    1.000    5.000    1.500    2.333    2.000 
#    0.000    3.333    0.000    0.000    0.000    0.000 
#    0.000    0.000    0.000    0.000    0.000    0.000 
#
# Total GULP energy -66882.607196 kJ/mol
# GULP energy per Si atom -5573.550600 kJ/mol
# Density = 2.618635 g / cm^3
# Si number density = 26.246086 Si / 1000 Ang^3
#
#
#
# Elastic Constant Matrix: (Units=GPa)
#
#
# Indices 1 2 3 4 5 6 
#
# 1 96.3418 67.6662 33.7850 -18.1124 7.1156 20.3642
# 2 67.6662 105.6749 51.3011 -11.3834 -2.7365 5.8102
# 3 33.7850 51.3011 117.8515 -26.2552 29.0666 -15.1723
# 4 -18.1124 -11.3834 -26.2552 48.7145 -7.9812 3.8889
# 5 7.1156 -2.7365 29.0666 -7.9812 37.1130 -14.8254
# 6 20.3642 5.8102 -15.1723 3.8889 -14.8254 51.1175
#
#
#
# Elastic Compliance Matrix: (Units=1/GPa)
#
#
# Indices 1 2 3 4 5 6 
#
# 1 0.025478 -0.016617 0.002631 0.006044 -0.011359 -0.011234
# 2 -0.016617 0.024275 -0.009296 -0.003715 0.013584 0.005324
# 3 0.002631 -0.009296 0.016130 0.005414 -0.012337 0.000806
# 4 0.006044 -0.003715 0.005414 0.024808 -0.001406 -0.002674
# 5 -0.011359 0.013584 -0.012337 -0.001406 0.044398 0.012303
# 6 -0.011234 0.005324 0.000806 -0.002674 0.012303 0.027444
#
#
# Mechanical properties :
#
#
# Convention : Reuss Voigt Hill
#
# Bulk Modulus (GPa) = 51.76115 69.48586 60.62351
# Shear Modulus (GPa) = 23.19804 38.53006 30.86405
#
# Velocity S-wave (km/s) = 2.97621 3.83565 3.43293
# Velocity P-wave (km/s) = 5.61914 6.79327 6.23391
#
# Compressibility (1/GPa) = 0.01931951
#
# Stress axis : x y z
#
# Youngs Moduli (GPa) = 39.25001 41.19512 61.99584
#
# Poissons Ratio (x) = 0.68453 -0.16312
# Poissons Ratio (y) = 0.65221 0.57631
# Poissons Ratio (z) = -0.10327 0.38295
#
# Static dielectric constant tensor:
#      x y z
#    x 0.813790 0.208580 0.052080 
#    y 0.208580 2.025000 -0.027140 
#    z 0.052080 -0.027140 2.036980 
# 
# From -- ./inp_files/22975.got.cif
#   From: 2010.05.17/outbox.cif.g08.bks.cpg/sg2_12_cif.got.tgz:22975.got - 2010.06.03 11:33:40.
