data_PCOD9089035
_publ_section_title
;
Structure prediction by ZEFSAII (Michael W. Deem and Ramdas Pophale) SiO2 
 PCOD9089035
Probable space group: P -1
;
_chemical_formula_sum "Si O2"
_cell_formula_units_Z 12
_cell_length_a 9.229739
_cell_length_b 5.311474
_cell_length_c 11.231878
_cell_angle_alpha 70.946148
_cell_angle_beta 80.521657
_cell_angle_gamma 70.317022
_cell_volume 489.121391
_symmetry_space_group_name_H-M "P -1"
_symmetry_group_IT_number 2
_symmetry_cell_setting 'triclinic'
loop_
_space_group_symop_operation_xyz
x,y,z
-x,-y,-z
loop_
_atom_site_type_symbol
_atom_site_label
_atom_site_fract_x
_atom_site_fract_y
_atom_site_fract_z
Si Si1 0.683197 0.819933 0.519311
Si Si2 0.374690 0.704771 0.396339
Si Si3 0.830497 0.719170 0.257504
Si Si4 0.287025 0.623683 0.869909
Si Si5 0.118619 0.750969 0.095365
Si Si6 0.574405 0.174236 0.875246
O O1 0.690830 0.524245 0.621816
O O2 0.776073 0.727498 0.399257
O O3 0.500000 0.000000 0.500000
O O4 0.738043 0.044602 0.552154
O O5 0.500000 0.500000 0.500000
O O6 0.442316 0.853592 0.260274
O O7 0.772174 0.508727 0.215748
O O8 0.012433 0.648035 0.216761
O O9 0.755826 0.043932 0.180506
O O10 0.469399 0.489857 0.867667
O O11 0.207894 0.543628 0.010865
O O12 0.248538 0.865394 0.116842
O O13 0.000000 0.000000 0.000000
O O14 0.500000 0.000000 0.000000
#
# Coordination Sequence:
#
# PCOD9089035 Si02
#       6
#     2   2   2   2   2   2
#     4  10  19  37  64  95 127 173 223 273 330 403
#     4  10  22  40  65  97 131 169 224 282 332 393
#     4  11  22  42  69  99 138 182 225 281 347 406
#     4  11  22  41  67  99 134 180 231 283 335 406
#     4  10  24  42  63  99 142 182 223 281 348 407
#     4  12  25  44  72 105 136 180 234 286 339 409
#
# _framework density 24.533785999999999
#
# number of rings (size 3 to 8) (size 9 to 14) (size 15 to 20)
#    0.000    1.333    0.000    8.000    0.000    4.000 
#    0.000    1.667    0.000    0.000    0.000    0.000 
#    0.000    0.000    0.000    0.000    0.000    0.000 
#
# Total GULP energy -67025.399118 kJ/mol
# GULP energy per Si atom -5585.449927 kJ/mol
# Density = 2.447795 g / cm^3
# Si number density = 24.533786 Si / 1000 Ang^3
#
#
#
# Elastic Constant Matrix: (Units=GPa)
#
#
# Indices 1 2 3 4 5 6 
#
# 1 110.1276 -2.5371 34.8679 -0.9078 -5.1209 -9.6385
# 2 -2.5371 100.6666 26.8600 14.0797 1.8067 28.6494
# 3 34.8679 26.8600 162.7754 21.3487 -25.8820 -0.0122
# 4 -0.9078 14.0797 21.3487 46.0391 -7.1772 -10.4485
# 5 -5.1209 1.8067 -25.8820 -7.1772 39.2024 6.1120
# 6 -9.6385 28.6494 -0.0122 -10.4485 6.1120 30.6946
#
#
#
# Elastic Compliance Matrix: (Units=1/GPa)
#
#
# Indices 1 2 3 4 5 6 
#
# 1 0.010294 -0.000892 -0.002502 0.002705 -0.000566 0.005097
# 2 -0.000892 0.017012 -0.001538 -0.008927 -0.000575 -0.019083
# 3 -0.002502 -0.001538 0.008063 -0.002866 0.004740 -0.001266
# 4 0.002705 -0.008927 -0.002866 0.030427 0.001442 0.019251
# 5 -0.000566 -0.000575 0.004740 0.001442 0.029642 -0.005051
# 6 0.005097 -0.019083 -0.001266 0.019251 -0.005051 0.059549
#
#
# Mechanical properties :
#
#
# Convention : Reuss Voigt Hill
#
# Bulk Modulus (GPa) = 39.20869 54.66122 46.93495
# Shear Modulus (GPa) = 28.84297 44.14582 36.49439
#
# Velocity S-wave (km/s) = 3.43248 4.24652 3.86102
# Velocity P-wave (km/s) = 5.63254 6.80972 6.24891
#
# Compressibility (1/GPa) = 0.02550455
#
# Stress axis : x y z
#
# Youngs Moduli (GPa) = 97.14247 58.78307 124.02748
#
# Poissons Ratio (x) = 0.05241 0.31035
# Poissons Ratio (y) = 0.08661 0.19078
# Poissons Ratio (z) = 0.24308 0.09042
#
# Static dielectric constant tensor:
#      x y z
#    x 2.088020 0.085110 0.031900 
#    y 0.085110 1.987250 0.025700 
#    z 0.031900 0.025700 2.103680 
# 
# From -- ./inp_files/372352.got.cif
#   From: 2010.05.17/outbox.cif.g08.bks.cpg/sg2_187_cif.got.tgz:372352.got - 2010.06.03 11:33:40.
