data_PCOD9089572
_publ_section_title
;
Structure prediction by ZEFSAII (Michael W. Deem and Ramdas Pophale) SiO2 
 PCOD9089572
Probable space group: P -1
;
_chemical_formula_sum "Si O2"
_cell_formula_units_Z 16
_cell_length_a 17.707424
_cell_length_b 8.942594
_cell_length_c 21.197548
_cell_angle_alpha 100.028781
_cell_angle_beta 161.412127
_cell_angle_gamma 69.343403
_cell_volume 844.458234
_symmetry_space_group_name_H-M "P -1"
_symmetry_group_IT_number 2
_symmetry_cell_setting 'triclinic'
loop_
_space_group_symop_operation_xyz
x,y,z
-x,-y,-z
loop_
_atom_site_type_symbol
_atom_site_label
_atom_site_fract_x
_atom_site_fract_y
_atom_site_fract_z
Si Si1 0.198507 0.008763 0.477393
Si Si2 0.766486 0.988155 0.741241
Si Si3 0.184320 0.601826 0.724888
Si Si4 0.784318 0.310542 0.825230
Si Si5 0.149407 0.250817 0.993751
Si Si6 0.519003 0.387503 0.287650
Si Si7 0.719264 0.534064 0.348150
Si Si8 0.132528 0.942472 0.905978
O O1 0.022365 0.185772 0.397028
O O2 0.052191 0.059535 0.297058
O O3 0.544778 0.920256 0.742334
O O4 0.216765 0.831883 0.506887
O O5 0.666168 0.189157 0.704436
O O6 0.500000 0.000000 0.500000
O O7 0.002796 0.936932 0.869787
O O8 0.935694 0.830353 0.917796
O O9 0.222076 0.581104 0.677891
O O10 0.015573 0.509311 0.600543
O O11 0.500000 0.500000 0.000000
O O12 0.561984 0.495325 0.703520
O O13 0.895072 0.349284 0.852042
O O14 0.240467 0.382243 0.051236
O O15 0.096454 0.138933 0.893058
O O16 0.595286 0.474252 0.299911
O O17 0.468067 0.756948 0.151668
#
# Coordination Sequence:
#
# PCOD9089572 Si02
#       8
#     2   2   2   2   2   2   2   2
#     4  10  22  39  60  88 123 157 194 246 308 353
#     4  10  21  33  58  92 120 157 209 249 279 339
#     4  11  23  42  67  90 113 155 202 254 309 361
#     4  10  19  38  59  87 124 166 197 240 290 352
#     4   9  21  38  60  84 130 163 190 238 303 350
#     4  10  22  41  59  92 126 157 196 247 300 351
#     4  11  22  40  66  90 114 152 207 252 293 367
#     4  11  19  39  61  85 121 161 204 239 296 356
#
# _framework density 18.947058999999999
#
# number of rings (size 3 to 8) (size 9 to 14) (size 15 to 20)
#    0.750    1.000    3.750    1.125    0.000    1.500 
#    4.500    1.875    0.000    0.000    0.000    0.000 
#    0.000    0.000    0.000    0.000    0.000    0.000 
#
# Total GULP energy -89238.543925 kJ/mol
# GULP energy per Si atom -5577.408995 kJ/mol
# Density = 1.890394 g / cm^3
# Si number density = 18.947059 Si / 1000 Ang^3
#
#
#
# Elastic Constant Matrix: (Units=GPa)
#
#
# Indices 1 2 3 4 5 6 
#
# 1 91.6566 64.2539 10.0116 2.9944 15.2054 -19.7816
# 2 64.2539 102.3558 30.3772 3.7556 5.0250 -28.8895
# 3 10.0116 30.3772 61.1311 25.1600 2.5429 -7.5340
# 4 2.9944 3.7556 25.1600 23.3082 -3.4856 -1.4276
# 5 15.2054 5.0250 2.5429 -3.4856 18.3061 1.6537
# 6 -19.7816 -28.8895 -7.5340 -1.4276 1.6537 35.3370
#
#
#
# Elastic Compliance Matrix: (Units=1/GPa)
#
#
# Indices 1 2 3 4 5 6 
#
# 1 0.027960 -0.018841 0.014106 -0.019149 -0.023983 0.003605
# 2 -0.018841 0.028295 -0.019189 0.021170 0.013793 0.008704
# 3 0.014106 -0.019189 0.045880 -0.051585 -0.022733 0.000971
# 4 -0.019149 0.021170 -0.051585 0.103057 0.037062 -0.001981
# 5 -0.023983 0.013793 -0.022733 0.037062 0.081818 -0.009328
# 6 0.003605 0.008704 0.000971 -0.001981 -0.009328 0.037996
#
#
# Mechanical properties :
#
#
# Convention : Reuss Voigt Hill
#
# Bulk Modulus (GPa) = 18.42032 51.60320 35.01176
# Shear Modulus (GPa) = 12.78945 25.42365 19.10655
#
# Velocity S-wave (km/s) = 2.60091 3.66707 3.17900
# Velocity P-wave (km/s) = 4.33160 6.72491 5.65629
#
# Compressibility (1/GPa) = 0.05428787
#
# Stress axis : x y z
#
# Youngs Moduli (GPa) = 35.76590 35.34238 21.79616
#
# Poissons Ratio (x) = 0.66587 -0.30747
# Poissons Ratio (y) = 0.67385 0.41824
# Poissons Ratio (z) = -0.50453 0.67818
#
# Static dielectric constant tensor:
#      x y z
#    x 1.627970 0.003940 0.008330 
#    y 0.003940 1.674080 0.007070 
#    z 0.008330 0.007070 1.659690 
# 
# From -- ./inp_files/599496.got.cif
#   From: 2010.05.17/outbox.cif.g08.bks.cpg/sg2_300_cif.got.tgz:599496.got - 2010.06.03 11:33:40.
