data_PCOD9089862
_publ_section_title
;
Structure prediction by ZEFSAII (Michael W. Deem and Ramdas Pophale) SiO2 
 PCOD9089862
Probable space group: P -1
;
_chemical_formula_sum "Si O2"
_cell_formula_units_Z 16
_cell_length_a 14.957907
_cell_length_b 11.706036
_cell_length_c 6.829856
_cell_angle_alpha 90.337588
_cell_angle_beta 84.510262
_cell_angle_gamma 28.805872
_cell_volume 563.465165
_symmetry_space_group_name_H-M "P -1"
_symmetry_group_IT_number 2
_symmetry_cell_setting 'triclinic'
loop_
_space_group_symop_operation_xyz
x,y,z
-x,-y,-z
loop_
_atom_site_type_symbol
_atom_site_label
_atom_site_fract_x
_atom_site_fract_y
_atom_site_fract_z
Si Si1 0.500580 0.485742 0.735097
Si Si2 0.347116 0.437518 0.979065
Si Si3 0.308419 0.909714 0.677449
Si Si4 0.403638 0.261578 0.593427
Si Si5 0.902707 0.966346 0.812817
Si Si6 0.764487 0.880340 0.958124
Si Si7 0.205396 0.311769 0.375239
Si Si8 0.001845 0.092037 0.748635
O O1 0.500000 0.500000 0.500000
O O2 0.384019 0.514508 0.857813
O O3 0.407255 0.711770 0.806918
O O4 0.704667 0.237397 0.778013
O O5 0.280167 0.431290 0.812059
O O6 0.539049 0.156893 0.992591
O O7 0.208368 0.620363 0.189036
O O8 0.479348 0.761401 0.509734
O O9 0.143114 0.021401 0.610861
O O10 0.207912 0.125581 0.817726
O O11 0.263806 0.366005 0.461386
O O12 0.594525 0.975483 0.607159
O O13 0.032924 0.923447 0.689528
O O14 0.869318 0.865830 0.817067
O O15 0.945997 0.944731 0.032168
O O16 0.804690 0.713001 0.852225
O O17 0.000000 0.500000 0.500000
#
# Coordination Sequence:
#
# PCOD9089862 Si02
#       8
#     2   2   2   2   2   2   2   2
#     4  11  20  35  58  88 131 168 200 243 303 363
#     4  10  19  38  62  86 123 175 198 239 307 375
#     4  11  22  39  59  95 126 156 199 259 301 361
#     4  10  23  43  65  90 124 154 203 266 314 364
#     4   9  19  35  57  90 122 167 203 240 292 371
#     4   9  20  37  66  86 120 162 211 247 306 363
#     4  10  23  45  68  88 114 163 211 254 319 380
#     4  10  20  35  60  91 127 163 206 242 295 377
#
# _framework density 28.395719
#
# number of rings (size 3 to 8) (size 9 to 14) (size 15 to 20)
#    0.000    2.000    1.250    3.000    3.500    4.000 
#    4.500    3.125    0.000    0.000    0.000    0.000 
#    0.000    0.000    0.000    0.000    0.000    0.000 
#
# Total GULP energy -89258.435091 kJ/mol
# GULP energy per Si atom -5578.652193 kJ/mol
# Density = 2.833109 g / cm^3
# Si number density = 28.395719 Si / 1000 Ang^3
#
#
#
# Elastic Constant Matrix: (Units=GPa)
#
#
# Indices 1 2 3 4 5 6 
#
# 1 138.8116 4.3710 28.6422 20.3174 14.4087 -26.7810
# 2 4.3710 84.3853 4.8114 14.7467 -7.9823 -19.7207
# 3 28.6422 4.8114 98.8767 23.8638 9.5438 11.1413
# 4 20.3174 14.7467 23.8638 47.5672 4.2924 -9.7897
# 5 14.4087 -7.9823 9.5438 4.2924 43.4574 12.9765
# 6 -26.7810 -19.7207 11.1413 -9.7897 12.9765 36.6286
#
#
#
# Elastic Compliance Matrix: (Units=1/GPa)
#
#
# Indices 1 2 3 4 5 6 
#
# 1 0.011069 0.002046 -0.004088 -0.000172 -0.006131 0.012564
# 2 0.002046 0.014415 -0.001678 -0.002614 -0.000125 0.009113
# 3 -0.004088 -0.001678 0.014160 -0.007228 0.001875 -0.010796
# 4 -0.000172 -0.002614 -0.007228 0.027941 -0.004500 0.009727
# 5 -0.006131 -0.000125 0.001875 -0.004500 0.030129 -0.016997
# 6 0.012564 0.009113 -0.010796 0.009727 -0.016997 0.053299
#
#
# Mechanical properties :
#
#
# Convention : Reuss Voigt Hill
#
# Bulk Modulus (GPa) = 31.05334 44.19141 37.62238
# Shear Modulus (GPa) = 29.55318 44.48057 37.01687
#
# Velocity S-wave (km/s) = 3.22958 3.96214 3.61447
# Velocity P-wave (km/s) = 4.98664 6.04383 5.54051
#
# Compressibility (1/GPa) = 0.03220265
#
# Stress axis : x y z
#
# Youngs Moduli (GPa) = 90.34453 69.37336 70.62380
#
# Poissons Ratio (x) = -0.14194 0.28873
# Poissons Ratio (y) = -0.18485 0.11850
# Poissons Ratio (z) = 0.36936 0.11640
#
# Static dielectric constant tensor:
#      x y z
#    x 2.414600 -0.066210 0.073230 
#    y -0.066210 2.271610 0.038120 
#    z 0.073230 0.038120 2.352760 
# 
# From -- ./inp_files/307511.got.cif
#   From: 2010.05.17/outbox.cif.g08.bks.cpg/sg2_154_cif.got.tgz:307511.got - 2010.06.03 11:33:40.
