data_PCOD9089691
_publ_section_title
;
Structure prediction by ZEFSAII (Michael W. Deem and Ramdas Pophale) SiO2 
 PCOD9089691
Probable space group: P -1
;
_chemical_formula_sum "Si O2"
_cell_formula_units_Z 14
_cell_length_a 20.897485
_cell_length_b 12.339112
_cell_length_c 9.120349
_cell_angle_alpha 51.757479
_cell_angle_beta 47.255997
_cell_angle_gamma 17.454604
_cell_volume 513.696513
_symmetry_space_group_name_H-M "P -1"
_symmetry_group_IT_number 2
_symmetry_cell_setting 'triclinic'
loop_
_space_group_symop_operation_xyz
x,y,z
-x,-y,-z
loop_
_atom_site_type_symbol
_atom_site_label
_atom_site_fract_x
_atom_site_fract_y
_atom_site_fract_z
Si Si1 0.107420 0.115832 0.854731
Si Si2 0.597851 0.592246 0.061956
Si Si3 0.834593 0.693953 0.232298
Si Si4 0.815792 0.494163 0.252180
Si Si5 0.678734 0.422463 0.410901
Si Si6 0.090832 0.630441 0.348190
Si Si7 0.337117 0.765446 0.170278
O O1 0.215119 0.089264 0.793654
O O2 0.044491 0.242122 0.681414
O O3 0.218078 0.799706 0.940490
O O4 0.871236 0.443585 0.039645
O O5 0.569532 0.620528 0.258465
O O6 0.378407 0.858955 0.089512
O O7 0.691103 0.605313 0.858734
O O8 0.891193 0.509829 0.436327
O O9 0.682031 0.808311 0.282870
O O10 0.000000 0.500000 0.000000
O O11 0.691819 0.530626 0.410940
O O12 0.076926 0.104890 0.243478
O O13 0.581324 0.439113 0.641821
O O14 0.931736 0.991250 0.346028
O O15 0.500000 0.500000 0.000000
#
# Coordination Sequence:
#
# PCOD9089691 Si02
#       7
#     2   2   2   2   2   2   2
#     4  10  19  38  60  91 120 153 205 242 299 358
#     4  11  22  38  63  95 123 153 198 255 304 356
#     4  10  23  35  60  93 121 156 204 252 290 356
#     4  11  20  39  60  91 118 156 208 246 294 349
#     4  11  21  38  62  93 119 158 205 251 292 355
#     4  11  19  38  66  89 117 157 206 251 291 358
#     4  12  23  34  58  93 131 154 193 256 309 347
#
# _framework density 27.253443999999998
#
# number of rings (size 3 to 8) (size 9 to 14) (size 15 to 20)
#    0.000    1.143    5.714    2.143    2.000    0.000 
#    0.000    0.000    0.000   10.286    0.000    0.000 
#    0.000    0.000    0.000    0.000    0.000    0.000 
#
# Total GULP energy -78152.295056 kJ/mol
# GULP energy per Si atom -5582.306790 kJ/mol
# Density = 2.719141 g / cm^3
# Si number density = 27.253444 Si / 1000 Ang^3
#
#
#
# Elastic Constant Matrix: (Units=GPa)
#
#
# Indices 1 2 3 4 5 6 
#
# 1 196.6103 45.7870 47.7393 -13.2457 -5.0053 8.4674
# 2 45.7870 62.6568 55.9511 -22.9102 4.8470 -17.1482
# 3 47.7393 55.9511 173.4630 -15.2157 7.7034 -3.3595
# 4 -13.2457 -22.9102 -15.2157 38.2031 -8.6217 -1.7851
# 5 -5.0053 4.8470 7.7034 -8.6217 55.5840 -13.3389
# 6 8.4674 -17.1482 -3.3595 -1.7851 -13.3389 23.7129
#
#
#
# Elastic Compliance Matrix: (Units=1/GPa)
#
#
# Indices 1 2 3 4 5 6 
#
# 1 0.007721 -0.011799 0.001089 -0.005080 -0.002288 -0.012804
# 2 -0.011799 0.066660 -0.014547 0.036519 0.015664 0.061919
# 3 0.001089 -0.014547 0.009568 -0.005959 -0.003797 -0.012138
# 4 -0.005080 0.036519 -0.005959 0.048956 0.014141 0.039019
# 5 -0.002288 0.015664 -0.003797 0.014141 0.025641 0.027095
# 6 -0.012804 0.061919 -0.012138 0.039019 0.027095 0.107979
#
#
# Mechanical properties :
#
#
# Convention : Reuss Voigt Hill
#
# Bulk Modulus (GPa) = 29.90944 81.29831 55.60387
# Shear Modulus (GPa) = 15.23531 42.38352 28.80942
#
# Velocity S-wave (km/s) = 2.36693 3.94783 3.25482
# Velocity P-wave (km/s) = 4.29747 7.11869 5.87979
#
# Compressibility (1/GPa) = 0.03343426
#
# Stress axis : x y z
#
# Youngs Moduli (GPa) = 129.52404 15.00142 104.51238
#
# Poissons Ratio (x) = 0.17701 -0.11382
# Poissons Ratio (y) = 1.52829 1.52037
# Poissons Ratio (z) = -0.14106 0.21823
#
# Static dielectric constant tensor:
#      x y z
#    x 2.067460 -0.015760 -0.023920 
#    y -0.015760 2.332660 0.014040 
#    z -0.023920 0.014040 2.139670 
# 
# From -- ./inp_files/225153.got.cif
#   From: 2010.05.17/outbox.cif.g08.bks.cpg/sg2_113_cif.got.tgz:225153.got - 2010.06.03 11:33:40.
