data_PCOD9089132
_publ_section_title
;
Structure prediction by ZEFSAII (Michael W. Deem and Ramdas Pophale) SiO2 
 PCOD9089132
Probable space group: P -1
;
_chemical_formula_sum "Si O2"
_cell_formula_units_Z 15
_cell_length_a 11.761855
_cell_length_b 14.000823
_cell_length_c 13.586653
_cell_angle_alpha 20.934597
_cell_angle_beta 46.137763
_cell_angle_gamma 43.572980
_cell_volume 549.824108
_symmetry_space_group_name_H-M "P -1"
_symmetry_group_IT_number 2
_symmetry_cell_setting 'triclinic'
loop_
_space_group_symop_operation_xyz
x,y,z
-x,-y,-z
loop_
_atom_site_type_symbol
_atom_site_label
_atom_site_fract_x
_atom_site_fract_y
_atom_site_fract_z
Si Si1 0.000000 0.000000 0.000000
Si Si2 0.484459 0.939852 0.180493
Si Si3 0.678789 0.314545 0.038779
Si Si4 0.334887 0.965018 0.498983
Si Si5 0.307720 0.045379 0.783421
Si Si6 0.971884 0.787879 0.008825
Si Si7 0.297345 0.557007 0.755545
Si Si8 0.022132 0.730376 0.606145
O O1 0.875105 0.798544 0.294711
O O2 0.942127 0.982842 0.936817
O O3 0.650319 0.897608 0.185529
O O4 0.410990 0.688182 0.490313
O O5 0.365594 0.226510 0.021477
O O6 0.500000 0.000000 0.000000
O O7 0.691620 0.044062 0.359927
O O8 0.837519 0.389478 0.908418
O O9 0.703463 0.257796 0.961171
O O10 0.500000 0.500000 0.000000
O O11 0.521473 0.957571 0.370216
O O12 0.319577 0.682468 0.727287
O O13 0.174521 0.198988 0.329456
O O14 0.954475 0.002871 0.721811
O O15 0.903650 0.544277 0.241554
O O16 0.115838 0.676802 0.704879
#
# Coordination Sequence:
#
# PCOD9089132 Si02
#       8
#     1   2   2   2   2   2   2   2
#     4  10  24  44  66  98 136 182 236 286 328 416
#     4  11  25  45  68  99 139 184 231 283 338 408
#     4  10  19  37  65  94 132 173 222 284 346 407
#     4  10  22  41  66 103 139 178 228 290 347 413
#     4  10  22  40  67  96 135 177 232 276 349 398
#     4  10  24  42  64  99 132 183 226 286 339 401
#     4  11  24  42  69 102 135 183 230 278 350 404
#     4  11  23  42  70  99 141 177 230 278 351 408
#
# _framework density 27.281452999999999
#
# number of rings (size 3 to 8) (size 9 to 14) (size 15 to 20)
#    0.000    1.600    0.000    3.600    3.733    5.867 
#    0.000   12.000    0.000    0.000    0.000    0.000 
#    0.000    0.000    0.000    0.000    0.000    0.000 
#
# Total GULP energy -83541.642858 kJ/mol
# GULP energy per Si atom -5569.442857 kJ/mol
# Density = 2.721936 g / cm^3
# Si number density = 27.281453 Si / 1000 Ang^3
#
#
#
# Elastic Constant Matrix: (Units=GPa)
#
#
# Indices 1 2 3 4 5 6 
#
# 1 163.4025 25.8680 19.8898 5.0852 -20.1840 -7.4918
# 2 25.8680 84.5387 8.7190 -6.9341 11.1462 31.1695
# 3 19.8898 8.7190 67.7162 -4.1586 4.3881 -4.9990
# 4 5.0852 -6.9341 -4.1586 43.6650 1.0236 5.4897
# 5 -20.1840 11.1462 4.3881 1.0236 22.5875 2.2959
# 6 -7.4918 31.1695 -4.9990 5.4897 2.2959 52.3881
#
#
#
# Elastic Compliance Matrix: (Units=1/GPa)
#
#
# Indices 1 2 3 4 5 6 
#
# 1 0.009003 -0.005806 -0.002480 -0.003012 0.011088 0.004335
# 2 -0.005806 0.020987 -0.000690 0.005961 -0.014321 -0.013380
# 3 -0.002480 -0.000690 0.016148 0.001632 -0.005255 0.001656
# 4 -0.003012 0.005961 0.001632 0.025284 -0.006467 -0.006188
# 5 0.011088 -0.014321 -0.005255 -0.006467 0.061791 0.007575
# 6 0.004335 -0.013380 0.001656 -0.006188 0.007575 0.028144
#
#
# Mechanical properties :
#
#
# Convention : Reuss Voigt Hill
#
# Bulk Modulus (GPa) = 35.48100 47.17901 41.33001
# Shear Modulus (GPa) = 26.49624 41.14016 33.81820
#
# Velocity S-wave (km/s) = 3.11982 3.88750 3.52462
# Velocity P-wave (km/s) = 5.10014 6.12219 5.63439
#
# Compressibility (1/GPa) = 0.02818410
#
# Stress axis : x y z
#
# Youngs Moduli (GPa) = 111.07337 47.64806 61.92746
#
# Poissons Ratio (x) = 0.27666 0.15359
# Poissons Ratio (y) = 0.64493 0.04276
# Poissons Ratio (z) = 0.27549 0.03290
#
# Static dielectric constant tensor:
#      x y z
#    x 2.089690 -0.006920 -0.093830 
#    y -0.006920 2.335100 0.212480 
#    z -0.093830 0.212480 2.120410 
# 
# From -- ./inp_files/123934.got.cif
#   From: 2010.05.17/outbox.cif.g08.bks.cpg/sg2_62_cif.got.tgz:123934.got - 2010.06.03 11:33:40.
