data_PCOD9089419
_publ_section_title
;
Structure prediction by ZEFSAII (Michael W. Deem and Ramdas Pophale) SiO2 
 PCOD9089419
Probable space group: P -1
;
_chemical_formula_sum "Si O2"
_cell_formula_units_Z 16
_cell_length_a 8.009655
_cell_length_b 8.101511
_cell_length_c 15.536170
_cell_angle_alpha 60.959324
_cell_angle_beta 132.967823
_cell_angle_gamma 127.418236
_cell_volume 581.472012
_symmetry_space_group_name_H-M "P -1"
_symmetry_group_IT_number 2
_symmetry_cell_setting 'triclinic'
loop_
_space_group_symop_operation_xyz
x,y,z
-x,-y,-z
loop_
_atom_site_type_symbol
_atom_site_label
_atom_site_fract_x
_atom_site_fract_y
_atom_site_fract_z
Si Si1 0.743241 0.484669 0.829711
Si Si2 0.094639 0.742759 0.404921
Si Si3 0.016672 0.138894 0.888294
Si Si4 0.348742 0.511492 0.821697
Si Si5 0.693316 0.678429 0.410871
Si Si6 0.643460 0.852414 0.523084
Si Si7 0.558854 0.027987 0.284700
Si Si8 0.788447 0.152399 0.045740
O O1 0.588504 0.520522 0.847998
O O2 0.574603 0.469356 0.690604
O O3 0.025353 0.664927 0.873421
O O4 0.778641 0.281253 0.924305
O O5 0.354842 0.723459 0.484019
O O6 0.894843 0.618305 0.292049
O O7 0.924344 0.660194 0.451299
O O8 0.190699 0.997511 0.381446
O O9 0.250449 0.366715 0.908576
O O10 0.081059 0.001954 0.876715
O O11 0.739754 0.122470 0.781208
O O12 0.000000 0.000000 0.000000
O O13 0.388346 0.747473 0.788854
O O14 0.713339 0.716801 0.511266
O O15 0.704111 0.904681 0.324748
O O16 0.633079 0.031261 0.409392
O O17 0.500000 0.000000 0.000000
#
# Coordination Sequence:
#
# PCOD9089419 Si02
#       8
#     2   2   2   2   2   2   2   2
#     4  10  21  39  63  94 123 170 223 266 320 401
#     4  10  19  37  72  93 129 180 209 272 334 383
#     4  12  24  41  63  90 134 168 217 276 329 389
#     4  11  21  40  67  95 125 179 220 259 339 390
#     4   9  20  39  64  93 136 171 217 267 324 390
#     4   9  20  38  65  99 134 164 224 268 326 392
#     4  10  22  41  61  94 134 165 220 271 319 395
#     4  11  22  39  64  91 124 166 220 268 327 386
#
# _framework density 27.516369999999998
#
# number of rings (size 3 to 8) (size 9 to 14) (size 15 to 20)
#    0.750    1.000    3.750    1.125    0.000    1.000 
#    0.000    6.250    5.500    1.500    0.000    0.000 
#    0.000    0.000    0.000    0.000    0.000    0.000 
#
# Total GULP energy -89442.320318 kJ/mol
# GULP energy per Si atom -5590.145020 kJ/mol
# Density = 2.745374 g / cm^3
# Si number density = 27.516370 Si / 1000 Ang^3
#
#
#
# Elastic Constant Matrix: (Units=GPa)
#
#
# Indices 1 2 3 4 5 6 
#
# 1 136.0003 40.2856 32.8377 7.2945 21.3384 2.1909
# 2 40.2856 141.9095 22.5228 13.3546 6.2493 39.4241
# 3 32.8377 22.5228 113.6826 17.7659 8.6266 5.9433
# 4 7.2945 13.3546 17.7659 66.5552 1.6814 6.2707
# 5 21.3384 6.2493 8.6266 1.6814 37.8383 -6.7627
# 6 2.1909 39.4241 5.9433 6.2707 -6.7627 45.1300
#
#
#
# Elastic Compliance Matrix: (Units=1/GPa)
#
#
# Indices 1 2 3 4 5 6 
#
# 1 0.009175 -0.002505 -0.001914 -0.000020 -0.004075 0.001387
# 2 -0.002505 0.010560 -0.000633 -0.000765 -0.001795 -0.009183
# 3 -0.001914 -0.000633 0.009933 -0.002239 -0.001073 -0.000512
# 4 -0.000020 -0.000765 -0.002239 0.015907 -0.000289 -0.001290
# 5 -0.004075 -0.001795 -0.001073 -0.000289 0.030444 0.006509
# 6 0.001387 -0.009183 -0.000512 -0.001290 0.006509 0.031335
#
#
# Mechanical properties :
#
#
# Convention : Reuss Voigt Hill
#
# Bulk Modulus (GPa) = 51.11271 64.76496 57.93884
# Shear Modulus (GPa) = 40.32924 49.63446 44.98185
#
# Velocity S-wave (km/s) = 3.83253 4.25174 4.04757
# Velocity P-wave (km/s) = 6.18062 6.90587 6.55329
#
# Compressibility (1/GPa) = 0.01956460
#
# Stress axis : x y z
#
# Youngs Moduli (GPa) = 108.98894 94.69338 100.67618
#
# Poissons Ratio (x) = 0.23719 0.19272
# Poissons Ratio (y) = 0.27300 0.06372
# Poissons Ratio (z) = 0.20863 0.05993
#
# Static dielectric constant tensor:
#      x y z
#    x 2.226520 0.000670 -0.099900 
#    y 0.000670 2.274380 -0.003320 
#    z -0.099900 -0.003320 2.213590 
# 
# From -- ./inp_files/587941.got.cif
#   From: 2010.05.17/outbox.cif.g08.bks.cpg/sg2_294_cif.got.tgz:587941.got - 2010.06.03 11:33:40.
