data_PCOD9089659
_publ_section_title
;
Structure prediction by ZEFSAII (Michael W. Deem and Ramdas Pophale) SiO2 
 PCOD9089659
Probable space group: P -1
;
_chemical_formula_sum "Si O2"
_cell_formula_units_Z 16
_cell_length_a 9.947911
_cell_length_b 8.194239
_cell_length_c 11.833410
_cell_angle_alpha 121.536461
_cell_angle_beta 74.823943
_cell_angle_gamma 73.291209
_cell_volume 679.689991
_symmetry_space_group_name_H-M "P -1"
_symmetry_group_IT_number 2
_symmetry_cell_setting 'triclinic'
loop_
_space_group_symop_operation_xyz
x,y,z
-x,-y,-z
loop_
_atom_site_type_symbol
_atom_site_label
_atom_site_fract_x
_atom_site_fract_y
_atom_site_fract_z
Si Si1 0.928808 0.757206 0.856036
Si Si2 0.602151 0.613687 0.550140
Si Si3 0.260496 0.409719 0.732739
Si Si4 0.057086 0.679552 0.559812
Si Si5 0.675643 0.224347 0.052922
Si Si6 0.235581 0.868427 0.266587
Si Si7 0.554315 0.887851 0.225473
Si Si8 0.680361 0.614717 0.869956
O O1 0.805234 0.678922 0.816440
O O2 0.065442 0.570897 0.838413
O O3 0.025006 0.762563 0.727284
O O4 0.811944 0.009676 0.013629
O O5 0.500000 0.500000 0.500000
O O6 0.681638 0.643099 0.428127
O O7 0.749225 0.452643 0.542779
O O8 0.491867 0.864840 0.708299
O O9 0.330412 0.557981 0.821110
O O10 0.334767 0.194456 0.717334
O O11 0.000000 0.500000 0.500000
O O12 0.934603 0.899762 0.596336
O O13 0.496362 0.263491 0.103539
O O14 0.730827 0.180752 0.893494
O O15 0.385788 0.892145 0.283685
O O16 0.247471 0.649223 0.236002
O O17 0.646923 0.712990 0.040999
#
# Coordination Sequence:
#
# PCOD9089659 Si02
#       8
#     2   2   2   2   2   2   2   2
#     4  10  24  35  58  95 122 153 199 251 298 349
#     4  11  26  41  62  91 117 161 207 242 294 363
#     4  11  22  41  60  84 128 161 194 238 315 356
#     4  10  21  43  65  81 122 163 198 247 300 347
#     4  10  19  38  60  87 120 161 194 245 299 350
#     4  10  19  39  66  89 116 157 205 243 294 356
#     4  11  21  41  63  86 127 162 192 246 302 357
#     4  11  21  38  64  96 116 152 210 248 292 349
#
# _framework density 23.540144000000002
#
# number of rings (size 3 to 8) (size 9 to 14) (size 15 to 20)
#    0.000    1.500    3.750    1.875    1.750    2.500 
#    0.000    0.625    0.000    0.000    0.000    0.000 
#    0.000    0.000    0.000    0.000    0.000    0.000 
#
# Total GULP energy -89535.268626 kJ/mol
# GULP energy per Si atom -5595.954289 kJ/mol
# Density = 2.348657 g / cm^3
# Si number density = 23.540144 Si / 1000 Ang^3
#
#
#
# Elastic Constant Matrix: (Units=GPa)
#
#
# Indices 1 2 3 4 5 6 
#
# 1 64.3882 2.0942 13.9251 9.6287 -7.7042 -11.6880
# 2 2.0942 96.2144 55.9425 29.2787 -18.0532 -18.1101
# 3 13.9251 55.9425 83.3201 23.9312 -9.1861 -7.3050
# 4 9.6287 29.2787 23.9312 41.7761 1.7426 0.0960
# 5 -7.7042 -18.0532 -9.1861 1.7426 33.5254 13.6879
# 6 -11.6880 -18.1101 -7.3050 0.0960 13.6879 39.6440
#
#
#
# Elastic Compliance Matrix: (Units=1/GPa)
#
#
# Indices 1 2 3 4 5 6 
#
# 1 0.018794 0.005916 -0.004352 -0.006173 0.004177 0.006014
# 2 0.005916 0.023751 -0.012060 -0.011467 0.008376 0.007508
# 3 -0.004352 -0.012060 0.021332 -0.002742 -0.000397 -0.002718
# 4 -0.006173 -0.011467 -0.002742 0.035321 -0.008216 -0.004812
# 5 0.004177 0.008376 -0.000397 -0.008216 0.039083 -0.008490
# 6 0.006014 0.007508 -0.002718 -0.004812 -0.008490 0.032869
#
#
# Mechanical properties :
#
#
# Convention : Reuss Voigt Hill
#
# Bulk Modulus (GPa) = 23.31877 43.09405 33.20641
# Shear Modulus (GPa) = 24.22019 34.45316 29.33668
#
# Velocity S-wave (km/s) = 3.21111 3.82984 3.53404
# Velocity P-wave (km/s) = 4.86577 6.15656 5.54883
#
# Compressibility (1/GPa) = 0.04288391
#
# Stress axis : x y z
#
# Youngs Moduli (GPa) = 53.20792 42.10282 46.87756
#
# Poissons Ratio (x) = -0.24906 0.20402
# Poissons Ratio (y) = -0.31476 0.56536
# Poissons Ratio (z) = 0.23157 0.50778
#
# Static dielectric constant tensor:
#      x y z
#    x 1.839700 -0.012650 -0.024000 
#    y -0.012650 1.904860 -0.029840 
#    z -0.024000 -0.029840 1.957650 
# 
# From -- ./inp_files/182357.got.cif
#   From: 2010.05.17/outbox.cif.g08.bks.cpg/sg2_92_cif.got.tgz:182357.got - 2010.06.03 11:33:40.
