data_PCOD9089118
_publ_section_title
;
Structure prediction by ZEFSAII (Michael W. Deem and Ramdas Pophale) SiO2 
 PCOD9089118
Probable space group: P -1
;
_chemical_formula_sum "Si O2"
_cell_formula_units_Z 14
_cell_length_a 11.450723
_cell_length_b 8.646181
_cell_length_c 11.024752
_cell_angle_alpha 57.863799
_cell_angle_beta 130.156507
_cell_angle_gamma 139.664546
_cell_volume 538.159673
_symmetry_space_group_name_H-M "P -1"
_symmetry_group_IT_number 2
_symmetry_cell_setting 'triclinic'
loop_
_space_group_symop_operation_xyz
x,y,z
-x,-y,-z
loop_
_atom_site_type_symbol
_atom_site_label
_atom_site_fract_x
_atom_site_fract_y
_atom_site_fract_z
Si Si1 0.249467 0.606489 0.958718
Si Si2 0.504561 0.075696 0.776330
Si Si3 0.287514 0.521606 0.602997
Si Si4 0.830057 0.251379 0.721724
Si Si5 0.791116 0.812778 0.510108
Si Si6 0.653268 0.714242 0.919848
Si Si7 0.993871 0.945640 0.217572
O O1 0.020623 0.476586 0.829752
O O2 0.381373 0.807640 0.858510
O O3 0.346003 0.746928 0.089693
O O4 0.259525 0.395695 0.044576
O O5 0.638416 0.130816 0.728057
O O6 0.346691 0.115174 0.626213
O O7 0.200625 0.650108 0.459166
O O8 0.310024 0.430904 0.528292
O O9 0.501148 0.695698 0.736174
O O10 0.137853 0.292361 0.685505
O O11 0.884478 0.091556 0.776107
O O12 0.000000 0.000000 0.500000
O O13 0.859815 0.835723 0.684552
O O14 0.500000 0.500000 0.000000
O O15 0.827411 0.927114 0.036937
#
# Coordination Sequence:
#
# PCOD9089118 Si02
#       7
#     2   2   2   2   2   2   2
#     4  10  21  42  65  93 128 169 217 266 322 381
#     4  11  23  39  68  96 125 172 219 266 321 388
#     4  10  19  37  65  92 127 171 214 265 327 380
#     4  11  23  40  67  95 131 168 221 266 320 390
#     4  10  20  37  61  95 129 164 215 266 321 381
#     4   9  18  36  64  90 122 171 215 258 325 384
#     4   9  20  37  63  89 132 171 214 264 319 385
#
# _framework density 26.014583999999999
#
# number of rings (size 3 to 8) (size 9 to 14) (size 15 to 20)
#    0.000    2.000    1.429    2.571    0.000    3.429 
#    0.000    0.000    3.143    5.143    0.000    0.000 
#    0.000    0.000    0.000    0.000    0.000    0.000 
#
# Total GULP energy -78488.192134 kJ/mol
# GULP energy per Si atom -5606.299438 kJ/mol
# Density = 2.595537 g / cm^3
# Si number density = 26.014584 Si / 1000 Ang^3
#
#
#
# Elastic Constant Matrix: (Units=GPa)
#
#
# Indices 1 2 3 4 5 6 
#
# 1 129.5346 35.5965 49.5562 20.8388 -2.8287 14.8476
# 2 35.5965 99.2146 54.8341 28.1387 -1.2257 4.4400
# 3 49.5562 54.8341 184.6703 38.8173 9.7016 -2.2199
# 4 20.8388 28.1387 38.8173 49.7166 2.3980 -1.3036
# 5 -2.8287 -1.2257 9.7016 2.3980 49.5870 -1.6500
# 6 14.8476 4.4400 -2.2199 -1.3036 -1.6500 44.1496
#
#
#
# Elastic Compliance Matrix: (Units=1/GPa)
#
#
# Indices 1 2 3 4 5 6 
#
# 1 0.009540 -0.001822 -0.001735 -0.001735 0.000818 -0.003133
# 2 -0.001822 0.013631 -0.002565 -0.005020 0.000944 -0.001000
# 3 -0.001735 -0.002565 0.007479 -0.003564 -0.001418 0.001059
# 4 -0.001735 -0.005020 -0.003564 0.026545 -0.000754 0.001665
# 5 0.000818 0.000944 -0.001418 -0.000754 0.020561 0.000305
# 6 -0.003133 -0.001000 0.001059 0.001665 0.000305 0.023918
#
#
# Mechanical properties :
#
#
# Convention : Reuss Voigt Hill
#
# Bulk Modulus (GPa) = 54.32971 77.04367 65.68669
# Shear Modulus (GPa) = 41.64835 46.91946 44.28391
#
# Velocity S-wave (km/s) = 4.00554 4.25147 4.13034
# Velocity P-wave (km/s) = 6.50555 7.33347 6.93188
#
# Compressibility (1/GPa) = 0.01840614
#
# Stress axis : x y z
#
# Youngs Moduli (GPa) = 104.81654 73.36476 133.71358
#
# Poissons Ratio (x) = 0.13364 0.23204
# Poissons Ratio (y) = 0.19093 0.34296
# Poissons Ratio (z) = 0.18189 0.18817
#
# Static dielectric constant tensor:
#      x y z
#    x 2.041800 0.036920 -0.034650 
#    y 0.036920 2.123710 -0.063100 
#    z -0.034650 -0.063100 2.000460 
# 
# From -- ./inp_files/392612.got.cif
#   From: 2010.05.17/outbox.cif.g08.bks.cpg/sg2_197_cif.got.tgz:392612.got - 2010.06.03 11:33:40.
