data_PCOD9089906
_publ_section_title
;
Structure prediction by ZEFSAII (Michael W. Deem and Ramdas Pophale) SiO2 
 PCOD9089906
Probable space group: P -1
;
_chemical_formula_sum "Si O2"
_cell_formula_units_Z 16
_cell_length_a 10.458538
_cell_length_b 8.895287
_cell_length_c 11.489494
_cell_angle_alpha 80.346284
_cell_angle_beta 38.646481
_cell_angle_gamma 73.866140
_cell_volume 639.071396
_symmetry_space_group_name_H-M "P -1"
_symmetry_group_IT_number 2
_symmetry_cell_setting 'triclinic'
loop_
_space_group_symop_operation_xyz
x,y,z
-x,-y,-z
loop_
_atom_site_type_symbol
_atom_site_label
_atom_site_fract_x
_atom_site_fract_y
_atom_site_fract_z
Si Si1 0.555261 0.927645 0.821593
Si Si2 0.201340 0.570780 0.333774
Si Si3 0.842312 0.436781 0.895707
Si Si4 0.792287 0.752352 0.033446
Si Si5 0.074569 0.970941 0.814682
Si Si6 0.293742 0.236415 0.640911
Si Si7 0.484103 0.683253 0.725908
Si Si8 0.200155 0.901797 0.234410
O O1 0.573807 0.815068 0.713172
O O2 0.390687 0.093390 0.889195
O O3 0.765560 0.962545 0.720724
O O4 0.432774 0.851530 0.015895
O O5 0.262576 0.541500 0.158709
O O6 0.375493 0.483396 0.311191
O O7 0.156485 0.756624 0.353524
O O8 0.000000 0.500000 0.500000
O O9 0.086725 0.351225 0.716192
O O10 0.808708 0.602367 0.961433
O O11 0.742214 0.320966 0.061660
O O12 0.731122 0.718924 0.212333
O O13 0.015586 0.802601 0.862552
O O14 0.952611 0.051435 0.773277
O O15 0.266612 0.058425 0.668491
O O16 0.000000 0.000000 0.000000
O O17 0.492131 0.275894 0.430044
#
# Coordination Sequence:
#
# PCOD9089906 Si02
#       8
#     2   2   2   2   2   2   2   2
#     4  10  22  39  63  98 128 171 222 267 333 385
#     4  12  23  41  64  95 135 170 221 269 331 397
#     4  12  23  43  67  95 134 173 219 274 336 388
#     4  10  23  41  69  96 132 177 215 277 330 394
#     4   9  18  38  63  87 124 171 210 262 325 379
#     4  11  23  46  66  98 132 172 230 266 330 397
#     4  12  25  41  69  96 133 178 217 281 327 396
#     4  10  19  38  62  89 132 165 217 268 317 392
#
# _framework density 25.036324
#
# number of rings (size 3 to 8) (size 9 to 14) (size 15 to 20)
#    0.000    1.250    3.750    2.250    5.250    1.000 
#    2.250    1.250    0.000    0.000    0.000    0.000 
#    0.000    0.000    0.000    0.000    0.000    0.000 
#
# Total GULP energy -89427.226907 kJ/mol
# GULP energy per Si atom -5589.201682 kJ/mol
# Density = 2.497934 g / cm^3
# Si number density = 25.036324 Si / 1000 Ang^3
#
#
#
# Elastic Constant Matrix: (Units=GPa)
#
#
# Indices 1 2 3 4 5 6 
#
# 1 61.6533 28.9771 10.4611 0.6036 -3.1938 -6.6445
# 2 28.9771 116.5311 47.3452 -11.7694 7.7328 15.7709
# 3 10.4611 47.3452 110.9057 -26.5022 0.2094 -0.6058
# 4 0.6036 -11.7694 -26.5022 32.6358 -0.7757 3.5365
# 5 -3.1938 7.7328 0.2094 -0.7757 27.5388 -7.5211
# 6 -6.6445 15.7709 -0.6058 3.5365 -7.5211 49.7303
#
#
#
# Elastic Compliance Matrix: (Units=1/GPa)
#
#
# Indices 1 2 3 4 5 6 
#
# 1 0.020253 -0.006603 0.000188 -0.003105 0.005722 0.005888
# 2 -0.006603 0.013616 -0.004817 0.001658 -0.006232 -0.006319
# 3 0.000188 -0.004817 0.013175 0.008855 0.001898 0.001370
# 4 -0.003105 0.001658 0.008855 0.038871 -0.000814 -0.003720
# 5 0.005722 -0.006232 0.001898 -0.000814 0.041159 0.009047
# 6 0.005888 -0.006319 0.001370 -0.003720 0.009047 0.024549
#
#
# Mechanical properties :
#
#
# Convention : Reuss Voigt Hill
#
# Bulk Modulus (GPa) = 40.68198 51.40632 46.04415
# Shear Modulus (GPa) = 27.43039 35.46810 31.44925
#
# Velocity S-wave (km/s) = 3.31361 3.76795 3.54806
# Velocity P-wave (km/s) = 5.56098 6.28547 5.93429
#
# Compressibility (1/GPa) = 0.02458091
#
# Stress axis : x y z
#
# Youngs Moduli (GPa) = 49.37654 73.44119 75.90095
#
# Poissons Ratio (x) = 0.48490 -0.01424
# Poissons Ratio (y) = 0.32601 0.36558
# Poissons Ratio (z) = -0.00926 0.35373
#
# Static dielectric constant tensor:
#      x y z
#    x 2.018680 -0.040400 -0.024610 
#    y -0.040400 1.983830 0.011580 
#    z -0.024610 0.011580 1.999070 
# 
# From -- ./inp_files/417010.got.cif
#   From: 2010.05.17/outbox.cif.g08.bks.cpg/sg2_209_cif.got.tgz:417010.got - 2010.06.03 11:33:40.
