data_PCOD9089604
_publ_section_title
;
Structure prediction by ZEFSAII (Michael W. Deem and Ramdas Pophale) SiO2 
 PCOD9089604
Probable space group: P -1
;
_chemical_formula_sum "Si O2"
_cell_formula_units_Z 14
_cell_length_a 10.250592
_cell_length_b 13.168874
_cell_length_c 7.289732
_cell_angle_alpha 130.580897
_cell_angle_beta 135.938784
_cell_angle_gamma 57.333148
_cell_volume 514.843134
_symmetry_space_group_name_H-M "P -1"
_symmetry_group_IT_number 2
_symmetry_cell_setting 'triclinic'
loop_
_space_group_symop_operation_xyz
x,y,z
-x,-y,-z
loop_
_atom_site_type_symbol
_atom_site_label
_atom_site_fract_x
_atom_site_fract_y
_atom_site_fract_z
Si Si1 0.547746 0.639525 0.638142
Si Si2 0.624480 0.735439 0.447221
Si Si3 0.286606 0.952335 0.410309
Si Si4 0.766967 0.120456 0.335926
Si Si5 0.898892 0.565473 0.290345
Si Si6 0.040731 0.833670 0.758967
Si Si7 0.936573 0.703163 0.014749
O O1 0.500000 0.500000 0.500000
O O2 0.526355 0.652928 0.409733
O O3 0.763870 0.665113 0.920343
O O4 0.407805 0.762363 0.723500
O O5 0.693498 0.641762 0.234295
O O6 0.818726 0.751249 0.769102
O O7 0.489380 0.876923 0.462564
O O8 0.289915 0.966574 0.652323
O O9 0.150276 0.845991 0.073497
O O10 0.173246 0.090755 0.383199
O O11 0.837136 0.084322 0.160555
O O12 0.950211 0.182286 0.666505
O O13 0.030751 0.680551 0.509611
O O14 0.000000 0.500000 0.500000
O O15 0.920583 0.433823 0.031327
#
# Coordination Sequence:
#
# PCOD9089604 Si02
#       7
#     2   2   2   2   2   2   2
#     4   9  19  35  58  92 127 167 211 253 312 387
#     4   8  19  38  61  86 132 167 206 269 314 365
#     4  10  22  45  63  94 129 167 223 269 308 380
#     4  11  22  43  68  92 132 170 209 271 320 376
#     4  10  19  38  59  93 129 164 210 258 321 383
#     4  11  24  39  69  93 124 178 215 259 330 375
#     4   9  20  39  62  92 130 167 204 259 328 376
#
# _framework density 27.192747000000001
#
# number of rings (size 3 to 8) (size 9 to 14) (size 15 to 20)
#    0.857    1.429    0.000    3.000    0.000    2.857 
#    7.714    3.571    0.000    0.000    0.000    0.000 
#    0.000    0.000    0.000    0.000    0.000    0.000 
#
# Total GULP energy -78288.415511 kJ/mol
# GULP energy per Si atom -5592.029679 kJ/mol
# Density = 2.713086 g / cm^3
# Si number density = 27.192747 Si / 1000 Ang^3
#
#
#
# Elastic Constant Matrix: (Units=GPa)
#
#
# Indices 1 2 3 4 5 6 
#
# 1 144.4985 40.6109 8.9947 -14.1056 4.8221 -30.4934
# 2 40.6109 124.3180 16.9699 -27.4562 8.1409 -17.9282
# 3 8.9947 16.9699 69.5454 -12.2392 7.4545 1.2321
# 4 -14.1056 -27.4562 -12.2392 43.3817 -4.0984 5.3150
# 5 4.8221 8.1409 7.4545 -4.0984 39.2086 -11.2712
# 6 -30.4934 -17.9282 1.2321 5.3150 -11.2712 52.0840
#
#
#
# Elastic Compliance Matrix: (Units=1/GPa)
#
#
# Indices 1 2 3 4 5 6 
#
# 1 0.008488 -0.001901 -0.000641 0.000914 0.000838 0.004419
# 2 -0.001901 0.010303 -0.001312 0.005256 -0.000589 0.001801
# 3 -0.000641 -0.001312 0.015729 0.003390 -0.002910 -0.002175
# 4 0.000914 0.005256 0.003390 0.027766 0.000949 -0.000364
# 5 0.000838 -0.000589 -0.002910 0.000949 0.027992 0.006318
# 6 0.004419 0.001801 -0.002175 -0.000364 0.006318 0.023862
#
#
# Mechanical properties :
#
#
# Convention : Reuss Voigt Hill
#
# Bulk Modulus (GPa) = 37.29687 52.39034 44.84361
# Shear Modulus (GPa) = 38.22993 45.05396 41.64195
#
# Velocity S-wave (km/s) = 3.75358 4.07484 3.91751
# Velocity P-wave (km/s) = 5.70363 6.43795 6.08188
#
# Compressibility (1/GPa) = 0.02681190
#
# Stress axis : x y z
#
# Youngs Moduli (GPa) = 117.80757 97.05758 63.57565
#
# Poissons Ratio (x) = 0.18453 0.04077
# Poissons Ratio (y) = 0.22398 0.08341
# Poissons Ratio (z) = 0.07555 0.12733
#
# Static dielectric constant tensor:
#      x y z
#    x 2.280450 0.052060 -0.106440 
#    y 0.052060 2.066560 -0.025340 
#    z -0.106440 -0.025340 2.136520 
# 
# From -- ./inp_files/268713.got.cif
#   From: 2010.05.17/outbox.cif.g08.bks.cpg/sg2_135_cif.got.tgz:268713.got - 2010.06.03 11:33:40.
