data_PCOD9089371
_publ_section_title
;
Structure prediction by ZEFSAII (Michael W. Deem and Ramdas Pophale) SiO2 
 PCOD9089371
Probable space group: P -1
;
_chemical_formula_sum "Si O2"
_cell_formula_units_Z 14
_cell_length_a 11.657620
_cell_length_b 11.784643
_cell_length_c 8.681777
_cell_angle_alpha 41.101386
_cell_angle_beta 125.834927
_cell_angle_gamma 120.923477
_cell_volume 629.712921
_symmetry_space_group_name_H-M "P -1"
_symmetry_group_IT_number 2
_symmetry_cell_setting 'triclinic'
loop_
_space_group_symop_operation_xyz
x,y,z
-x,-y,-z
loop_
_atom_site_type_symbol
_atom_site_label
_atom_site_fract_x
_atom_site_fract_y
_atom_site_fract_z
Si Si1 0.956737 0.713920 0.291926
Si Si2 0.268510 0.111109 0.946056
Si Si3 0.703795 0.227231 0.535059
Si Si4 0.281384 0.669101 0.912196
Si Si5 0.137586 0.915570 0.759472
Si Si6 0.454097 0.473731 0.809359
Si Si7 0.022838 0.424647 0.854303
O O1 0.890387 0.879279 0.124386
O O2 0.887545 0.637363 0.157094
O O3 0.123727 0.742408 0.353593
O O4 0.940290 0.572242 0.561187
O O5 0.349828 0.298562 0.863610
O O6 0.236259 0.051017 0.807566
O O7 0.341360 0.966090 0.240955
O O8 0.681203 0.257526 0.305622
O O9 0.629226 0.359985 0.445155
O O10 0.242228 0.834456 0.806161
O O11 0.137253 0.531427 0.945717
O O12 0.408711 0.553981 0.158127
O O13 0.000000 0.000000 0.500000
O O14 0.068115 0.744243 0.974685
O O15 0.500000 0.500000 0.000000
#
# Coordination Sequence:
#
# PCOD9089371 Si02
#       7
#     2   2   2   2   2   2   2
#     4  10  19  37  69 101 122 162 224 281 326 373
#     4  12  24  39  71  98 134 170 218 279 322 387
#     4  10  21  41  68  99 125 168 229 273 321 380
#     4  10  23  42  62  92 136 177 214 265 330 393
#     4  12  26  41  62 104 138 168 217 271 336 394
#     4  10  23  45  66  95 132 172 228 267 318 392
#     4  10  20  39  68  93 130 170 217 274 331 381
#
# _framework density 22.232354999999998
#
# number of rings (size 3 to 8) (size 9 to 14) (size 15 to 20)
#    0.000    1.429    1.429    6.000    2.000    2.857 
#    2.571    0.714    0.000    0.000    0.000    0.000 
#    0.000    0.000    0.000    0.000    0.000    0.000 
#
# Total GULP energy -78050.634754 kJ/mol
# GULP energy per Si atom -5575.045340 kJ/mol
# Density = 2.218175 g / cm^3
# Si number density = 22.232355 Si / 1000 Ang^3
#
#
#
# Elastic Constant Matrix: (Units=GPa)
#
#
# Indices 1 2 3 4 5 6 
#
# 1 109.4643 52.2419 38.9997 -10.2990 35.0179 -32.3250
# 2 52.2419 124.2010 28.3108 -11.0749 14.1939 -29.6200
# 3 38.9997 28.3108 104.7710 -29.9707 14.5891 -11.3159
# 4 -10.2990 -11.0749 -29.9707 26.4227 -9.7431 13.3641
# 5 35.0179 14.1939 14.5891 -9.7431 32.9907 -12.8180
# 6 -32.3250 -29.6200 -11.3159 13.3641 -12.8180 35.3955
#
#
#
# Elastic Compliance Matrix: (Units=1/GPa)
#
#
# Indices 1 2 3 4 5 6 
#
# 1 0.021639 -0.003451 -0.007479 -0.014841 -0.017171 0.013868
# 2 -0.003451 0.011177 -0.001619 -0.001271 0.001850 0.006834
# 3 -0.007479 -0.001619 0.017720 0.022836 0.003740 -0.009787
# 4 -0.014841 -0.001271 0.022836 0.079616 0.017680 -0.030974
# 5 -0.017171 0.001850 0.003740 0.017680 0.050843 -0.001202
# 6 0.013868 0.006834 -0.009787 -0.030974 -0.001202 0.054767
#
#
# Mechanical properties :
#
#
# Convention : Reuss Voigt Hill
#
# Bulk Modulus (GPa) = 39.30855 64.17122 51.73988
# Shear Modulus (GPa) = 18.56393 33.55404 26.05898
#
# Velocity S-wave (km/s) = 2.89276 3.88911 3.42734
# Velocity P-wave (km/s) = 5.37370 7.00667 6.24380
#
# Compressibility (1/GPa) = 0.02543976
#
# Stress axis : x y z
#
# Youngs Moduli (GPa) = 46.21276 89.46963 56.43201
#
# Poissons Ratio (x) = 0.30874 0.42205
# Poissons Ratio (y) = 0.15947 0.09134
# Poissons Ratio (z) = 0.34562 0.14482
#
# Static dielectric constant tensor:
#      x y z
#    x 1.908600 0.027900 0.031560 
#    y 0.027900 1.908310 0.056370 
#    z 0.031560 0.056370 1.885070 
# 
# From -- ./inp_files/256152.got.cif
#   From: 2010.05.17/outbox.cif.g08.bks.cpg/sg2_129_cif.got.tgz:256152.got - 2010.06.03 11:33:40.
