data_PCOD9089786
_publ_section_title
;
Structure prediction by ZEFSAII (Michael W. Deem and Ramdas Pophale) SiO2 
 PCOD9089786
Probable space group: P -1
;
_chemical_formula_sum "Si O2"
_cell_formula_units_Z 14
_cell_length_a 7.630229
_cell_length_b 11.882876
_cell_length_c 11.005029
_cell_angle_alpha 75.392654
_cell_angle_beta 45.596456
_cell_angle_gamma 93.457487
_cell_volume 648.109314
_symmetry_space_group_name_H-M "P -1"
_symmetry_group_IT_number 2
_symmetry_cell_setting 'triclinic'
loop_
_space_group_symop_operation_xyz
x,y,z
-x,-y,-z
loop_
_atom_site_type_symbol
_atom_site_label
_atom_site_fract_x
_atom_site_fract_y
_atom_site_fract_z
Si Si1 0.741596 0.606548 0.907357
Si Si2 0.407765 0.782682 0.600606
Si Si3 0.562721 0.721761 0.283992
Si Si4 0.572737 0.481147 0.271609
Si Si5 0.114335 0.151240 0.125939
Si Si6 0.999852 0.663905 0.516593
Si Si7 0.060932 0.076914 0.573048
O O1 0.699337 0.737563 0.910660
O O2 0.954313 0.630007 0.691336
O O3 0.500000 0.500000 0.000000
O O4 0.749174 0.553002 0.052412
O O5 0.513927 0.788588 0.409801
O O6 0.354948 0.639076 0.699152
O O7 0.158589 0.824509 0.727477
O O8 0.636185 0.869930 0.550749
O O9 0.620923 0.594146 0.312944
O O10 0.294349 0.671036 0.349438
O O11 0.782116 0.816057 0.068738
O O12 0.261897 0.422263 0.401584
O O13 0.088061 0.017411 0.223375
O O14 0.013677 0.802515 0.444314
O O15 0.000000 0.000000 0.500000
#
# Coordination Sequence:
#
# PCOD9089786 Si02
#       7
#     2   2   2   2   2   2   2
#     4   9  17  34  59  87 118 154 197 245 293 351
#     4  11  23  42  62  90 126 162 200 257 303 361
#     4  11  22  39  62  90 128 160 200 251 310 360
#     4   9  21  36  62  90 123 163 203 245 307 362
#     4  11  23  40  63  92 123 162 206 247 305 362
#     4  10  19  38  61  90 124 160 204 254 296 359
#     4  11  22  41  68  88 118 165 210 250 306 361
#
# _framework density 21.601295
#
# number of rings (size 3 to 8) (size 9 to 14) (size 15 to 20)
#    0.000    1.714    2.857    1.286    0.000    3.429 
#    2.571    2.857    0.000    0.000    0.000    0.000 
#    0.000    0.000    0.000    0.000    0.000    0.000 
#
# Total GULP energy -78058.486731 kJ/mol
# GULP energy per Si atom -5575.606195 kJ/mol
# Density = 2.155213 g / cm^3
# Si number density = 21.601295 Si / 1000 Ang^3
#
#
#
# Elastic Constant Matrix: (Units=GPa)
#
#
# Indices 1 2 3 4 5 6 
#
# 1 62.6840 34.3691 27.1601 -1.6688 -2.5876 4.5173
# 2 34.3691 102.5742 55.9801 -21.6840 0.3338 -0.8684
# 3 27.1601 55.9801 138.8576 -10.5684 17.7234 -5.1698
# 4 -1.6688 -21.6840 -10.5684 40.7496 -2.2253 8.5043
# 5 -2.5876 0.3338 17.7234 -2.2253 22.6740 -8.0643
# 6 4.5173 -0.8684 -5.1698 8.5043 -8.0643 21.8393
#
#
#
# Elastic Compliance Matrix: (Units=1/GPa)
#
#
# Indices 1 2 3 4 5 6 
#
# 1 0.020582 -0.006224 -0.002160 -0.002226 0.002803 -0.003114
# 2 -0.006224 0.016252 -0.005260 0.007407 0.003578 -0.000875
# 3 -0.002160 -0.005260 0.010815 -0.000512 -0.008757 -0.000237
# 4 -0.002226 0.007407 -0.000512 0.030641 -0.001122 -0.011712
# 5 0.002803 0.003578 -0.008757 -0.001122 0.057983 0.019337
# 6 -0.003114 -0.000875 -0.000237 -0.011712 0.019337 0.058043
#
#
# Mechanical properties :
#
#
# Convention : Reuss Voigt Hill
#
# Bulk Modulus (GPa) = 49.11256 59.90383 54.50820
# Shear Modulus (GPa) = 21.89240 29.49300 25.69270
#
# Velocity S-wave (km/s) = 3.18697 3.69905 3.45252
# Velocity P-wave (km/s) = 6.02724 6.78497 6.41730
#
# Compressibility (1/GPa) = 0.02036139
#
# Stress axis : x y z
#
# Youngs Moduli (GPa) = 48.58585 61.53148 92.46748
#
# Poissons Ratio (x) = 0.38295 0.19971
# Poissons Ratio (y) = 0.30238 0.48638
# Poissons Ratio (z) = 0.10494 0.32366
#
# Static dielectric constant tensor:
#      x y z
#    x 1.824530 0.027310 -0.003950 
#    y 0.027310 1.835310 0.001970 
#    z -0.003950 0.001970 1.817850 
# 
# From -- ./inp_files/276917.got.cif
#   From: 2010.05.17/outbox.cif.g08.bks.cpg/sg2_139_cif.got.tgz:276917.got - 2010.06.03 11:33:40.
