data_PCOD9089423
_publ_section_title
;
Structure prediction by ZEFSAII (Michael W. Deem and Ramdas Pophale) SiO2 
 PCOD9089423
Probable space group: P -1
;
_chemical_formula_sum "Si O2"
_cell_formula_units_Z 16
_cell_length_a 6.048476
_cell_length_b 30.081783
_cell_length_c 6.350858
_cell_angle_alpha 54.691189
_cell_angle_beta 105.566862
_cell_angle_gamma 130.714486
_cell_volume 703.629658
_symmetry_space_group_name_H-M "P -1"
_symmetry_group_IT_number 2
_symmetry_cell_setting 'triclinic'
loop_
_space_group_symop_operation_xyz
x,y,z
-x,-y,-z
loop_
_atom_site_type_symbol
_atom_site_label
_atom_site_fract_x
_atom_site_fract_y
_atom_site_fract_z
Si Si1 0.683639 0.944886 0.679799
Si Si2 0.304482 0.166337 0.793464
Si Si3 0.839668 0.668999 0.107046
Si Si4 0.735913 0.483015 0.638156
Si Si5 0.254481 0.712357 0.740799
Si Si6 0.132730 0.617194 0.601927
Si Si7 0.665299 0.731248 0.173460
Si Si8 0.286091 0.954289 0.261345
O O1 0.426295 0.927566 0.509921
O O2 0.708242 0.990019 0.755369
O O3 0.632419 0.876360 0.930756
O O4 0.000000 0.000000 0.500000
O O5 0.575208 0.224935 0.554514
O O6 0.225097 0.204656 0.822169
O O7 0.032110 0.109859 0.729649
O O8 0.496590 0.601183 0.173706
O O9 0.887169 0.726768 0.114996
O O10 0.990609 0.641978 0.344893
O O11 0.985701 0.698807 0.835849
O O12 0.500000 0.500000 0.500000
O O13 0.000000 0.500000 0.500000
O O14 0.927976 0.534389 0.741259
O O15 0.145432 0.644104 0.763926
O O16 0.476381 0.728827 0.939810
O O17 0.457900 0.661644 0.458764
O O18 0.500000 0.000000 0.000000
#
# Coordination Sequence:
#
# PCOD9089423 Si02
#       8
#     2   2   2   2   2   2   2   2
#     4  11  25  47  74 103 141 172 226 297 341 426
#     4  11  25  47  69  98 143 186 226 288 362 421
#     4  10  21  42  67  94 138 182 239 295 351 430
#     4  10  19  37  73 100 138 191 246 307 374 423
#     4  10  24  43  61  96 140 181 236 287 355 430
#     4   9  20  41  63  95 135 182 236 296 361 414
#     4  10  22  43  62  95 138 179 234 287 344 433
#     4  11  25  47  73 107 135 176 231 286 356 419
#
# _framework density 22.739235999999998
#
# number of rings (size 3 to 8) (size 9 to 14) (size 15 to 20)
#    0.000    1.750    2.500    0.375    1.750    2.500 
#   18.000    0.625    0.000    0.000    0.000    0.000 
#    0.000    0.000    0.000    0.000    0.000    0.000 
#
# Total GULP energy -89389.713042 kJ/mol
# GULP energy per Si atom -5586.857065 kJ/mol
# Density = 2.268748 g / cm^3
# Si number density = 22.739236 Si / 1000 Ang^3
#
#
#
# Elastic Constant Matrix: (Units=GPa)
#
#
# Indices 1 2 3 4 5 6 
#
# 1 105.6575 49.0811 48.3387 -7.6131 -35.4232 -27.7966
# 2 49.0811 68.3889 75.8037 14.7409 26.3728 19.8016
# 3 48.3387 75.8037 64.6155 -1.5399 -31.1260 -32.2229
# 4 -7.6131 14.7409 -1.5399 21.4577 -14.4688 -9.5503
# 5 -35.4232 26.3728 -31.1260 -14.4688 17.3140 -9.2270
# 6 -27.7966 19.8016 -32.2229 -9.5503 -9.2270 18.3238
#
#
#
# Elastic Compliance Matrix: (Units=1/GPa)
#
#
# Indices 1 2 3 4 5 6 
#
# 1 0.015604 0.003201 -0.014502 0.003865 0.003368 -0.001579
# 2 0.003201 0.005051 0.000027 0.007163 0.008995 0.007707
# 3 -0.014502 0.000027 0.017670 -0.014313 -0.012381 -0.004648
# 4 0.003865 0.007163 -0.014313 0.038377 -0.000572 -0.007334
# 5 0.003368 0.008995 -0.012381 -0.000572 0.019119 -0.017056
# 6 -0.001579 0.007707 -0.004648 -0.007334 -0.017056 0.023266
#
#
# Mechanical properties :
#
#
# Convention : Reuss Voigt Hill
#
# Bulk Modulus (GPa) = 63.38158 65.01210 64.19684
# Shear Modulus (GPa) = 34.03779 15.78166 24.90972
#
# Velocity S-wave (km/s) = 3.87314 2.63730 3.31335
# Velocity P-wave (km/s) = 6.92354 6.15842 6.55216
#
# Compressibility (1/GPa) = 0.01577746
#
# Stress axis : x y z
#
# Youngs Moduli (GPa) = 64.08476 197.96923 56.59188
#
# Poissons Ratio (x) = -0.63365 0.82068
# Poissons Ratio (y) = -0.20512 -0.00151
# Poissons Ratio (z) = 0.92934 -0.00529
#
# Static dielectric constant tensor:
#      x y z
#    x 1.971280 0.040540 0.031990 
#    y 0.040540 1.834280 -0.005500 
#    z 0.031990 -0.005500 1.821310 
# 
# From -- ./inp_files/14400.got.cif
#   From: 2010.05.17/outbox.cif.g08.bks.cpg/sg2_8_cif.got.tgz:14400.got - 2010.06.03 11:33:40.
