data_PCOD9089046
_publ_section_title
;
Structure prediction by ZEFSAII (Michael W. Deem and Ramdas Pophale) SiO2 
 PCOD9089046
Probable space group: P -1
;
_chemical_formula_sum "Si O2"
_cell_formula_units_Z 16
_cell_length_a 14.752962
_cell_length_b 5.167640
_cell_length_c 9.633375
_cell_angle_alpha 74.650716
_cell_angle_beta 62.439326
_cell_angle_gamma 63.451817
_cell_volume 580.881164
_symmetry_space_group_name_H-M "P -1"
_symmetry_group_IT_number 2
_symmetry_cell_setting 'triclinic'
loop_
_space_group_symop_operation_xyz
x,y,z
-x,-y,-z
loop_
_atom_site_type_symbol
_atom_site_label
_atom_site_fract_x
_atom_site_fract_y
_atom_site_fract_z
Si Si1 0.004709 0.569951 0.752844
Si Si2 0.102829 0.757161 0.293038
Si Si3 0.213349 0.685947 0.656121
Si Si4 0.590100 0.716141 0.575810
Si Si5 0.406676 0.779690 0.153413
Si Si6 0.816093 0.434517 0.026249
Si Si7 0.411803 0.040705 0.841028
Si Si8 0.235091 0.169015 0.408170
O O1 0.991034 0.354273 0.678604
O O2 0.128222 0.524298 0.713828
O O3 0.946290 0.902412 0.692912
O O4 0.923532 0.520197 0.932960
O O5 0.166366 0.509606 0.393147
O O6 0.181792 0.698906 0.108690
O O7 0.343278 0.487939 0.567706
O O8 0.183668 0.787152 0.821056
O O9 0.186537 0.940115 0.528083
O O10 0.606119 0.489996 0.724572
O O11 0.463190 0.925141 0.668178
O O12 0.667247 0.882727 0.542781
O O13 0.506326 0.832152 0.155654
O O14 0.295579 0.053582 0.235359
O O15 0.415515 0.785206 0.981022
O O16 0.709178 0.715380 0.100458
#
# Coordination Sequence:
#
# PCOD9089046 Si02
#       8
#     2   2   2   2   2   2   2   2
#     4  10  25  45  72 101 134 180 232 284 338 397
#     4  10  24  43  70 103 129 174 236 284 330 396
#     4  11  25  44  63  96 141 182 222 276 347 412
#     4  10  23  37  64  94 136 177 218 275 348 405
#     4   9  18  37  60  96 129 168 223 281 339 392
#     4  10  24  43  68 100 134 180 230 281 333 411
#     4  10  19  37  64  97 129 173 225 278 338 397
#     4  10  22  39  65  96 136 177 223 281 344 402
#
# _framework density 27.544357999999999
#
# number of rings (size 3 to 8) (size 9 to 14) (size 15 to 20)
#    0.750    1.250    1.250    0.750    7.000    4.000 
#    0.000    5.625    0.000    0.000    0.000    0.000 
#    0.000    0.000    0.000    0.000    0.000    0.000 
#
# Total GULP energy -89448.926252 kJ/mol
# GULP energy per Si atom -5590.557891 kJ/mol
# Density = 2.748167 g / cm^3
# Si number density = 27.544358 Si / 1000 Ang^3
#
#
#
# Elastic Constant Matrix: (Units=GPa)
#
#
# Indices 1 2 3 4 5 6 
#
# 1 63.9841 14.1703 23.8199 -0.1135 -18.3009 -5.3556
# 2 14.1703 127.4505 26.3878 18.2405 -19.0345 -12.8382
# 3 23.8199 26.3878 174.6576 22.9211 -8.3543 -3.6359
# 4 -0.1135 18.2405 22.9211 37.2495 2.6057 -13.5261
# 5 -18.3009 -19.0345 -8.3543 2.6057 37.7101 -0.8618
# 6 -5.3556 -12.8382 -3.6359 -13.5261 -0.8618 38.7809
#
#
#
# Elastic Compliance Matrix: (Units=1/GPa)
#
#
# Indices 1 2 3 4 5 6 
#
# 1 0.019345 -0.000368 -0.002408 0.002329 0.008584 0.003327
# 2 -0.000368 0.009469 -0.000594 -0.003972 0.004784 0.001749
# 3 -0.002408 -0.000594 0.006702 -0.004377 0.000286 -0.001421
# 4 0.002329 -0.003972 -0.004377 0.035762 -0.004064 0.010979
# 5 0.008584 0.004784 0.000286 -0.004064 0.033491 0.002122
# 6 0.003327 0.001749 -0.001421 0.010979 0.002122 0.030568
#
#
# Mechanical properties :
#
#
# Convention : Reuss Voigt Hill
#
# Bulk Modulus (GPa) = 34.75269 54.98314 44.86791
# Shear Modulus (GPa) = 32.96622 42.86238 37.91430
#
# Velocity S-wave (km/s) = 3.46329 3.94905 3.71412
# Velocity P-wave (km/s) = 5.35135 6.38736 5.89217
#
# Compressibility (1/GPa) = 0.02877475
#
# Stress axis : x y z
#
# Youngs Moduli (GPa) = 51.69350 105.60538 149.20598
#
# Poissons Ratio (x) = 0.03891 0.35935
# Poissons Ratio (y) = 0.01904 0.08861
# Poissons Ratio (z) = 0.12450 0.06272
#
# Static dielectric constant tensor:
#      x y z
#    x 2.140460 -0.073370 0.007930 
#    y -0.073370 2.198180 0.028650 
#    z 0.007930 0.028650 2.205180 
# 
# From -- ./inp_files/459009.got.cif
#   From: 2010.05.17/outbox.cif.g08.bks.cpg/sg2_230_cif.got.tgz:459009.got - 2010.06.03 11:33:40.
