data_PCOD9089290
_publ_section_title
;
Structure prediction by ZEFSAII (Michael W. Deem and Ramdas Pophale) SiO2 
 PCOD9089290
Probable space group: P -1
;
_chemical_formula_sum "Si O2"
_cell_formula_units_Z 16
_cell_length_a 9.267380
_cell_length_b 12.004607
_cell_length_c 14.395328
_cell_angle_alpha 64.970444
_cell_angle_beta 152.194307
_cell_angle_gamma 111.524957
_cell_volume 676.799955
_symmetry_space_group_name_H-M "P -1"
_symmetry_group_IT_number 2
_symmetry_cell_setting 'triclinic'
loop_
_space_group_symop_operation_xyz
x,y,z
-x,-y,-z
loop_
_atom_site_type_symbol
_atom_site_label
_atom_site_fract_x
_atom_site_fract_y
_atom_site_fract_z
Si Si1 0.193378 0.368625 0.082522
Si Si2 0.766792 0.799110 0.123350
Si Si3 0.188140 0.996590 0.388770
Si Si4 0.337763 0.812141 0.698408
Si Si5 0.909749 0.722729 0.739309
Si Si6 0.037828 0.597233 0.682859
Si Si7 0.250938 0.632982 0.341042
Si Si8 0.320278 0.445582 0.746240
O O1 0.427206 0.268318 0.203956
O O2 0.096701 0.324414 0.143531
O O3 0.398338 0.489741 0.167146
O O4 0.908888 0.381380 0.844938
O O5 0.261394 0.930529 0.551929
O O6 0.508359 0.833523 0.886662
O O7 0.023600 0.721137 0.239643
O O8 0.680418 0.700862 0.189354
O O9 0.933347 0.915561 0.220372
O O10 0.500000 0.000000 0.500000
O O11 0.055593 0.132131 0.285994
O O12 0.045776 0.724305 0.585025
O O13 0.576150 0.696966 0.511906
O O14 0.119239 0.643767 0.815624
O O15 0.758407 0.502259 0.569076
O O16 0.291618 0.511858 0.806874
O O17 0.000000 0.500000 0.500000
#
# Coordination Sequence:
#
# PCOD9089290 Si02
#       8
#     2   2   2   2   2   2   2   2
#     4  10  20  36  63  90 115 152 197 244 294 349
#     4  10  20  37  64  91 112 151 204 251 286 341
#     4  12  23  39  60  87 117 157 207 244 285 349
#     4  10  21  40  62  86 115 154 202 251 290 340
#     4  12  24  39  57  88 127 158 192 241 295 352
#     4  10  22  39  60  89 124 152 189 246 304 354
#     4  10  20  37  61  89 119 152 194 241 299 351
#     4  10  19  37  67  94 118 152 198 245 296 352
#
# _framework density 23.640663
#
# number of rings (size 3 to 8) (size 9 to 14) (size 15 to 20)
#    0.000    1.500    2.500    4.125    0.000    5.500 
#    0.000    3.125    0.000    0.000    0.000    0.000 
#    0.000    0.000    0.000    0.000    0.000    0.000 
#
# Total GULP energy -89445.780915 kJ/mol
# GULP energy per Si atom -5590.361307 kJ/mol
# Density = 2.358686 g / cm^3
# Si number density = 23.640663 Si / 1000 Ang^3
#
#
#
# Elastic Constant Matrix: (Units=GPa)
#
#
# Indices 1 2 3 4 5 6 
#
# 1 57.3292 56.9569 66.5086 -11.5193 -10.1065 0.5441
# 2 56.9569 204.1210 83.0744 -13.2725 -23.6414 -7.0806
# 3 66.5086 83.0744 113.7522 2.0830 -49.1270 -11.1529
# 4 -11.5193 -13.2725 2.0830 47.2307 -0.0992 -4.6817
# 5 -10.1065 -23.6414 -49.1270 -0.0992 23.8665 -13.6393
# 6 0.5441 -7.0806 -11.1529 -4.6817 -13.6393 28.4455
#
#
#
# Elastic Compliance Matrix: (Units=1/GPa)
#
#
# Indices 1 2 3 4 5 6 
#
# 1 0.016840 -0.003577 0.009461 0.004715 0.034372 0.019754
# 2 -0.003577 0.007255 -0.002783 0.001426 0.000732 0.001369
# 3 0.009461 -0.002783 -0.010468 -0.000090 -0.031890 -0.020284
# 4 0.004715 0.001426 -0.000090 0.023521 0.007803 0.007842
# 5 0.034372 0.000732 -0.031890 0.007803 -0.020816 -0.021675
# 6 0.019754 0.001369 -0.020284 0.007842 -0.021675 0.018063
#
#
# Mechanical properties :
#
#
# Convention : Reuss Voigt Hill
#
# Bulk Modulus (GPa) = 50.42784 87.58692 69.00738
# Shear Modulus (GPa) = 143.68139 31.15270 87.41705
#
# Velocity S-wave (km/s) = 7.80443 3.63403 6.08750
# Velocity P-wave (km/s) = 10.12865 7.39851 8.86926
#
# Compressibility (1/GPa) = 0.01983031
#
# Stress axis : x y z
#
# Youngs Moduli (GPa) = 59.38389 137.84419 -95.52760
#
# Poissons Ratio (x) = 0.49302 0.90383
# Poissons Ratio (y) = 0.21240 -0.26582
# Poissons Ratio (z) = -0.56186 0.38357
#
# Static dielectric constant tensor:
#      x y z
#    x 1.993650 0.026260 0.001680 
#    y 0.026260 1.893020 0.012870 
#    z 0.001680 0.012870 1.924530 
# 
# From -- ./inp_files/506183.got.cif
#   From: 2010.05.17/outbox.cif.g08.bks.cpg/sg2_254_cif.got.tgz:506183.got - 2010.06.03 11:33:40.
