data_PCOD9089124
_publ_section_title
;
Structure prediction by ZEFSAII (Michael W. Deem and Ramdas Pophale) SiO2 
 PCOD9089124
Probable space group: P -1
;
_chemical_formula_sum "Si O2"
_cell_formula_units_Z 16
_cell_length_a 9.133149
_cell_length_b 10.983577
_cell_length_c 12.652725
_cell_angle_alpha 87.686769
_cell_angle_beta 49.302308
_cell_angle_gamma 113.041771
_cell_volume 802.124149
_symmetry_space_group_name_H-M "P -1"
_symmetry_group_IT_number 2
_symmetry_cell_setting 'triclinic'
loop_
_space_group_symop_operation_xyz
x,y,z
-x,-y,-z
loop_
_atom_site_type_symbol
_atom_site_label
_atom_site_fract_x
_atom_site_fract_y
_atom_site_fract_z
Si Si1 0.724211 0.881396 0.126214
Si Si2 0.190281 0.334126 0.795083
Si Si3 0.399072 0.574362 0.971612
Si Si4 0.917339 0.318732 0.126662
Si Si5 0.684947 0.010452 0.332596
Si Si6 0.593595 0.895154 0.948391
Si Si7 0.511915 0.650548 0.680139
Si Si8 0.923245 0.865928 0.338052
O O1 0.690622 0.735495 0.194126
O O2 0.660962 0.878233 0.035747
O O3 0.599302 0.934013 0.260908
O O4 0.000000 0.000000 0.000000
O O5 0.385028 0.502177 0.676353
O O6 0.073257 0.239707 0.748580
O O7 0.006695 0.325048 0.965429
O O8 0.516127 0.606127 0.799830
O O9 0.500000 0.500000 0.000000
O O10 0.447037 0.729024 0.982273
O O11 0.125474 0.459527 0.083229
O O12 0.876030 0.177757 0.210554
O O13 0.672803 0.302807 0.239520
O O14 0.500000 0.000000 0.500000
O O15 0.792213 0.930290 0.339438
O O16 0.500000 0.000000 0.000000
O O17 0.821915 0.994794 0.765608
O O18 0.761771 0.770030 0.513540
#
# Coordination Sequence:
#
# PCOD9089124 Si02
#       8
#     2   2   2   2   2   2   2   2
#     4  11  20  39  68  85 118 168 217 257 301 374
#     4  10  19  37  65  93 120 157 213 262 307 367
#     4  11  25  43  64  90 133 173 209 256 320 388
#     4  11  21  38  68  96 119 164 221 258 303 376
#     4  11  20  36  66 100 123 153 211 272 315 357
#     4  12  26  40  64  96 129 171 212 259 319 384
#     4  11  24  38  67  95 123 161 214 270 310 367
#     4  11  22  40  63  95 129 164 205 271 322 366
#
# _framework density 19.947037000000002
#
# number of rings (size 3 to 8) (size 9 to 14) (size 15 to 20)
#    0.000    1.000    5.000    4.125    5.250    0.500 
#    0.000    1.250    0.000    2.250    0.000    0.000 
#    0.000    0.000    0.000    0.000    0.000    0.000 
#
# Total GULP energy -89344.525186 kJ/mol
# GULP energy per Si atom -5584.032824 kJ/mol
# Density = 1.990164 g / cm^3
# Si number density = 19.947037 Si / 1000 Ang^3
#
#
#
# Elastic Constant Matrix: (Units=GPa)
#
#
# Indices 1 2 3 4 5 6 
#
# 1 51.0048 17.3936 12.8379 4.1384 7.4109 -0.6583
# 2 17.3936 121.5323 31.9949 0.8658 -4.6996 -5.0984
# 3 12.8379 31.9949 107.4612 -4.3336 -1.5015 4.8375
# 4 4.1384 0.8658 -4.3336 28.9204 -9.1630 4.2262
# 5 7.4109 -4.6996 -1.5015 -9.1630 26.9642 0.2327
# 6 -0.6583 -5.0984 4.8375 4.2262 0.2327 23.5225
#
#
#
# Elastic Compliance Matrix: (Units=1/GPa)
#
#
# Indices 1 2 3 4 5 6 
#
# 1 0.023131 -0.002920 -0.002380 -0.006799 -0.009325 0.001818
# 2 -0.002920 0.009512 -0.002556 0.000133 0.002342 0.002459
# 3 -0.002380 -0.002556 0.010655 0.003107 0.001887 -0.003389
# 4 -0.006799 0.000133 0.003107 0.042526 0.016590 -0.008605
# 5 -0.009325 0.002342 0.001887 0.016590 0.045831 -0.003576
# 6 0.001818 0.002459 -0.003389 -0.008605 -0.003576 0.045375
#
#
# Mechanical properties :
#
#
# Convention : Reuss Voigt Hill
#
# Bulk Modulus (GPa) = 36.25012 44.93900 40.59456
# Shear Modulus (GPa) = 24.76028 30.39956 27.57992
#
# Velocity S-wave (km/s) = 3.52703 3.90810 3.72244
# Velocity P-wave (km/s) = 5.89909 6.55304 6.23465
#
# Compressibility (1/GPa) = 0.02758612
#
# Stress axis : x y z
#
# Youngs Moduli (GPa) = 43.23231 105.13354 93.85090
#
# Poissons Ratio (x) = 0.30696 0.22340
# Poissons Ratio (y) = 0.12622 0.23986
# Poissons Ratio (z) = 0.10291 0.26870
#
# Static dielectric constant tensor:
#      x y z
#    x 1.703450 -0.014520 0.002050 
#    y -0.014520 1.759900 0.015340 
#    z 0.002050 0.015340 1.722970 
# 
# From -- ./inp_files/392560.got.cif
#   From: 2010.05.17/outbox.cif.g08.bks.cpg/sg2_197_cif.got.tgz:392560.got - 2010.06.03 11:33:40.
