data_PCOD9089409
_publ_section_title
;
Structure prediction by ZEFSAII (Michael W. Deem and Ramdas Pophale) SiO2 
 PCOD9089409
Probable space group: P -1
;
_chemical_formula_sum "Si O2"
_cell_formula_units_Z 16
_cell_length_a 10.436758
_cell_length_b 14.115858
_cell_length_c 14.361324
_cell_angle_alpha 41.584539
_cell_angle_beta 147.464902
_cell_angle_gamma 138.195109
_cell_volume 715.104156
_symmetry_space_group_name_H-M "P -1"
_symmetry_group_IT_number 2
_symmetry_cell_setting 'triclinic'
loop_
_space_group_symop_operation_xyz
x,y,z
-x,-y,-z
loop_
_atom_site_type_symbol
_atom_site_label
_atom_site_fract_x
_atom_site_fract_y
_atom_site_fract_z
Si Si1 0.482759 0.827426 0.083799
Si Si2 0.302778 0.246988 0.066454
Si Si3 0.819097 0.484740 0.487316
Si Si4 0.433888 0.494984 0.109520
Si Si5 0.143916 0.563152 0.174281
Si Si6 0.261068 0.793136 0.244822
Si Si7 0.137374 0.302787 0.472933
Si Si8 0.597744 0.107517 0.222313
O O1 0.233361 0.679958 0.057847
O O2 0.690352 0.779172 0.306869
O O3 0.498602 0.838900 0.972509
O O4 0.500000 0.000000 0.000000
O O5 0.393586 0.332197 0.156690
O O6 0.445246 0.138042 0.195367
O O7 0.390859 0.383005 0.944320
O O8 0.002136 0.170822 0.941418
O O9 0.572871 0.515567 0.276940
O O10 0.743729 0.311395 0.594815
O O11 0.928698 0.594153 0.561147
O O12 0.000000 0.500000 0.500000
O O13 0.156153 0.502825 0.947509
O O14 0.240431 0.684253 0.225977
O O15 0.241776 0.422919 0.363257
O O16 0.511842 0.929696 0.290843
O O17 0.888606 0.183901 0.366199
#
# Coordination Sequence:
#
# PCOD9089409 Si02
#       8
#     2   2   2   2   2   2   2   2
#     4  12  27  48  71  95 138 179 231 284 338 398
#     4  10  19  38  64 100 131 175 217 273 336 401
#     4  11  21  40  67 103 138 175 224 274 330 412
#     4  10  19  37  71  95 134 177 218 273 337 396
#     4  10  22  47  67 100 130 180 229 279 329 400
#     4  10  22  39  67  94 143 177 212 279 344 394
#     4  11  26  44  72 101 134 174 237 277 331 401
#     4  12  24  45  67 100 137 178 222 282 343 396
#
# _framework density 22.374365000000001
#
# number of rings (size 3 to 8) (size 9 to 14) (size 15 to 20)
#    0.000    1.250    3.750    2.250    0.000    2.000 
#    4.500    1.250    0.000    0.000    0.000    0.000 
#    0.000    0.000    0.000    0.000    0.000    0.000 
#
# Total GULP energy -89276.058607 kJ/mol
# GULP energy per Si atom -5579.753663 kJ/mol
# Density = 2.232344 g / cm^3
# Si number density = 22.374365 Si / 1000 Ang^3
#
#
#
# Elastic Constant Matrix: (Units=GPa)
#
#
# Indices 1 2 3 4 5 6 
#
# 1 64.2329 24.5516 20.1662 -3.6241 -10.5679 5.3296
# 2 24.5516 123.7333 44.9158 11.7009 -8.6777 12.0381
# 3 20.1662 44.9158 95.1506 4.0800 -2.9460 4.1049
# 4 -3.6241 11.7009 4.0800 40.2110 4.9921 -1.3954
# 5 -10.5679 -8.6777 -2.9460 4.9921 33.2044 -2.0619
# 6 5.3296 12.0381 4.1049 -1.3954 -2.0619 33.8310
#
#
#
# Elastic Compliance Matrix: (Units=1/GPa)
#
#
# Indices 1 2 3 4 5 6 
#
# 1 0.018292 -0.002416 -0.002623 0.002003 0.004573 -0.001343
# 2 -0.002416 0.010857 -0.004281 -0.003294 0.001999 -0.002977
# 3 -0.002623 -0.004281 0.013060 -0.000213 -0.000744 0.000298
# 4 0.002003 -0.003294 -0.000213 0.026603 -0.004134 0.001728
# 5 0.004573 0.001999 -0.000744 -0.004134 0.032680 0.000480
# 6 -0.001343 -0.002977 0.000298 0.001728 0.000480 0.030894
#
#
# Mechanical properties :
#
#
# Convention : Reuss Voigt Hill
#
# Bulk Modulus (GPa) = 42.42900 51.37598 46.90249
# Shear Modulus (GPa) = 31.47016 34.34816 32.90916
#
# Velocity S-wave (km/s) = 3.75444 3.92236 3.83932
# Velocity P-wave (km/s) = 6.14807 6.59735 6.37667
#
# Compressibility (1/GPa) = 0.02356879
#
# Stress axis : x y z
#
# Youngs Moduli (GPa) = 54.66891 92.10918 76.57083
#
# Poissons Ratio (x) = 0.22249 0.20084
# Poissons Ratio (y) = 0.13205 0.32783
# Poissons Ratio (z) = 0.14339 0.39435
#
# Static dielectric constant tensor:
#      x y z
#    x 1.919110 -0.004260 0.026650 
#    y -0.004260 1.849150 -0.033710 
#    z 0.026650 -0.033710 1.875770 
# 
# From -- ./inp_files/521508.got.cif
#   From: 2010.05.17/outbox.cif.g08.bks.cpg/sg2_261_cif.got.tgz:521508.got - 2010.06.03 11:33:40.
