data_PCOD9089446
_publ_section_title
;
Structure prediction by ZEFSAII (Michael W. Deem and Ramdas Pophale) SiO2 
 PCOD9089446
Probable space group: P -1
;
_chemical_formula_sum "Si O2"
_cell_formula_units_Z 16
_cell_length_a 9.094814
_cell_length_b 11.773070
_cell_length_c 10.946788
_cell_angle_alpha 43.267234
_cell_angle_beta 63.756039
_cell_angle_gamma 82.230281
_cell_volume 686.487704
_symmetry_space_group_name_H-M "P -1"
_symmetry_group_IT_number 2
_symmetry_cell_setting 'triclinic'
loop_
_space_group_symop_operation_xyz
x,y,z
-x,-y,-z
loop_
_atom_site_type_symbol
_atom_site_label
_atom_site_fract_x
_atom_site_fract_y
_atom_site_fract_z
Si Si1 0.797163 0.263356 0.087473
Si Si2 0.149055 0.372138 0.310222
Si Si3 0.809993 0.013932 0.073120
Si Si4 0.276406 0.014404 0.340256
Si Si5 0.955911 0.789325 0.785887
Si Si6 0.141304 0.666915 0.375175
Si Si7 0.530942 0.162432 0.767206
Si Si8 0.531449 0.692382 0.781422
O O1 0.774367 0.083618 0.165181
O O2 0.979227 0.307714 0.054966
O O3 0.642177 0.273079 0.227378
O O4 0.803096 0.419552 0.869245
O O5 0.297872 0.297911 0.366401
O O6 0.126729 0.323264 0.213331
O O7 0.969149 0.291600 0.504933
O O8 0.656438 0.850101 0.207546
O O9 0.816873 0.176170 0.856816
O O10 0.000000 0.000000 0.000000
O O11 0.414967 0.167661 0.239634
O O12 0.176529 0.106872 0.211165
O O13 0.131813 0.922733 0.564342
O O14 0.367533 0.890834 0.340226
O O15 0.330238 0.670316 0.352894
O O16 0.000000 0.500000 0.500000
O O17 0.500000 0.000000 0.000000
O O18 0.500000 0.500000 0.000000
#
# Coordination Sequence:
#
# PCOD9089446 Si02
#       8
#     2   2   2   2   2   2   2   2
#     4  11  21  38  60  89 127 160 206 259 317 370
#     4  10  20  40  62  87 122 162 211 253 315 378
#     4  11  25  41  63  95 129 167 211 264 317 372
#     4  10  19  38  55  88 116 162 205 245 310 381
#     4  10  22  33  61  88 122 155 202 257 313 369
#     4  11  22  43  70  90 120 171 216 262 312 379
#     4  10  22  39  64  87 124 165 214 254 313 378
#     4   9  20  35  58  86 120 160 202 252 307 376
#
# _framework density 23.307044000000001
#
# number of rings (size 3 to 8) (size 9 to 14) (size 15 to 20)
#    0.000    1.750    3.750    0.375    3.500    0.500 
#    2.250    0.625    2.750    0.000    0.000    0.000 
#    0.000    0.000    0.000    0.000    0.000    0.000 
#
# Total GULP energy -89194.608678 kJ/mol
# GULP energy per Si atom -5574.663042 kJ/mol
# Density = 2.325400 g / cm^3
# Si number density = 23.307044 Si / 1000 Ang^3
#
#
#
# Elastic Constant Matrix: (Units=GPa)
#
#
# Indices 1 2 3 4 5 6 
#
# 1 132.5187 41.4269 2.0800 -2.3446 -33.5708 -10.3927
# 2 41.4269 62.1712 7.7132 -14.1775 -12.5594 7.2172
# 3 2.0800 7.7132 33.5455 -4.4706 -17.9853 6.6232
# 4 -2.3446 -14.1775 -4.4706 32.3678 6.0740 -13.9120
# 5 -33.5708 -12.5594 -17.9853 6.0740 37.9716 -7.6934
# 6 -10.3927 7.2172 6.6232 -13.9120 -7.6934 35.0812
#
#
#
# Elastic Compliance Matrix: (Units=1/GPa)
#
#
# Indices 1 2 3 4 5 6 
#
# 1 0.014655 -0.008792 0.007728 -0.001385 0.015457 0.007531
# 2 -0.008792 0.024056 -0.005521 0.008160 -0.004605 -0.004285
# 3 0.007728 -0.005521 0.044515 -0.000367 0.026279 0.000639
# 4 -0.001385 0.008160 -0.000367 0.040599 -0.002450 0.013543
# 5 0.015457 -0.004605 0.026279 -0.002450 0.053616 0.011352
# 6 0.007531 -0.004285 0.000639 0.013543 0.011352 0.039357
#
#
# Mechanical properties :
#
#
# Convention : Reuss Voigt Hill
#
# Bulk Modulus (GPa) = 14.27433 36.74172 25.50802
# Shear Modulus (GPa) = 19.73788 32.88516 26.31152
#
# Velocity S-wave (km/s) = 2.91325 3.76034 3.36357
# Velocity P-wave (km/s) = 4.17777 5.88659 5.10420
#
# Compressibility (1/GPa) = 0.07005583
#
# Stress axis : x y z
#
# Youngs Moduli (GPa) = 68.23655 41.57012 22.46431
#
# Poissons Ratio (x) = 0.36547 -0.17361
# Poissons Ratio (y) = 0.59991 0.12404
# Poissons Ratio (z) = -0.52734 0.22953
#
# Static dielectric constant tensor:
#      x y z
#    x 2.061860 -0.003370 0.002770 
#    y -0.003370 1.956830 0.009000 
#    z 0.002770 0.009000 1.948120 
# 
# From -- ./inp_files/186973.got.cif
#   From: 2010.05.17/outbox.cif.g08.bks.cpg/sg2_94_cif.got.tgz:186973.got - 2010.06.03 11:33:40.
