data_PCOD9089881
_publ_section_title
;
Structure prediction by ZEFSAII (Michael W. Deem and Ramdas Pophale) SiO2 
 PCOD9089881
Probable space group: P -1
;
_chemical_formula_sum "Si O2"
_cell_formula_units_Z 12
_cell_length_a 17.337991
_cell_length_b 15.955232
_cell_length_c 7.607413
_cell_angle_alpha 53.424597
_cell_angle_beta 137.402390
_cell_angle_gamma 157.696801
_cell_volume 509.983309
_symmetry_space_group_name_H-M "P -1"
_symmetry_group_IT_number 2
_symmetry_cell_setting 'triclinic'
loop_
_space_group_symop_operation_xyz
x,y,z
-x,-y,-z
loop_
_atom_site_type_symbol
_atom_site_label
_atom_site_fract_x
_atom_site_fract_y
_atom_site_fract_z
Si Si1 0.217290 0.432667 0.038643
Si Si2 0.901466 0.803065 0.559128
Si Si3 0.098521 0.667422 0.818302
Si Si4 0.609074 0.196225 0.154566
Si Si5 0.318097 0.035204 0.161623
Si Si6 0.322107 0.500267 0.734309
O O1 0.355447 0.654403 0.034502
O O2 0.301291 0.461408 0.954256
O O3 0.256529 0.375939 0.320612
O O4 0.909642 0.203168 0.813299
O O5 0.743126 0.650012 0.310310
O O6 0.000000 0.000000 0.500000
O O7 0.160929 0.948073 0.836899
O O8 0.157482 0.668597 0.722779
O O9 0.896700 0.594606 0.558564
O O10 0.000000 0.500000 0.000000
O O11 0.362885 0.931709 0.003786
O O12 0.551035 0.160977 0.311443
O O13 0.422003 0.221241 0.207036
#
# Coordination Sequence:
#
# PCOD9089881 Si02
#       6
#     2   2   2   2   2   2
#     4   9  22  41  61  94 126 163 214 254 310 382
#     4  10  22  44  66  91 129 163 208 271 315 368
#     4  11  22  36  63  98 126 171 212 251 315 372
#     4  10  19  38  62  87 132 162 212 249 302 383
#     4   9  21  41  60  95 126 159 218 251 311 383
#     4  11  22  41  66  88 130 169 202 266 318 364
#
# _framework density 23.530182
#
# number of rings (size 3 to 8) (size 9 to 14) (size 15 to 20)
#    1.000    1.000    1.667    2.000    0.000    8.000 
#    0.000    8.333    0.000    0.000    0.000    0.000 
#    0.000    0.000    0.000    0.000    0.000    0.000 
#
# Total GULP energy -66937.435632 kJ/mol
# GULP energy per Si atom -5578.119636 kJ/mol
# Density = 2.347663 g / cm^3
# Si number density = 23.530182 Si / 1000 Ang^3
#
#
#
# Elastic Constant Matrix: (Units=GPa)
#
#
# Indices 1 2 3 4 5 6 
#
# 1 94.1113 61.2242 18.9776 -6.0513 -16.6850 -20.7609
# 2 61.2242 199.2590 28.5084 -1.9576 -19.4634 -14.0756
# 3 18.9776 28.5084 45.4847 -2.8355 -9.5810 -6.4454
# 4 -6.0513 -1.9576 -2.8355 45.1967 -0.5039 -1.2071
# 5 -16.6850 -19.4634 -9.5810 -0.5039 24.3418 19.5698
# 6 -20.7609 -14.0756 -6.4454 -1.2071 19.5698 43.8843
#
#
#
# Elastic Compliance Matrix: (Units=1/GPa)
#
#
# Indices 1 2 3 4 5 6 
#
# 1 0.015143 -0.003657 -0.002673 0.001850 0.002962 0.004328
# 2 -0.003657 0.006656 -0.002226 -0.000341 0.002926 -0.001236
# 3 -0.002673 -0.002226 0.026021 0.001222 0.008022 -0.001701
# 4 0.001850 -0.000341 0.001222 0.022476 0.001067 0.001088
# 5 0.002962 0.002926 0.008022 0.001067 0.071364 -0.028277
# 6 0.004328 -0.001236 -0.001701 0.001088 -0.028277 0.036828
#
#
# Mechanical properties :
#
#
# Convention : Reuss Voigt Hill
#
# Bulk Modulus (GPa) = 32.56604 61.80836 47.18720
# Shear Modulus (GPa) = 24.29111 38.02757 31.15934
#
# Velocity S-wave (km/s) = 3.21649 4.02446 3.64294
# Velocity P-wave (km/s) = 5.25971 6.92241 6.14753
#
# Compressibility (1/GPa) = 0.03070683
#
# Stress axis : x y z
#
# Youngs Moduli (GPa) = 66.03823 150.24384 38.43046
#
# Poissons Ratio (x) = 0.54945 0.10274
# Poissons Ratio (y) = 0.24150 0.08555
# Poissons Ratio (z) = 0.17654 0.33444
#
# Static dielectric constant tensor:
#      x y z
#    x 1.965760 0.002710 0.047900 
#    y 0.002710 1.875630 0.039710 
#    z 0.047900 0.039710 1.966420 
# 
# From -- ./inp_files/348367.got.cif
#   From: 2010.05.17/outbox.cif.g08.bks.cpg/sg2_175_cif.got.tgz:348367.got - 2010.06.03 11:33:40.
