data_PCOD9089420
_publ_section_title
;
Structure prediction by ZEFSAII (Michael W. Deem and Ramdas Pophale) SiO2 
 PCOD9089420
Probable space group: P -1
;
_chemical_formula_sum "Si O2"
_cell_formula_units_Z 16
_cell_length_a 8.142848
_cell_length_b 8.168679
_cell_length_c 13.814567
_cell_angle_alpha 116.643376
_cell_angle_beta 88.410710
_cell_angle_gamma 117.928834
_cell_volume 706.062279
_symmetry_space_group_name_H-M "P -1"
_symmetry_group_IT_number 2
_symmetry_cell_setting 'triclinic'
loop_
_space_group_symop_operation_xyz
x,y,z
-x,-y,-z
loop_
_atom_site_type_symbol
_atom_site_label
_atom_site_fract_x
_atom_site_fract_y
_atom_site_fract_z
Si Si1 0.968070 0.048349 0.120625
Si Si2 0.382826 0.547392 0.626307
Si Si3 0.129681 0.225480 0.686886
Si Si4 0.543908 0.109815 0.671554
Si Si5 0.266934 0.686924 0.480857
Si Si6 0.405687 0.304110 0.876213
Si Si7 0.782468 0.906217 0.698406
Si Si8 0.059958 0.562588 0.715510
O O1 0.748619 0.897348 0.114069
O O2 0.101314 0.007732 0.180604
O O3 0.004483 0.284356 0.198786
O O4 0.000000 0.000000 0.000000
O O5 0.259981 0.309722 0.610144
O O6 0.334164 0.568263 0.522249
O O7 0.285304 0.662905 0.717038
O O8 0.608464 0.673271 0.669160
O O9 0.278989 0.319852 0.796764
O O10 0.019944 0.358442 0.724119
O O11 0.965085 0.981749 0.643166
O O12 0.624642 0.239393 0.605015
O O13 0.541545 0.249518 0.797133
O O14 0.660945 0.999254 0.675729
O O15 0.332163 0.912076 0.593448
O O16 0.052058 0.533383 0.408294
O O17 0.500000 0.500000 0.000000
#
# Coordination Sequence:
#
# PCOD9089420 Si02
#       8
#     2   2   2   2   2   2   2   2
#     4  11  26  41  64  95 128 171 221 268 328 383
#     4   9  20  37  68  91 129 167 215 257 324 379
#     4   9  22  41  64  96 129 168 222 260 326 389
#     4  10  21  40  67 100 126 172 220 258 324 392
#     4  10  19  37  72  93 131 172 212 264 325 379
#     4  11  26  45  67  92 132 172 215 274 325 383
#     4  10  20  41  62  92 135 165 215 275 316 384
#     4  10  21  41  64  94 134 166 214 267 318 386
#
# _framework density 22.660890999999999
#
# number of rings (size 3 to 8) (size 9 to 14) (size 15 to 20)
#    0.750    1.250    1.250    1.875    3.500    1.000 
#    0.000   11.875    0.000    0.000    0.000    0.000 
#    0.000    0.000    0.000    0.000    0.000    0.000 
#
# Total GULP energy -89148.165036 kJ/mol
# GULP energy per Si atom -5571.760315 kJ/mol
# Density = 2.260931 g / cm^3
# Si number density = 22.660891 Si / 1000 Ang^3
#
#
#
# Elastic Constant Matrix: (Units=GPa)
#
#
# Indices 1 2 3 4 5 6 
#
# 1 65.6496 12.5307 28.6768 7.4503 8.4667 14.4515
# 2 12.5307 91.4494 28.7430 -14.4259 0.9855 32.8454
# 3 28.6768 28.7430 99.2830 3.2755 -11.5570 10.7557
# 4 7.4503 -14.4259 3.2755 35.6790 5.1285 5.2869
# 5 8.4667 0.9855 -11.5570 5.1285 33.0543 0.8308
# 6 14.4515 32.8454 10.7557 5.2869 0.8308 35.3272
#
#
#
# Elastic Compliance Matrix: (Units=1/GPa)
#
#
# Indices 1 2 3 4 5 6 
#
# 1 0.020441 0.002144 -0.006472 -0.000557 -0.007272 -0.008130
# 2 0.002144 0.022354 -0.005708 0.013012 -0.004683 -0.021760
# 3 -0.006472 -0.005708 0.014129 -0.003901 0.007271 0.004066
# 4 -0.000557 0.013012 -0.003901 0.037147 -0.006969 -0.016077
# 5 -0.007272 -0.004683 0.007271 -0.006969 0.035745 0.005318
# 6 -0.008130 -0.021760 0.004066 -0.016077 0.005318 0.052907
#
#
# Mechanical properties :
#
#
# Convention : Reuss Voigt Hill
#
# Bulk Modulus (GPa) = 27.13619 44.03142 35.58380
# Shear Modulus (GPa) = 23.24729 33.24087 28.24408
#
# Velocity S-wave (km/s) = 3.20641 3.83415 3.53424
# Velocity P-wave (km/s) = 5.07040 6.25089 5.69134
#
# Compressibility (1/GPa) = 0.03685116
#
# Stress axis : x y z
#
# Youngs Moduli (GPa) = 48.92085 44.73555 70.77780
#
# Poissons Ratio (x) = -0.09591 0.45809
# Poissons Ratio (y) = -0.10488 0.40399
# Poissons Ratio (z) = 0.31662 0.25534
#
# Static dielectric constant tensor:
#      x y z
#    x 1.879270 0.042640 -0.014820 
#    y 0.042640 1.963260 0.029700 
#    z -0.014820 0.029700 1.794320 
# 
# From -- ./inp_files/493648.got.cif
#   From: 2010.05.17/outbox.cif.g08.bks.cpg/sg2_247_cif.got.tgz:493648.got - 2010.06.03 11:33:40.
