data_PCOD9089494
_publ_section_title
;
Structure prediction by ZEFSAII (Michael W. Deem and Ramdas Pophale) SiO2 
 PCOD9089494
Probable space group: P -1
;
_chemical_formula_sum "Si O2"
_cell_formula_units_Z 16
_cell_length_a 19.309265
_cell_length_b 10.982562
_cell_length_c 14.290044
_cell_angle_alpha 132.158651
_cell_angle_beta 28.834671
_cell_angle_gamma 150.675446
_cell_volume 658.520943
_symmetry_space_group_name_H-M "P -1"
_symmetry_group_IT_number 2
_symmetry_cell_setting 'triclinic'
loop_
_space_group_symop_operation_xyz
x,y,z
-x,-y,-z
loop_
_atom_site_type_symbol
_atom_site_label
_atom_site_fract_x
_atom_site_fract_y
_atom_site_fract_z
Si Si1 0.730811 0.860955 0.078675
Si Si2 0.821092 0.573333 0.224714
Si Si3 0.680908 0.292783 0.983182
Si Si4 0.812814 0.222141 0.957948
Si Si5 0.387634 0.740054 0.308677
Si Si6 0.444663 0.410806 0.344744
Si Si7 0.959437 0.849007 0.650314
Si Si8 0.932840 0.295413 0.401337
O O1 0.551373 0.844816 0.256293
O O2 0.612588 0.651428 0.193657
O O3 0.772945 0.792387 0.898302
O O4 0.992917 0.177001 0.940527
O O5 0.613892 0.509439 0.464070
O O6 0.974762 0.678158 0.192044
O O7 0.761686 0.338954 0.139708
O O8 0.557009 0.336571 0.200564
O O9 0.841489 0.323527 0.874595
O O10 0.839467 0.520364 0.835289
O O11 0.500000 0.000000 0.000000
O O12 0.569571 0.899740 0.087408
O O13 0.188062 0.420172 0.369481
O O14 0.268298 0.809484 0.478703
O O15 0.176360 0.124395 0.478187
O O16 0.099634 0.891291 0.593023
O O17 0.000000 0.500000 0.500000
#
# Coordination Sequence:
#
# PCOD9089494 Si02
#       8
#     2   2   2   2   2   2   2   2
#     4  10  21  38  61  90 125 164 210 264 313 382
#     4   9  23  47  66  92 130 170 222 266 312 370
#     4  12  23  39  65  99 128 167 218 260 326 394
#     4  10  22  44  69  92 127 173 216 269 314 380
#     4  10  20  36  59  90 123 164 205 262 327 370
#     4  11  23  40  66  91 130 173 209 268 316 388
#     4  10  19  38  57  88 129 162 202 263 323 381
#     4  10  20  36  55  86 129 159 202 256 308 380
#
# _framework density 24.296873999999999
#
# number of rings (size 3 to 8) (size 9 to 14) (size 15 to 20)
#    0.000    1.750    1.250    4.125    1.750    1.000 
#    2.250    2.500    0.000    0.000    0.000    0.000 
#    0.000    0.000    0.000    0.000    0.000    0.000 
#
# Total GULP energy -89287.490884 kJ/mol
# GULP energy per Si atom -5580.468180 kJ/mol
# Density = 2.424157 g / cm^3
# Si number density = 24.296874 Si / 1000 Ang^3
#
#
#
# Elastic Constant Matrix: (Units=GPa)
#
#
# Indices 1 2 3 4 5 6 
#
# 1 78.5892 15.7772 31.7244 -4.3820 -7.1815 -24.2524
# 2 15.7772 74.0279 36.1986 -8.5261 -1.3124 -19.0138
# 3 31.7244 36.1986 117.5068 -8.6287 -4.7199 -16.6161
# 4 -4.3820 -8.5261 -8.6287 45.1071 -22.4678 1.5868
# 5 -7.1815 -1.3124 -4.7199 -22.4678 29.4968 -1.5520
# 6 -24.2524 -19.0138 -16.6161 1.5868 -1.5520 31.4217
#
#
#
# Elastic Compliance Matrix: (Units=1/GPa)
#
#
# Indices 1 2 3 4 5 6 
#
# 1 0.019241 0.001938 -0.002894 0.005955 0.009616 0.014667
# 2 0.001938 0.018489 -0.004170 0.005001 0.004988 0.010472
# 3 -0.002894 -0.004170 0.011011 0.002355 0.002723 0.001081
# 4 0.005955 0.005001 0.002355 0.040427 0.033288 0.008471
# 5 0.009616 0.004988 0.002723 0.033288 0.062957 0.013308
# 6 0.014667 0.010472 0.001081 0.008471 0.013308 0.050284
#
#
# Mechanical properties :
#
#
# Convention : Reuss Voigt Hill
#
# Bulk Modulus (GPa) = 25.98215 48.61383 37.29799
# Shear Modulus (GPa) = 22.17394 33.63335 27.90364
#
# Velocity S-wave (km/s) = 3.02425 3.72461 3.39255
# Velocity P-wave (km/s) = 4.78660 6.20876 5.54348
#
# Compressibility (1/GPa) = 0.03848797
#
# Stress axis : x y z
#
# Youngs Moduli (GPa) = 51.97364 54.08675 90.81530
#
# Poissons Ratio (x) = -0.10482 0.26282
# Poissons Ratio (y) = -0.10073 0.37874
# Poissons Ratio (z) = 0.15041 0.22556
#
# Static dielectric constant tensor:
#      x y z
#    x 1.990010 0.010380 -0.049720 
#    y 0.010380 1.918480 -0.024480 
#    z -0.049720 -0.024480 1.946020 
# 
# From -- ./inp_files/540980.got.cif
#   From: 2010.05.17/outbox.cif.g08.bks.cpg/sg2_271_cif.got.tgz:540980.got - 2010.06.03 11:33:40.
