data_PCOD9089364
_publ_section_title
;
Structure prediction by ZEFSAII (Michael W. Deem and Ramdas Pophale) SiO2 
 PCOD9089364
Probable space group: P -1
;
_chemical_formula_sum "Si O2"
_cell_formula_units_Z 14
_cell_length_a 15.217694
_cell_length_b 7.772951
_cell_length_c 7.996247
_cell_angle_alpha 61.638239
_cell_angle_beta 73.884328
_cell_angle_gamma 114.007247
_cell_volume 616.230279
_symmetry_space_group_name_H-M "P -1"
_symmetry_group_IT_number 2
_symmetry_cell_setting 'triclinic'
loop_
_space_group_symop_operation_xyz
x,y,z
-x,-y,-z
loop_
_atom_site_type_symbol
_atom_site_label
_atom_site_fract_x
_atom_site_fract_y
_atom_site_fract_z
Si Si1 0.614252 0.043573 0.349605
Si Si2 0.530782 0.827842 0.126888
Si Si3 0.307071 0.262309 0.430218
Si Si4 0.749498 0.898537 0.834609
Si Si5 0.901417 0.411762 0.349394
Si Si6 0.070840 0.835394 0.867791
Si Si7 0.809383 0.595351 0.107462
O O1 0.724087 0.343846 0.155178
O O2 0.500000 0.000000 0.500000
O O3 0.582291 0.918957 0.242811
O O4 0.646312 0.897385 0.508603
O O5 0.411597 0.540249 0.309734
O O6 0.631524 0.859225 0.951494
O O7 0.500000 0.000000 0.000000
O O8 0.269215 0.240284 0.267819
O O9 0.189276 0.120840 0.670596
O O10 0.855639 0.199794 0.608637
O O11 0.768175 0.759586 0.028898
O O12 0.901403 0.286856 0.233511
O O13 0.813363 0.475368 0.334261
O O14 0.032356 0.685056 0.133891
O O15 0.950094 0.780692 0.902501
#
# Coordination Sequence:
#
# PCOD9089364 Si02
#       7
#     2   2   2   2   2   2   2
#     4  12  23  41  67  91 127 172 215 269 321 382
#     4  12  27  41  60  97 132 166 221 268 318 390
#     4  11  21  42  66  93 132 171 211 262 322 383
#     4  11  21  39  66  97 132 168 210 267 322 379
#     4   8  16  34  60  96 126 163 209 257 305 381
#     4   8  16  36  64  98 123 169 215 257 312 386
#     4  10  19  37  68  99 123 168 216 259 319 384
#
# _framework density 22.718781
#
# number of rings (size 3 to 8) (size 9 to 14) (size 15 to 20)
#    0.857    0.857    2.857    3.429    0.000    2.286 
#    0.000    0.000    0.000   21.429    0.000    0.000 
#    0.000    0.000    0.000    0.000    0.000    0.000 
#
# Total GULP energy -78100.657275 kJ/mol
# GULP energy per Si atom -5578.618377 kJ/mol
# Density = 2.266707 g / cm^3
# Si number density = 22.718781 Si / 1000 Ang^3
#
#
#
# Elastic Constant Matrix: (Units=GPa)
#
#
# Indices 1 2 3 4 5 6 
#
# 1 112.3358 22.9064 39.2079 -25.2989 -0.0811 -16.6120
# 2 22.9064 80.3021 59.1443 -11.3236 -8.9671 -1.4031
# 3 39.2079 59.1443 111.1905 -37.4946 -11.7781 8.0859
# 4 -25.2989 -11.3236 -37.4946 24.9249 15.2295 27.9034
# 5 -0.0811 -8.9671 -11.7781 15.2295 50.9479 -16.9500
# 6 -16.6120 -1.4031 8.0859 27.9034 -16.9500 5.9485
#
#
#
# Elastic Compliance Matrix: (Units=1/GPa)
#
#
# Indices 1 2 3 4 5 6 
#
# 1 0.011555 -0.001239 -0.001803 0.005866 -0.001355 0.003051
# 2 -0.001239 0.019139 -0.008419 0.003046 -0.001650 -0.006490
# 3 -0.001803 -0.008419 0.012675 -0.003743 0.006485 0.011785
# 4 0.005866 0.003046 -0.003743 0.003561 0.008453 0.029569
# 5 -0.001355 -0.001650 0.006485 0.008453 0.015288 -0.009078
# 6 0.003051 -0.006490 0.011785 0.029569 -0.009078 -0.005490
#
#
# Mechanical properties :
#
#
# Convention : Reuss Voigt Hill
#
# Bulk Modulus (GPa) = 48.90560 60.70506 54.80533
# Shear Modulus (GPa) = 57.82548 28.53558 43.18053
#
# Velocity S-wave (km/s) = 5.05054 3.54790 4.36438
# Velocity P-wave (km/s) = 7.45546 6.60013 7.04079
#
# Compressibility (1/GPa) = 0.02044756
#
# Stress axis : x y z
#
# Youngs Moduli (GPa) = 86.54271 52.24852 78.89266
#
# Poissons Ratio (x) = 0.06474 0.14222
# Poissons Ratio (y) = 0.10724 0.66421
# Poissons Ratio (z) = 0.15601 0.43989
#
# Static dielectric constant tensor:
#      x y z
#    x 1.893090 0.037590 0.029220 
#    y 0.037590 1.953670 -0.022590 
#    z 0.029220 -0.022590 1.888100 
# 
# From -- ./inp_files/297433.got.cif
#   From: 2010.05.17/outbox.cif.g08.bks.cpg/sg2_149_cif.got.tgz:297433.got - 2010.06.03 11:33:40.
