data_PCOD9089952
_publ_section_title
;
Structure prediction by ZEFSAII (Michael W. Deem and Ramdas Pophale) SiO2 
 PCOD9089952
Probable space group: P -1
;
_chemical_formula_sum "Si O2"
_cell_formula_units_Z 16
_cell_length_a 8.874937
_cell_length_b 11.753400
_cell_length_c 11.790759
_cell_angle_alpha 48.192859
_cell_angle_beta 112.851265
_cell_angle_gamma 129.296721
_cell_volume 708.236100
_symmetry_space_group_name_H-M "P -1"
_symmetry_group_IT_number 2
_symmetry_cell_setting 'triclinic'
loop_
_space_group_symop_operation_xyz
x,y,z
-x,-y,-z
loop_
_atom_site_type_symbol
_atom_site_label
_atom_site_fract_x
_atom_site_fract_y
_atom_site_fract_z
Si Si1 0.039156 0.567029 0.225650
Si Si2 0.473541 0.493744 0.361600
Si Si3 0.517813 0.168103 0.827660
Si Si4 0.482582 0.717344 0.872970
Si Si5 0.625420 0.004912 0.324656
Si Si6 0.669641 0.327675 0.398405
Si Si7 0.179412 0.303581 0.066569
Si Si8 0.953459 0.734223 0.700297
O O1 0.259428 0.703177 0.236035
O O2 0.033819 0.441153 0.204960
O O3 0.898849 0.430400 0.373013
O O4 0.949650 0.676672 0.077371
O O5 0.500000 0.500000 0.500000
O O6 0.511272 0.689208 0.207577
O O7 0.619133 0.454880 0.367246
O O8 0.251718 0.330004 0.375611
O O9 0.381891 0.094128 0.727046
O O10 0.500000 0.000000 0.000000
O O11 0.416115 0.841413 0.825397
O O12 0.423031 0.704976 0.731840
O O13 0.707747 0.783413 0.893977
O O14 0.352086 0.510314 0.015522
O O15 0.833848 0.096770 0.386849
O O16 0.446340 0.863624 0.444726
O O17 0.063762 0.225869 0.200563
#
# Coordination Sequence:
#
# PCOD9089952 Si02
#       8
#     2   2   2   2   2   2   2   2
#     4  10  23  41  66  97 127 181 214 261 339 396
#     4  11  24  48  66  96 133 183 214 265 336 401
#     4  11  26  44  68  99 137 170 220 276 330 391
#     4  10  22  36  64  97 127 166 213 283 323 371
#     4  12  24  41  65  99 132 171 224 278 322 385
#     4  11  22  45  66  91 135 171 226 269 325 400
#     4  10  19  38  62  96 125 170 218 261 329 395
#     4  11  22  38  69  95 131 171 222 268 323 397
#
# _framework density 22.591335999999998
#
# number of rings (size 3 to 8) (size 9 to 14) (size 15 to 20)
#    0.000    1.250    5.000    1.500    3.500    1.000 
#    0.000    3.750    0.000    0.000    0.000    0.000 
#    0.000    0.000    0.000    0.000    0.000    0.000 
#
# Total GULP energy -89417.793681 kJ/mol
# GULP energy per Si atom -5588.612105 kJ/mol
# Density = 2.253992 g / cm^3
# Si number density = 22.591336 Si / 1000 Ang^3
#
#
#
# Elastic Constant Matrix: (Units=GPa)
#
#
# Indices 1 2 3 4 5 6 
#
# 1 89.1704 22.1249 -6.8528 -15.5369 -7.3307 7.0306
# 2 22.1249 91.7435 13.1361 -4.8489 -3.7065 9.5335
# 3 -6.8528 13.1361 46.2387 -12.7506 -7.3604 13.1022
# 4 -15.5369 -4.8489 -12.7506 30.8794 -1.3859 -1.2397
# 5 -7.3307 -3.7065 -7.3604 -1.3859 28.7912 -9.3092
# 6 7.0306 9.5335 13.1022 -1.2397 -9.3092 36.8669
#
#
#
# Elastic Compliance Matrix: (Units=1/GPa)
#
#
# Indices 1 2 3 4 5 6 
#
# 1 0.015199 -0.003715 0.007842 0.010395 0.004881 -0.003143
# 2 -0.003715 0.012418 -0.004379 -0.001821 -0.000958 -0.001250
# 3 0.007842 -0.004379 0.032491 0.016630 0.007480 -0.009462
# 4 0.010395 -0.001821 0.016630 0.044369 0.007494 -0.004037
# 5 0.004881 -0.000958 0.007480 0.007494 0.040427 0.007119
# 6 -0.003143 -0.001250 -0.009462 -0.004037 0.007119 0.033072
#
#
# Mechanical properties :
#
#
# Convention : Reuss Voigt Hill
#
# Bulk Modulus (GPa) = 16.77747 31.55212 24.16479
# Shear Modulus (GPa) = 25.20827 32.55714 28.88270
#
# Velocity S-wave (km/s) = 3.34404 3.80035 3.57947
# Velocity P-wave (km/s) = 4.72787 5.76659 5.27287
#
# Compressibility (1/GPa) = 0.05960374
#
# Stress axis : x y z
#
# Youngs Moduli (GPa) = 65.79300 80.52962 30.77794
#
# Poissons Ratio (x) = 0.29918 -0.24136
# Poissons Ratio (y) = 0.24443 0.13477
# Poissons Ratio (z) = -0.51595 0.35263
#
# Static dielectric constant tensor:
#      x y z
#    x 1.867170 0.012920 0.009720 
#    y 0.012920 1.828680 -0.028810 
#    z 0.009720 -0.028810 1.871600 
# 
# From -- ./inp_files/279374.got.cif
#   From: 2010.05.17/outbox.cif.g08.bks.cpg/sg2_140_cif.got.tgz:279374.got - 2010.06.03 11:33:40.
