data_PCOD9089356
_publ_section_title
;
Structure prediction by ZEFSAII (Michael W. Deem and Ramdas Pophale) SiO2 
 PCOD9089356
Probable space group: P -1
;
_chemical_formula_sum "Si O2"
_cell_formula_units_Z 16
_cell_length_a 8.182678
_cell_length_b 15.563382
_cell_length_c 11.758934
_cell_angle_alpha 28.627535
_cell_angle_beta 70.989376
_cell_angle_gamma 64.980517
_cell_volume 646.571600
_symmetry_space_group_name_H-M "P -1"
_symmetry_group_IT_number 2
_symmetry_cell_setting 'triclinic'
loop_
_space_group_symop_operation_xyz
x,y,z
-x,-y,-z
loop_
_atom_site_type_symbol
_atom_site_label
_atom_site_fract_x
_atom_site_fract_y
_atom_site_fract_z
Si Si1 0.656638 0.710946 0.025780
Si Si2 0.778481 0.430742 0.521520
Si Si3 0.945961 0.998474 0.324080
Si Si4 0.211208 0.336074 0.545352
Si Si5 0.045494 0.703055 0.849843
Si Si6 0.606704 0.899883 0.418433
Si Si7 0.830955 0.026959 0.920009
Si Si8 0.606240 0.608806 0.922009
O O1 0.572257 0.616926 0.053767
O O2 0.854743 0.696487 0.948767
O O3 0.544802 0.929136 0.801185
O O4 0.676066 0.597414 0.268225
O O5 0.754654 0.500953 0.575027
O O6 0.725975 0.244328 0.717461
O O7 0.996527 0.392823 0.496559
O O8 0.780959 0.966074 0.329187
O O9 0.018468 0.832057 0.593114
O O10 0.097089 0.997560 0.196828
O O11 0.884386 0.187667 0.192756
O O12 0.331197 0.275410 0.477747
O O13 0.248990 0.141367 0.835158
O O14 0.183627 0.501935 0.023509
O O15 0.553740 0.818028 0.641299
O O16 0.000000 0.000000 0.000000
O O17 0.500000 0.500000 0.000000
#
# Coordination Sequence:
#
# PCOD9089356 Si02
#       8
#     2   2   2   2   2   2   2   2
#     4  12  25  44  69  99 140 181 228 285 341 415
#     4  10  21  41  68 100 129 181 232 282 338 409
#     4  11  22  41  68 100 132 177 231 279 345 403
#     4  10  22  43  71  98 138 179 232 287 347 406
#     4  11  25  40  72  98 129 180 229 282 337 419
#     4  12  25  44  67  96 145 182 219 288 348 403
#     4  10  19  37  68  97 129 170 231 279 331 408
#     4  12  27  45  67 101 140 180 228 283 347 411
#
# _framework density 24.745906999999999
#
# number of rings (size 3 to 8) (size 9 to 14) (size 15 to 20)
#    0.000    1.000    3.750    3.750    3.500    2.500 
#    4.500    0.625    0.000    0.000    0.000    0.000 
#    0.000    0.000    0.000    0.000    0.000    0.000 
#
# Total GULP energy -89685.247129 kJ/mol
# GULP energy per Si atom -5605.327946 kJ/mol
# Density = 2.468958 g / cm^3
# Si number density = 24.745907 Si / 1000 Ang^3
#
#
#
# Elastic Constant Matrix: (Units=GPa)
#
#
# Indices 1 2 3 4 5 6 
#
# 1 45.6241 23.6343 13.9759 1.9949 9.8163 -4.5760
# 2 23.6343 117.7829 22.5358 -15.7447 14.7077 2.1949
# 3 13.9759 22.5358 107.4166 -7.0747 22.4593 -4.8883
# 4 1.9949 -15.7447 -7.0747 43.8302 -2.4162 0.7087
# 5 9.8163 14.7077 22.4593 -2.4162 33.7652 -1.9341
# 6 -4.5760 2.1949 -4.8883 0.7087 -1.9341 21.0199
#
#
#
# Elastic Compliance Matrix: (Units=1/GPa)
#
#
# Indices 1 2 3 4 5 6 
#
# 1 0.026710 -0.005112 -0.001437 -0.003626 -0.004514 0.005721
# 2 -0.005112 0.010548 -0.000927 0.003786 -0.002380 -0.002777
# 3 -0.001437 -0.000927 0.011194 0.001156 -0.006441 0.001755
# 4 -0.003626 0.003786 0.001156 0.024571 0.000296 -0.001717
# 5 -0.004514 -0.002380 -0.006441 0.000296 0.036334 0.001101
# 6 0.005721 -0.002777 0.001755 -0.001717 0.001101 0.049677
#
#
# Mechanical properties :
#
#
# Convention : Reuss Voigt Hill
#
# Bulk Modulus (GPa) = 29.85175 43.45726 36.65450
# Shear Modulus (GPa) = 27.00454 33.76824 30.38639
#
# Velocity S-wave (km/s) = 3.30703 3.69806 3.50799
# Velocity P-wave (km/s) = 5.16444 5.98612 5.59040
#
# Compressibility (1/GPa) = 0.03349888
#
# Stress axis : x y z
#
# Youngs Moduli (GPa) = 37.43857 94.80065 89.33560
#
# Poissons Ratio (x) = 0.48465 0.12840
# Poissons Ratio (y) = 0.19140 0.08284
# Poissons Ratio (z) = 0.05381 0.08791
#
# Static dielectric constant tensor:
#      x y z
#    x 1.998160 0.000760 0.003320 
#    y 0.000760 1.944310 -0.012620 
#    z 0.003320 -0.012620 1.956480 
# 
# From -- ./inp_files/382534.got.cif
#   From: 2010.05.17/outbox.cif.g08.bks.cpg/sg2_192_cif.got.tgz:382534.got - 2010.06.03 11:33:40.
