data_PCOD9089341
_publ_section_title
;
Structure prediction by ZEFSAII (Michael W. Deem and Ramdas Pophale) SiO2 
 PCOD9089341
Probable space group: P -1
;
_chemical_formula_sum "Si O2"
_cell_formula_units_Z 12
_cell_length_a 11.451502
_cell_length_b 8.331055
_cell_length_c 8.250476
_cell_angle_alpha 115.903383
_cell_angle_beta 83.843009
_cell_angle_gamma 139.068594
_cell_volume 429.452633
_symmetry_space_group_name_H-M "P -1"
_symmetry_group_IT_number 2
_symmetry_cell_setting 'triclinic'
loop_
_space_group_symop_operation_xyz
x,y,z
-x,-y,-z
loop_
_atom_site_type_symbol
_atom_site_label
_atom_site_fract_x
_atom_site_fract_y
_atom_site_fract_z
Si Si1 0.645486 0.833612 0.173526
Si Si2 0.142375 0.000212 0.095298
Si Si3 0.333725 0.623268 0.305869
Si Si4 0.492647 0.286796 0.349634
Si Si5 0.101524 0.692936 0.411057
Si Si6 0.871453 0.701699 0.283918
O O1 0.489775 0.799303 0.216441
O O2 0.756093 0.979860 0.394268
O O3 0.500000 0.500000 0.000000
O O4 0.809328 0.024581 0.097575
O O5 0.220255 0.298221 0.198047
O O6 0.274976 0.028780 0.200986
O O7 0.941547 0.788740 0.125816
O O8 0.436389 0.744466 0.522332
O O9 0.208856 0.648396 0.310642
O O10 0.500000 0.500000 0.500000
O O11 0.649106 0.452979 0.256125
O O12 0.942284 0.594475 0.284746
O O13 0.000000 0.500000 0.500000
O O14 0.000000 0.000000 0.500000
#
# Coordination Sequence:
#
# PCOD9089341 Si02
#       6
#     2   2   2   2   2   2
#     4  10  24  43  68 102 137 178 222 278 344 398
#     4  10  22  43  68 102 134 177 228 276 337 400
#     4  10  20  43  68  97 129 180 227 274 327 401
#     4  10  19  37  68  93 132 172 235 263 329 405
#     4  12  24  44  69 100 137 173 231 280 333 403
#     4  12  22  40  70  99 129 183 229 274 327 416
#
# _framework density 27.942544000000002
#
# number of rings (size 3 to 8) (size 9 to 14) (size 15 to 20)
#    0.000    1.333    5.000    1.500    4.667    0.000 
#    3.000    6.667    0.000    0.000    0.000    0.000 
#    0.000    0.000    0.000    0.000    0.000    0.000 
#
# Total GULP energy -67114.474242 kJ/mol
# GULP energy per Si atom -5592.872853 kJ/mol
# Density = 2.787895 g / cm^3
# Si number density = 27.942544 Si / 1000 Ang^3
#
#
#
# Elastic Constant Matrix: (Units=GPa)
#
#
# Indices 1 2 3 4 5 6 
#
# 1 217.3799 45.2990 53.5748 -23.6828 -19.2546 10.8197
# 2 45.2990 140.0909 35.4630 -29.1104 -27.8611 35.6788
# 3 53.5748 35.4630 119.3418 -18.2047 -30.6966 5.4718
# 4 -23.6828 -29.1104 -18.2047 53.4082 11.4768 -21.4180
# 5 -19.2546 -27.8611 -30.6966 11.4768 51.2629 -12.7964
# 6 10.8197 35.6788 5.4718 -21.4180 -12.7964 67.1580
#
#
#
# Elastic Compliance Matrix: (Units=1/GPa)
#
#
# Indices 1 2 3 4 5 6 
#
# 1 0.005425 -0.001054 -0.001916 0.001262 0.000101 0.000264
# 2 -0.001054 0.009747 -0.001183 0.002398 0.002752 -0.003623
# 3 -0.001916 -0.001183 0.011162 0.001817 0.005319 0.001621
# 4 0.001262 0.002398 0.001817 0.023733 -0.001013 0.005751
# 5 0.000101 0.002752 0.005319 -0.001013 0.025088 0.002546
# 6 0.000264 -0.003623 0.001621 0.005751 0.002546 0.018960
#
#
# Mechanical properties :
#
#
# Convention : Reuss Voigt Hill
#
# Bulk Modulus (GPa) = 55.47201 82.83180 69.15191
# Shear Modulus (GPa) = 46.11206 57.19755 51.65480
#
# Velocity S-wave (km/s) = 4.06673 4.52925 4.30421
# Velocity P-wave (km/s) = 6.47660 7.55382 7.03585
#
# Compressibility (1/GPa) = 0.01802711
#
# Stress axis : x y z
#
# Youngs Moduli (GPa) = 184.31704 102.59746 89.58938
#
# Poissons Ratio (x) = 0.10816 0.17165
# Poissons Ratio (y) = 0.19430 0.10603
# Poissons Ratio (z) = 0.35314 0.12142
#
# Static dielectric constant tensor:
#      x y z
#    x 2.131260 0.025540 0.091120 
#    y 0.025540 2.297160 0.101210 
#    z 0.091120 0.101210 2.293800 
# 
# From -- ./inp_files/240418.got.cif
#   From: 2010.05.17/outbox.cif.g08.bks.cpg/sg2_121_cif.got.tgz:240418.got - 2010.06.03 11:33:40.
