data_PCOD9089810
_publ_section_title
;
Structure prediction by ZEFSAII (Michael W. Deem and Ramdas Pophale) SiO2 
 PCOD9089810
Probable space group: P -1
;
_chemical_formula_sum "Si O2"
_cell_formula_units_Z 14
_cell_length_a 8.699400
_cell_length_b 14.776776
_cell_length_c 9.109375
_cell_angle_alpha 110.486255
_cell_angle_beta 111.859533
_cell_angle_gamma 32.549196
_cell_volume 583.194479
_symmetry_space_group_name_H-M "P -1"
_symmetry_group_IT_number 2
_symmetry_cell_setting 'triclinic'
loop_
_space_group_symop_operation_xyz
x,y,z
-x,-y,-z
loop_
_atom_site_type_symbol
_atom_site_label
_atom_site_fract_x
_atom_site_fract_y
_atom_site_fract_z
Si Si1 0.165603 0.672207 0.919643
Si Si2 0.142375 0.355979 0.356840
Si Si3 0.296474 0.853356 0.426273
Si Si4 0.625986 0.688393 0.899455
Si Si5 0.021192 0.909156 0.788011
Si Si6 0.015235 0.326543 0.856931
Si Si7 0.763797 0.310227 0.539424
O O1 0.064562 0.820599 0.893591
O O2 0.059823 0.638670 0.749358
O O3 0.500000 0.500000 0.000000
O O4 0.975323 0.744679 0.037992
O O5 0.461790 0.190793 0.447098
O O6 0.215097 0.366762 0.229570
O O7 0.000000 0.500000 0.500000
O O8 0.363029 0.709655 0.404782
O O9 0.000000 0.000000 0.500000
O O10 0.247012 0.902630 0.266128
O O11 0.287209 0.855799 0.858433
O O12 0.728154 0.531362 0.884290
O O13 0.735806 0.713469 0.068962
O O14 0.094500 0.804974 0.617230
O O15 0.989307 0.271819 0.677674
O O16 0.500000 0.500000 0.500000
#
# Coordination Sequence:
#
# PCOD9089810 Si02
#       7
#     2   2   2   2   2   2   2
#     4  11  23  38  61  99 134 167 215 275 330 376
#     4  11  24  38  67 100 129 163 227 277 314 382
#     4  10  22  42  66  94 134 172 214 267 336 385
#     4  10  19  38  61  93 127 170 209 261 334 377
#     4  11  22  40  68  90 132 177 211 265 336 386
#     4  10  21  35  61  91 131 163 220 269 313 381
#     4  11  19  36  68  93 116 164 236 255 303 385
#
# _framework density 24.005713
#
# number of rings (size 3 to 8) (size 9 to 14) (size 15 to 20)
#    0.000    1.429    5.714    0.000    6.000    0.571 
#    0.000    1.429    0.000    0.000    0.000    0.000 
#    0.000    0.000    0.000    0.000    0.000    0.000 
#
# Total GULP energy -78183.368326 kJ/mol
# GULP energy per Si atom -5584.526309 kJ/mol
# Density = 2.395108 g / cm^3
# Si number density = 24.005713 Si / 1000 Ang^3
#
#
#
# Elastic Constant Matrix: (Units=GPa)
#
#
# Indices 1 2 3 4 5 6 
#
# 1 81.5414 42.7667 46.6672 -14.0304 2.0154 10.5685
# 2 42.7667 65.8634 46.9402 -22.5039 -5.7261 13.6878
# 3 46.6672 46.9402 136.7019 -19.8406 37.5713 6.9435
# 4 -14.0304 -22.5039 -19.8406 42.6972 9.7824 -5.1424
# 5 2.0154 -5.7261 37.5713 9.7824 60.1178 -20.3550
# 6 10.5685 13.6878 6.9435 -5.1424 -20.3550 34.5387
#
#
#
# Elastic Compliance Matrix: (Units=1/GPa)
#
#
# Indices 1 2 3 4 5 6 
#
# 1 0.019589 -0.010455 -0.003107 -0.000667 -0.000063 -0.001362
# 2 -0.010455 0.030989 -0.007268 0.007878 0.005471 -0.003223
# 3 -0.003107 -0.007268 0.015477 0.004589 -0.013158 -0.006351
# 4 -0.000667 0.007878 0.004589 0.030936 -0.008583 -0.004293
# 5 -0.000063 0.005471 -0.013158 -0.008583 0.033121 0.018738
# 6 -0.001362 -0.003223 -0.006351 -0.004293 0.018738 0.042328
#
#
# Mechanical properties :
#
#
# Convention : Reuss Voigt Hill
#
# Bulk Modulus (GPa) = 40.99539 61.87277 51.43408
# Shear Modulus (GPa) = 22.49888 37.31959 29.90923
#
# Velocity S-wave (km/s) = 3.06474 3.94714 3.53359
# Velocity P-wave (km/s) = 5.44408 6.82666 6.17419
#
# Compressibility (1/GPa) = 0.02439298
#
# Stress axis : x y z
#
# Youngs Moduli (GPa) = 51.04878 32.26919 64.61334
#
# Poissons Ratio (x) = 0.33739 0.20078
# Poissons Ratio (y) = 0.53373 0.46963
# Poissons Ratio (z) = 0.15863 0.23454
#
# Static dielectric constant tensor:
#      x y z
#    x 1.957650 -0.014020 0.016190 
#    y -0.014020 2.006070 -0.024230 
#    z 0.016190 -0.024230 1.926620 
# 
# From -- ./inp_files/202622.got.cif
#   From: 2010.05.17/outbox.cif.g08.bks.cpg/sg2_102_cif.got.tgz:202622.got - 2010.06.03 11:33:40.
