data_PCOD9089514
_publ_section_title
;
Structure prediction by ZEFSAII (Michael W. Deem and Ramdas Pophale) SiO2 
 PCOD9089514
Probable space group: P -1
;
_chemical_formula_sum "Si O2"
_cell_formula_units_Z 14
_cell_length_a 9.473930
_cell_length_b 7.995753
_cell_length_c 12.932272
_cell_angle_alpha 76.882448
_cell_angle_beta 121.531634
_cell_angle_gamma 131.851024
_cell_volume 610.386098
_symmetry_space_group_name_H-M "P -1"
_symmetry_group_IT_number 2
_symmetry_cell_setting 'triclinic'
loop_
_space_group_symop_operation_xyz
x,y,z
-x,-y,-z
loop_
_atom_site_type_symbol
_atom_site_label
_atom_site_fract_x
_atom_site_fract_y
_atom_site_fract_z
Si Si1 0.800421 0.177939 0.150652
Si Si2 0.257982 0.611555 0.294101
Si Si3 0.698511 0.695905 0.972238
Si Si4 0.961859 0.172016 0.760723
Si Si5 0.496645 0.196331 0.439042
Si Si6 0.340627 0.655795 0.746789
Si Si7 0.595848 0.285415 0.887812
O O1 0.733566 0.243746 0.218114
O O2 0.060432 0.346544 0.230286
O O3 0.653393 0.907430 0.138846
O O4 0.727614 0.233842 0.012771
O O5 0.144012 0.720783 0.252954
O O6 0.387960 0.639663 0.441166
O O7 0.404023 0.735512 0.231390
O O8 0.588608 0.780202 0.861897
O O9 0.707431 0.541994 0.919889
O O10 0.500000 0.500000 0.000000
O O11 0.922795 0.855684 0.099639
O O12 0.162830 0.381575 0.737320
O O13 0.759147 0.937282 0.661657
O O14 0.636862 0.303063 0.372385
O O15 0.500000 0.000000 0.500000
#
# Coordination Sequence:
#
# PCOD9089514 Si02
#       7
#     2   2   2   2   2   2   2
#     4  10  20  33  59  87 110 143 185 230 286 320
#     4  10  20  35  54  84 116 144 184 231 277 327
#     4  10  19  38  58  84 116 143 185 232 283 332
#     4   9  19  35  57  86 113 145 185 234 279 325
#     4  10  21  35  56  84 114 148 192 226 270 333
#     4  10  20  38  58  83 115 147 186 231 276 330
#     4  11  20  35  57  85 116 141 181 236 280 332
#
# _framework density 22.936299000000002
#
# number of rings (size 3 to 8) (size 9 to 14) (size 15 to 20)
#    0.000    2.000    4.286    2.143    0.000    6.857 
#    0.000    3.571    0.000    4.286    0.000    0.000 
#    0.000    0.000    0.000    0.000    0.000    0.000 
#
# Total GULP energy -78195.061597 kJ/mol
# GULP energy per Si atom -5585.361543 kJ/mol
# Density = 2.288410 g / cm^3
# Si number density = 22.936299 Si / 1000 Ang^3
#
#
#
# Elastic Constant Matrix: (Units=GPa)
#
#
# Indices 1 2 3 4 5 6 
#
# 1 53.2314 13.1100 35.2005 -12.8481 -6.4109 4.0499
# 2 13.1100 53.2921 9.9193 2.7316 -4.7024 5.7998
# 3 35.2005 9.9193 100.7965 -2.9806 -25.7368 5.8964
# 4 -12.8481 2.7316 -2.9806 39.3132 15.1834 -4.9958
# 5 -6.4109 -4.7024 -25.7368 15.1834 33.8057 -4.0513
# 6 4.0499 5.7998 5.8964 -4.9958 -4.0513 19.7077
#
#
#
# Elastic Compliance Matrix: (Units=1/GPa)
#
#
# Indices 1 2 3 4 5 6 
#
# 1 0.030687 -0.006975 -0.012398 0.013801 -0.010698 0.000755
# 2 -0.006975 0.021589 0.001806 -0.006423 0.005219 -0.006016
# 3 -0.012398 0.001806 0.017842 -0.009025 0.015240 -0.002477
# 4 0.013801 -0.006423 -0.009025 0.039050 -0.021827 0.007166
# 5 -0.010698 0.005219 0.015240 -0.021827 0.049780 0.000803
# 6 0.000755 -0.006016 -0.002477 0.007166 0.000803 0.055079
#
#
# Mechanical properties :
#
#
# Convention : Reuss Voigt Hill
#
# Bulk Modulus (GPa) = 28.58435 35.97553 32.27994
# Shear Modulus (GPa) = 19.17003 28.50467 23.83735
#
# Velocity S-wave (km/s) = 2.89415 3.52913 3.22729
# Velocity P-wave (km/s) = 4.86391 5.68554 5.29070
#
# Compressibility (1/GPa) = 0.03498417
#
# Stress axis : x y z
#
# Youngs Moduli (GPa) = 32.58660 46.32065 56.04657
#
# Poissons Ratio (x) = 0.32309 0.69486
# Poissons Ratio (y) = 0.22730 -0.10121
# Poissons Ratio (z) = 0.40400 -0.08365
#
# Static dielectric constant tensor:
#      x y z
#    x 1.896360 -0.024470 -0.014850 
#    y -0.024470 1.921230 0.025410 
#    z -0.014850 0.025410 1.908190 
# 
# From -- ./inp_files/381386.got.cif
#   From: 2010.05.17/outbox.cif.g08.bks.cpg/sg2_191_cif.got.tgz:381386.got - 2010.06.03 11:33:40.
