data_PCOD9089357
_publ_section_title
;
Structure prediction by ZEFSAII (Michael W. Deem and Ramdas Pophale) SiO2 
 PCOD9089357
Probable space group: P -1
;
_chemical_formula_sum "Si O2"
_cell_formula_units_Z 12
_cell_length_a 18.932027
_cell_length_b 11.119381
_cell_length_c 5.737749
_cell_angle_alpha 59.412816
_cell_angle_beta 67.033443
_cell_angle_gamma 27.544431
_cell_volume 475.166671
_symmetry_space_group_name_H-M "P -1"
_symmetry_group_IT_number 2
_symmetry_cell_setting 'triclinic'
loop_
_space_group_symop_operation_xyz
x,y,z
-x,-y,-z
loop_
_atom_site_type_symbol
_atom_site_label
_atom_site_fract_x
_atom_site_fract_y
_atom_site_fract_z
Si Si1 0.735054 0.309710 0.107919
Si Si2 0.756945 0.245786 0.659458
Si Si3 0.886951 0.747163 0.086647
Si Si4 0.585145 0.262744 0.446444
Si Si5 0.810206 0.675862 0.635456
Si Si6 0.567540 0.841977 0.818953
O O1 0.807415 0.212966 0.368471
O O2 0.682682 0.229669 0.221429
O O3 0.822146 0.205687 0.856246
O O4 0.586919 0.645458 0.989170
O O5 0.571442 0.561627 0.620708
O O6 0.795768 0.019903 0.829600
O O7 0.791422 0.776118 0.306633
O O8 0.010180 0.610512 0.252441
O O9 0.000000 0.500000 0.000000
O O10 0.500000 0.500000 0.500000
O O11 0.705868 0.948750 0.653038
O O12 0.738377 0.638972 0.792154
O O13 0.500000 0.000000 0.500000
O O14 0.500000 0.000000 0.000000
#
# Coordination Sequence:
#
# PCOD9089357 Si02
#       6
#     2   2   2   2   2   2
#     4  11  22  40  63  99 132 176 226 287 344 410
#     4  11  23  40  70  97 135 180 237 288 344 406
#     4  11  25  43  72 100 145 188 239 293 348 421
#     4  10  19  37  68  97 131 172 235 293 336 404
#     4  11  25  45  69 106 139 186 237 290 358 418
#     4  12  27  45  71 105 149 184 230 293 363 425
#
# _framework density 25.254296
#
# number of rings (size 3 to 8) (size 9 to 14) (size 15 to 20)
#    0.000    1.000    1.667    6.500    7.000    0.000 
#    0.000    1.667    0.000    0.000    0.000    0.000 
#    0.000    0.000    0.000    0.000    0.000    0.000 
#
# Total GULP energy -66909.377734 kJ/mol
# GULP energy per Si atom -5575.781478 kJ/mol
# Density = 2.519682 g / cm^3
# Si number density = 25.254296 Si / 1000 Ang^3
#
#
#
# Elastic Constant Matrix: (Units=GPa)
#
#
# Indices 1 2 3 4 5 6 
#
# 1 48.4270 15.0466 23.0134 11.8729 0.4793 8.2097
# 2 15.0466 98.9090 35.8818 -1.1681 11.9601 13.6429
# 3 23.0134 35.8818 144.7350 15.0777 30.1556 13.4627
# 4 11.8729 -1.1681 15.0777 60.9580 18.7527 10.8098
# 5 0.4793 11.9601 30.1556 18.7527 39.5348 13.5563
# 6 8.2097 13.6429 13.4627 10.8098 13.5563 50.5716
#
#
#
# Elastic Compliance Matrix: (Units=1/GPa)
#
#
# Indices 1 2 3 4 5 6 
#
# 1 0.025283 -0.002959 -0.003940 -0.005733 0.007342 -0.003000
# 2 -0.002959 0.011906 -0.002030 0.002429 -0.002467 -0.002049
# 3 -0.003940 -0.002030 0.009380 0.000439 -0.006849 0.000432
# 4 -0.005733 0.002429 0.000439 0.020931 -0.010405 -0.001526
# 5 0.007342 -0.002467 -0.006849 -0.010405 0.038437 -0.006782
# 6 -0.003000 -0.002049 0.000432 -0.001526 -0.006782 0.022843
#
#
# Mechanical properties :
#
#
# Convention : Reuss Voigt Hill
#
# Bulk Modulus (GPa) = 34.82779 48.88385 41.85582
# Shear Modulus (GPa) = 32.00876 44.75484 38.38180
#
# Velocity S-wave (km/s) = 3.56400 4.21428 3.90271
# Velocity P-wave (km/s) = 5.54589 6.56345 6.07601
#
# Compressibility (1/GPa) = 0.02871271
#
# Stress axis : x y z
#
# Youngs Moduli (GPa) = 39.55266 83.98859 106.61029
#
# Poissons Ratio (x) = 0.24848 0.42004
# Poissons Ratio (y) = 0.11702 0.21639
# Poissons Ratio (z) = 0.15584 0.17047
#
# Static dielectric constant tensor:
#      x y z
#    x 2.095380 0.010310 0.121260 
#    y 0.010310 1.997360 0.083320 
#    z 0.121260 0.083320 2.136360 
# 
# From -- ./inp_files/118026.got.cif
#   From: 2010.05.17/outbox.cif.g08.bks.cpg/sg2_60_cif.got.tgz:118026.got - 2010.06.03 11:33:40.
