data_PCOD9089930
_publ_section_title
;
Structure prediction by ZEFSAII (Michael W. Deem and Ramdas Pophale) SiO2 
 PCOD9089930
Probable space group: P -1
;
_chemical_formula_sum "Si O2"
_cell_formula_units_Z 16
_cell_length_a 20.823837
_cell_length_b 9.992623
_cell_length_c 8.764771
_cell_angle_alpha 102.249460
_cell_angle_beta 136.162806
_cell_angle_gamma 43.896680
_cell_volume 672.592849
_symmetry_space_group_name_H-M "P -1"
_symmetry_group_IT_number 2
_symmetry_cell_setting 'triclinic'
loop_
_space_group_symop_operation_xyz
x,y,z
-x,-y,-z
loop_
_atom_site_type_symbol
_atom_site_label
_atom_site_fract_x
_atom_site_fract_y
_atom_site_fract_z
Si Si1 0.938132 0.903458 0.549946
Si Si2 0.621132 0.460340 0.115518
Si Si3 0.868979 0.524374 0.439260
Si Si4 0.529964 0.806406 0.805891
Si Si5 0.280885 0.527321 0.215794
Si Si6 0.824080 0.411949 0.643526
Si Si7 0.837176 0.744758 0.682283
Si Si8 0.825429 0.066824 0.744644
O O1 0.850994 0.009605 0.594026
O O2 0.985736 0.714407 0.480301
O O3 0.798222 0.171791 0.290770
O O4 0.127355 0.721185 0.875329
O O5 0.677132 0.498886 0.348683
O O6 0.500000 0.500000 0.000000
O O7 0.541474 0.656305 0.896629
O O8 0.878581 0.431041 0.594672
O O9 0.882016 0.662046 0.560891
O O10 0.684229 0.716345 0.098073
O O11 0.559892 0.721576 0.664771
O O12 0.345514 0.102704 0.576238
O O13 0.233816 0.477450 0.257449
O O14 0.295906 0.660514 0.345745
O O15 0.993833 0.120359 0.913131
O O16 0.794737 0.950037 0.714834
O O17 0.000000 0.500000 0.000000
#
# Coordination Sequence:
#
# PCOD9089930 Si02
#       8
#     2   2   2   2   2   2   2   2
#     4  10  20  38  66  95 126 162 205 254 317 384
#     4  11  21  37  59  98 131 158 200 258 327 367
#     4  10  23  42  67  92 123 173 216 247 309 367
#     4  10  25  40  67  91 128 163 211 264 310 370
#     4  10  20  39  65  99 123 159 205 257 331 370
#     4  10  19  38  62  92 127 165 197 259 309 375
#     4  12  25  44  64  88 126 173 216 256 301 371
#     4  11  20  38  66  92 131 162 201 258 313 374
#
# _framework density 23.788537999999999
#
# number of rings (size 3 to 8) (size 9 to 14) (size 15 to 20)
#    0.000    1.500    3.750    1.875    1.750    2.500 
#    2.250    0.625    2.750    0.000    0.000    0.000 
#    0.000    0.000    0.000    0.000    0.000    0.000 
#
# Total GULP energy -89136.261939 kJ/mol
# GULP energy per Si atom -5571.016371 kJ/mol
# Density = 2.373439 g / cm^3
# Si number density = 23.788538 Si / 1000 Ang^3
#
#
#
# Elastic Constant Matrix: (Units=GPa)
#
#
# Indices 1 2 3 4 5 6 
#
# 1 75.1921 8.7735 16.8990 4.0266 -15.9319 -9.6610
# 2 8.7735 129.1075 34.9625 15.0605 -12.4346 -32.8365
# 3 16.8990 34.9625 101.9419 -8.2777 -8.1209 -8.5313
# 4 4.0266 15.0605 -8.2777 43.9183 3.1765 3.0689
# 5 -15.9319 -12.4346 -8.1209 3.1765 21.2301 7.4048
# 6 -9.6610 -32.8365 -8.5313 3.0689 7.4048 34.2408
#
#
#
# Elastic Compliance Matrix: (Units=1/GPa)
#
#
# Indices 1 2 3 4 5 6 
#
# 1 0.016929 0.002186 -0.002573 -0.003946 0.012215 0.003944
# 2 0.002186 0.012779 -0.003944 -0.006459 0.004580 0.011477
# 3 -0.002573 -0.003944 0.011769 0.003920 0.000375 -0.002009
# 4 -0.003946 -0.006459 0.003920 0.027083 -0.006752 -0.007298
# 5 0.012215 0.004580 0.000375 -0.006752 0.061789 -0.004825
# 6 0.003944 0.011477 -0.002009 -0.007298 -0.004825 0.042521
#
#
# Mechanical properties :
#
#
# Convention : Reuss Voigt Hill
#
# Bulk Modulus (GPa) = 30.47514 47.50127 38.98821
# Shear Modulus (GPa) = 25.97808 36.25159 31.11484
#
# Velocity S-wave (km/s) = 3.30819 3.90796 3.62052
# Velocity P-wave (km/s) = 5.23745 6.35409 5.82260
#
# Compressibility (1/GPa) = 0.03281363
#
# Stress axis : x y z
#
# Youngs Moduli (GPa) = 59.07125 78.25580 84.96989
#
# Poissons Ratio (x) = -0.17109 0.21866
# Poissons Ratio (y) = -0.12915 0.33514
# Poissons Ratio (z) = 0.15201 0.30866
#
# Static dielectric constant tensor:
#      x y z
#    x 2.051740 0.125930 0.044630 
#    y 0.125930 1.982350 0.023990 
#    z 0.044630 0.023990 1.938310 
# 
# From -- ./inp_files/353832.got.cif
#   From: 2010.05.17/outbox.cif.g08.bks.cpg/sg2_177_cif.got.tgz:353832.got - 2010.06.03 11:33:40.
