data_PCOD9089447
_publ_section_title
;
Structure prediction by ZEFSAII (Michael W. Deem and Ramdas Pophale) SiO2 
 PCOD9089447
Probable space group: P -1
;
_chemical_formula_sum "Si O2"
_cell_formula_units_Z 14
_cell_length_a 14.759888
_cell_length_b 13.568289
_cell_length_c 14.109137
_cell_angle_alpha 21.602354
_cell_angle_beta 40.563271
_cell_angle_gamma 37.407403
_cell_volume 629.114293
_symmetry_space_group_name_H-M "P -1"
_symmetry_group_IT_number 2
_symmetry_cell_setting 'triclinic'
loop_
_space_group_symop_operation_xyz
x,y,z
-x,-y,-z
loop_
_atom_site_type_symbol
_atom_site_label
_atom_site_fract_x
_atom_site_fract_y
_atom_site_fract_z
Si Si1 0.789763 0.119635 0.367529
Si Si2 0.098302 0.981867 0.303632
Si Si3 0.558659 0.599277 0.586811
Si Si4 0.591328 0.206050 0.743927
Si Si5 0.838040 0.668049 0.232998
Si Si6 0.409759 0.346160 0.268533
Si Si7 0.145454 0.524267 0.177511
O O1 0.618820 0.246909 0.422273
O O2 0.820502 0.788349 0.616195
O O3 0.808495 0.281466 0.110450
O O4 0.919438 0.133073 0.324528
O O5 0.238257 0.949502 0.289463
O O6 0.123482 0.655770 0.546571
O O7 0.130695 0.154722 0.035635
O O8 0.599393 0.313172 0.748444
O O9 0.667500 0.760608 0.319866
O O10 0.593911 0.557404 0.706719
O O11 0.500000 0.500000 0.500000
O O12 0.500000 0.000000 0.000000
O O13 0.965845 0.656661 0.217721
O O14 0.246759 0.456536 0.251010
O O15 0.500000 0.000000 0.500000
O O16 0.500000 0.500000 0.000000
#
# Coordination Sequence:
#
# PCOD9089447 Si02
#       7
#     2   2   2   2   2   2   2
#     4  10  20  36  63  87 123 158 201 240 304 359
#     4   9  19  39  60  87 119 159 192 254 307 352
#     4  11  23  40  64  94 119 164 207 252 301 358
#     4  11  24  42  64  88 121 158 204 255 309 359
#     4   9  20  34  60  86 123 159 205 238 297 357
#     4  12  23  37  60  92 130 159 203 246 298 359
#     4  10  19  38  55  88 126 168 191 244 295 357
#
# _framework density 22.253508
#
# number of rings (size 3 to 8) (size 9 to 14) (size 15 to 20)
#    0.000    1.714    2.857    1.714    0.000    7.429 
#    0.000    1.429    0.000   12.000    0.000    0.000 
#    0.000    0.000    0.000    0.000    0.000    0.000 
#
# Total GULP energy -78110.820274 kJ/mol
# GULP energy per Si atom -5579.344305 kJ/mol
# Density = 2.220286 g / cm^3
# Si number density = 22.253508 Si / 1000 Ang^3
#
#
#
# Elastic Constant Matrix: (Units=GPa)
#
#
# Indices 1 2 3 4 5 6 
#
# 1 104.4236 57.6742 40.5039 7.5878 -21.1522 -51.8774
# 2 57.6742 94.9193 37.3589 28.4206 -6.6594 -42.9970
# 3 40.5039 37.3589 152.1381 7.3716 3.2895 -7.6441
# 4 7.5878 28.4206 7.3716 45.5157 -14.1641 -9.6112
# 5 -21.1522 -6.6594 3.2895 -14.1641 29.0091 4.1370
# 6 -51.8774 -42.9970 -7.6441 -9.6112 4.1370 66.4323
#
#
#
# Elastic Compliance Matrix: (Units=1/GPa)
#
#
# Indices 1 2 3 4 5 6 
#
# 1 0.029527 -0.011024 -0.005545 0.013674 0.024056 0.015765
# 2 -0.011024 0.024074 -0.001760 -0.015040 -0.010403 0.005242
# 3 -0.005545 -0.001760 0.008485 -0.002092 -0.005798 -0.004434
# 4 0.013674 -0.015040 -0.002092 0.038091 0.024687 0.004677
# 5 0.024056 -0.010403 -0.005798 0.024687 0.060742 0.011174
# 6 0.015765 0.005242 -0.004434 0.004677 0.011174 0.030227
#
#
# Mechanical properties :
#
#
# Convention : Reuss Voigt Hill
#
# Bulk Modulus (GPa) = 39.32380 69.17279 54.24829
# Shear Modulus (GPa) = 21.16143 42.58769 31.87456
#
# Velocity S-wave (km/s) = 3.08705 4.37939 3.78873
# Velocity P-wave (km/s) = 5.51505 7.53150 6.60073
#
# Compressibility (1/GPa) = 0.02542989
#
# Stress axis : x y z
#
# Youngs Moduli (GPa) = 33.86748 41.53836 117.85320
#
# Poissons Ratio (x) = 0.45792 0.65344
# Poissons Ratio (y) = 0.37335 0.20738
# Poissons Ratio (z) = 0.18778 0.07309
#
# Static dielectric constant tensor:
#      x y z
#    x 1.902290 -0.084270 0.012490 
#    y -0.084270 1.872600 0.002080 
#    z 0.012490 0.002080 1.768350 
# 
# From -- ./inp_files/118421.got.cif
#   From: 2010.05.17/outbox.cif.g08.bks.cpg/sg2_60_cif.got.tgz:118421.got - 2010.06.03 11:33:40.
