data_PCOD9089136
_publ_section_title
;
Structure prediction by ZEFSAII (Michael W. Deem and Ramdas Pophale) SiO2 
 PCOD9089136
Probable space group: P -1
;
_chemical_formula_sum "Si O2"
_cell_formula_units_Z 14
_cell_length_a 13.138584
_cell_length_b 8.036259
_cell_length_c 5.065105
_cell_angle_alpha 86.537012
_cell_angle_beta 84.907527
_cell_angle_gamma 72.050965
_cell_volume 506.454709
_symmetry_space_group_name_H-M "P -1"
_symmetry_group_IT_number 2
_symmetry_cell_setting 'triclinic'
loop_
_space_group_symop_operation_xyz
x,y,z
-x,-y,-z
loop_
_atom_site_type_symbol
_atom_site_label
_atom_site_fract_x
_atom_site_fract_y
_atom_site_fract_z
Si Si1 0.069944 0.805770 0.566589
Si Si2 0.791434 0.735584 0.141683
Si Si3 0.342483 0.592925 0.030802
Si Si4 0.275094 0.898155 0.634962
Si Si5 0.907159 0.399320 0.914253
Si Si6 0.403053 0.072811 0.219033
Si Si7 0.377436 0.385565 0.544466
O O1 0.048451 0.751781 0.867902
O O2 0.193174 0.808445 0.533155
O O3 0.050130 0.667967 0.376062
O O4 0.000000 0.000000 0.500000
O O5 0.797377 0.913836 0.253780
O O6 0.893782 0.594025 0.007609
O O7 0.742140 0.632609 0.379358
O O8 0.698068 0.808109 0.938441
O O9 0.219785 0.589825 0.064337
O O10 0.404820 0.444676 0.818820
O O11 0.335343 0.775918 0.874362
O O12 0.383016 0.530463 0.318067
O O13 0.354560 0.940700 0.401966
O O14 0.432958 0.198161 0.418202
O O15 0.500000 0.000000 0.000000
#
# Coordination Sequence:
#
# PCOD9089136 Si02
#       7
#     2   2   2   2   2   2   2
#     4  11  24  43  69 102 134 172 220 279 340 399
#     4  10  22  41  69  97 132 185 231 267 340 402
#     4  10  19  37  65  95 124 172 222 269 328 391
#     4  10  25  38  70 101 137 173 231 280 334 396
#     4  10  20  39  70  91 133 180 217 264 341 406
#     4  11  24  43  67  97 139 181 227 279 333 397
#     4  10  19  38  64  88 127 174 225 263 333 394
#
# _framework density 27.643145000000001
#
# number of rings (size 3 to 8) (size 9 to 14) (size 15 to 20)
#    0.000    1.714    2.857    3.000    8.000    2.286 
#    0.000    2.857    0.000    0.000    0.000    0.000 
#    0.000    0.000    0.000    0.000    0.000    0.000 
#
# Total GULP energy -78488.969330 kJ/mol
# GULP energy per Si atom -5606.354952 kJ/mol
# Density = 2.758023 g / cm^3
# Si number density = 27.643145 Si / 1000 Ang^3
#
#
#
# Elastic Constant Matrix: (Units=GPa)
#
#
# Indices 1 2 3 4 5 6 
#
# 1 57.1843 34.4653 36.9277 -18.7510 -16.6808 0.3841
# 2 34.4653 128.4323 28.2632 7.0267 -12.1063 16.3114
# 3 36.9277 28.2632 127.3786 -8.0516 0.6526 -3.4137
# 4 -18.7510 7.0267 -8.0516 77.7010 11.6861 -2.2509
# 5 -16.6808 -12.1063 0.6526 11.6861 40.7412 0.7493
# 6 0.3841 16.3114 -3.4137 -2.2509 0.7493 29.1780
#
#
#
# Elastic Compliance Matrix: (Units=1/GPa)
#
#
# Indices 1 2 3 4 5 6 
#
# 1 0.030402 -0.006439 -0.006986 0.005933 0.008896 0.002611
# 2 -0.006439 0.010839 -0.000910 -0.003052 0.001591 -0.006357
# 3 -0.006986 -0.000910 0.010145 0.000003 -0.003328 0.001873
# 4 0.005933 -0.003052 0.000003 0.015091 -0.002859 0.002866
# 5 0.008896 0.001591 -0.003328 -0.002859 0.029578 -0.002376
# 6 0.002611 -0.006357 0.001873 0.002866 -0.002376 0.038293
#
#
# Mechanical properties :
#
#
# Convention : Reuss Voigt Hill
#
# Bulk Modulus (GPa) = 44.01913 56.92307 50.47110
# Shear Modulus (GPa) = 29.31038 43.74665 36.52851
#
# Velocity S-wave (km/s) = 3.25978 3.98244 3.63909
# Velocity P-wave (km/s) = 5.48879 6.46400 5.99625
#
# Compressibility (1/GPa) = 0.02271740
#
# Stress axis : x y z
#
# Youngs Moduli (GPa) = 32.89250 92.26274 98.57050
#
# Poissons Ratio (x) = 0.59407 0.68858
# Poissons Ratio (y) = 0.21179 0.08967
# Poissons Ratio (z) = 0.22977 0.08393
#
# Static dielectric constant tensor:
#      x y z
#    x 2.248830 0.001630 0.037350 
#    y 0.001630 2.168980 0.056140 
#    z 0.037350 0.056140 2.081730 
# 
# From -- ./inp_files/88732.got.cif
#   From: 2010.05.17/outbox.cif.g08.bks.cpg/sg2_45_cif.got.tgz:88732.got - 2010.06.03 11:33:40.
