data_PCOD9089718
_publ_section_title
;
Structure prediction by ZEFSAII (Michael W. Deem and Ramdas Pophale) SiO2 
 PCOD9089718
Probable space group: P -1
;
_chemical_formula_sum "Si O2"
_cell_formula_units_Z 14
_cell_length_a 12.517744
_cell_length_b 14.675378
_cell_length_c 15.202511
_cell_angle_alpha 157.618512
_cell_angle_beta 149.877205
_cell_angle_gamma 29.434150
_cell_volume 495.325297
_symmetry_space_group_name_H-M "P -1"
_symmetry_group_IT_number 2
_symmetry_cell_setting 'triclinic'
loop_
_space_group_symop_operation_xyz
x,y,z
-x,-y,-z
loop_
_atom_site_type_symbol
_atom_site_label
_atom_site_fract_x
_atom_site_fract_y
_atom_site_fract_z
Si Si1 0.832650 0.803707 0.137634
Si Si2 0.349250 0.759896 0.892837
Si Si3 0.717218 0.435711 0.166628
Si Si4 0.187393 0.242531 0.732835
Si Si5 0.960487 0.699589 0.870553
Si Si6 0.625158 0.111276 0.615031
Si Si7 0.380814 0.704270 0.675759
O O1 0.828118 0.907950 0.326260
O O2 0.825970 0.035936 0.274575
O O3 0.594422 0.779461 0.922814
O O4 0.000000 0.500000 0.000000
O O5 0.220495 0.800325 0.932879
O O6 0.308244 0.637044 0.661782
O O7 0.618337 0.645046 0.003214
O O8 0.276078 0.065221 0.089375
O O9 0.600509 0.638937 0.342862
O O10 0.500000 0.500000 0.000000
O O11 0.928361 0.444448 0.269723
O O12 0.290747 0.067994 0.567619
O O13 0.976926 0.494350 0.775462
O O14 0.153452 0.830645 0.143196
O O15 0.500000 0.000000 0.500000
O O16 0.500000 0.500000 0.500000
#
# Coordination Sequence:
#
# PCOD9089718 Si02
#       7
#     2   2   2   2   2   2   2
#     4  10  23  42  64  92 125 163 211 259 311 369
#     4  11  22  41  64  87 123 166 198 251 311 356
#     4  10  19  38  61  83 122 158 195 246 299 358
#     4  11  22  40  64  87 124 164 198 256 305 357
#     4  11  22  40  61  90 125 159 205 248 303 369
#     4  11  21  38  62  87 124 160 201 249 299 364
#     4  10  24  42  63  93 129 161 209 263 309 367
#
# _framework density 28.264254000000001
#
# number of rings (size 3 to 8) (size 9 to 14) (size 15 to 20)
#    0.000    1.429    4.286    2.143    2.000    1.714 
#    2.571    1.429    0.000    0.000    0.000    0.000 
#    0.000    0.000    0.000    0.000    0.000    0.000 
#
# Total GULP energy -78102.453982 kJ/mol
# GULP energy per Si atom -5578.746713 kJ/mol
# Density = 2.819992 g / cm^3
# Si number density = 28.264254 Si / 1000 Ang^3
#
#
#
# Elastic Constant Matrix: (Units=GPa)
#
#
# Indices 1 2 3 4 5 6 
#
# 1 174.0096 35.9723 27.0292 -10.7140 -28.0173 30.2630
# 2 35.9723 140.0799 21.6639 -13.4027 -30.0185 3.2101
# 3 27.0292 21.6639 64.8808 -19.1666 -25.8628 1.5792
# 4 -10.7140 -13.4027 -19.1666 43.7606 -5.7867 -10.5626
# 5 -28.0173 -30.0185 -25.8628 -5.7867 44.8062 -2.8458
# 6 30.2630 3.2101 1.5792 -10.5626 -2.8458 58.1180
#
#
#
# Elastic Compliance Matrix: (Units=1/GPa)
#
#
# Indices 1 2 3 4 5 6 
#
# 1 0.007250 -0.000881 -0.001269 0.000522 0.003060 -0.003448
# 2 -0.000881 0.009021 0.001347 0.004300 0.006892 0.001043
# 3 -0.001269 0.001347 0.026999 0.015129 0.017868 0.003477
# 4 0.000522 0.004300 0.015129 0.034642 0.016808 0.006198
# 5 0.003060 0.006892 0.017868 0.016808 0.041501 0.002627
# 6 -0.003448 0.001043 0.003477 0.006198 0.002627 0.020105
#
#
# Mechanical properties :
#
#
# Convention : Reuss Voigt Hill
#
# Bulk Modulus (GPa) = 24.00044 60.92234 42.46139
# Shear Modulus (GPa) = 32.25579 48.95728 40.60654
#
# Velocity S-wave (km/s) = 3.38186 4.16640 3.79446
# Velocity P-wave (km/s) = 4.87434 6.68928 5.85259
#
# Compressibility (1/GPa) = 0.04166591
#
# Stress axis : x y z
#
# Youngs Moduli (GPa) = 137.92449 110.84967 37.03844
#
# Poissons Ratio (x) = 0.09767 0.04698
# Poissons Ratio (y) = 0.12152 -0.04990
# Poissons Ratio (z) = 0.17496 -0.14934
#
# Static dielectric constant tensor:
#      x y z
#    x 3.481330 1.605240 0.859700 
#    y 1.605240 4.066070 1.142850 
#    z 0.859700 1.142850 3.003160 
# 
# From -- ./inp_files/533925.got.cif
#   From: 2010.05.17/outbox.cif.g08.bks.cpg/sg2_267_cif.got.tgz:533925.got - 2010.06.03 11:33:40.
