data_PCOD9089307
_publ_section_title
;
Structure prediction by ZEFSAII (Michael W. Deem and Ramdas Pophale) SiO2 
 PCOD9089307
Probable space group: P -1
;
_chemical_formula_sum "Si O2"
_cell_formula_units_Z 14
_cell_length_a 8.346816
_cell_length_b 10.763083
_cell_length_c 16.391757
_cell_angle_alpha 150.458628
_cell_angle_beta 63.180633
_cell_angle_gamma 129.381579
_cell_volume 541.208386
_symmetry_space_group_name_H-M "P -1"
_symmetry_group_IT_number 2
_symmetry_cell_setting 'triclinic'
loop_
_space_group_symop_operation_xyz
x,y,z
-x,-y,-z
loop_
_atom_site_type_symbol
_atom_site_label
_atom_site_fract_x
_atom_site_fract_y
_atom_site_fract_z
Si Si1 0.842871 0.306094 0.496245
Si Si2 0.499105 0.798325 0.765319
Si Si3 0.317326 0.536780 0.827117
Si Si4 0.062394 0.959987 0.273778
Si Si5 0.367616 0.651750 0.298531
Si Si6 0.184152 0.414889 0.038003
Si Si7 0.605307 0.962159 0.207656
O O1 0.798087 0.503981 0.677463
O O2 0.000000 0.500000 0.500000
O O3 0.947069 0.139777 0.416245
O O4 0.635153 0.073856 0.357229
O O5 0.380404 0.556562 0.727580
O O6 0.334564 0.795341 0.736832
O O7 0.682759 0.814977 0.674147
O O8 0.605701 0.125433 0.971842
O O9 0.066187 0.301381 0.776324
O O10 0.465178 0.450201 0.793763
O O11 0.992372 0.791825 0.105974
O O12 0.211461 0.559507 0.203651
O O13 0.500000 0.000000 0.500000
O O14 0.355331 0.702773 0.109798
O O15 0.272084 0.204463 0.919994
#
# Coordination Sequence:
#
# PCOD9089307 Si02
#       7
#     2   2   2   2   2   2   2
#     4  11  24  42  66  96 130 169 218 271 324 383
#     4  11  23  40  68  97 134 167 217 271 318 390
#     4  11  22  39  64  97 130 172 212 262 330 375
#     4  11  22  43  68  97 132 167 219 272 319 384
#     4  12  20  40  67  91 128 169 215 264 321 383
#     4  10  19  37  67  97 119 169 225 261 318 378
#     4  10  19  40  65  92 127 170 216 265 319 384
#
# _framework density 25.868040000000001
#
# number of rings (size 3 to 8) (size 9 to 14) (size 15 to 20)
#    0.000    1.143    5.714    2.143    0.000    0.000 
#    5.143    5.000    0.000    3.429    0.000    0.000 
#    0.000    0.000    0.000    0.000    0.000    0.000 
#
# Total GULP energy -78080.049433 kJ/mol
# GULP energy per Si atom -5577.146388 kJ/mol
# Density = 2.580916 g / cm^3
# Si number density = 25.868040 Si / 1000 Ang^3
#
#
#
# Elastic Constant Matrix: (Units=GPa)
#
#
# Indices 1 2 3 4 5 6 
#
# 1 60.7903 40.4815 6.3455 -4.7316 3.0517 -3.4134
# 2 40.4815 137.6511 25.4683 -18.5249 1.8227 -7.9130
# 3 6.3455 25.4683 59.1669 -11.8666 11.4050 8.5210
# 4 -4.7316 -18.5249 -11.8666 41.6267 2.0703 -0.1662
# 5 3.0517 1.8227 11.4050 2.0703 27.8155 -7.2551
# 6 -3.4134 -7.9130 8.5210 -0.1662 -7.2551 45.1586
#
#
#
# Elastic Compliance Matrix: (Units=1/GPa)
#
#
# Indices 1 2 3 4 5 6 
#
# 1 0.020591 -0.006201 0.000887 -0.000056 -0.002227 -0.000055
# 2 -0.006201 0.010294 -0.003986 0.002646 0.002077 0.002431
# 3 0.000887 -0.003986 0.022742 0.005346 -0.011312 -0.006720
# 4 -0.000056 0.002646 0.005346 0.026946 -0.004678 -0.001202
# 5 -0.002227 0.002077 -0.011312 -0.004678 0.043471 0.009297
# 6 -0.000055 0.002431 -0.006720 -0.001202 0.009297 0.025323
#
#
# Mechanical properties :
#
#
# Convention : Reuss Voigt Hill
#
# Bulk Modulus (GPa) = 28.54841 44.68878 36.61859
# Shear Modulus (GPa) = 27.83296 35.27436 31.55366
#
# Velocity S-wave (km/s) = 3.28374 3.69674 3.49634
# Velocity P-wave (km/s) = 5.04355 5.96107 5.52140
#
# Compressibility (1/GPa) = 0.03502823
#
# Stress axis : x y z
#
# Youngs Moduli (GPa) = 48.56484 97.14244 43.97069
#
# Poissons Ratio (x) = 0.60237 -0.03900
# Poissons Ratio (y) = 0.30114 0.17525
# Poissons Ratio (z) = -0.04307 0.38718
#
# Static dielectric constant tensor:
#      x y z
#    x 2.151130 0.156620 0.080920 
#    y 0.156620 2.508320 0.207000 
#    z 0.080920 0.207000 2.339420 
# 
# From -- ./inp_files/335632.got.cif
#   From: 2010.05.17/outbox.cif.g08.bks.cpg/sg2_168_cif.got.tgz:335632.got - 2010.06.03 11:33:40.
