data_PCOD9089055
_publ_section_title
;
Structure prediction by ZEFSAII (Michael W. Deem and Ramdas Pophale) SiO2 
 PCOD9089055
Probable space group: P -1
;
_chemical_formula_sum "Si O2"
_cell_formula_units_Z 14
_cell_length_a 10.495743
_cell_length_b 7.313623
_cell_length_c 14.063383
_cell_angle_alpha 114.750819
_cell_angle_beta 140.271500
_cell_angle_gamma 73.249349
_cell_volume 625.537179
_symmetry_space_group_name_H-M "P -1"
_symmetry_group_IT_number 2
_symmetry_cell_setting 'triclinic'
loop_
_space_group_symop_operation_xyz
x,y,z
-x,-y,-z
loop_
_atom_site_type_symbol
_atom_site_label
_atom_site_fract_x
_atom_site_fract_y
_atom_site_fract_z
Si Si1 0.701810 0.419992 0.549960
Si Si2 0.946163 0.336519 0.088715
Si Si3 0.784340 0.893138 0.911511
Si Si4 0.428004 0.992713 0.850440
Si Si5 0.492677 0.353905 0.825413
Si Si6 0.516614 0.009497 0.398944
Si Si7 0.210066 0.613711 0.624394
O O1 0.500000 0.500000 0.500000
O O2 0.686059 0.181064 0.508735
O O3 0.715593 0.446960 0.450794
O O4 0.898551 0.528352 0.731922
O O5 0.064066 0.281857 0.047764
O O6 0.727578 0.418065 0.972928
O O7 0.893776 0.107895 0.047851
O O8 0.594201 0.867562 0.863481
O O9 0.682317 0.921593 0.754961
O O10 0.223664 0.856746 0.691097
O O11 0.436393 0.210045 0.851618
O O12 0.500000 0.000000 0.000000
O O13 0.356791 0.537430 0.773152
O O14 0.452096 0.202180 0.679591
O O15 0.500000 0.000000 0.500000
O O16 0.000000 0.500000 0.500000
#
# Coordination Sequence:
#
# PCOD9089055 Si02
#       7
#     2   2   2   2   2   2   2
#     4  12  21  41  69 102 137 174 223 280 344 393
#     4   9  19  37  66  94 129 176 215 272 335 401
#     4   9  18  38  63  95 138 169 221 270 334 403
#     4  10  22  45  67  95 138 183 219 278 337 402
#     4  10  24  46  66  94 140 175 231 271 337 419
#     4  10  19  37  64  98 136 174 214 279 340 395
#     4  12  27  45  71 100 136 178 229 291 338 400
#
# _framework density 22.380763999999999
#
# number of rings (size 3 to 8) (size 9 to 14) (size 15 to 20)
#    0.000    2.000    4.286    0.857    4.000    1.143 
#    0.000   14.286    0.000    0.000    0.000    0.000 
#    0.000    0.000    0.000    0.000    0.000    0.000 
#
# Total GULP energy -78162.137718 kJ/mol
# GULP energy per Si atom -5583.009837 kJ/mol
# Density = 2.232982 g / cm^3
# Si number density = 22.380764 Si / 1000 Ang^3
#
#
#
# Elastic Constant Matrix: (Units=GPa)
#
#
# Indices 1 2 3 4 5 6 
#
# 1 92.6732 21.4388 47.3785 -11.8724 -6.5173 33.1674
# 2 21.4388 60.6745 45.2834 -2.8996 12.3830 20.0017
# 3 47.3785 45.2834 151.5701 27.9575 12.5336 22.8290
# 4 -11.8724 -2.8996 27.9575 39.5435 11.2383 3.6310
# 5 -6.5173 12.3830 12.5336 11.2383 45.0731 -2.9284
# 6 33.1674 20.0017 22.8290 3.6310 -2.9284 28.6939
#
#
#
# Elastic Compliance Matrix: (Units=1/GPa)
#
#
# Indices 1 2 3 4 5 6 
#
# 1 0.029031 0.011394 -0.010704 0.021470 -0.003653 -0.036074
# 2 0.011394 0.035714 -0.012274 0.021116 -0.012109 -0.032208
# 3 -0.010704 -0.012274 0.014653 -0.016265 0.002558 0.011589
# 4 0.021470 0.021116 -0.016265 0.051735 -0.013315 -0.034502
# 5 -0.003653 -0.012109 0.002558 -0.013315 0.028583 0.015230
# 6 -0.036074 -0.032208 0.011589 -0.034502 0.015230 0.095700
#
#
# Mechanical properties :
#
#
# Convention : Reuss Voigt Hill
#
# Bulk Modulus (GPa) = 17.78372 59.23546 38.50959
# Shear Modulus (GPa) = 16.81650 35.38325 26.09987
#
# Velocity S-wave (km/s) = 2.74411 3.98045 3.41863
# Velocity P-wave (km/s) = 4.24304 6.90289 5.72946
#
# Compressibility (1/GPa) = 0.05623119
#
# Stress axis : x y z
#
# Youngs Moduli (GPa) = 34.44588 28.00011 68.24319
#
# Poissons Ratio (x) = -0.31903 0.73044
# Poissons Ratio (y) = -0.39248 0.83763
# Poissons Ratio (z) = 0.36869 0.34368
#
# Static dielectric constant tensor:
#      x y z
#    x 1.873990 -0.018670 0.012130 
#    y -0.018670 1.887850 0.009780 
#    z 0.012130 0.009780 1.834830 
# 
# From -- ./inp_files/513484.got.cif
#   From: 2010.05.17/outbox.cif.g08.bks.cpg/sg2_257_cif.got.tgz:513484.got - 2010.06.03 11:33:40.
