data_PCOD9089978
_publ_section_title
;
Structure prediction by ZEFSAII (Michael W. Deem and Ramdas Pophale) SiO2 
 PCOD9089978
Probable space group: P -1
;
_chemical_formula_sum "Si O2"
_cell_formula_units_Z 16
_cell_length_a 9.955216
_cell_length_b 16.812650
_cell_length_c 8.418217
_cell_angle_alpha 82.042898
_cell_angle_beta 46.064006
_cell_angle_gamma 112.851893
_cell_volume 737.512327
_symmetry_space_group_name_H-M "P -1"
_symmetry_group_IT_number 2
_symmetry_cell_setting 'triclinic'
loop_
_space_group_symop_operation_xyz
x,y,z
-x,-y,-z
loop_
_atom_site_type_symbol
_atom_site_label
_atom_site_fract_x
_atom_site_fract_y
_atom_site_fract_z
Si Si1 0.829222 0.301406 0.285670
Si Si2 0.344623 0.106394 0.536388
Si Si3 0.488881 0.691671 0.244430
Si Si4 0.234465 0.361555 0.134583
Si Si5 0.346905 0.723166 0.013463
Si Si6 0.901250 0.669767 0.229038
Si Si7 0.489360 0.599128 0.804480
Si Si8 0.974287 0.868186 0.006706
O O1 0.585493 0.192632 0.429210
O O2 0.952481 0.277348 0.320146
O O3 0.731757 0.353586 0.435974
O O4 0.049936 0.371529 0.952928
O O5 0.447907 0.155712 0.262787
O O6 0.217447 0.983620 0.703832
O O7 0.134767 0.110365 0.764056
O O8 0.562142 0.623009 0.152437
O O9 0.408968 0.713794 0.142404
O O10 0.749475 0.800190 0.078692
O O11 0.283909 0.334516 0.269084
O O12 0.302141 0.475336 0.053308
O O13 0.368403 0.650863 0.901481
O O14 0.069022 0.678575 0.227044
O O15 0.619989 0.609946 0.532088
O O16 0.015300 0.789942 0.053554
#
# Coordination Sequence:
#
# PCOD9089978 Si02
#       8
#     2   2   2   2   2   2   2   2
#     4  10  21  36  58  86 118 148 191 236 287 338
#     4   9  20  37  62  86 115 153 192 238 286 344
#     4  10  21  39  58  84 122 153 192 239 283 343
#     4  10  21  40  61  84 114 161 190 238 293 340
#     4  10  21  37  60  86 118 152 193 243 281 337
#     4  11  21  37  61  87 116 154 190 240 285 343
#     4  10  22  39  61  84 117 153 200 234 289 346
#     4  10  19  38  63  84 118 155 189 233 296 343
#
# _framework density 21.694551000000001
#
# number of rings (size 3 to 8) (size 9 to 14) (size 15 to 20)
#    0.000    2.000    2.500    0.750    0.000    4.000 
#    0.000    6.875    0.000    3.750    0.000    0.000 
#    0.000    0.000    0.000    0.000    0.000    0.000 
#
# Total GULP energy -89295.418317 kJ/mol
# GULP energy per Si atom -5580.963645 kJ/mol
# Density = 2.164517 g / cm^3
# Si number density = 21.694551 Si / 1000 Ang^3
#
#
#
# Elastic Constant Matrix: (Units=GPa)
#
#
# Indices 1 2 3 4 5 6 
#
# 1 102.5159 24.1805 -1.0998 1.8724 -11.9016 -11.0650
# 2 24.1805 52.1948 35.3454 9.3507 -5.7012 -14.0023
# 3 -1.0998 35.3454 63.2154 26.4576 -6.1082 -10.8041
# 4 1.8724 9.3507 26.4576 35.8789 -8.4878 1.0948
# 5 -11.9016 -5.7012 -6.1082 -8.4878 21.0081 8.3592
# 6 -11.0650 -14.0023 -10.8041 1.0948 8.3592 29.0407
#
#
#
# Elastic Compliance Matrix: (Units=1/GPa)
#
#
# Indices 1 2 3 4 5 6 
#
# 1 0.012903 -0.009497 0.007335 -0.002421 0.005230 0.001652
# 2 -0.009497 0.041027 -0.025469 0.008140 -0.001018 0.006674
# 3 0.007335 -0.025469 0.042135 -0.026120 -0.004419 0.008447
# 4 -0.002421 0.008140 -0.026120 0.050083 0.019088 -0.014097
# 5 0.005230 -0.001018 -0.004419 0.019088 0.064437 -0.019410
# 6 0.001652 0.006674 0.008447 -0.014097 -0.019410 0.047543
#
#
# Mechanical properties :
#
#
# Convention : Reuss Voigt Hill
#
# Bulk Modulus (GPa) = 24.50732 37.19759 30.85245
# Shear Modulus (GPa) = 15.29096 27.81887 21.55492
#
# Velocity S-wave (km/s) = 2.65774 3.58480 3.15550
# Velocity P-wave (km/s) = 4.55403 5.85813 5.24676
#
# Compressibility (1/GPa) = 0.04080413
#
# Stress axis : x y z
#
# Youngs Moduli (GPa) = 77.50141 24.37444 23.73303
#
# Poissons Ratio (x) = 0.23148 -0.17409
# Poissons Ratio (y) = 0.73601 0.60445
# Poissons Ratio (z) = -0.56848 0.62079
#
# Static dielectric constant tensor:
#      x y z
#    x 1.820000 0.031410 0.019580 
#    y 0.031410 1.789790 0.051330 
#    z 0.019580 0.051330 1.827300 
# 
# From -- ./inp_files/217259.got.cif
#   From: 2010.05.17/outbox.cif.g08.bks.cpg/sg2_109_cif.got.tgz:217259.got - 2010.06.03 11:33:40.
