data_PCOD9089337
_publ_section_title
;
Structure prediction by ZEFSAII (Michael W. Deem and Ramdas Pophale) SiO2 
 PCOD9089337
Probable space group: P -1
;
_chemical_formula_sum "Si O2"
_cell_formula_units_Z 16
_cell_length_a 8.304829
_cell_length_b 9.115054
_cell_length_c 21.133892
_cell_angle_alpha 144.946985
_cell_angle_beta 46.685226
_cell_angle_gamma 116.788533
_cell_volume 644.572012
_symmetry_space_group_name_H-M "P -1"
_symmetry_group_IT_number 2
_symmetry_cell_setting 'triclinic'
loop_
_space_group_symop_operation_xyz
x,y,z
-x,-y,-z
loop_
_atom_site_type_symbol
_atom_site_label
_atom_site_fract_x
_atom_site_fract_y
_atom_site_fract_z
Si Si1 0.242677 0.893478 0.269315
Si Si2 0.586955 0.069306 0.432437
Si Si3 0.038623 0.799304 0.783579
Si Si4 0.076801 0.217393 0.595776
Si Si5 0.749968 0.159253 0.895971
Si Si6 0.613868 0.617462 0.177484
Si Si7 0.375568 0.856112 0.905648
Si Si8 0.536810 0.657714 0.652409
O O1 0.287785 0.788777 0.149210
O O2 0.416100 0.750234 0.227000
O O3 0.998687 0.847220 0.336797
O O4 0.275924 0.187275 0.360864
O O5 0.343914 0.164241 0.495434
O O6 0.654560 0.344836 0.515229
O O7 0.500000 0.000000 0.500000
O O8 0.705316 0.815763 0.268028
O O9 0.978882 0.522138 0.713282
O O10 0.312803 0.745311 0.698156
O O11 0.952759 0.914464 0.778894
O O12 0.881008 0.003279 0.949326
O O13 0.000000 0.000000 0.500000
O O14 0.527068 0.065961 0.946831
O O15 0.782599 0.413475 0.013467
O O16 0.537789 0.418594 0.176495
O O17 0.416047 0.766562 0.790328
#
# Coordination Sequence:
#
# PCOD9089337 Si02
#       8
#     2   2   2   2   2   2   2   2
#     4  11  23  42  64  97 129 163 211 266 323 366
#     4  11  23  42  68  92 127 166 218 254 310 386
#     4  10  21  40  63  95 128 165 217 253 311 381
#     4  11  23  42  68  92 120 172 215 260 308 382
#     4  10  22  38  65  98 127 167 209 269 314 365
#     4  11  20  38  68  89 128 167 214 253 311 374
#     4  10  19  37  68  92 126 170 216 257 307 375
#     4  10  23  41  62  97 130 168 203 267 322 365
#
# _framework density 24.822673000000002
#
# number of rings (size 3 to 8) (size 9 to 14) (size 15 to 20)
#    0.000    1.500    2.500    3.750    0.000    1.500 
#    2.250    3.750    0.000    0.000    0.000    0.000 
#    0.000    0.000    0.000    0.000    0.000    0.000 
#
# Total GULP energy -89372.460411 kJ/mol
# GULP energy per Si atom -5585.778776 kJ/mol
# Density = 2.476618 g / cm^3
# Si number density = 24.822673 Si / 1000 Ang^3
#
#
#
# Elastic Constant Matrix: (Units=GPa)
#
#
# Indices 1 2 3 4 5 6 
#
# 1 64.9972 22.9605 28.4796 8.2216 14.3558 -13.1531
# 2 22.9605 111.4661 58.3028 7.8109 1.5674 -2.3950
# 3 28.4796 58.3028 130.0994 22.1023 24.9971 -4.9874
# 4 8.2216 7.8109 22.1023 33.1250 3.1545 3.9762
# 5 14.3558 1.5674 24.9971 3.1545 28.6947 -0.3497
# 6 -13.1531 -2.3950 -4.9874 3.9762 -0.3497 41.6701
#
#
#
# Elastic Compliance Matrix: (Units=1/GPa)
#
#
# Indices 1 2 3 4 5 6 
#
# 1 0.020678 -0.003632 -0.000125 -0.004081 -0.009508 0.006613
# 2 -0.003632 0.012949 -0.006650 0.001806 0.006689 -0.001314
# 3 -0.000125 -0.006650 0.014068 -0.006956 -0.011042 0.001833
# 4 -0.004081 0.001806 -0.006956 0.035681 0.004014 -0.005388
# 5 -0.009508 0.006689 -0.011042 0.004014 0.048371 -0.003916
# 6 0.006613 -0.001314 0.001833 -0.005388 -0.003916 0.026710
#
#
# Mechanical properties :
#
#
# Convention : Reuss Voigt Hill
#
# Bulk Modulus (GPa) = 37.20340 58.44985 47.82663
# Shear Modulus (GPa) = 26.56292 33.81927 30.19110
#
# Velocity S-wave (km/s) = 3.27480 3.69512 3.49129
# Velocity P-wave (km/s) = 5.41473 6.46555 5.96333
#
# Compressibility (1/GPa) = 0.02687926
#
# Stress axis : x y z
#
# Youngs Moduli (GPa) = 48.36156 77.22537 71.08497
#
# Poissons Ratio (x) = 0.28049 0.00889
# Poissons Ratio (y) = 0.17566 0.47274
# Poissons Ratio (z) = 0.00605 0.51357
#
# Static dielectric constant tensor:
#      x y z
#    x 2.013710 0.008810 -0.014590 
#    y 0.008810 2.007190 -0.064160 
#    z -0.014590 -0.064160 2.081970 
# 
# From -- ./inp_files/563334.got.cif
#   From: 2010.05.17/outbox.cif.g08.bks.cpg/sg2_282_cif.got.tgz:563334.got - 2010.06.03 11:33:40.
