data_PCOD9089417
_publ_section_title
;
Structure prediction by ZEFSAII (Michael W. Deem and Ramdas Pophale) SiO2 
 PCOD9089417
Probable space group: P -1
;
_chemical_formula_sum "Si O2"
_cell_formula_units_Z 14
_cell_length_a 9.177120
_cell_length_b 7.661678
_cell_length_c 10.781430
_cell_angle_alpha 123.234634
_cell_angle_beta 84.846528
_cell_angle_gamma 87.537332
_cell_volume 627.628344
_symmetry_space_group_name_H-M "P -1"
_symmetry_group_IT_number 2
_symmetry_cell_setting 'triclinic'
loop_
_space_group_symop_operation_xyz
x,y,z
-x,-y,-z
loop_
_atom_site_type_symbol
_atom_site_label
_atom_site_fract_x
_atom_site_fract_y
_atom_site_fract_z
Si Si1 0.865866 0.181750 0.094790
Si Si2 0.635471 0.464390 0.636944
Si Si3 0.078088 0.076827 0.402640
Si Si4 0.084427 0.691615 0.115706
Si Si5 0.609324 0.175638 0.293300
Si Si6 0.580310 0.087686 0.647841
Si Si7 0.942725 0.486406 0.678709
O O1 0.734895 0.114436 0.160585
O O2 0.938070 0.365268 0.232174
O O3 0.813942 0.270094 0.996267
O O4 0.000000 0.000000 0.000000
O O5 0.664873 0.286587 0.457162
O O6 0.503567 0.636721 0.679835
O O7 0.593417 0.329186 0.706718
O O8 0.782661 0.578887 0.680415
O O9 0.019004 0.319332 0.509979
O O10 0.021975 0.935363 0.242217
O O11 0.254547 0.025898 0.384960
O O12 0.000000 0.000000 0.500000
O O13 0.108049 0.619737 0.228851
O O14 0.000000 0.500000 0.000000
O O15 0.523045 0.979132 0.260516
O O16 0.500000 0.000000 0.500000
#
# Coordination Sequence:
#
# PCOD9089417 Si02
#       7
#     2   2   2   2   2   2   2
#     4  11  26  45  63  97 142 182 220 284 354 408
#     4  10  21  44  67 101 131 173 230 288 348 391
#     4  10  19  37  72 103 127 173 244 285 320 405
#     4   9  20  41  63  96 136 173 221 278 340 406
#     4  10  25  42  64 100 140 175 225 284 345 424
#     4  10  21  39  65 101 140 175 217 288 354 394
#     4  10  22  41  72  99 127 176 241 289 328 401
#
# _framework density 22.306196
#
# number of rings (size 3 to 8) (size 9 to 14) (size 15 to 20)
#    0.000    2.000    2.857    0.000    8.000    2.857 
#    5.143    3.571    0.000    0.000    0.000    0.000 
#    0.000    0.000    0.000    0.000    0.000    0.000 
#
# Total GULP energy -77964.346417 kJ/mol
# GULP energy per Si atom -5568.881887 kJ/mol
# Density = 2.225543 g / cm^3
# Si number density = 22.306196 Si / 1000 Ang^3
#
#
#
# Elastic Constant Matrix: (Units=GPa)
#
#
# Indices 1 2 3 4 5 6 
#
# 1 91.0415 36.6177 34.5831 -23.1751 -18.3957 20.9863
# 2 36.6177 115.7121 26.6411 -23.6020 -18.6701 22.1562
# 3 34.5831 26.6411 106.4885 1.8686 -7.5168 13.9079
# 4 -23.1751 -23.6020 1.8686 35.3814 20.0357 -11.8308
# 5 -18.3957 -18.6701 -7.5168 20.0357 31.6453 -8.2227
# 6 20.9863 22.1562 13.9079 -11.8308 -8.2227 37.0768
#
#
#
# Elastic Compliance Matrix: (Units=1/GPa)
#
#
# Indices 1 2 3 4 5 6 
#
# 1 0.016538 -0.001608 -0.004479 0.007743 0.001692 -0.003874
# 2 -0.001608 0.011430 -0.001869 0.004672 0.001525 -0.003390
# 3 -0.004479 -0.001869 0.012002 -0.007486 0.003229 -0.002523
# 4 0.007743 0.004672 -0.007486 0.054653 -0.027300 0.007018
# 5 0.001692 0.001525 0.003229 -0.027300 0.051436 -0.000385
# 6 -0.003874 -0.003390 -0.002523 0.007018 -0.000385 0.034290
#
#
# Mechanical properties :
#
#
# Convention : Reuss Voigt Hill
#
# Bulk Modulus (GPa) = 41.56765 56.54731 49.05748
# Shear Modulus (GPa) = 24.47634 35.18071 29.82852
#
# Velocity S-wave (km/s) = 3.31613 3.97567 3.66078
# Velocity P-wave (km/s) = 5.77389 6.81763 6.31735
#
# Compressibility (1/GPa) = 0.02405717
#
# Stress axis : x y z
#
# Youngs Moduli (GPa) = 60.46636 87.49288 83.32248
#
# Poissons Ratio (x) = 0.14071 0.37320
# Poissons Ratio (y) = 0.09724 0.15571
# Poissons Ratio (z) = 0.27083 0.16350
#
# Static dielectric constant tensor:
#      x y z
#    x 1.786360 -0.018400 0.048210 
#    y -0.018400 1.954360 -0.021360 
#    z 0.048210 -0.021360 1.850960 
# 
# From -- ./inp_files/383493.got.cif
#   From: 2010.05.17/outbox.cif.g08.bks.cpg/sg2_192_cif.got.tgz:383493.got - 2010.06.03 11:33:40.
