data_PCOD9089048
_publ_section_title
;
Structure prediction by ZEFSAII (Michael W. Deem and Ramdas Pophale) SiO2 
 PCOD9089048
Probable space group: P -1
;
_chemical_formula_sum "Si O2"
_cell_formula_units_Z 16
_cell_length_a 20.823021
_cell_length_b 9.139198
_cell_length_c 18.227431
_cell_angle_alpha 34.901821
_cell_angle_beta 25.847211
_cell_angle_gamma 29.335338
_cell_volume 730.553391
_symmetry_space_group_name_H-M "P -1"
_symmetry_group_IT_number 2
_symmetry_cell_setting 'triclinic'
loop_
_space_group_symop_operation_xyz
x,y,z
-x,-y,-z
loop_
_atom_site_type_symbol
_atom_site_label
_atom_site_fract_x
_atom_site_fract_y
_atom_site_fract_z
Si Si1 0.608347 0.183050 0.654365
Si Si2 0.214390 0.350266 0.009414
Si Si3 0.067977 0.237191 0.976794
Si Si4 0.722016 0.167053 0.955737
Si Si5 0.654467 0.702666 0.704379
Si Si6 0.331800 0.294733 0.584988
Si Si7 0.688390 0.949610 0.821856
Si Si8 0.827101 0.331289 0.545665
O O1 0.625625 0.470772 0.519140
O O2 0.659722 0.987472 0.608896
O O3 0.722801 0.959437 0.696175
O O4 0.406855 0.292111 0.829506
O O5 0.190778 0.311007 0.136459
O O6 0.078191 0.652802 0.980906
O O7 0.215738 0.079637 0.073518
O O8 0.231636 0.209775 0.779005
O O9 0.141148 0.943680 0.072968
O O10 0.000000 0.500000 0.000000
O O11 0.543174 0.197702 0.154499
O O12 0.688769 0.474710 0.829695
O O13 0.795940 0.524779 0.569665
O O14 0.203422 0.480680 0.573224
O O15 0.500000 0.000000 0.500000
O O16 0.677375 0.252004 0.736429
O O17 0.500000 0.000000 0.000000
O O18 0.000000 0.000000 0.500000
#
# Coordination Sequence:
#
# PCOD9089048 Si02
#       8
#     2   2   2   2   2   2   2   2
#     4   9  21  38  65  94 124 167 215 272 314 382
#     4   9  16  35  61  92 125 162 213 259 320 372
#     4  10  21  38  65  92 126 172 212 261 317 388
#     4   9  18  32  62  95 123 158 217 256 307 380
#     4  10  19  37  64  98 120 163 219 264 312 380
#     4  11  24  44  65  93 133 173 215 260 332 400
#     4   9  17  33  57  89 120 158 203 256 306 368
#     4  11  22  37  66  92 127 166 208 268 324 371
#
# _framework density 21.901205000000001
#
# number of rings (size 3 to 8) (size 9 to 14) (size 15 to 20)
#    0.000    2.250    1.250    1.500    3.500    0.000 
#    2.250   13.125    5.500    0.000    0.000    0.000 
#    0.000    0.000    0.000    0.000    0.000    0.000 
#
# Total GULP energy -89270.263077 kJ/mol
# GULP energy per Si atom -5579.391442 kJ/mol
# Density = 2.185136 g / cm^3
# Si number density = 21.901205 Si / 1000 Ang^3
#
#
#
# Elastic Constant Matrix: (Units=GPa)
#
#
# Indices 1 2 3 4 5 6 
#
# 1 102.7454 44.2822 17.2790 -2.3941 -0.2516 -23.6770
# 2 44.2822 81.7130 9.0293 11.8581 -1.0139 -2.3599
# 3 17.2790 9.0293 32.5072 7.5911 3.6708 7.9715
# 4 -2.3941 11.8581 7.5911 20.8126 3.6267 10.4063
# 5 -0.2516 -1.0139 3.6708 3.6267 22.1485 -4.9177
# 6 -23.6770 -2.3599 7.9715 10.4063 -4.9177 56.3998
#
#
#
# Elastic Compliance Matrix: (Units=1/GPa)
#
#
# Indices 1 2 3 4 5 6 
#
# 1 0.017093 -0.008899 -0.010183 0.006837 0.001943 0.007150
# 2 -0.008899 0.018611 0.002425 -0.012498 0.002218 -0.000801
# 3 -0.010183 0.002425 0.041152 -0.012246 -0.006665 -0.008311
# 4 0.006837 -0.012498 -0.012246 0.067079 -0.011514 -0.009303
# 5 0.001943 0.002218 -0.006665 -0.011514 0.050116 0.008345
# 6 0.007150 -0.000801 -0.008311 -0.009303 0.008345 0.024318
#
#
# Mechanical properties :
#
#
# Convention : Reuss Voigt Hill
#
# Bulk Modulus (GPa) = 22.96652 39.79407 31.38030
# Shear Modulus (GPa) = 18.78319 29.63052 24.20685
#
# Velocity S-wave (km/s) = 2.93171 3.68219 3.32817
# Velocity P-wave (km/s) = 4.68712 6.02390 5.39706
#
# Compressibility (1/GPa) = 0.04354164
#
# Stress axis : x y z
#
# Youngs Moduli (GPa) = 58.50500 53.73247 24.30028
#
# Poissons Ratio (x) = 0.47818 0.24745
# Poissons Ratio (y) = 0.52065 -0.05894
# Poissons Ratio (z) = 0.59575 -0.13032
#
# Static dielectric constant tensor:
#      x y z
#    x 1.857520 0.006580 0.019370 
#    y 0.006580 1.617080 -0.085130 
#    z 0.019370 -0.085130 1.754810 
# 
# From -- ./inp_files/577547.got.cif
#   From: 2010.05.17/outbox.cif.g08.bks.cpg/sg2_289_cif.got.tgz:577547.got - 2010.06.03 11:33:40.
