data_PCOD9089217
_publ_section_title
;
Structure prediction by ZEFSAII (Michael W. Deem and Ramdas Pophale) SiO2 
 PCOD9089217
Probable space group: P -1
;
_chemical_formula_sum "Si O2"
_cell_formula_units_Z 16
_cell_length_a 13.028208
_cell_length_b 14.808606
_cell_length_c 8.449586
_cell_angle_alpha 31.470355
_cell_angle_beta 113.572162
_cell_angle_gamma 117.129544
_cell_volume 757.199825
_symmetry_space_group_name_H-M "P -1"
_symmetry_group_IT_number 2
_symmetry_cell_setting 'triclinic'
loop_
_space_group_symop_operation_xyz
x,y,z
-x,-y,-z
loop_
_atom_site_type_symbol
_atom_site_label
_atom_site_fract_x
_atom_site_fract_y
_atom_site_fract_z
Si Si1 0.923196 0.979339 0.828243
Si Si2 0.307128 0.381471 0.458991
Si Si3 0.911994 0.604839 0.215668
Si Si4 0.337419 0.461757 0.738193
Si Si5 0.944214 0.660136 0.778780
Si Si6 0.665160 0.909367 0.731282
Si Si7 0.586009 0.225373 0.078006
Si Si8 0.503820 0.796728 0.278496
O O1 0.788551 0.954828 0.824779
O O2 0.932674 0.800020 0.014046
O O3 0.968729 0.151685 0.489398
O O4 0.000000 0.000000 0.000000
O O5 0.328737 0.403746 0.630175
O O6 0.173877 0.344232 0.384163
O O7 0.373514 0.239014 0.643539
O O8 0.368521 0.574290 0.132075
O O9 0.783303 0.501641 0.340490
O O10 0.000000 0.500000 0.500000
O O11 0.920447 0.631257 0.993428
O O12 0.440030 0.629956 0.597024
O O13 0.342306 0.271419 0.103256
O O14 0.000000 0.500000 0.000000
O O15 0.545293 0.863578 0.820939
O O16 0.661783 0.088546 0.369425
O O17 0.581429 0.247208 0.857050
O O18 0.500000 0.000000 0.000000
#
# Coordination Sequence:
#
# PCOD9089217 Si02
#       8
#     2   2   2   2   2   2   2   2
#     4  11  24  42  69  97 134 174 223 276 335 393
#     4  11  21  42  69  90 130 176 219 268 329 405
#     4  11  25  44  66  97 132 177 224 279 329 395
#     4  10  20  43  65  89 128 171 220 266 328 395
#     4  12  25  44  67 101 134 176 225 276 340 399
#     4  10  19  37  66  93 118 166 217 267 318 394
#     4  10  20  38  65  91 125 165 216 258 329 391
#     4  11  23  39  60  97 130 170 213 271 331 392
#
# _framework density 21.130486999999999
#
# number of rings (size 3 to 8) (size 9 to 14) (size 15 to 20)
#    0.000    1.250    2.500    4.875    0.000    4.000 
#    6.750    1.250    0.000    0.000    0.000    0.000 
#    0.000    0.000    0.000    0.000    0.000    0.000 
#
# Total GULP energy -89232.880268 kJ/mol
# GULP energy per Si atom -5577.055017 kJ/mol
# Density = 2.108239 g / cm^3
# Si number density = 21.130487 Si / 1000 Ang^3
#
#
#
# Elastic Constant Matrix: (Units=GPa)
#
#
# Indices 1 2 3 4 5 6 
#
# 1 121.0241 39.4650 49.6093 -17.7163 13.9049 9.5331
# 2 39.4650 62.3346 15.2304 -11.5500 11.4708 8.7589
# 3 49.6093 15.2304 108.8594 -19.4572 24.3313 12.3497
# 4 -17.7163 -11.5500 -19.4572 33.7591 -0.9564 -4.7733
# 5 13.9049 11.4708 24.3313 -0.9564 42.9257 -2.3011
# 6 9.5331 8.7589 12.3497 -4.7733 -2.3011 29.3850
#
#
#
# Elastic Compliance Matrix: (Units=1/GPa)
#
#
# Indices 1 2 3 4 5 6 
#
# 1 0.012462 -0.006541 -0.004547 0.001708 0.000333 0.000121
# 2 -0.006541 0.022167 0.002521 0.004716 -0.005408 -0.005203
# 3 -0.004547 0.002521 0.014118 0.005719 -0.007336 -0.004855
# 4 0.001708 0.004716 0.005719 0.035459 -0.004208 0.001067
# 5 0.000333 -0.005408 -0.007336 -0.004208 0.029029 0.006177
# 6 0.000121 -0.005203 -0.004855 0.001067 0.006177 0.038240
#
#
# Mechanical properties :
#
#
# Convention : Reuss Voigt Hill
#
# Bulk Modulus (GPa) = 31.63072 55.64749 43.63911
# Shear Modulus (GPa) = 27.91008 33.74152 30.82580
#
# Velocity S-wave (km/s) = 3.63828 4.00035 3.82361
# Velocity P-wave (km/s) = 5.71412 6.90865 6.33958
#
# Compressibility (1/GPa) = 0.03161484
#
# Stress axis : x y z
#
# Youngs Moduli (GPa) = 80.24611 45.11128 70.82995
#
# Poissons Ratio (x) = 0.29505 0.32205
# Poissons Ratio (y) = 0.52485 -0.17857
# Poissons Ratio (z) = 0.36486 -0.11373
#
# Static dielectric constant tensor:
#      x y z
#    x 1.785200 0.007870 -0.078150 
#    y 0.007870 1.773510 -0.040460 
#    z -0.078150 -0.040460 1.946560 
# 
# From -- ./inp_files/205851.got.cif
#   From: 2010.05.17/outbox.cif.g08.bks.cpg/sg2_103_cif.got.tgz:205851.got - 2010.06.03 11:33:40.
