data_PCOD9089714
_publ_section_title
;
Structure prediction by ZEFSAII (Michael W. Deem and Ramdas Pophale) SiO2 
 PCOD9089714
Probable space group: P -1
;
_chemical_formula_sum "Si O2"
_cell_formula_units_Z 14
_cell_length_a 6.393582
_cell_length_b 13.021553
_cell_length_c 11.408623
_cell_angle_alpha 95.606164
_cell_angle_beta 143.640738
_cell_angle_gamma 84.014541
_cell_volume 559.874737
_symmetry_space_group_name_H-M "P -1"
_symmetry_group_IT_number 2
_symmetry_cell_setting 'triclinic'
loop_
_space_group_symop_operation_xyz
x,y,z
-x,-y,-z
loop_
_atom_site_type_symbol
_atom_site_label
_atom_site_fract_x
_atom_site_fract_y
_atom_site_fract_z
Si Si1 0.500597 0.757242 0.434110
Si Si2 0.574754 0.954074 0.159306
Si Si3 0.374797 0.735459 0.117291
Si Si4 0.222390 0.592316 0.859281
Si Si5 0.619979 0.097217 0.400708
Si Si6 0.106454 0.597688 0.398339
Si Si7 0.290795 0.704689 0.700784
O O1 0.305300 0.769995 0.222815
O O2 0.542603 0.856690 0.547592
O O3 0.895909 0.722950 0.575385
O O4 0.297616 0.670835 0.402116
O O5 0.426239 0.840665 0.083222
O O6 0.992936 0.941743 0.380709
O O7 0.443056 0.016618 0.224543
O O8 0.500000 0.000000 0.000000
O O9 0.732968 0.661660 0.264427
O O10 0.100481 0.663432 0.921366
O O11 0.925741 0.520465 0.664862
O O12 0.458337 0.666854 0.892954
O O13 0.500000 0.500000 0.000000
O O14 0.640917 0.195125 0.332604
O O15 0.307191 0.606346 0.612720
#
# Coordination Sequence:
#
# PCOD9089714 Si02
#       7
#     2   2   2   2   2   2   2
#     4  10  19  38  61  82 121 154 196 239 295 356
#     4  11  21  40  65  89 117 155 203 245 298 360
#     4  10  20  39  57  84 123 151 191 250 290 351
#     4  10  21  36  60  88 118 158 196 245 297 342
#     4  10  22  41  63  87 119 161 194 247 302 352
#     4   9  19  37  60  82 111 161 196 235 293 347
#     4  10  19  39  61  84 119 157 198 239 296 359
#
# _framework density 25.005592
#
# number of rings (size 3 to 8) (size 9 to 14) (size 15 to 20)
#    0.000    2.000    4.286    1.286    0.000    1.714 
#    2.571    6.429    0.000    0.000    0.000    0.000 
#    0.000    0.000    0.000    0.000    0.000    0.000 
#
# Total GULP energy -78082.998371 kJ/mol
# GULP energy per Si atom -5577.357027 kJ/mol
# Density = 2.494868 g / cm^3
# Si number density = 25.005592 Si / 1000 Ang^3
#
#
#
# Elastic Constant Matrix: (Units=GPa)
#
#
# Indices 1 2 3 4 5 6 
#
# 1 62.8041 27.8418 28.5064 13.4405 -20.1287 -8.9260
# 2 27.8418 146.2242 72.7834 35.0608 -31.4365 -14.5637
# 3 28.5064 72.7834 121.0087 13.4417 -41.4976 -13.3546
# 4 13.4405 35.0608 13.4417 58.8090 -5.2277 -13.1672
# 5 -20.1287 -31.4365 -41.4976 -5.2277 46.8930 2.5664
# 6 -8.9260 -14.5637 -13.3546 -13.1672 2.5664 16.9583
#
#
#
# Elastic Compliance Matrix: (Units=1/GPa)
#
#
# Indices 1 2 3 4 5 6 
#
# 1 0.020228 -0.000786 -0.001074 -0.001816 0.006635 0.006711
# 2 -0.000786 0.011340 -0.005299 -0.004973 0.001967 0.000993
# 3 -0.001074 -0.005299 0.015570 0.002390 0.009618 0.007545
# 4 -0.001816 -0.004973 0.002390 0.023091 -0.000224 0.014619
# 5 0.006635 0.001967 0.009618 -0.000224 0.033568 0.007502
# 6 0.006711 0.000993 0.007545 0.014619 0.007502 0.079511
#
#
# Mechanical properties :
#
#
# Convention : Reuss Voigt Hill
#
# Bulk Modulus (GPa) = 30.47109 65.36669 47.91889
# Shear Modulus (GPa) = 23.97320 37.92575 30.94947
#
# Velocity S-wave (km/s) = 3.09967 3.89870 3.52192
# Velocity P-wave (km/s) = 5.00228 6.81645 5.97858
#
# Compressibility (1/GPa) = 0.03281799
#
# Stress axis : x y z
#
# Youngs Moduli (GPa) = 49.43688 88.18094 64.22664
#
# Poissons Ratio (x) = 0.06934 0.06901
# Poissons Ratio (y) = 0.03887 0.34035
# Poissons Ratio (z) = 0.05312 0.46729
#
# Static dielectric constant tensor:
#      x y z
#    x 2.071700 0.002720 0.005170 
#    y 0.002720 2.038180 -0.176910 
#    z 0.005170 -0.176910 2.631880 
# 
# From -- ./inp_files/134306.got.cif
#   From: 2010.05.17/outbox.cif.g08.bks.cpg/sg2_68_cif.got.tgz:134306.got - 2010.06.03 11:33:40.
