data_PCOD9089431
_publ_section_title
;
Structure prediction by ZEFSAII (Michael W. Deem and Ramdas Pophale) SiO2 
 PCOD9089431
Probable space group: P -1
;
_chemical_formula_sum "Si O2"
_cell_formula_units_Z 16
_cell_length_a 8.507491
_cell_length_b 22.176647
_cell_length_c 5.437734
_cell_angle_alpha 108.477553
_cell_angle_beta 97.378238
_cell_angle_gamma 132.062163
_cell_volume 632.184194
_symmetry_space_group_name_H-M "P -1"
_symmetry_group_IT_number 2
_symmetry_cell_setting 'triclinic'
loop_
_space_group_symop_operation_xyz
x,y,z
-x,-y,-z
loop_
_atom_site_type_symbol
_atom_site_label
_atom_site_fract_x
_atom_site_fract_y
_atom_site_fract_z
Si Si1 0.647569 0.478845 0.497280
Si Si2 0.610650 0.275671 0.761433
Si Si3 0.885383 0.093166 0.101928
Si Si4 0.770692 0.260888 0.282876
Si Si5 0.803811 0.947022 0.611359
Si Si6 0.505053 0.937770 0.198521
Si Si7 0.225566 0.310463 0.439856
Si Si8 0.678687 0.447076 0.962037
O O1 0.500000 0.500000 0.500000
O O2 0.795543 0.508254 0.812162
O O3 0.421307 0.361143 0.327001
O O4 0.783071 0.505948 0.309212
O O5 0.755104 0.289554 0.578486
O O6 0.338262 0.162837 0.526671
O O7 0.644893 0.361544 0.853967
O O8 0.699061 0.280924 0.057420
O O9 0.718530 0.082164 0.860228
O O10 0.923063 0.032695 0.940834
O O11 0.105418 0.207029 0.332606
O O12 0.727478 0.040276 0.248076
O O13 0.022347 0.300838 0.335415
O O14 0.577638 0.144247 0.104656
O O15 0.582342 0.923712 0.435511
O O16 0.000000 0.000000 0.500000
O O17 0.401185 0.387947 0.793352
#
# Coordination Sequence:
#
# PCOD9089431 Si02
#       8
#     2   2   2   2   2   2   2   2
#     4  10  22  42  69  96 121 150 198 252 310 365
#     4  11  23  40  58  88 131 166 199 244 313 354
#     4  10  19  38  53  80 114 155 211 249 290 337
#     4  10  21  40  59  87 123 168 207 248 297 355
#     4  11  24  32  52  79 120 166 201 247 290 354
#     4   9  20  36  52  75 110 166 205 253 288 332
#     4   9  24  35  67  92 116 160 212 258 290 355
#     4  10  23  40  65  95 121 158 195 247 307 367
#
# _framework density 25.309080999999999
#
# number of rings (size 3 to 8) (size 9 to 14) (size 15 to 20)
#    0.750    1.250    1.250    1.500    5.250    1.500 
#    0.000    0.000    0.000    4.500    0.000    0.000 
#    0.000    0.000    0.000    0.000    0.000    0.000 
#
# Total GULP energy -89379.684234 kJ/mol
# GULP energy per Si atom -5586.230265 kJ/mol
# Density = 2.525148 g / cm^3
# Si number density = 25.309081 Si / 1000 Ang^3
#
#
#
# Elastic Constant Matrix: (Units=GPa)
#
#
# Indices 1 2 3 4 5 6 
#
# 1 58.4652 34.9933 19.4873 -1.1842 3.3739 -20.1687
# 2 34.9933 122.6675 40.7214 1.4332 0.0424 -12.7478
# 3 19.4873 40.7214 126.0999 -7.9818 -14.0545 -7.7995
# 4 -1.1842 1.4332 -7.9818 43.5308 -0.8057 -1.9839
# 5 3.3739 0.0424 -14.0545 -0.8057 35.8827 3.7568
# 6 -20.1687 -12.7478 -7.7995 -1.9839 3.7568 57.6891
#
#
#
# Elastic Compliance Matrix: (Units=1/GPa)
#
#
# Indices 1 2 3 4 5 6 
#
# 1 0.023614 -0.005401 -0.001828 0.000740 -0.003654 0.007078
# 2 -0.005401 0.010617 -0.002718 -0.001002 -0.000602 0.000095
# 3 -0.001828 -0.002718 0.009648 0.001877 0.004010 -0.000132
# 4 0.000740 -0.001002 0.001877 0.023436 0.001086 0.001026
# 5 -0.003654 -0.000602 0.004010 0.001086 0.030100 -0.002791
# 6 0.007078 0.000095 -0.000132 0.001026 -0.002791 0.020029
#
#
# Mechanical properties :
#
#
# Convention : Reuss Voigt Hill
#
# Bulk Modulus (GPa) = 41.69402 55.29296 48.49349
# Shear Modulus (GPa) = 34.40330 41.55591 37.97961
#
# Velocity S-wave (km/s) = 3.69090 4.05648 3.87800
# Velocity P-wave (km/s) = 5.88841 6.62076 6.26530
#
# Compressibility (1/GPa) = 0.02398426
#
# Stress axis : x y z
#
# Youngs Moduli (GPa) = 42.34776 94.18676 103.64706
#
# Poissons Ratio (x) = 0.50874 0.18943
# Poissons Ratio (y) = 0.22874 0.28176
# Poissons Ratio (z) = 0.07740 0.25605
#
# Static dielectric constant tensor:
#      x y z
#    x 2.005290 -0.024590 0.060110 
#    y -0.024590 2.015890 -0.018950 
#    z 0.060110 -0.018950 2.072230 
# 
# From -- ./inp_files/53718.got.cif
#   From: 2010.05.17/outbox.cif.g08.bks.cpg/sg2_27_cif.got.tgz:53718.got - 2010.06.03 11:33:40.
