data_PCOD9089875
_publ_section_title
;
Structure prediction by ZEFSAII (Michael W. Deem and Ramdas Pophale) SiO2 
 PCOD9089875
Probable space group: P -1
;
_chemical_formula_sum "Si O2"
_cell_formula_units_Z 14
_cell_length_a 5.385349
_cell_length_b 9.015882
_cell_length_c 18.248825
_cell_angle_alpha 109.178384
_cell_angle_beta 110.288664
_cell_angle_gamma 119.010818
_cell_volume 578.417940
_symmetry_space_group_name_H-M "P -1"
_symmetry_group_IT_number 2
_symmetry_cell_setting 'triclinic'
loop_
_space_group_symop_operation_xyz
x,y,z
-x,-y,-z
loop_
_atom_site_type_symbol
_atom_site_label
_atom_site_fract_x
_atom_site_fract_y
_atom_site_fract_z
Si Si1 0.237995 0.604192 0.614601
Si Si2 0.824882 0.213976 0.612690
Si Si3 0.795815 0.662048 0.957355
Si Si4 0.833433 0.722917 0.606667
Si Si5 0.360264 0.157584 0.681552
Si Si6 0.477437 0.775886 0.126694
Si Si7 0.829577 0.037720 0.076535
O O1 0.639224 0.755705 0.650530
O O2 0.000000 0.500000 0.500000
O O3 0.092720 0.407000 0.616393
O O4 0.117675 0.710827 0.662600
O O5 0.639027 0.255104 0.659629
O O6 0.096873 0.198503 0.673121
O O7 0.500000 0.000000 0.500000
O O8 0.503433 0.408961 0.903566
O O9 0.792108 0.839115 0.015815
O O10 0.845688 0.728392 0.886606
O O11 0.136733 0.709780 0.036682
O O12 0.500000 0.500000 0.500000
O O13 0.060166 0.902758 0.597589
O O14 0.546017 0.199548 0.785499
O O15 0.787276 0.995358 0.151449
O O16 0.500000 0.000000 0.000000
#
# Coordination Sequence:
#
# PCOD9089875 Si02
#       7
#     2   2   2   2   2   2   2
#     4  10  20  38  63  87 115 163 217 265 335 403
#     4  12  24  44  67  92 131 177 229 287 347 415
#     4   9  19  40  68  92 138 177 225 265 348 418
#     4  10  19  38  62  87 121 165 213 267 336 395
#     4  12  26  42  66 102 133 174 234 289 341 405
#     4  10  22  39  63  97 136 180 223 285 342 405
#     4   9  18  37  66  98 121 178 219 265 333 421
#
# _framework density 24.203949999999999
#
# number of rings (size 3 to 8) (size 9 to 14) (size 15 to 20)
#    0.000    1.714    0.000    6.000    2.000    0.000 
#    5.143    1.429    0.000    0.000    0.000    0.000 
#    0.000    0.000    0.000    0.000    0.000    0.000 
#
# Total GULP energy -77964.271742 kJ/mol
# GULP energy per Si atom -5568.876553 kJ/mol
# Density = 2.414886 g / cm^3
# Si number density = 24.203950 Si / 1000 Ang^3
#
#
#
# Elastic Constant Matrix: (Units=GPa)
#
#
# Indices 1 2 3 4 5 6 
#
# 1 114.6154 22.8066 8.1332 -7.7119 -3.9538 -10.1516
# 2 22.8066 130.0676 21.2409 -29.6922 5.4494 -8.4014
# 3 8.1332 21.2409 73.0939 -18.1429 -3.9767 3.7738
# 4 -7.7119 -29.6922 -18.1429 20.2387 2.8117 -14.4376
# 5 -3.9538 5.4494 -3.9767 2.8117 20.4195 -8.1691
# 6 -10.1516 -8.4014 3.7738 -14.4376 -8.1691 42.8133
#
#
#
# Elastic Compliance Matrix: (Units=1/GPa)
#
#
# Indices 1 2 3 4 5 6 
#
# 1 0.009815 0.000448 0.000874 0.009006 0.003098 0.005966
# 2 0.000448 0.018010 0.004410 0.043289 -0.002902 0.017296
# 3 0.000874 0.004410 0.019760 0.031645 0.002690 0.010516
# 4 0.009006 0.043289 0.031645 0.197931 -0.001148 0.074369
# 5 0.003098 -0.002902 0.002690 -0.001148 0.055048 0.010044
# 6 0.005966 0.017296 0.010516 0.074369 0.010044 0.054234
#
#
# Mechanical properties :
#
#
# Convention : Reuss Voigt Hill
#
# Bulk Modulus (GPa) = 16.93493 46.90427 31.91960
# Shear Modulus (GPa) = 13.77339 34.40071 24.08705
#
# Velocity S-wave (km/s) = 2.38808 3.77408 3.15805
# Velocity P-wave (km/s) = 3.82307 6.19778 5.14919
#
# Compressibility (1/GPa) = 0.05904957
#
# Stress axis : x y z
#
# Youngs Moduli (GPa) = 101.88509 55.52319 50.60617
#
# Poissons Ratio (x) = -0.02486 -0.04421
# Poissons Ratio (y) = -0.04562 -0.22320
# Poissons Ratio (z) = -0.08901 -0.24488
#
# Static dielectric constant tensor:
#      x y z
#    x 2.045490 -0.167210 -0.119390 
#    y -0.167210 2.106280 0.056560 
#    z -0.119390 0.056560 1.953870 
# 
# From -- ./inp_files/547317.got.cif
#   From: 2010.05.17/outbox.cif.g08.bks.cpg/sg2_274_cif.got.tgz:547317.got - 2010.06.03 11:33:40.
