data_PCOD9089230
_publ_section_title
;
Structure prediction by ZEFSAII (Michael W. Deem and Ramdas Pophale) SiO2 
 PCOD9089230
Probable space group: P -1
;
_chemical_formula_sum "Si O2"
_cell_formula_units_Z 16
_cell_length_a 7.038971
_cell_length_b 12.224864
_cell_length_c 9.056437
_cell_angle_alpha 125.904447
_cell_angle_beta 69.827317
_cell_angle_gamma 90.382225
_cell_volume 572.581411
_symmetry_space_group_name_H-M "P -1"
_symmetry_group_IT_number 2
_symmetry_cell_setting 'triclinic'
loop_
_space_group_symop_operation_xyz
x,y,z
-x,-y,-z
loop_
_atom_site_type_symbol
_atom_site_label
_atom_site_fract_x
_atom_site_fract_y
_atom_site_fract_z
Si Si1 0.648182 0.209036 0.914884
Si Si2 0.219103 0.984836 0.013013
Si Si3 0.169091 0.264800 0.430817
Si Si4 0.203100 0.530212 0.042033
Si Si5 0.218787 0.080206 0.528989
Si Si6 0.518840 0.365722 0.600275
Si Si7 0.238412 0.421518 0.271422
Si Si8 0.326407 0.924480 0.633590
O O1 0.717136 0.154300 0.017520
O O2 0.750790 0.328729 0.921564
O O3 0.400575 0.282277 0.050319
O O4 0.726642 0.071612 0.683825
O O5 0.364923 0.976395 0.825433
O O6 0.225167 0.117044 0.212607
O O7 0.000000 0.000000 0.000000
O O8 0.355180 0.325807 0.499650
O O9 0.100053 0.368160 0.389647
O O10 0.093205 0.203573 0.556068
O O11 0.402269 0.415857 0.827343
O O12 0.164252 0.511251 0.212170
O O13 0.000000 0.500000 0.000000
O O14 0.159769 0.037669 0.674202
O O15 0.440690 0.115002 0.528320
O O16 0.614130 0.490719 0.623793
O O17 0.711898 0.227926 0.460929
#
# Coordination Sequence:
#
# PCOD9089230 Si02
#       8
#     2   2   2   2   2   2   2   2
#     4  10  20  41  63  91 129 166 227 256 319 394
#     4  11  25  42  62  96 137 177 210 270 337 380
#     4  10  22  38  61  96 128 165 218 264 318 380
#     4  11  25  42  64  98 132 173 209 270 336 388
#     4   9  18  35  61  97 117 162 214 271 302 367
#     4  10  21  41  66  98 125 170 226 265 315 388
#     4  11  21  39  71  94 127 174 217 268 316 386
#     4  10  19  37  66  94 127 164 221 264 313 383
#
# _framework density 27.943626999999999
#
# number of rings (size 3 to 8) (size 9 to 14) (size 15 to 20)
#    0.000    1.750    0.000    5.625    1.750    6.500 
#    4.500    1.875    0.000    0.000    0.000    0.000 
#    0.000    0.000    0.000    0.000    0.000    0.000 
#
# Total GULP energy -89445.086040 kJ/mol
# GULP energy per Si atom -5590.317877 kJ/mol
# Density = 2.788003 g / cm^3
# Si number density = 27.943627 Si / 1000 Ang^3
#
#
#
# Elastic Constant Matrix: (Units=GPa)
#
#
# Indices 1 2 3 4 5 6 
#
# 1 65.0010 25.8978 5.3686 -9.2466 16.5745 5.1014
# 2 25.8978 261.5477 68.2383 -22.5930 10.7397 -19.9159
# 3 5.3686 68.2383 113.2111 -21.3521 17.6115 10.4160
# 4 -9.2466 -22.5930 -21.3521 58.6211 4.4571 12.5643
# 5 16.5745 10.7397 17.6115 4.4571 39.0937 -7.5721
# 6 5.1014 -19.9159 10.4160 12.5643 -7.5721 50.6158
#
#
#
# Elastic Compliance Matrix: (Units=1/GPa)
#
#
# Indices 1 2 3 4 5 6 
#
# 1 0.020713 -0.002732 0.004455 0.006371 -0.012215 -0.007488
# 2 -0.002732 0.005216 -0.003847 -0.000775 0.002253 0.003649
# 3 0.004455 -0.003847 0.014528 0.007000 -0.009753 -0.008149
# 4 0.006371 -0.000775 0.007000 0.023155 -0.010151 -0.009654
# 5 -0.012215 0.002253 -0.009753 -0.010151 0.038081 0.012341
# 6 -0.007488 0.003649 -0.008149 -0.009654 0.012341 0.027867
#
#
# Mechanical properties :
#
#
# Convention : Reuss Voigt Hill
#
# Bulk Modulus (GPa) = 27.61672 70.97435 49.29554
# Shear Modulus (GPa) = 34.27562 52.34979 43.31270
#
# Velocity S-wave (km/s) = 3.50608 4.33298 3.94128
# Velocity P-wave (km/s) = 5.12783 7.10544 6.19604
#
# Compressibility (1/GPa) = 0.03620995
#
# Stress axis : x y z
#
# Youngs Moduli (GPa) = 48.27798 191.72352 68.83484
#
# Poissons Ratio (x) = 0.52371 -0.30665
# Poissons Ratio (y) = 0.13187 0.26479
# Poissons Ratio (z) = -0.21507 0.73751
#
# Static dielectric constant tensor:
#      x y z
#    x 2.259580 0.003200 -0.157480 
#    y 0.003200 2.243050 -0.053960 
#    z -0.157480 -0.053960 2.273870 
# 
# From -- ./inp_files/182376.got.cif
#   From: 2010.05.17/outbox.cif.g08.bks.cpg/sg2_92_cif.got.tgz:182376.got - 2010.06.03 11:33:40.
