data_PCOD9089111
_publ_section_title
;
Structure prediction by ZEFSAII (Michael W. Deem and Ramdas Pophale) SiO2 
 PCOD9089111
Probable space group: P -1
;
_chemical_formula_sum "Si O2"
_cell_formula_units_Z 16
_cell_length_a 10.915767
_cell_length_b 15.340401
_cell_length_c 13.734133
_cell_angle_alpha 48.362984
_cell_angle_beta 43.421567
_cell_angle_gamma 87.653379
_cell_volume 603.526749
_symmetry_space_group_name_H-M "P -1"
_symmetry_group_IT_number 2
_symmetry_cell_setting 'triclinic'
loop_
_space_group_symop_operation_xyz
x,y,z
-x,-y,-z
loop_
_atom_site_type_symbol
_atom_site_label
_atom_site_fract_x
_atom_site_fract_y
_atom_site_fract_z
Si Si1 0.112192 0.145510 0.092209
Si Si2 0.292536 0.080113 0.318688
Si Si3 0.642038 0.303004 0.294088
Si Si4 0.126600 0.346604 0.225215
Si Si5 0.842212 0.631223 0.381959
Si Si6 0.798214 0.556148 0.675616
Si Si7 0.658529 0.781460 0.287637
Si Si8 0.927258 0.290920 0.005142
O O1 0.480729 0.353402 0.782589
O O2 0.113525 0.066691 0.053438
O O3 0.065842 0.247079 0.998361
O O4 0.801802 0.957213 0.485838
O O5 0.667126 0.349902 0.887067
O O6 0.000000 0.000000 0.500000
O O7 0.183679 0.892428 0.478132
O O8 0.361679 0.148495 0.657965
O O9 0.701936 0.449683 0.083694
O O10 0.000000 0.500000 0.000000
O O11 0.632943 0.184124 0.320059
O O12 0.442663 0.431685 0.984166
O O13 0.019855 0.323735 0.413707
O O14 0.719420 0.689934 0.372118
O O15 0.115071 0.740813 0.062243
O O16 0.962022 0.692091 0.378788
O O17 0.273999 0.564183 0.621876
#
# Coordination Sequence:
#
# PCOD9089111 Si02
#       8
#     2   2   2   2   2   2   2   2
#     4   9  14  26  44  73  96 123 167 208 242 295
#     4  10  17  29  49  75 100 131 165 204 248 296
#     4  10  16  28  47  76  99 129 166 208 249 297
#     4  10  19  31  48  77 102 126 171 207 244 294
#     4   9  13  27  43  71  97 125 166 205 243 292
#     4  10  19  30  51  76 100 135 163 206 248 294
#     4   8  14  23  43  69  98 124 162 210 247 287
#     4   8  16  23  45  72  97 127 166 204 249 295
#
# _framework density 26.510840999999999
#
# number of rings (size 3 to 8) (size 9 to 14) (size 15 to 20)
#    0.000    2.750    3.750    3.000    0.000    0.000 
#    0.000    0.625    0.000    4.500    6.500    0.000 
#    0.000    0.000    0.000    0.000    0.000    0.000 
#
# Total GULP energy -89426.707180 kJ/mol
# GULP energy per Si atom -5589.169199 kJ/mol
# Density = 2.645050 g / cm^3
# Si number density = 26.510841 Si / 1000 Ang^3
#
#
#
# Elastic Constant Matrix: (Units=GPa)
#
#
# Indices 1 2 3 4 5 6 
#
# 1 75.2396 40.4373 24.4900 13.9687 24.1516 22.1802
# 2 40.4373 165.4724 72.0892 48.2900 20.6202 25.4922
# 3 24.4900 72.0892 97.9170 27.3131 22.3758 24.0967
# 4 13.9687 48.2900 27.3131 51.6821 21.3340 10.9028
# 5 24.1516 20.6202 22.3758 21.3340 31.9405 6.4053
# 6 22.1802 25.4922 24.0967 10.9028 6.4053 46.9142
#
#
#
# Elastic Compliance Matrix: (Units=1/GPa)
#
#
# Indices 1 2 3 4 5 6 
#
# 1 0.022011 -0.004767 0.002277 0.006336 -0.017783 -0.008030
# 2 -0.004767 0.011858 -0.006604 -0.009102 0.006571 0.000421
# 3 0.002277 -0.006604 0.017705 0.001359 -0.009650 -0.005580
# 4 0.006336 -0.009102 0.001359 0.035718 -0.022939 -0.003917
# 5 -0.017783 0.006571 -0.009650 -0.022939 0.061238 0.006763
# 6 -0.008030 0.000421 -0.005580 -0.003917 0.006763 0.027736
#
#
# Mechanical properties :
#
#
# Convention : Reuss Voigt Hill
#
# Bulk Modulus (GPa) = 29.95336 68.07355 49.01345
# Shear Modulus (GPa) = 24.32117 39.54820 31.93469
#
# Velocity S-wave (km/s) = 3.03215 3.86654 3.47449
# Velocity P-wave (km/s) = 4.85610 6.75773 5.88424
#
# Compressibility (1/GPa) = 0.03338524
#
# Stress axis : x y z
#
# Youngs Moduli (GPa) = 45.43235 84.33126 56.48263
#
# Poissons Ratio (x) = 0.40199 -0.12859
# Poissons Ratio (y) = 0.21656 0.37301
# Poissons Ratio (z) = -0.10344 0.55692
#
# Static dielectric constant tensor:
#      x y z
#    x 2.089080 -0.003420 -0.057460 
#    y -0.003420 2.230710 -0.059750 
#    z -0.057460 -0.059750 2.218040 
# 
# From -- ./inp_files/417547.got.cif
#   From: 2010.05.17/outbox.cif.g08.bks.cpg/sg2_209_cif.got.tgz:417547.got - 2010.06.03 11:33:40.
