data_PCOD9089807
_publ_section_title
;
Structure prediction by ZEFSAII (Michael W. Deem and Ramdas Pophale) SiO2 
 PCOD9089807
Probable space group: P -1
;
_chemical_formula_sum "Si O2"
_cell_formula_units_Z 14
_cell_length_a 14.680018
_cell_length_b 11.859965
_cell_length_c 17.612687
_cell_angle_alpha 33.333456
_cell_angle_beta 25.864280
_cell_angle_gamma 48.546396
_cell_volume 681.582013
_symmetry_space_group_name_H-M "P -1"
_symmetry_group_IT_number 2
_symmetry_cell_setting 'triclinic'
loop_
_space_group_symop_operation_xyz
x,y,z
-x,-y,-z
loop_
_atom_site_type_symbol
_atom_site_label
_atom_site_fract_x
_atom_site_fract_y
_atom_site_fract_z
Si Si1 0.069645 0.825841 0.717899
Si Si2 0.202550 0.544252 0.660943
Si Si3 0.599303 0.735618 0.753242
Si Si4 0.300596 0.183655 0.893897
Si Si5 0.042578 0.294159 0.617373
Si Si6 0.153077 0.252621 0.726625
Si Si7 0.470234 0.925728 0.474431
O O1 0.069536 0.650535 0.754220
O O2 0.217400 0.815867 0.688893
O O3 0.223816 0.073037 0.434980
O O4 0.825039 0.805841 0.939555
O O5 0.256162 0.361783 0.772873
O O6 0.432729 0.739424 0.351789
O O7 0.100635 0.407728 0.739394
O O8 0.752432 0.725059 0.573281
O O9 0.437997 0.851554 0.772646
O O10 0.500000 0.500000 0.000000
O O11 0.170724 0.935221 0.101905
O O12 0.110957 0.325283 0.635095
O O13 0.000000 0.500000 0.500000
O O14 0.401652 0.238464 0.548300
O O15 0.000000 0.000000 0.000000
O O16 0.500000 0.000000 0.500000
#
# Coordination Sequence:
#
# PCOD9089807 Si02
#       7
#     2   2   2   2   2   2   2
#     4   9  21  37  62  93 131 166 212 260 323 376
#     4  11  22  36  66  91 131 167 211 268 320 380
#     4   9  21  37  63  91 122 169 210 254 321 381
#     4  10  20  40  60  95 126 167 212 258 323 384
#     4  11  24  41  65  91 129 167 213 269 321 385
#     4  12  24  40  61  99 126 162 221 269 316 379
#     4  10  19  38  61  92 128 160 209 268 310 365
#
# _framework density 20.540448000000001
#
# number of rings (size 3 to 8) (size 9 to 14) (size 15 to 20)
#    0.857    0.857    2.857    2.143    4.000    0.000 
#    0.000    0.714    0.000    1.714    0.000    0.000 
#    0.000    0.000    0.000    0.000    0.000    0.000 
#
# Total GULP energy -78056.091675 kJ/mol
# GULP energy per Si atom -5575.435120 kJ/mol
# Density = 2.049370 g / cm^3
# Si number density = 20.540448 Si / 1000 Ang^3
#
#
#
# Elastic Constant Matrix: (Units=GPa)
#
#
# Indices 1 2 3 4 5 6 
#
# 1 50.6309 37.5132 13.6398 -11.4733 20.1921 14.2234
# 2 37.5132 99.6954 16.5964 -15.5614 3.7559 21.9134
# 3 13.6398 16.5964 109.6983 -15.8688 14.9666 1.4893
# 4 -11.4733 -15.5614 -15.8688 29.5607 -11.9229 -2.9874
# 5 20.1921 3.7559 14.9666 -11.9229 19.1793 -7.8056
# 6 14.2234 21.9134 1.4893 -2.9874 -7.8056 39.1525
#
#
#
# Elastic Compliance Matrix: (Units=1/GPa)
#
#
# Indices 1 2 3 4 5 6 
#
# 1 0.134408 -0.036454 0.010229 -0.051273 -0.204103 -0.073417
# 2 -0.036454 0.022391 -0.003664 0.018658 0.053739 0.012988
# 3 0.010229 -0.003664 0.011341 -0.001717 -0.022719 -0.006757
# 4 -0.051273 0.018658 -0.001717 0.070895 0.110242 0.035636
# 5 -0.204103 0.053739 -0.022719 0.110242 0.396651 0.132423
# 6 -0.073417 0.012988 -0.006757 0.035636 0.132423 0.074319
#
#
# Mechanical properties :
#
#
# Convention : Reuss Voigt Hill
#
# Bulk Modulus (GPa) = 9.22831 43.94704 26.58768
# Shear Modulus (GPa) = 6.20421 30.39685 18.30053
#
# Velocity S-wave (km/s) = 1.73984 3.85106 2.98812
# Velocity P-wave (km/s) = 2.92208 6.41997 4.98771
#
# Compressibility (1/GPa) = 0.10836217
#
# Stress axis : x y z
#
# Youngs Moduli (GPa) = 7.44001 44.66172 88.17237
#
# Poissons Ratio (x) = 1.62812 -0.90193
# Poissons Ratio (y) = 0.27122 0.32304
# Poissons Ratio (z) = -0.07610 0.16363
#
# Static dielectric constant tensor:
#      x y z
#    x 1.755660 -0.063880 -0.036080 
#    y -0.063880 1.846150 0.027150 
#    z -0.036080 0.027150 1.776210 
# 
# From -- ./inp_files/573338.got.cif
#   From: 2010.05.17/outbox.cif.g08.bks.cpg/sg2_287_cif.got.tgz:573338.got - 2010.06.03 11:33:40.
