data_PCOD9089846
_publ_section_title
;
Structure prediction by ZEFSAII (Michael W. Deem and Ramdas Pophale) SiO2 
 PCOD9089846
Probable space group: P -1
;
_chemical_formula_sum "Si O2"
_cell_formula_units_Z 14
_cell_length_a 9.577842
_cell_length_b 12.867024
_cell_length_c 14.467577
_cell_angle_alpha 154.580888
_cell_angle_beta 53.612217
_cell_angle_gamma 113.648817
_cell_volume 567.362957
_symmetry_space_group_name_H-M "P -1"
_symmetry_group_IT_number 2
_symmetry_cell_setting 'triclinic'
loop_
_space_group_symop_operation_xyz
x,y,z
-x,-y,-z
loop_
_atom_site_type_symbol
_atom_site_label
_atom_site_fract_x
_atom_site_fract_y
_atom_site_fract_z
Si Si1 0.826177 0.679548 0.566565
Si Si2 0.488990 0.222342 0.809858
Si Si3 0.767700 0.447320 0.678867
Si Si4 0.420989 0.580792 0.457842
Si Si5 0.163413 0.510891 0.770507
Si Si6 0.801502 0.896387 0.307713
Si Si7 0.153191 0.943463 0.976076
O O1 0.646503 0.611302 0.608624
O O2 0.822447 0.731042 0.497870
O O3 0.046495 0.492299 0.349471
O O4 0.821285 0.880320 0.810871
O O5 0.339470 0.163295 0.756125
O O6 0.687534 0.980435 0.517257
O O7 0.500000 0.500000 0.000000
O O8 0.397350 0.305157 0.011979
O O9 0.702084 0.385606 0.557458
O O10 0.818464 0.170177 0.491224
O O11 0.634134 0.514233 0.293952
O O12 0.345395 0.835685 0.756119
O O13 0.120389 0.724364 0.876245
O O14 0.996995 0.645433 0.017140
O O15 0.000000 0.000000 0.000000
#
# Coordination Sequence:
#
# PCOD9089846 Si02
#       7
#     2   2   2   2   2   2   2
#     4  11  21  36  59  79 117 160 196 227 273 336
#     4   9  20  36  64  91 104 138 200 244 284 336
#     4  11  20  37  60  85 111 154 195 235 282 336
#     4  11  25  36  52  88 125 153 192 236 282 338
#     4  11  23  37  55  85 121 153 188 239 294 334
#     4  10  19  38  62  85 112 143 192 244 284 345
#     4  11  21  36  55  81 111 156 203 231 270 329
#
# _framework density 24.675561999999999
#
# number of rings (size 3 to 8) (size 9 to 14) (size 15 to 20)
#    0.000    1.429    4.286    2.143    2.000    3.429 
#    0.000    0.714    0.000    7.714    0.000    0.000 
#    0.000    0.000    0.000    0.000    0.000    0.000 
#
# Total GULP energy -77983.871093 kJ/mol
# GULP energy per Si atom -5570.276507 kJ/mol
# Density = 2.461940 g / cm^3
# Si number density = 24.675562 Si / 1000 Ang^3
#
#
#
# Elastic Constant Matrix: (Units=GPa)
#
#
# Indices 1 2 3 4 5 6 
#
# 1 99.1843 24.5714 33.7465 -11.4946 0.4076 31.0301
# 2 24.5714 60.9940 33.1270 -1.7597 4.0181 22.1728
# 3 33.7465 33.1270 148.7049 -56.3400 20.0320 25.6407
# 4 -11.4946 -1.7597 -56.3400 46.6096 8.2522 -0.4028
# 5 0.4076 4.0181 20.0320 8.2522 41.4836 -8.2681
# 6 31.0301 22.1728 25.6407 -0.4028 -8.2681 35.5018
#
#
#
# Elastic Compliance Matrix: (Units=1/GPa)
#
#
# Indices 1 2 3 4 5 6 
#
# 1 0.016069 -0.001816 0.006504 0.013303 -0.009699 -0.019716
# 2 -0.001816 0.023279 -0.005824 -0.006713 0.000160 -0.008784
# 3 0.006504 -0.005824 0.038074 0.053450 -0.035955 -0.037313
# 4 0.013303 -0.006713 0.053450 0.098587 -0.056477 -0.058072
# 5 -0.009699 0.000160 -0.035955 -0.056477 0.062396 0.048236
# 6 -0.019716 -0.008784 -0.037313 -0.058072 0.048236 0.088410
#
#
# Mechanical properties :
#
#
# Convention : Reuss Voigt Hill
#
# Bulk Modulus (GPa) = 13.30674 54.64145 33.97409
# Shear Modulus (GPa) = 14.11883 39.21490 26.66687
#
# Velocity S-wave (km/s) = 2.39462 3.99083 3.29097
# Velocity P-wave (km/s) = 3.61248 6.58996 5.31402
#
# Compressibility (1/GPa) = 0.07514991
#
# Stress axis : x y z
#
# Youngs Moduli (GPa) = 62.23187 42.95753 26.26473
#
# Poissons Ratio (x) = 0.07801 -0.17083
# Poissons Ratio (y) = 0.11300 0.15297
# Poissons Ratio (z) = -0.40476 0.25019
#
# Static dielectric constant tensor:
#      x y z
#    x 1.967720 -0.005000 0.045130 
#    y -0.005000 2.037460 0.083490 
#    z 0.045130 0.083490 2.246560 
# 
# From -- ./inp_files/197654.got.cif
#   From: 2010.05.17/outbox.cif.g08.bks.cpg/sg2_99_cif.got.tgz:197654.got - 2010.06.03 11:33:40.
