data_PCOD9089798
_publ_section_title
;
Structure prediction by ZEFSAII (Michael W. Deem and Ramdas Pophale) SiO2 
 PCOD9089798
Probable space group: P -1
;
_chemical_formula_sum "Si O2"
_cell_formula_units_Z 12
_cell_length_a 13.646782
_cell_length_b 25.697691
_cell_length_c 27.091791
_cell_angle_alpha 170.127494
_cell_angle_beta 16.534603
_cell_angle_gamma 162.480725
_cell_volume 455.350068
_symmetry_space_group_name_H-M "P -1"
_symmetry_group_IT_number 2
_symmetry_cell_setting 'triclinic'
loop_
_space_group_symop_operation_xyz
x,y,z
-x,-y,-z
loop_
_atom_site_type_symbol
_atom_site_label
_atom_site_fract_x
_atom_site_fract_y
_atom_site_fract_z
Si Si1 0.247207 0.328149 0.918828
Si Si2 0.352185 0.539188 0.415019
Si Si3 0.324734 0.447252 0.828075
Si Si4 0.085215 0.771236 0.331292
Si Si5 0.085533 0.832841 0.902863
Si Si6 0.899400 0.154014 0.388420
O O1 0.515609 0.200857 0.634106
O O2 0.500000 0.500000 0.000000
O O3 0.071468 0.560684 0.189081
O O4 0.991634 0.053553 0.813956
O O5 0.391198 0.595150 0.390067
O O6 0.321946 0.173268 0.097160
O O7 0.713437 0.701469 0.418224
O O8 0.068425 0.698610 0.729608
O O9 0.188577 0.130453 0.626034
O O10 0.365102 0.694432 0.083604
O O11 0.000000 0.500000 0.000000
O O12 0.868920 0.957553 0.168795
O O13 0.129591 0.498219 0.592839
#
# Coordination Sequence:
#
# PCOD9089798 Si02
#       6
#     2   2   2   2   2   2
#     4  11  24  42  67  86 120 158 213 259 290 339
#     4  10  19  38  61  91 125 155 188 246 314 367
#     4  10  20  37  61  93 127 154 195 248 304 361
#     4  11  23  36  65  97 120 154 205 252 301 352
#     4  10  20  37  63  85 120 168 191 239 309 372
#     4  10  22  40  62  86 114 166 209 246 296 344
#
# _framework density 26.353352000000001
#
# number of rings (size 3 to 8) (size 9 to 14) (size 15 to 20)
#    0.000    1.667    1.667    5.000    4.667    0.000 
#    0.000    5.000    0.000   20.000    0.000    0.000 
#    0.000    0.000    0.000    0.000    0.000    0.000 
#
# Total GULP energy -66980.217579 kJ/mol
# GULP energy per Si atom -5581.684798 kJ/mol
# Density = 2.629337 g / cm^3
# Si number density = 26.353352 Si / 1000 Ang^3
#
#
#
# Elastic Constant Matrix: (Units=GPa)
#
#
# Indices 1 2 3 4 5 6 
#
# 1 120.5630 26.7522 45.3131 -10.0784 18.9902 -20.4589
# 2 26.7522 92.4349 45.4248 5.7808 0.6265 -29.8439
# 3 45.3131 45.4248 169.9064 -9.4058 20.0758 -20.7918
# 4 -10.0784 5.7808 -9.4058 18.0595 -45.6144 -38.1109
# 5 18.9902 0.6265 20.0758 -45.6144 28.2907 -17.6744
# 6 -20.4589 -29.8439 -20.7918 -38.1109 -17.6744 8.6787
#
#
#
# Elastic Compliance Matrix: (Units=1/GPa)
#
#
# Indices 1 2 3 4 5 6 
#
# 1 0.010403 -0.001151 -0.001513 -0.000759 -0.005108 0.003202
# 2 -0.001151 0.014663 -0.002809 -0.006176 -0.004195 0.005316
# 3 -0.001513 -0.002809 0.007558 0.000449 -0.002638 0.001479
# 4 -0.000759 -0.006176 0.000449 0.003432 -0.005746 -0.018582
# 5 -0.005108 -0.004195 -0.002638 -0.005746 0.017524 -0.022332
# 6 0.003202 0.005316 0.001479 -0.018582 -0.022332 0.017518
#
#
# Mechanical properties :
#
#
# Convention : Reuss Voigt Hill
#
# Bulk Modulus (GPa) = 46.13236 68.65381 57.39308
# Shear Modulus (GPa) = 56.00931 28.70009 42.35470
#
# Velocity S-wave (km/s) = 4.61512 3.30365 4.01332
# Velocity P-wave (km/s) = 6.77808 6.37652 6.58037
#
# Compressibility (1/GPa) = 0.02167676
#
# Stress axis : x y z
#
# Youngs Moduli (GPa) = 96.12562 68.19873 132.31761
#
# Poissons Ratio (x) = 0.07852 0.20024
# Poissons Ratio (y) = 0.11067 0.37165
# Poissons Ratio (z) = 0.14547 0.19156
#
# Static dielectric constant tensor:
#      x y z
#    x 2.061810 0.014200 -0.043400 
#    y 0.014200 2.194200 -0.104500 
#    z -0.043400 -0.104500 2.135400 
# 
# From -- ./inp_files/619990.got.cif
#   From: 2010.05.17/outbox.cif.g08.bks.cpg/sg2_310_cif.got.tgz:619990.got - 2010.06.03 11:33:40.
