data_PCOD9089640
_publ_section_title
;
Structure prediction by ZEFSAII (Michael W. Deem and Ramdas Pophale) SiO2 
 PCOD9089640
Probable space group: P -1
;
_chemical_formula_sum "Si O2"
_cell_formula_units_Z 16
_cell_length_a 21.458928
_cell_length_b 9.773641
_cell_length_c 24.327222
_cell_angle_alpha 154.414222
_cell_angle_beta 17.476321
_cell_angle_gamma 151.203597
_cell_volume 656.645778
_symmetry_space_group_name_H-M "P -1"
_symmetry_group_IT_number 2
_symmetry_cell_setting 'triclinic'
loop_
_space_group_symop_operation_xyz
x,y,z
-x,-y,-z
loop_
_atom_site_type_symbol
_atom_site_label
_atom_site_fract_x
_atom_site_fract_y
_atom_site_fract_z
Si Si1 0.923678 0.367006 0.933691
Si Si2 0.722570 0.823022 0.827151
Si Si3 0.486876 0.966196 0.629964
Si Si4 0.650193 0.852825 0.706169
Si Si5 0.277905 0.622490 0.240911
Si Si6 0.658137 0.789017 0.261610
Si Si7 0.666529 0.346180 0.249783
Si Si8 0.860660 0.523645 0.497105
O O1 0.157857 0.435290 0.782811
O O2 0.870511 0.106524 0.836407
O O3 0.865448 0.717888 0.092213
O O4 0.779079 0.251166 0.065806
O O5 0.766291 0.500822 0.705314
O O6 0.783369 0.773533 0.696026
O O7 0.479449 0.887065 0.060286
O O8 0.510641 0.604273 0.460932
O O9 0.430038 0.935174 0.730804
O O10 0.317011 0.096770 0.780500
O O11 0.697121 0.204247 0.525366
O O12 0.472073 0.557692 0.750633
O O13 0.838041 0.701734 0.522862
O O14 0.702758 0.007702 0.658767
O O15 0.091870 0.472854 0.302882
O O16 0.500000 0.500000 0.000000
O O17 0.500000 0.000000 0.500000
#
# Coordination Sequence:
#
# PCOD9089640 Si02
#       8
#     2   2   2   2   2   2   2   2
#     4  10  21  39  63  86 123 160 198 255 303 360
#     4  10  21  38  58  90 121 159 196 246 310 359
#     4  10  22  38  61  89 117 163 202 250 306 363
#     4   9  21  37  60  85 121 161 199 245 303 369
#     4  10  21  38  59  89 120 157 206 247 303 364
#     4  10  19  38  60  85 120 159 200 249 304 355
#     4  10  21  39  60  88 121 156 209 249 303 361
#     4  11  21  38  62  86 129 156 201 252 306 363
#
# _framework density 24.366256
#
# number of rings (size 3 to 8) (size 9 to 14) (size 15 to 20)
#    0.000    2.000    1.250    1.875    0.000    4.500 
#    2.250    0.000    2.750    0.000    0.000    0.000 
#    0.000    0.000    0.000    0.000    0.000    0.000 
#
# Total GULP energy -89329.914932 kJ/mol
# GULP energy per Si atom -5583.119683 kJ/mol
# Density = 2.431080 g / cm^3
# Si number density = 24.366256 Si / 1000 Ang^3
#
#
#
# Elastic Constant Matrix: (Units=GPa)
#
#
# Indices 1 2 3 4 5 6 
#
# 1 65.8546 36.0202 11.0082 17.5455 -26.5835 -21.7651
# 2 36.0202 100.8927 19.5774 10.5715 -7.2662 -34.2420
# 3 11.0082 19.5774 56.6568 3.7900 -10.8494 -14.1219
# 4 17.5455 10.5715 3.7900 31.9225 0.5209 -10.5457
# 5 -26.5835 -7.2662 -10.8494 0.5209 37.6012 16.1730
# 6 -21.7651 -34.2420 -14.1219 -10.5457 16.1730 42.4087
#
#
#
# Elastic Compliance Matrix: (Units=1/GPa)
#
#
# Indices 1 2 3 4 5 6 
#
# 1 0.033263 -0.009995 0.001771 -0.016799 0.023924 -0.003710
# 2 -0.009995 0.017190 -0.003075 0.004539 -0.010172 0.012734
# 3 0.001771 -0.003075 0.020172 -0.001535 0.005325 0.002730
# 4 -0.016799 0.004539 -0.001535 0.043441 -0.017152 0.011875
# 5 0.023924 -0.010172 0.005325 -0.017152 0.051007 -0.017878
# 6 -0.003710 0.012734 0.002730 0.011875 -0.017878 0.042638
#
#
# Mechanical properties :
#
#
# Convention : Reuss Voigt Hill
#
# Bulk Modulus (GPa) = 20.82211 39.62399 30.22305
# Shear Modulus (GPa) = 20.29892 32.83970 26.56931
#
# Velocity S-wave (km/s) = 2.88944 3.67516 3.30572
# Velocity P-wave (km/s) = 4.43800 5.85715 5.19625
#
# Compressibility (1/GPa) = 0.04802587
#
# Stress axis : x y z
#
# Youngs Moduli (GPa) = 30.06365 58.17215 49.57453
#
# Poissons Ratio (x) = 0.58144 -0.08780
# Poissons Ratio (y) = 0.30049 0.15247
# Poissons Ratio (z) = -0.05325 0.17891
#
# Static dielectric constant tensor:
#      x y z
#    x 2.013320 0.012340 -0.066040 
#    y 0.012340 1.979930 0.006040 
#    z -0.066040 0.006040 2.026520 
# 
# From -- ./inp_files/189810.got.cif
#   From: 2010.05.17/outbox.cif.g08.bks.cpg/sg2_95_cif.got.tgz:189810.got - 2010.06.03 11:33:40.
