data_PCOD9089152
_publ_section_title
;
Structure prediction by ZEFSAII (Michael W. Deem and Ramdas Pophale) SiO2 
 PCOD9089152
Probable space group: P -1
;
_chemical_formula_sum "Si O2"
_cell_formula_units_Z 16
_cell_length_a 7.848478
_cell_length_b 11.621603
_cell_length_c 8.617749
_cell_angle_alpha 63.947351
_cell_angle_beta 111.818834
_cell_angle_gamma 94.011865
_cell_volume 651.472015
_symmetry_space_group_name_H-M "P -1"
_symmetry_group_IT_number 2
_symmetry_cell_setting 'triclinic'
loop_
_space_group_symop_operation_xyz
x,y,z
-x,-y,-z
loop_
_atom_site_type_symbol
_atom_site_label
_atom_site_fract_x
_atom_site_fract_y
_atom_site_fract_z
Si Si1 0.423052 0.682989 0.275339
Si Si2 0.031644 0.834437 0.752972
Si Si3 0.713217 0.406998 0.029966
Si Si4 0.152668 0.177554 0.982805
Si Si5 0.295812 0.957455 0.946701
Si Si6 0.903177 0.439559 0.648948
Si Si7 0.769464 0.706451 0.567796
Si Si8 0.581655 0.690775 0.832544
O O1 0.417026 0.606559 0.156147
O O2 0.312687 0.823622 0.127777
O O3 0.304698 0.605402 0.401396
O O4 0.629404 0.705876 0.377907
O O5 0.909383 0.814800 0.571397
O O6 0.106189 0.684246 0.897870
O O7 0.204733 0.916491 0.777747
O O8 0.914497 0.873052 0.844331
O O9 0.709339 0.554869 0.978940
O O10 0.623273 0.340310 0.184666
O O11 0.029499 0.308728 0.814531
O O12 0.356185 0.213492 0.074447
O O13 0.166911 0.070726 0.919692
O O14 0.500000 0.000000 0.000000
O O15 0.874939 0.561331 0.685300
O O16 0.000000 0.500000 0.500000
O O17 0.633434 0.729868 0.655547
#
# Coordination Sequence:
#
# PCOD9089152 Si02
#       8
#     2   2   2   2   2   2   2   2
#     4  11  24  45  67 102 141 182 221 287 339 408
#     4  10  21  41  67  98 131 181 226 284 328 403
#     4  10  19  37  65  96 132 176 236 269 335 402
#     4  11  21  41  66  98 131 177 235 271 333 394
#     4  11  24  44  75  95 131 184 245 276 323 410
#     4  12  26  39  70 104 142 177 219 284 348 409
#     4  11  24  43  64 102 148 174 218 285 359 398
#     4  10  21  34  67  95 132 179 223 283 329 407
#
# _framework density 24.559764000000001
#
# number of rings (size 3 to 8) (size 9 to 14) (size 15 to 20)
#    0.000    1.250    3.750    3.000    3.500    4.000 
#    0.000    3.125    0.000    0.000    0.000    0.000 
#    0.000    0.000    0.000    0.000    0.000    0.000 
#
# Total GULP energy -89325.760071 kJ/mol
# GULP energy per Si atom -5582.860004 kJ/mol
# Density = 2.450386 g / cm^3
# Si number density = 24.559764 Si / 1000 Ang^3
#
#
#
# Elastic Constant Matrix: (Units=GPa)
#
#
# Indices 1 2 3 4 5 6 
#
# 1 90.0576 34.3031 16.0531 13.5666 -3.3285 17.6156
# 2 34.3031 169.5227 44.4855 23.3709 21.2048 8.6034
# 3 16.0531 44.4855 48.1138 5.6350 9.7270 10.9251
# 4 13.5666 23.3709 5.6350 39.0725 9.5207 11.8197
# 5 -3.3285 21.2048 9.7270 9.5207 37.4972 6.0704
# 6 17.6156 8.6034 10.9251 11.8197 6.0704 51.1111
#
#
#
# Elastic Compliance Matrix: (Units=1/GPa)
#
#
# Indices 1 2 3 4 5 6 
#
# 1 0.013660 -0.002088 -0.002316 -0.003120 0.004379 -0.003660
# 2 -0.002088 0.008884 -0.006961 -0.003455 -0.002825 0.001847
# 3 -0.002316 -0.006961 0.029470 0.003062 -0.003952 -0.004568
# 4 -0.003120 -0.003455 0.003062 0.031493 -0.006216 -0.005542
# 5 0.004379 -0.002825 -0.003952 -0.006216 0.031665 -0.002512
# 6 -0.003660 0.001847 -0.004568 -0.005542 -0.002512 0.023072
#
#
# Mechanical properties :
#
#
# Convention : Reuss Voigt Hill
#
# Bulk Modulus (GPa) = 34.14755 55.26418 44.70586
# Shear Modulus (GPa) = 29.28491 39.72632 34.50561
#
# Velocity S-wave (km/s) = 3.45685 4.02622 3.75235
# Velocity P-wave (km/s) = 5.46508 6.64566 6.08407
#
# Compressibility (1/GPa) = 0.02928468
#
# Stress axis : x y z
#
# Youngs Moduli (GPa) = 73.20670 112.55939 33.93253
#
# Poissons Ratio (x) = 0.23506 0.07857
# Poissons Ratio (y) = 0.15288 0.23620
# Poissons Ratio (z) = 0.16951 0.78352
#
# Static dielectric constant tensor:
#      x y z
#    x 2.065840 0.073140 0.034420 
#    y 0.073140 1.912130 -0.000650 
#    z 0.034420 -0.000650 2.012800 
# 
# From -- ./inp_files/186089.got.cif
#   From: 2010.05.17/outbox.cif.g08.bks.cpg/sg2_94_cif.got.tgz:186089.got - 2010.06.03 11:33:40.
