data_PCOD9089285
_publ_section_title
;
Structure prediction by ZEFSAII (Michael W. Deem and Ramdas Pophale) SiO2 
 PCOD9089285
Probable space group: P -1
;
_chemical_formula_sum "Si O2"
_cell_formula_units_Z 14
_cell_length_a 20.437452
_cell_length_b 5.896553
_cell_length_c 5.787182
_cell_angle_alpha 105.520661
_cell_angle_beta 81.029743
_cell_angle_gamma 65.998907
_cell_volume 585.454221
_symmetry_space_group_name_H-M "P -1"
_symmetry_group_IT_number 2
_symmetry_cell_setting 'triclinic'
loop_
_space_group_symop_operation_xyz
x,y,z
-x,-y,-z
loop_
_atom_site_type_symbol
_atom_site_label
_atom_site_fract_x
_atom_site_fract_y
_atom_site_fract_z
Si Si1 0.130281 0.079218 0.221826
Si Si2 0.495163 0.869801 0.222114
Si Si3 0.622942 0.270275 0.925176
Si Si4 0.982596 0.313329 0.141146
Si Si5 0.182385 0.557402 0.751923
Si Si6 0.258424 0.114819 0.922039
Si Si7 0.241532 0.758300 0.434762
O O1 0.161429 0.934085 0.405956
O O2 0.149123 0.852068 0.955655
O O3 0.042350 0.262334 0.297782
O O4 0.186417 0.191530 0.146993
O O5 0.418025 0.848448 0.249580
O O6 0.500000 0.000000 0.500000
O O7 0.560847 0.563874 0.111184
O O8 0.500000 0.000000 0.000000
O O9 0.691033 0.306868 0.791999
O O10 0.663109 0.050456 0.041278
O O11 0.892089 0.471188 0.265178
O O12 0.000000 0.500000 0.000000
O O13 0.000000 0.000000 0.000000
O O14 0.238735 0.380518 0.870180
O O15 0.233834 0.520612 0.493388
O O16 0.255388 0.924052 0.671617
#
# Coordination Sequence:
#
# PCOD9089285 Si02
#       7
#     2   2   2   2   2   2   2
#     4   9  20  39  58  91 134 184 244 305 366 441
#     4  11  28  50  83 114 150 196 251 302 386 471
#     4  10  26  48  73 105 151 188 243 310 374 463
#     4  10  19  37  67  91 139 197 253 317 388 443
#     4  10  21  38  65  94 136 187 250 302 377 451
#     4  10  21  40  64  96 138 185 234 302 371 445
#     4  10  23  40  63  99 140 181 244 302 375 448
#
# _framework density 23.913056999999998
#
# number of rings (size 3 to 8) (size 9 to 14) (size 15 to 20)
#    0.000    2.000    1.429    0.000    4.000    8.571 
#    0.000    0.714    0.000    0.000    0.000    0.000 
#    0.000    0.000    0.000    0.000    0.000    0.000 
#
# Total GULP energy -78096.145368 kJ/mol
# GULP energy per Si atom -5578.296098 kJ/mol
# Density = 2.385863 g / cm^3
# Si number density = 23.913057 Si / 1000 Ang^3
#
#
#
# Elastic Constant Matrix: (Units=GPa)
#
#
# Indices 1 2 3 4 5 6 
#
# 1 150.8342 68.8006 54.4334 -6.4062 17.9242 -20.2668
# 2 68.8006 122.0284 43.2979 -21.2659 -11.2224 -17.5295
# 3 54.4334 43.2979 62.8573 -7.1684 19.0646 -9.6363
# 4 -6.4062 -21.2659 -7.1684 41.0718 9.9760 2.3343
# 5 17.9242 -11.2224 19.0646 9.9760 32.4956 -4.9864
# 6 -20.2668 -17.5295 -9.6363 2.3343 -4.9864 46.1469
#
#
#
# Elastic Compliance Matrix: (Units=1/GPa)
#
#
# Indices 1 2 3 4 5 6 
#
# 1 0.011424 -0.005071 -0.004755 -0.000590 -0.004836 0.001605
# 2 -0.005071 0.017468 -0.011513 0.002296 0.015425 0.003555
# 3 -0.004755 -0.011513 0.035649 0.005520 -0.024257 -0.001917
# 4 -0.000590 0.002296 0.005520 0.029186 -0.011222 -0.000923
# 5 -0.004836 0.015425 -0.024257 -0.011222 0.057277 0.005427
# 6 0.001605 0.003555 -0.001917 -0.000923 0.005427 0.023958
#
#
# Mechanical properties :
#
#
# Convention : Reuss Voigt Hill
#
# Bulk Modulus (GPa) = 45.73469 74.30929 60.02199
# Shear Modulus (GPa) = 22.22952 35.22207 28.72579
#
# Velocity S-wave (km/s) = 3.05224 3.84203 3.46968
# Velocity P-wave (km/s) = 5.62036 7.12908 6.41920
#
# Compressibility (1/GPa) = 0.02186524
#
# Stress axis : x y z
#
# Youngs Moduli (GPa) = 87.53603 57.24776 28.05092
#
# Poissons Ratio (x) = 0.29029 0.13337
# Poissons Ratio (y) = 0.44388 0.32294
# Poissons Ratio (z) = 0.41619 0.65907
#
# Static dielectric constant tensor:
#      x y z
#    x 1.982240 0.154960 0.113360 
#    y 0.154960 2.084480 0.123080 
#    z 0.113360 0.123080 2.106300 
# 
# From -- ./inp_files/7480.got.cif
#   From: 2010.05.17/outbox.cif.g08.bks.cpg/sg2_4_cif.got.tgz:7480.got - 2010.06.03 11:33:40.
