data_PCOD9089453
_publ_section_title
;
Structure prediction by ZEFSAII (Michael W. Deem and Ramdas Pophale) SiO2 
 PCOD9089453
Probable space group: P -1
;
_chemical_formula_sum "Si O2"
_cell_formula_units_Z 10
_cell_length_a 5.223639
_cell_length_b 14.960847
_cell_length_c 19.038173
_cell_angle_alpha 17.253632
_cell_angle_beta 68.512711
_cell_angle_gamma 69.446560
_cell_volume 410.620001
_symmetry_space_group_name_H-M "P -1"
_symmetry_group_IT_number 2
_symmetry_cell_setting 'triclinic'
loop_
_space_group_symop_operation_xyz
x,y,z
-x,-y,-z
loop_
_atom_site_type_symbol
_atom_site_label
_atom_site_fract_x
_atom_site_fract_y
_atom_site_fract_z
Si Si1 0.588569 0.823822 0.338521
Si Si2 0.817603 0.384401 0.170247
Si Si3 0.602537 0.810233 0.197123
Si Si4 0.004181 0.332326 0.469106
Si Si5 0.795985 0.654807 0.714784
O O1 0.601557 0.978521 0.145294
O O2 0.608038 0.473896 0.572225
O O3 0.812738 0.847365 0.358377
O O4 0.280334 0.845436 0.383530
O O5 0.497204 0.475859 0.133155
O O6 0.967589 0.465594 0.167046
O O7 0.803286 0.019356 0.445322
O O8 0.000000 0.500000 0.000000
O O9 0.893754 0.647899 0.275002
O O10 0.500000 0.000000 0.000000
O O11 0.153116 0.396091 0.333892
#
# Coordination Sequence:
#
# PCOD9089453 Si02
#       5
#     2   2   2   2   2
#     4   9  20  36  54  78 115 151 188 239 284 339
#     4  10  21  40  62  86 119 153 191 238 305 356
#     4   9  20  36  57  78 115 155 190 233 289 337
#     4  10  19  38  56  82 117 147 196 239 284 342
#     4  10  21  38  63  86 119 154 190 247 291 346
#
# _framework density 24.353415999999999
#
# number of rings (size 3 to 8) (size 9 to 14) (size 15 to 20)
#    1.200    1.200    0.000    2.400    0.000    0.800 
#    3.600    0.000    0.000    0.000    0.000    0.000 
#    0.000    0.000    0.000    0.000    0.000    0.000 
#
# Total GULP energy -55859.892766 kJ/mol
# GULP energy per Si atom -5585.989277 kJ/mol
# Density = 2.429799 g / cm^3
# Si number density = 24.353416 Si / 1000 Ang^3
#
#
#
# Elastic Constant Matrix: (Units=GPa)
#
#
# Indices 1 2 3 4 5 6 
#
# 1 176.5808 46.2500 49.8952 20.5045 9.1848 -0.2069
# 2 46.2500 103.1725 27.9793 39.2819 -5.9420 -3.7664
# 3 49.8952 27.9793 82.1437 19.2647 -9.4325 12.8685
# 4 20.5045 39.2819 19.2647 42.5178 7.7280 0.5981
# 5 9.1848 -5.9420 -9.4325 7.7280 35.0058 11.0336
# 6 -0.2069 -3.7664 12.8685 0.5981 11.0336 33.5838
#
#
#
# Elastic Compliance Matrix: (Units=1/GPa)
#
#
# Indices 1 2 3 4 5 6 
#
# 1 0.008182 -0.003411 -0.005796 0.002893 -0.006141 0.003855
# 2 -0.003411 0.017726 0.000985 -0.016637 0.008085 -0.000770
# 3 -0.005796 0.000985 0.021171 -0.009982 0.013468 -0.012285
# 4 0.002893 -0.016637 -0.009982 0.045290 -0.018563 0.007269
# 5 -0.006141 0.008085 0.013468 -0.018563 0.045207 -0.018814
# 6 0.003855 -0.000770 -0.012285 0.007269 -0.018814 0.040472
#
#
# Mechanical properties :
#
#
# Convention : Reuss Voigt Hill
#
# Bulk Modulus (GPa) = 32.64140 67.79400 50.21770
# Shear Modulus (GPa) = 24.42543 38.07299 31.24921
#
# Velocity S-wave (km/s) = 3.17039 3.95822 3.58600
# Velocity P-wave (km/s) = 5.18016 6.98484 6.14907
#
# Compressibility (1/GPa) = 0.03063594
#
# Stress axis : x y z
#
# Youngs Moduli (GPa) = 122.21766 56.41300 47.23446
#
# Poissons Ratio (x) = 0.19241 0.27376
# Poissons Ratio (y) = 0.41684 -0.04651
# Poissons Ratio (z) = 0.70835 -0.05555
#
# Static dielectric constant tensor:
#      x y z
#    x 1.904600 0.004710 -0.054350 
#    y 0.004710 1.950310 -0.026470 
#    z -0.054350 -0.026470 2.065840 
# 
# From -- ./inp_files/4608.got.cif
#   From: 2010.05.17/outbox.cif.g08.bks.cpg/sg2_3_cif.got.tgz:4608.got - 2010.06.03 11:33:40.
