data_PCOD9089058
_publ_section_title
;
Structure prediction by ZEFSAII (Michael W. Deem and Ramdas Pophale) SiO2 
 PCOD9089058
Probable space group: P -1
;
_chemical_formula_sum "Si O2"
_cell_formula_units_Z 12
_cell_length_a 10.846143
_cell_length_b 6.659173
_cell_length_c 8.404292
_cell_angle_alpha 74.618626
_cell_angle_beta 101.913733
_cell_angle_gamma 127.034828
_cell_volume 466.342385
_symmetry_space_group_name_H-M "P -1"
_symmetry_group_IT_number 2
_symmetry_cell_setting 'triclinic'
loop_
_space_group_symop_operation_xyz
x,y,z
-x,-y,-z
loop_
_atom_site_type_symbol
_atom_site_label
_atom_site_fract_x
_atom_site_fract_y
_atom_site_fract_z
Si Si1 0.461385 0.260563 0.187982
Si Si2 0.565307 0.327949 0.530633
Si Si3 0.116348 0.623013 0.853391
Si Si4 0.572976 0.831541 0.139478
Si Si5 0.841299 0.766528 0.936031
Si Si6 0.087947 0.289242 0.396667
O O1 0.478729 0.167213 0.382146
O O2 0.562176 0.567990 0.174305
O O3 0.288186 0.181145 0.128004
O O4 0.495255 0.176782 0.049773
O O5 0.500000 0.500000 0.500000
O O6 0.523854 0.206370 0.720983
O O7 0.750019 0.506881 0.517430
O O8 0.021407 0.613491 0.677237
O O9 0.253104 0.920574 0.849264
O O10 0.188444 0.462032 0.911055
O O11 0.000000 0.500000 0.000000
O O12 0.864728 0.718616 0.770570
O O13 0.000000 0.000000 0.000000
O O14 0.000000 0.000000 0.500000
#
# Coordination Sequence:
#
# PCOD9089058 Si02
#       6
#     2   2   2   2   2   2
#     4  10  20  37  68 102 126 174 228 266 332 404
#     4  10  19  37  65 100 131 172 225 266 331 400
#     4  10  23  40  65  97 134 177 222 273 339 396
#     4  10  20  39  68  93 135 173 218 277 331 394
#     4  11  23  42  66  95 131 174 229 275 332 404
#     4  11  21  40  67  96 134 176 213 275 341 393
#
# _framework density 25.732168999999999
#
# number of rings (size 3 to 8) (size 9 to 14) (size 15 to 20)
#    0.000    1.667    3.333    4.000    0.000    2.000 
#    0.000    0.833    7.333   11.000    0.000    2.333 
#    0.000    0.000    0.000    0.000    0.000    0.000 
#
# Total GULP energy -67086.730682 kJ/mol
# GULP energy per Si atom -5590.560890 kJ/mol
# Density = 2.567360 g / cm^3
# Si number density = 25.732169 Si / 1000 Ang^3
#
#
#
# Elastic Constant Matrix: (Units=GPa)
#
#
# Indices 1 2 3 4 5 6 
#
# 1 104.2286 62.5829 72.7920 18.1387 23.2133 23.8577
# 2 62.5829 128.3234 53.3050 11.7359 15.2306 33.0662
# 3 72.7920 53.3050 219.8890 3.0143 20.7239 -2.0539
# 4 18.1387 11.7359 3.0143 62.4133 -10.1126 5.7476
# 5 23.2133 15.2306 20.7239 -10.1126 61.3628 14.3242
# 6 23.8577 33.0662 -2.0539 5.7476 14.3242 49.5513
#
#
#
# Elastic Compliance Matrix: (Units=1/GPa)
#
#
# Indices 1 2 3 4 5 6 
#
# 1 0.018368 -0.005257 -0.004406 -0.004428 -0.003986 -0.003852
# 2 -0.005257 0.012400 -0.001394 -0.000056 0.000778 -0.006020
# 3 -0.004406 -0.001394 0.006446 0.000774 -0.000848 0.003474
# 4 -0.004428 -0.000056 0.000774 0.018163 0.004717 -0.001269
# 5 -0.003986 0.000778 -0.000848 0.004717 0.019822 -0.004912
# 6 -0.003852 -0.006020 0.003474 -0.001269 -0.004912 0.027764
#
#
# Mechanical properties :
#
#
# Convention : Reuss Voigt Hill
#
# Bulk Modulus (GPa) = 66.22839 92.20009 79.21424
# Shear Modulus (GPa) = 38.42892 52.24953 45.33923
#
# Velocity S-wave (km/s) = 3.86867 4.51101 4.20213
# Velocity P-wave (km/s) = 6.76380 7.93982 7.37529
#
# Compressibility (1/GPa) = 0.01509926
#
# Stress axis : x y z
#
# Youngs Moduli (GPa) = 54.44282 80.64626 155.13594
#
# Poissons Ratio (x) = 0.42397 0.68348
# Poissons Ratio (y) = 0.28621 0.21632
# Poissons Ratio (z) = 0.23986 0.11245
#
# Static dielectric constant tensor:
#      x y z
#    x 2.128250 -0.046240 0.054200 
#    y -0.046240 2.101600 -0.085210 
#    z 0.054200 -0.085210 1.985180 
# 
# From -- ./inp_files/237908.got.cif
#   From: 2010.05.17/outbox.cif.g08.bks.cpg/sg2_119_cif.got.tgz:237908.got - 2010.06.03 11:33:40.
