data_PCOD9089251
_publ_section_title
;
Structure prediction by ZEFSAII (Michael W. Deem and Ramdas Pophale) SiO2 
 PCOD9089251
Probable space group: P -1
;
_chemical_formula_sum "Si O2"
_cell_formula_units_Z 14
_cell_length_a 8.710572
_cell_length_b 14.813269
_cell_length_c 22.764794
_cell_angle_alpha 19.072135
_cell_angle_beta 140.215633
_cell_angle_gamma 139.141700
_cell_volume 607.808672
_symmetry_space_group_name_H-M "P -1"
_symmetry_group_IT_number 2
_symmetry_cell_setting 'triclinic'
loop_
_space_group_symop_operation_xyz
x,y,z
-x,-y,-z
loop_
_atom_site_type_symbol
_atom_site_label
_atom_site_fract_x
_atom_site_fract_y
_atom_site_fract_z
Si Si1 0.997537 0.228590 0.208172
Si Si2 0.708222 0.918522 0.970044
Si Si3 0.000342 0.719747 0.445252
Si Si4 0.088133 0.882209 0.243434
Si Si5 0.681969 0.227368 0.878176
Si Si6 0.532503 0.231770 0.136108
Si Si7 0.486015 0.396114 0.309442
O O1 0.267547 0.234145 0.307880
O O2 0.813802 0.241371 0.199840
O O3 0.907773 0.946653 0.319590
O O4 0.000000 0.500000 0.000000
O O5 0.607715 0.661513 0.142268
O O6 0.590065 0.820531 0.933036
O O7 0.633573 0.184044 0.821155
O O8 0.000000 0.000000 0.000000
O O9 0.951488 0.783865 0.323804
O O10 0.290154 0.760744 0.513769
O O11 0.920032 0.389963 0.632541
O O12 0.368508 0.986685 0.273142
O O13 0.945795 0.130605 0.026515
O O14 0.634281 0.502760 0.728479
O O15 0.500000 0.000000 0.000000
O O16 0.500000 0.500000 0.000000
#
# Coordination Sequence:
#
# PCOD9089251 Si02
#       7
#     2   2   2   2   2   2   2
#     4  12  25  42  68  96 128 183 227 272 339 403
#     4  11  21  37  68 101 131 171 221 278 325 390
#     4  11  24  42  67  94 137 173 226 280 332 400
#     4  11  23  42  66 100 136 177 221 278 332 391
#     4  10  19  37  66  98 125 164 224 260 324 395
#     4  12  25  43  67  99 137 174 227 278 330 400
#     4  11  22  42  66 101 132 174 223 274 333 397
#
# _framework density 23.033564999999999
#
# number of rings (size 3 to 8) (size 9 to 14) (size 15 to 20)
#    0.000    0.857    5.714    3.000    2.000    0.571 
#    0.000    2.143    0.000    0.000    0.000    0.000 
#    0.000    0.000    0.000    0.000    0.000    0.000 
#
# Total GULP energy -78104.695289 kJ/mol
# GULP energy per Si atom -5578.906806 kJ/mol
# Density = 2.298114 g / cm^3
# Si number density = 23.033565 Si / 1000 Ang^3
#
#
#
# Elastic Constant Matrix: (Units=GPa)
#
#
# Indices 1 2 3 4 5 6 
#
# 1 110.0180 19.2421 26.6779 -24.3155 18.9580 -5.0935
# 2 19.2421 113.5878 23.8683 -19.9213 9.5207 -0.4904
# 3 26.6779 23.8683 57.0900 -7.8538 23.6069 -10.7731
# 4 -24.3155 -19.9213 -7.8538 38.5323 -11.9419 6.7253
# 5 18.9580 9.5207 23.6069 -11.9419 31.6179 -6.9931
# 6 -5.0935 -0.4904 -10.7731 6.7253 -6.9931 60.4809
#
#
#
# Elastic Compliance Matrix: (Units=1/GPa)
#
#
# Indices 1 2 3 4 5 6 
#
# 1 0.011695 0.000091 -0.004003 0.006141 -0.001870 -0.000626
# 2 0.000091 0.010562 -0.004817 0.005398 0.002153 -0.001116
# 3 -0.004003 -0.004817 0.029259 -0.005630 -0.019410 0.003217
# 4 0.006141 0.005398 -0.005630 0.035622 0.011675 -0.003053
# 5 -0.001870 0.002153 -0.019410 0.011675 0.051229 0.001028
# 6 -0.000626 -0.001116 0.003217 -0.003053 0.001028 0.017504
#
#
# Mechanical properties :
#
#
# Convention : Reuss Voigt Hill
#
# Bulk Modulus (GPa) = 29.36137 46.69693 38.02915
# Shear Modulus (GPa) = 27.07364 40.18674 33.63019
#
# Velocity S-wave (km/s) = 3.43213 4.18150 3.82521
# Velocity P-wave (km/s) = 5.33675 6.60535 6.00465
#
# Compressibility (1/GPa) = 0.03405836
#
# Stress axis : x y z
#
# Youngs Moduli (GPa) = 85.50955 94.67959 34.17702
#
# Poissons Ratio (x) = -0.00863 0.13682
# Poissons Ratio (y) = -0.00779 0.16462
# Poissons Ratio (z) = 0.34231 0.45604
#
# Static dielectric constant tensor:
#      x y z
#    x 1.911860 -0.024470 -0.001120 
#    y -0.024470 1.904810 0.028700 
#    z -0.001120 0.028700 1.883380 
# 
# From -- ./inp_files/190153.got.cif
#   From: 2010.05.17/outbox.cif.g08.bks.cpg/sg2_96_cif.got.tgz:190153.got - 2010.06.03 11:33:40.
