data_PCOD9089473
_publ_section_title
;
Structure prediction by ZEFSAII (Michael W. Deem and Ramdas Pophale) SiO2 
 PCOD9089473
Probable space group: P -1
;
_chemical_formula_sum "Si O2"
_cell_formula_units_Z 16
_cell_length_a 8.936299
_cell_length_b 8.159198
_cell_length_c 13.986154
_cell_angle_alpha 128.147676
_cell_angle_beta 70.399445
_cell_angle_gamma 130.834546
_cell_volume 602.745663
_symmetry_space_group_name_H-M "P -1"
_symmetry_group_IT_number 2
_symmetry_cell_setting 'triclinic'
loop_
_space_group_symop_operation_xyz
x,y,z
-x,-y,-z
loop_
_atom_site_type_symbol
_atom_site_label
_atom_site_fract_x
_atom_site_fract_y
_atom_site_fract_z
Si Si1 0.549532 0.371532 0.025851
Si Si2 0.200943 0.222106 0.715840
Si Si3 0.569228 0.533235 0.604367
Si Si4 0.518557 0.938460 0.774185
Si Si5 0.109421 0.957520 0.044245
Si Si6 0.448212 0.074451 0.636595
Si Si7 0.067670 0.525487 0.788715
Si Si8 0.159426 0.398416 0.293208
O O1 0.707794 0.582330 0.142685
O O2 0.345304 0.150464 0.043659
O O3 0.500000 0.500000 0.000000
O O4 0.615307 0.212647 0.902071
O O5 0.365843 0.330466 0.633524
O O6 0.226262 0.997521 0.659587
O O7 0.039293 0.258021 0.722094
O O8 0.500000 0.500000 0.500000
O O9 0.630628 0.814534 0.722150
O O10 0.757960 0.537312 0.592149
O O11 0.300923 0.733511 0.790989
O O12 0.486247 0.958679 0.676902
O O13 0.075184 0.098999 0.186302
O O14 0.036625 0.664719 0.933347
O O15 0.000000 0.000000 0.000000
O O16 0.620145 0.389170 0.726482
O O17 0.500000 0.000000 0.500000
O O18 0.962447 0.528955 0.715807
#
# Coordination Sequence:
#
# PCOD9089473 Si02
#       8
#     2   2   2   2   2   2   2   2
#     4  11  18  32  57  85 111 148 183 233 283 335
#     4  10  20  36  56  83 116 146 190 230 284 334
#     4  10  20  35  56  81 109 148 197 229 265 334
#     4  10  20  33  56  86 112 139 195 231 276 333
#     4   9  17  31  55  83 114 143 180 221 287 335
#     4  11  21  38  59  78 109 154 193 231 273 331
#     4   9  21  34  58  84 118 142 182 232 289 338
#     4  10  19  38  57  81 115 151 182 230 289 327
#
# _framework density 26.545193000000001
#
# number of rings (size 3 to 8) (size 9 to 14) (size 15 to 20)
#    0.000    2.000    3.750    1.500    1.750    1.500 
#    0.000    7.500    0.000    2.250    0.000    0.000 
#    0.000    0.000    0.000    0.000    0.000    0.000 
#
# Total GULP energy -89242.648298 kJ/mol
# GULP energy per Si atom -5577.665519 kJ/mol
# Density = 2.648477 g / cm^3
# Si number density = 26.545193 Si / 1000 Ang^3
#
#
#
# Elastic Constant Matrix: (Units=GPa)
#
#
# Indices 1 2 3 4 5 6 
#
# 1 148.7265 18.0293 31.5216 8.1040 10.2179 -35.2400
# 2 18.0293 41.3670 -6.7059 1.8567 1.4063 8.6386
# 3 31.5216 -6.7059 105.8050 -19.3673 2.3736 -6.9721
# 4 8.1040 1.8567 -19.3673 37.1691 -16.9698 5.3815
# 5 10.2179 1.4063 2.3736 -16.9698 46.5629 -0.9961
# 6 -35.2400 8.6386 -6.9721 5.3815 -0.9961 57.7568
#
#
#
# Elastic Compliance Matrix: (Units=1/GPa)
#
#
# Indices 1 2 3 4 5 6 
#
# 1 0.011095 -0.006707 -0.004517 -0.007694 -0.004638 0.007865
# 2 -0.006707 0.029247 0.004010 0.004068 0.001688 -0.008333
# 3 -0.004517 0.004010 0.012501 0.009312 0.003570 -0.002653
# 4 -0.007694 0.004068 0.009312 0.041722 0.016130 -0.007788
# 5 -0.004638 0.001688 0.003570 0.016130 0.028061 -0.003670
# 6 0.007865 -0.008333 -0.002653 -0.007788 -0.003670 0.023701
#
#
# Mechanical properties :
#
#
# Convention : Reuss Voigt Hill
#
# Bulk Modulus (GPa) = 26.03174 42.39871 34.21523
# Shear Modulus (GPa) = 28.80822 45.16799 36.98810
#
# Velocity S-wave (km/s) = 3.29789 4.12946 3.73688
# Velocity P-wave (km/s) = 4.93247 6.22443 5.61573
#
# Compressibility (1/GPa) = 0.03841464
#
# Stress axis : x y z
#
# Youngs Moduli (GPa) = 90.12682 34.19112 79.99524
#
# Poissons Ratio (x) = 0.22933 0.36131
# Poissons Ratio (y) = 0.60452 -0.32075
# Poissons Ratio (z) = 0.40707 -0.13709
#
# Static dielectric constant tensor:
#      x y z
#    x 2.084320 -0.086780 -0.194200 
#    y -0.086780 2.255100 -0.045300 
#    z -0.194200 -0.045300 1.768400 
# 
# From -- ./inp_files/185736.got.cif
#   From: 2010.05.17/outbox.cif.g08.bks.cpg/sg2_93_cif.got.tgz:185736.got - 2010.06.03 11:33:40.
