data_PCOD9089949
_publ_section_title
;
Structure prediction by ZEFSAII (Michael W. Deem and Ramdas Pophale) SiO2 
 PCOD9089949
Probable space group: P -1
;
_chemical_formula_sum "Si O2"
_cell_formula_units_Z 12
_cell_length_a 9.454449
_cell_length_b 11.527201
_cell_length_c 10.025856
_cell_angle_alpha 92.343647
_cell_angle_beta 139.403355
_cell_angle_gamma 112.659046
_cell_volume 545.711162
_symmetry_space_group_name_H-M "P -1"
_symmetry_group_IT_number 2
_symmetry_cell_setting 'triclinic'
loop_
_space_group_symop_operation_xyz
x,y,z
-x,-y,-z
loop_
_atom_site_type_symbol
_atom_site_label
_atom_site_fract_x
_atom_site_fract_y
_atom_site_fract_z
Si Si1 0.844023 0.715243 0.154476
Si Si2 0.832160 0.223723 0.136176
Si Si3 0.720505 0.198698 0.758367
Si Si4 0.666636 0.910908 0.742932
Si Si5 0.183009 0.446662 0.616755
Si Si6 0.319057 0.095353 0.960066
O O1 0.904911 0.670119 0.332586
O O2 0.890057 0.868999 0.214369
O O3 0.025702 0.730129 0.162004
O O4 0.513727 0.583798 0.879787
O O5 0.103684 0.362048 0.415579
O O6 0.820483 0.079050 0.130176
O O7 0.812033 0.267913 0.974446
O O8 0.555629 0.169274 0.019309
O O9 0.482036 0.185104 0.502131
O O10 0.616438 0.031777 0.706975
O O11 0.547120 0.830038 0.795237
O O12 0.000000 0.000000 0.000000
O O13 0.000000 0.500000 0.500000
#
# Coordination Sequence:
#
# PCOD9089949 Si02
#       6
#     2   2   2   2   2   2
#     4  11  23  41  69  92 121 182 215 256 323 387
#     4  10  22  41  63  99 133 164 211 273 315 374
#     4  10  22  37  63  96 128 162 215 261 321 379
#     4  10  19  38  62  94 129 166 198 256 328 387
#     4  11  24  44  65  88 131 176 219 257 319 390
#     4  10  20  40  66  96 127 166 211 262 325 375
#
# _framework density 21.989656
#
# number of rings (size 3 to 8) (size 9 to 14) (size 15 to 20)
#    0.000    1.667    3.333    1.000    0.000    2.667 
#    6.000    0.833    0.000    0.000    0.000    0.000 
#    0.000    0.000    0.000    0.000    0.000    0.000 
#
# Total GULP energy -67008.661325 kJ/mol
# GULP energy per Si atom -5584.055110 kJ/mol
# Density = 2.193961 g / cm^3
# Si number density = 21.989656 Si / 1000 Ang^3
#
#
#
# Elastic Constant Matrix: (Units=GPa)
#
#
# Indices 1 2 3 4 5 6 
#
# 1 122.9487 26.9457 66.8283 -20.2287 -12.1254 20.1163
# 2 26.9457 59.0530 41.4826 -25.0497 -9.9146 2.6127
# 3 66.8283 41.4826 144.4835 -27.9457 -15.5092 -8.4659
# 4 -20.2287 -25.0497 -27.9457 33.8171 7.8144 -7.0898
# 5 -12.1254 -9.9146 -15.5092 7.8144 48.6897 -3.6421
# 6 20.1163 2.6127 -8.4659 -7.0898 -3.6421 24.0999
#
#
#
# Elastic Compliance Matrix: (Units=1/GPa)
#
#
# Indices 1 2 3 4 5 6 
#
# 1 0.014898 -0.001436 -0.007729 -0.001812 0.000086 -0.015515
# 2 -0.001436 0.027320 -0.003738 0.016346 0.001538 0.001965
# 3 -0.007729 -0.003738 0.013837 0.006563 0.001708 0.013906
# 4 -0.001812 0.016346 0.006563 0.049885 -0.001808 0.016448
# 5 0.000086 0.001538 0.001708 -0.001808 0.021943 0.003146
# 6 -0.015515 0.001965 0.013906 0.016448 0.003146 0.064430
#
#
# Mechanical properties :
#
#
# Convention : Reuss Voigt Hill
#
# Bulk Modulus (GPa) = 33.05867 66.33316 49.69591
# Shear Modulus (GPa) = 21.91060 34.06993 27.99026
#
# Velocity S-wave (km/s) = 3.16001 3.94046 3.57162
# Velocity P-wave (km/s) = 5.32735 7.13681 6.29741
#
# Compressibility (1/GPa) = 0.03024925
#
# Stress axis : x y z
#
# Youngs Moduli (GPa) = 67.12329 36.60344 72.27177
#
# Poissons Ratio (x) = 0.05258 0.55856
# Poissons Ratio (y) = 0.09642 0.27012
# Poissons Ratio (z) = 0.51877 0.13681
#
# Static dielectric constant tensor:
#      x y z
#    x 1.842040 -0.009490 -0.021180 
#    y -0.009490 1.817150 0.014400 
#    z -0.021180 0.014400 1.861050 
# 
# From -- ./inp_files/26121.got.cif
#   From: 2010.05.17/outbox.cif.g08.bks.cpg/sg2_14_cif.got.tgz:26121.got - 2010.06.03 11:33:40.
