data_PCOD9089547
_publ_section_title
;
Structure prediction by ZEFSAII (Michael W. Deem and Ramdas Pophale) SiO2 
 PCOD9089547
Probable space group: P -1
;
_chemical_formula_sum "Si O2"
_cell_formula_units_Z 16
_cell_length_a 7.632669
_cell_length_b 19.411322
_cell_length_c 11.497733
_cell_angle_alpha 153.551362
_cell_angle_beta 88.673189
_cell_angle_gamma 90.701934
_cell_volume 758.392848
_symmetry_space_group_name_H-M "P -1"
_symmetry_group_IT_number 2
_symmetry_cell_setting 'triclinic'
loop_
_space_group_symop_operation_xyz
x,y,z
-x,-y,-z
loop_
_atom_site_type_symbol
_atom_site_label
_atom_site_fract_x
_atom_site_fract_y
_atom_site_fract_z
Si Si1 0.740459 0.130817 0.692138
Si Si2 0.532979 0.943490 0.044214
Si Si3 0.242278 0.366711 0.064846
Si Si4 0.053944 0.089260 0.019747
Si Si5 0.059782 0.450971 0.559196
Si Si6 0.420974 0.133597 0.551767
Si Si7 0.472966 0.423341 0.508922
Si Si8 0.959053 0.873144 0.168288
O O1 0.720031 0.737609 0.207174
O O2 0.875685 0.211261 0.898500
O O3 0.601319 0.196479 0.701727
O O4 0.874803 0.023387 0.455844
O O5 0.741919 0.942574 0.058309
O O6 0.483440 0.761339 0.777709
O O7 0.449046 0.069288 0.324723
O O8 0.500000 0.000000 0.000000
O O9 0.399631 0.481065 0.264325
O O10 0.065491 0.467005 0.220877
O O11 0.629710 0.021968 0.614010
O O12 0.201653 0.246783 0.992363
O O13 0.021326 0.270869 0.304673
O O14 0.966760 0.061895 0.855129
O O15 0.000000 0.000000 0.000000
O O16 0.267542 0.455262 0.585178
O O17 0.000000 0.500000 0.500000
O O18 0.500000 0.500000 0.500000
#
# Coordination Sequence:
#
# PCOD9089547 Si02
#       8
#     2   2   2   2   2   2   2   2
#     4   9  20  33  63  93 139 167 217 289 338 384
#     4  11  26  46  68  98 136 181 230 278 339 420
#     4  11  23  39  66 103 132 174 222 289 350 387
#     4  11  24  39  63  94 136 180 228 270 331 411
#     4  11  22  39  63  98 138 174 229 280 335 407
#     4  10  22  39  65 102 133 174 234 279 342 410
#     4  11  24  40  70 101 135 178 231 285 339 396
#     4  10  19  38  59 100 133 171 220 282 341 390
#
# _framework density 21.097244
#
# number of rings (size 3 to 8) (size 9 to 14) (size 15 to 20)
#    0.000    1.500    3.750    0.750    8.750    0.000 
#    0.000    0.625    0.000    1.500    0.000    0.000 
#    0.000    0.000    0.000    0.000    0.000    0.000 
#
# Total GULP energy -89084.251459 kJ/mol
# GULP energy per Si atom -5567.765716 kJ/mol
# Density = 2.104923 g / cm^3
# Si number density = 21.097244 Si / 1000 Ang^3
#
#
#
# Elastic Constant Matrix: (Units=GPa)
#
#
# Indices 1 2 3 4 5 6 
#
# 1 88.4966 22.5113 34.2640 -8.9879 -1.1904 0.8386
# 2 22.5113 119.8858 53.1394 -7.1604 -7.7745 13.4423
# 3 34.2640 53.1394 75.7232 -11.8014 -19.8765 8.9431
# 4 -8.9879 -7.1604 -11.8014 34.7614 8.0848 -2.8872
# 5 -1.1904 -7.7745 -19.8765 8.0848 47.5417 -2.0458
# 6 0.8386 13.4423 8.9431 -2.8872 -2.0458 24.0589
#
#
#
# Elastic Compliance Matrix: (Units=1/GPa)
#
#
# Indices 1 2 3 4 5 6 
#
# 1 0.014214 0.000274 -0.007309 0.002102 -0.002923 0.002072
# 2 0.000274 0.012589 -0.009026 -0.000298 -0.001824 -0.003879
# 3 -0.007309 -0.009026 0.025915 0.002786 0.008561 -0.003273
# 4 0.002102 -0.000298 0.002786 0.031344 -0.004055 0.002474
# 5 -0.002923 -0.001824 0.008561 -0.004055 0.024913 -0.000429
# 6 0.002072 -0.003879 -0.003273 0.002474 -0.000429 0.045137
#
#
# Mechanical properties :
#
#
# Convention : Reuss Voigt Hill
#
# Bulk Modulus (GPa) = 48.54810 55.99275 52.27043
# Shear Modulus (GPa) = 25.89331 32.88513 29.38922
#
# Velocity S-wave (km/s) = 3.50713 3.95237 3.73639
# Velocity P-wave (km/s) = 6.28184 6.88667 6.59120
#
# Compressibility (1/GPa) = 0.02059813
#
# Stress axis : x y z
#
# Youngs Moduli (GPa) = 70.35088 79.43182 38.58761
#
# Poissons Ratio (x) = -0.02178 0.28202
# Poissons Ratio (y) = -0.01929 0.34829
# Poissons Ratio (z) = 0.51417 0.71695
#
# Static dielectric constant tensor:
#      x y z
#    x 1.901050 -0.104260 0.076840 
#    y -0.104260 1.800910 0.012070 
#    z 0.076840 0.012070 1.818840 
# 
# From -- ./inp_files/401552.got.cif
#   From: 2010.05.17/outbox.cif.g08.bks.cpg/sg2_201_cif.got.tgz:401552.got - 2010.06.03 11:33:40.
