data_PCOD9089051
_publ_section_title
;
Structure prediction by ZEFSAII (Michael W. Deem and Ramdas Pophale) SiO2 
 PCOD9089051
Probable space group: P -1
;
_chemical_formula_sum "Si O2"
_cell_formula_units_Z 16
_cell_length_a 11.704973
_cell_length_b 16.561710
_cell_length_c 7.950191
_cell_angle_alpha 95.950349
_cell_angle_beta 62.495766
_cell_angle_gamma 46.115407
_cell_volume 737.626596
_symmetry_space_group_name_H-M "P -1"
_symmetry_group_IT_number 2
_symmetry_cell_setting 'triclinic'
loop_
_space_group_symop_operation_xyz
x,y,z
-x,-y,-z
loop_
_atom_site_type_symbol
_atom_site_label
_atom_site_fract_x
_atom_site_fract_y
_atom_site_fract_z
Si Si1 0.040749 0.258609 0.235044
Si Si2 0.631096 0.014480 0.454902
Si Si3 0.382403 0.937348 0.903926
Si Si4 0.851834 0.251925 0.057872
Si Si5 0.600378 0.437534 0.734040
Si Si6 0.373667 0.760824 0.280401
Si Si7 0.335719 0.248193 0.005764
Si Si8 0.082786 0.941022 0.178707
O O1 0.912683 0.274565 0.180232
O O2 0.858917 0.341253 0.527161
O O3 0.096131 0.322378 0.166085
O O4 0.283839 0.078841 0.048031
O O5 0.582035 0.087317 0.326390
O O6 0.516432 0.109071 0.722697
O O7 0.500000 0.000000 0.500000
O O8 0.916561 0.853360 0.240967
O O9 0.591931 0.803645 0.859909
O O10 0.179474 0.979852 0.096205
O O11 0.591349 0.415117 0.216360
O O12 0.863220 0.148084 0.030270
O O13 0.599493 0.341663 0.679986
O O14 0.500000 0.500000 0.000000
O O15 0.613464 0.684653 0.061569
O O16 0.230287 0.828690 0.215506
O O17 0.191843 0.907957 0.551959
#
# Coordination Sequence:
#
# PCOD9089051 Si02
#       8
#     2   2   2   2   2   2   2   2
#     4  11  24  41  62  95 130 174 210 262 328 385
#     4  11  22  37  63 102 127 165 211 266 326 381
#     4  10  22  36  64  97 130 162 215 265 331 368
#     4  11  23  39  65  92 133 162 215 265 319 387
#     4  12  25  42  65  92 127 177 218 258 321 390
#     4  10  21  38  65  97 125 167 220 263 324 377
#     4  11  22  41  67  93 137 162 212 273 325 381
#     4  10  19  37  64  98 126 163 214 278 312 373
#
# _framework density 21.691193999999999
#
# number of rings (size 3 to 8) (size 9 to 14) (size 15 to 20)
#    0.000    1.250    6.250    0.750    1.750    3.000 
#    0.000    1.250    2.750    0.000    0.000    0.000 
#    0.000    0.000    0.000    0.000    0.000    0.000 
#
# Total GULP energy -89230.344638 kJ/mol
# GULP energy per Si atom -5576.896540 kJ/mol
# Density = 2.164182 g / cm^3
# Si number density = 21.691194 Si / 1000 Ang^3
#
#
#
# Elastic Constant Matrix: (Units=GPa)
#
#
# Indices 1 2 3 4 5 6 
#
# 1 86.7046 10.6703 15.4431 -4.2990 -12.5396 17.5656
# 2 10.6703 50.2116 10.0784 -2.9157 -0.8598 10.7517
# 3 15.4431 10.0784 75.2421 -18.3801 -3.2081 11.7355
# 4 -4.2990 -2.9157 -18.3801 25.6479 7.8172 2.0003
# 5 -12.5396 -0.8598 -3.2081 7.8172 30.8555 -20.3191
# 6 17.5656 10.7517 11.7355 2.0003 -20.3191 36.0791
#
#
#
# Elastic Compliance Matrix: (Units=1/GPa)
#
#
# Indices 1 2 3 4 5 6 
#
# 1 0.013215 -0.001510 -0.001631 0.000516 0.002254 -0.004212
# 2 -0.001510 0.022906 0.000190 0.006213 -0.009232 -0.011696
# 3 -0.001631 0.000190 0.019802 0.018789 -0.012399 -0.013729
# 4 0.000516 0.006213 0.018789 0.066575 -0.035558 -0.031931
# 5 0.002254 -0.009232 -0.012399 -0.035558 0.072847 0.048685
# 6 -0.004212 -0.011696 -0.013729 -0.031931 0.048685 0.066908
#
#
# Mechanical properties :
#
#
# Convention : Reuss Voigt Hill
#
# Bulk Modulus (GPa) = 19.99161 31.61577 25.80369
# Shear Modulus (GPa) = 17.55446 30.24760 23.90103
#
# Velocity S-wave (km/s) = 2.84789 3.73830 3.32305
# Velocity P-wave (km/s) = 4.47777 5.76544 5.16191
#
# Compressibility (1/GPa) = 0.05002098
#
# Stress axis : x y z
#
# Youngs Moduli (GPa) = 75.67321 43.65718 50.49994
#
# Poissons Ratio (x) = 0.06594 0.08235
# Poissons Ratio (y) = 0.11429 -0.00961
# Poissons Ratio (z) = 0.12340 -0.00831
#
# Static dielectric constant tensor:
#      x y z
#    x 1.875590 0.020890 0.024310 
#    y 0.020890 1.849130 0.003600 
#    z 0.024310 0.003600 1.830100 
# 
# From -- ./inp_files/277977.got.cif
#   From: 2010.05.17/outbox.cif.g08.bks.cpg/sg2_139_cif.got.tgz:277977.got - 2010.06.03 11:33:40.
