data_PCOD9089489
_publ_section_title
;
Structure prediction by ZEFSAII (Michael W. Deem and Ramdas Pophale) SiO2 
 PCOD9089489
Probable space group: P -1
;
_chemical_formula_sum "Si O2"
_cell_formula_units_Z 16
_cell_length_a 9.443721
_cell_length_b 11.979740
_cell_length_c 15.168886
_cell_angle_alpha 82.168960
_cell_angle_beta 40.526698
_cell_angle_gamma 59.625549
_cell_volume 862.731023
_symmetry_space_group_name_H-M "P -1"
_symmetry_group_IT_number 2
_symmetry_cell_setting 'triclinic'
loop_
_space_group_symop_operation_xyz
x,y,z
-x,-y,-z
loop_
_atom_site_type_symbol
_atom_site_label
_atom_site_fract_x
_atom_site_fract_y
_atom_site_fract_z
Si Si1 0.762456 0.154124 0.009087
Si Si2 0.364936 0.907899 0.677638
Si Si3 0.633139 0.359990 0.894289
Si Si4 0.320780 0.435398 0.849252
Si Si5 0.600366 0.963592 0.058849
Si Si6 0.257381 0.884648 0.328986
Si Si7 0.244857 0.713926 0.817009
Si Si8 0.855970 0.877162 0.399679
O O1 0.727723 0.245075 0.100475
O O2 0.610827 0.082740 0.087397
O O3 0.652608 0.247898 0.962404
O O4 0.094888 0.024670 0.852024
O O5 0.392704 0.764400 0.684188
O O6 0.647864 0.884344 0.565339
O O7 0.294344 0.984062 0.607411
O O8 0.440455 0.406542 0.895110
O O9 0.960320 0.274705 0.723556
O O10 0.500000 0.500000 0.000000
O O11 0.508083 0.278898 0.729805
O O12 0.346606 0.552482 0.783900
O O13 0.000000 0.500000 0.000000
O O14 0.411489 0.940660 0.207171
O O15 0.921452 0.818715 0.928817
O O16 0.500000 0.000000 0.000000
O O17 0.098500 0.868683 0.330200
O O18 0.000000 0.000000 0.500000
#
# Coordination Sequence:
#
# PCOD9089489 Si02
#       8
#     2   2   2   2   2   2   2   2
#     4  10  21  34  61  90 114 154 206 249 292 354
#     4   9  18  35  57  84 118 150 193 245 296 353
#     4  10  19  38  57  86 117 153 200 243 301 361
#     4  11  22  40  60  88 120 164 200 249 307 362
#     4  11  21  38  62  87 122 162 205 254 299 361
#     4  11  24  38  60  89 124 159 201 248 310 369
#     4  11  21  35  63  88 116 153 209 252 291 358
#     4   9  20  36  57  82 119 157 192 240 303 361
#
# _framework density 18.545757999999999
#
# number of rings (size 3 to 8) (size 9 to 14) (size 15 to 20)
#    0.000    1.750    2.500    4.500    3.500    0.000 
#    2.250    3.750    0.000    3.000    0.000    0.000 
#    0.000    0.000    0.000    0.000    0.000    0.000 
#
# Total GULP energy -89105.169373 kJ/mol
# GULP energy per Si atom -5569.073086 kJ/mol
# Density = 1.850355 g / cm^3
# Si number density = 18.545758 Si / 1000 Ang^3
#
#
#
# Elastic Constant Matrix: (Units=GPa)
#
#
# Indices 1 2 3 4 5 6 
#
# 1 64.2801 31.7476 27.5530 -5.2784 -11.4547 -6.8669
# 2 31.7476 139.8074 66.2454 -7.8026 -8.7574 8.4087
# 3 27.5530 66.2454 93.9353 -22.8711 -13.2408 18.3629
# 4 -5.2784 -7.8026 -22.8711 28.4624 12.7279 -3.8705
# 5 -11.4547 -8.7574 -13.2408 12.7279 26.8351 -2.4115
# 6 -6.8669 8.4087 18.3629 -3.8705 -2.4115 33.2193
#
#
#
# Elastic Compliance Matrix: (Units=1/GPa)
#
#
# Indices 1 2 3 4 5 6 
#
# 1 0.021293 -0.002083 -0.006317 -0.004123 0.008014 0.008522
# 2 -0.002083 0.011452 -0.008615 -0.004377 0.000761 0.000978
# 3 -0.006317 -0.008615 0.024138 0.015183 -0.001772 -0.010827
# 4 -0.004123 -0.004377 0.015183 0.054733 -0.021958 -0.003354
# 5 0.008014 0.000761 -0.001772 -0.021958 0.050795 0.003573
# 6 0.008522 0.000978 -0.010827 -0.003354 0.003573 0.037471
#
#
# Mechanical properties :
#
#
# Convention : Reuss Voigt Hill
#
# Bulk Modulus (GPa) = 43.75746 61.01275 52.38511
# Shear Modulus (GPa) = 20.70133 29.20181 24.95157
#
# Velocity S-wave (km/s) = 3.34463 3.97240 3.67196
# Velocity P-wave (km/s) = 6.20974 7.34914 6.80334
#
# Compressibility (1/GPa) = 0.02285324
#
# Stress axis : x y z
#
# Youngs Moduli (GPa) = 46.96325 87.31803 41.42902
#
# Poissons Ratio (x) = 0.18186 0.26171
# Poissons Ratio (y) = 0.09781 0.35692
# Poissons Ratio (z) = 0.29667 0.75226
#
# Static dielectric constant tensor:
#      x y z
#    x 1.764130 0.068910 0.061220 
#    y 0.068910 1.749850 0.065360 
#    z 0.061220 0.065360 1.733320 
# 
# From -- ./inp_files/262723.got.cif
#   From: 2010.05.17/outbox.cif.g08.bks.cpg/sg2_132_cif.got.tgz:262723.got - 2010.06.03 11:33:40.
