data_PCOD9089845
_publ_section_title
;
Structure prediction by ZEFSAII (Michael W. Deem and Ramdas Pophale) SiO2 
 PCOD9089845
Probable space group: P -1
;
_chemical_formula_sum "Si O2"
_cell_formula_units_Z 16
_cell_length_a 11.652479
_cell_length_b 15.829760
_cell_length_c 11.265917
_cell_angle_alpha 39.120840
_cell_angle_beta 38.967287
_cell_angle_gamma 64.095321
_cell_volume 748.627416
_symmetry_space_group_name_H-M "P -1"
_symmetry_group_IT_number 2
_symmetry_cell_setting 'triclinic'
loop_
_space_group_symop_operation_xyz
x,y,z
-x,-y,-z
loop_
_atom_site_type_symbol
_atom_site_label
_atom_site_fract_x
_atom_site_fract_y
_atom_site_fract_z
Si Si1 0.450415 0.941290 0.737537
Si Si2 0.579394 0.775102 0.477206
Si Si3 0.388509 0.785584 0.391039
Si Si4 0.428001 0.587957 0.368970
Si Si5 0.273757 0.657213 0.059018
Si Si6 0.856331 0.618609 0.371988
Si Si7 0.189082 0.973675 0.275287
Si Si8 0.237223 0.139464 0.293111
O O1 0.644332 0.944744 0.647426
O O2 0.500000 0.000000 0.500000
O O3 0.367735 0.051720 0.739433
O O4 0.312407 0.768895 0.017538
O O5 0.418118 0.711092 0.568552
O O6 0.766690 0.737913 0.337499
O O7 0.466287 0.702284 0.769997
O O8 0.371992 0.695978 0.380848
O O9 0.211775 0.839200 0.470838
O O10 0.599765 0.932355 0.059764
O O11 0.500000 0.500000 0.500000
O O12 0.250354 0.474024 0.557310
O O13 0.609651 0.689633 0.024706
O O14 0.208140 0.495422 0.341115
O O15 0.094950 0.674374 0.111964
O O16 0.989646 0.911335 0.424093
O O17 0.193788 0.090119 0.244387
#
# Coordination Sequence:
#
# PCOD9089845 Si02
#       8
#     2   2   2   2   2   2   2   2
#     4  10  21  39  64  93 122 160 212 266 308 371
#     4  11  22  40  67  92 129 161 212 268 316 376
#     4  10  20  37  59  92 129 155 201 262 317 383
#     4  11  22  39  61  89 125 167 210 260 315 377
#     4  10  24  43  66  90 125 174 217 258 318 372
#     4  11  23  44  65  90 129 173 213 262 313 381
#     4   9  20  35  60  91 117 161 199 254 328 369
#     4  10  19  38  62  84 126 161 206 261 316 372
#
# _framework density 21.372446
#
# number of rings (size 3 to 8) (size 9 to 14) (size 15 to 20)
#    0.000    1.750    3.750    0.375    0.000    3.500 
#    2.250    5.000    0.000    0.000    0.000    0.000 
#    0.000    0.000    0.000    0.000    0.000    0.000 
#
# Total GULP energy -89196.016390 kJ/mol
# GULP energy per Si atom -5574.751024 kJ/mol
# Density = 2.132380 g / cm^3
# Si number density = 21.372446 Si / 1000 Ang^3
#
#
#
# Elastic Constant Matrix: (Units=GPa)
#
#
# Indices 1 2 3 4 5 6 
#
# 1 98.3890 31.5756 8.9395 -7.7203 -18.4935 -10.4911
# 2 31.5756 88.1195 8.3439 -8.6356 -13.8012 -9.1267
# 3 8.9395 8.3439 24.1882 -6.4470 -3.0436 -5.2410
# 4 -7.7203 -8.6356 -6.4470 14.9667 2.8853 7.0991
# 5 -18.4935 -13.8012 -3.0436 2.8853 36.7456 -0.1206
# 6 -10.4911 -9.1267 -5.2410 7.0991 -0.1206 39.5371
#
#
#
# Elastic Compliance Matrix: (Units=1/GPa)
#
#
# Indices 1 2 3 4 5 6 
#
# 1 0.012648 -0.003182 -0.002014 0.001924 0.004859 0.002024
# 2 -0.003182 0.013690 -0.001729 0.004293 0.003064 0.001325
# 3 -0.002014 -0.001729 0.047922 0.017326 0.000953 0.002311
# 4 0.001924 0.004293 0.017326 0.083565 -0.002583 -0.011214
# 5 0.004859 0.003064 0.000953 -0.002583 0.031101 0.002682
# 6 0.002024 0.001325 0.002311 -0.011214 0.002682 0.028464
#
#
# Mechanical properties :
#
#
# Convention : Reuss Voigt Hill
#
# Bulk Modulus (GPa) = 16.55380 34.26830 25.41105
# Shear Modulus (GPa) = 19.89034 29.03905 24.46470
#
# Velocity S-wave (km/s) = 3.05397 3.69007 3.38699
# Velocity P-wave (km/s) = 4.49420 5.85015 5.21642
#
# Compressibility (1/GPa) = 0.06040909
#
# Stress axis : x y z
#
# Youngs Moduli (GPa) = 79.06328 73.04508 20.86716
#
# Poissons Ratio (x) = 0.23245 0.04203
# Poissons Ratio (y) = 0.25160 0.03609
# Poissons Ratio (z) = 0.15924 0.12632
#
# Static dielectric constant tensor:
#      x y z
#    x 1.821050 -0.006560 0.014870 
#    y -0.006560 1.819210 -0.001990 
#    z 0.014870 -0.001990 1.860740 
# 
# From -- ./inp_files/433703.got.cif
#   From: 2010.05.17/outbox.cif.g08.bks.cpg/sg2_217_cif.got.tgz:433703.got - 2010.06.03 11:33:40.
