data_PCOD9089386
_publ_section_title
;
Structure prediction by ZEFSAII (Michael W. Deem and Ramdas Pophale) SiO2 
 PCOD9089386
Probable space group: P -1
;
_chemical_formula_sum "Si O2"
_cell_formula_units_Z 16
_cell_length_a 9.123674
_cell_length_b 17.084561
_cell_length_c 11.308791
_cell_angle_alpha 86.844429
_cell_angle_beta 105.846933
_cell_angle_gamma 152.278002
_cell_volume 716.920424
_symmetry_space_group_name_H-M "P -1"
_symmetry_group_IT_number 2
_symmetry_cell_setting 'triclinic'
loop_
_space_group_symop_operation_xyz
x,y,z
-x,-y,-z
loop_
_atom_site_type_symbol
_atom_site_label
_atom_site_fract_x
_atom_site_fract_y
_atom_site_fract_z
Si Si1 0.213615 0.882164 0.282215
Si Si2 0.579080 0.186620 0.263489
Si Si3 0.849533 0.194029 0.130710
Si Si4 0.673009 0.709258 0.646877
Si Si5 0.465156 0.187757 0.487755
Si Si6 0.166177 0.401548 0.952788
Si Si7 0.027141 0.830187 0.489201
Si Si8 0.826239 0.468852 0.244909
O O1 0.954783 0.761706 0.348861
O O2 0.136558 0.780583 0.179194
O O3 0.205149 0.964655 0.215701
O O4 0.621492 0.054134 0.399493
O O5 0.787435 0.223475 0.223542
O O6 0.678611 0.249866 0.417113
O O7 0.616585 0.289155 0.207295
O O8 0.036746 0.203117 0.220534
O O9 0.065329 0.346387 0.070553
O O10 0.500000 0.000000 0.000000
O O11 0.721804 0.822942 0.609207
O O12 0.347098 0.563011 0.681112
O O13 0.709582 0.684724 0.527466
O O14 0.757875 0.347807 0.637849
O O15 0.189378 0.993382 0.488687
O O16 0.217108 0.507336 0.890474
O O17 0.500000 0.500000 0.000000
#
# Coordination Sequence:
#
# PCOD9089386 Si02
#       8
#     2   2   2   2   2   2   2   2
#     4  10  20  39  66  94 129 168 209 268 320 378
#     4  10  21  41  67  94 124 169 214 258 327 379
#     4  12  24  42  68  91 124 175 225 259 303 392
#     4  11  21  39  64  98 125 165 214 261 315 394
#     4  10  22  42  66  97 135 163 202 275 341 369
#     4  12  24  44  63  92 130 173 216 261 320 377
#     4  10  19  37  69  97 124 163 218 264 320 383
#     4  11  24  44  66  93 138 167 200 277 334 375
#
# _framework density 22.317678999999998
#
# number of rings (size 3 to 8) (size 9 to 14) (size 15 to 20)
#    0.000    1.250    5.000    1.875    0.000    0.500 
#    4.500   10.000    0.000    0.000    0.000    0.000 
#    0.000    0.000    0.000    0.000    0.000    0.000 
#
# Total GULP energy -89151.037011 kJ/mol
# GULP energy per Si atom -5571.939813 kJ/mol
# Density = 2.226688 g / cm^3
# Si number density = 22.317679 Si / 1000 Ang^3
#
#
#
# Elastic Constant Matrix: (Units=GPa)
#
#
# Indices 1 2 3 4 5 6 
#
# 1 105.1957 33.3907 47.3575 -13.6744 8.9185 -9.4809
# 2 33.3907 58.9559 36.6379 -35.7789 11.8179 -9.6713
# 3 47.3575 36.6379 86.3608 -35.8211 18.3736 -0.8687
# 4 -13.6744 -35.7789 -35.8211 37.1010 -0.4390 0.1363
# 5 8.9185 11.8179 18.3736 -0.4390 39.4503 -23.5840
# 6 -9.4809 -9.6713 -0.8687 0.1363 -23.5840 40.9330
#
#
#
# Elastic Compliance Matrix: (Units=1/GPa)
#
#
# Indices 1 2 3 4 5 6 
#
# 1 0.018143 -0.016505 -0.015294 -0.023882 0.011798 0.006855
# 2 -0.016505 0.063150 0.016419 0.070400 -0.023411 -0.002277
# 3 -0.015294 0.016419 0.038095 0.046706 -0.027597 -0.014911
# 4 -0.023882 0.070400 0.046706 0.130663 -0.044267 -0.013847
# 5 0.011798 -0.023411 -0.027597 -0.044267 0.061199 0.032024
# 6 0.006855 -0.002277 -0.014911 -0.013847 0.032024 0.043661
#
#
# Mechanical properties :
#
#
# Convention : Reuss Voigt Hill
#
# Bulk Modulus (GPa) = 11.28332 53.92050 32.60191
# Shear Modulus (GPa) = 12.04196 32.37195 22.20695
#
# Velocity S-wave (km/s) = 2.32539 3.81268 3.15785
# Velocity P-wave (km/s) = 3.50380 6.60265 5.28543
#
# Compressibility (1/GPa) = 0.08862643
#
# Stress axis : x y z
#
# Youngs Moduli (GPa) = 55.11619 15.83541 26.25021
#
# Poissons Ratio (x) = 0.26137 0.40148
# Poissons Ratio (y) = 0.90971 -0.43099
# Poissons Ratio (z) = 0.84296 -0.26000
#
# Static dielectric constant tensor:
#      x y z
#    x 1.849390 0.026330 0.044720 
#    y 0.026330 1.822830 -0.184000 
#    z 0.044720 -0.184000 1.588890 
# 
# From -- ./inp_files/403109.got.cif
#   From: 2010.05.17/outbox.cif.g08.bks.cpg/sg2_202_cif.got.tgz:403109.got - 2010.06.03 11:33:40.
