data_PCOD9089652
_publ_section_title
;
Structure prediction by ZEFSAII (Michael W. Deem and Ramdas Pophale) SiO2 
 PCOD9089652
Probable space group: P -1
;
_chemical_formula_sum "Si O2"
_cell_formula_units_Z 14
_cell_length_a 9.018269
_cell_length_b 21.620080
_cell_length_c 10.916369
_cell_angle_alpha 24.152549
_cell_angle_beta 130.348867
_cell_angle_gamma 133.893886
_cell_volume 626.788096
_symmetry_space_group_name_H-M "P -1"
_symmetry_group_IT_number 2
_symmetry_cell_setting 'triclinic'
loop_
_space_group_symop_operation_xyz
x,y,z
-x,-y,-z
loop_
_atom_site_type_symbol
_atom_site_label
_atom_site_fract_x
_atom_site_fract_y
_atom_site_fract_z
Si Si1 0.939368 0.756207 0.082876
Si Si2 0.498426 0.579406 0.150692
Si Si3 0.737484 0.765336 0.454030
Si Si4 0.831088 0.018108 0.708398
Si Si5 0.290462 0.193466 0.355309
Si Si6 0.651812 0.149527 0.954934
Si Si7 0.391798 0.789581 0.921554
O O1 0.901737 0.816495 0.817763
O O2 0.169381 0.755548 0.215084
O O3 0.912931 0.890890 0.914087
O O4 0.737034 0.602967 0.268986
O O5 0.362896 0.401670 0.366894
O O6 0.527051 0.688427 0.845210
O O7 0.414516 0.658437 0.075319
O O8 0.749304 0.743714 0.646697
O O9 0.961949 0.857535 0.350910
O O10 0.574603 0.860504 0.188523
O O11 0.737869 0.114415 0.388967
O O12 0.623070 0.911070 0.856564
O O13 0.330956 0.025661 0.696204
O O14 0.700957 0.252872 0.918610
#
# Coordination Sequence:
#
# PCOD9089652 Si02
#       7
#     2   2   2   2   2   2   2
#     4   9  19  37  65  83 108 158 203 227 269 350
#     4   9  23  40  60  83 119 157 192 234 284 349
#     4  12  24  34  59  94 126 140 183 253 307 323
#     4  10  19  38  63  85 110 155 203 239 268 347
#     4  10  19  38  60  87 110 152 197 240 267 344
#     4  12  21  35  64  92 114 149 195 243 287 339
#     4  10  20  40  62  81 111 160 206 223 276 357
#
# _framework density 22.336096000000001
#
# number of rings (size 3 to 8) (size 9 to 14) (size 15 to 20)
#    0.857    0.857    2.857    3.000    0.000    2.286 
#    0.000    0.000    0.000    0.000    0.000    0.000 
#    0.000    0.000    0.000    0.000    0.000    0.000 
#
# Total GULP energy -78073.856743 kJ/mol
# GULP energy per Si atom -5576.704053 kJ/mol
# Density = 2.228526 g / cm^3
# Si number density = 22.336096 Si / 1000 Ang^3
#
#
#
# Elastic Constant Matrix: (Units=GPa)
#
#
# Indices 1 2 3 4 5 6 
#
# 1 99.8762 33.6692 26.5318 -13.0956 20.4162 23.4851
# 2 33.6692 98.9848 41.6058 -30.7245 16.8500 37.5219
# 3 26.5318 41.6058 61.9290 -26.2815 12.9100 13.8435
# 4 -13.0956 -30.7245 -26.2815 44.2553 7.6962 4.6131
# 5 20.4162 16.8500 12.9100 7.6962 18.7352 18.2855
# 6 23.4851 37.5219 13.8435 4.6131 18.2855 52.1109
#
#
#
# Elastic Compliance Matrix: (Units=1/GPa)
#
#
# Indices 1 2 3 4 5 6 
#
# 1 0.015380 0.002058 0.002021 0.011340 -0.022732 -0.001978
# 2 0.002058 0.025726 -0.001140 0.022775 -0.020218 -0.014070
# 3 0.002021 -0.001140 0.035153 0.027137 -0.038023 0.001511
# 4 0.011340 0.022775 0.027137 0.071269 -0.070917 -0.010143
# 5 -0.022732 -0.020218 -0.038023 -0.070917 0.169530 -0.018306
# 6 -0.001978 -0.014070 0.001511 -0.010143 -0.018306 0.037132
#
#
# Mechanical properties :
#
#
# Convention : Reuss Voigt Hill
#
# Bulk Modulus (GPa) = 12.17465 51.60038 31.88752
# Shear Modulus (GPa) = 13.30880 33.61917 23.46399
#
# Velocity S-wave (km/s) = 2.44364 3.88383 3.24465
# Velocity P-wave (km/s) = 3.66392 6.57755 5.32393
#
# Compressibility (1/GPa) = 0.08213787
#
# Stress axis : x y z
#
# Youngs Moduli (GPa) = 65.01803 38.87057 28.44741
#
# Poissons Ratio (x) = -0.07999 -0.05751
# Poissons Ratio (y) = -0.13380 0.03243
# Poissons Ratio (z) = -0.13143 0.04432
#
# Static dielectric constant tensor:
#      x y z
#    x 1.849870 0.028570 -0.041740 
#    y 0.028570 1.841050 0.001680 
#    z -0.041740 0.001680 1.831630 
# 
# From -- ./inp_files/274554.got.cif
#   From: 2010.05.17/outbox.cif.g08.bks.cpg/sg2_138_cif.got.tgz:274554.got - 2010.06.03 11:33:40.
