data_PCOD9089459
_publ_section_title
;
Structure prediction by ZEFSAII (Michael W. Deem and Ramdas Pophale) SiO2 
 PCOD9089459
Probable space group: P -1
;
_chemical_formula_sum "Si O2"
_cell_formula_units_Z 16
_cell_length_a 19.682399
_cell_length_b 16.369647
_cell_length_c 7.045646
_cell_angle_alpha 127.647933
_cell_angle_beta 120.092822
_cell_angle_gamma 19.529076
_cell_volume 576.703200
_symmetry_space_group_name_H-M "P -1"
_symmetry_group_IT_number 2
_symmetry_cell_setting 'triclinic'
loop_
_space_group_symop_operation_xyz
x,y,z
-x,-y,-z
loop_
_atom_site_type_symbol
_atom_site_label
_atom_site_fract_x
_atom_site_fract_y
_atom_site_fract_z
Si Si1 0.410585 0.044360 0.716596
Si Si2 0.232838 0.067297 0.406803
Si Si3 0.962514 0.895733 0.939385
Si Si4 0.387813 0.480397 0.276445
Si Si5 0.414908 0.964467 0.035922
Si Si6 0.016144 0.337593 0.865182
Si Si7 0.826930 0.062969 0.391498
Si Si8 0.678865 0.430608 0.249280
O O1 0.340908 0.043435 0.466728
O O2 0.471084 0.911616 0.810640
O O3 0.578861 0.925790 0.727656
O O4 0.208865 0.359452 0.940132
O O5 0.436497 0.750400 0.309290
O O6 0.095029 0.154533 0.222176
O O7 0.079016 0.295730 0.683384
O O8 0.169459 0.676815 0.804598
O O9 0.971463 0.908591 0.193395
O O10 0.772941 0.200631 0.028538
O O11 0.433794 0.306344 0.042329
O O12 0.616026 0.260668 0.302193
O O13 0.251562 0.734691 0.341131
O O14 0.304978 0.575147 0.510131
O O15 0.190123 0.181021 0.018183
O O16 0.053680 0.169580 0.655879
#
# Coordination Sequence:
#
# PCOD9089459 Si02
#       8
#     2   2   2   2   2   2   2   2
#     4  10  20  32  56  87 114 143 199 241 276 324
#     4  11  20  35  58  87 109 152 194 243 272 334
#     4  10  23  34  60  82 121 148 189 230 293 339
#     4   9  16  33  63  79 111 150 195 223 289 335
#     4   9  17  32  53  85 110 144 181 252 274 318
#     4  10  20  35  58  84 117 145 198 232 281 337
#     4   9  18  37  56  85 116 156 178 235 291 352
#     4  10  19  38  56  86 113 152 187 236 279 346
#
# _framework density 27.743905999999999
#
# number of rings (size 3 to 8) (size 9 to 14) (size 15 to 20)
#    0.000    2.250    3.750    1.875    1.750    1.000 
#    0.000    3.750    0.000    3.750    0.000    0.000 
#    0.000    0.000    0.000    0.000    0.000    0.000 
#
# Total GULP energy -89527.124723 kJ/mol
# GULP energy per Si atom -5595.445295 kJ/mol
# Density = 2.768076 g / cm^3
# Si number density = 27.743906 Si / 1000 Ang^3
#
#
#
# Elastic Constant Matrix: (Units=GPa)
#
#
# Indices 1 2 3 4 5 6 
#
# 1 160.0742 28.5879 41.4631 -5.0454 30.3767 -8.1040
# 2 28.5879 71.3221 32.7613 19.6546 17.8712 -6.5515
# 3 41.4631 32.7613 90.7475 7.3280 16.5158 -9.5595
# 4 -5.0454 19.6546 7.3280 43.0379 -3.0234 17.4847
# 5 30.3767 17.8712 16.5158 -3.0234 69.0035 -3.4857
# 6 -8.1040 -6.5515 -9.5595 17.4847 -3.4857 44.5520
#
#
#
# Elastic Compliance Matrix: (Units=1/GPa)
#
#
# Indices 1 2 3 4 5 6 
#
# 1 0.007761 -0.002050 -0.002662 0.002376 -0.002173 -0.000563
# 2 -0.002050 0.021919 -0.004597 -0.012342 -0.003891 0.006403
# 3 -0.002662 -0.004597 0.014505 -0.001804 -0.001058 0.002577
# 4 0.002376 -0.012342 -0.001804 0.036055 0.003371 -0.015656
# 5 -0.002173 -0.003891 -0.001058 0.003371 0.016797 -0.001204
# 6 -0.000563 0.006403 0.002577 -0.015656 -0.001204 0.029888
#
#
# Mechanical properties :
#
#
# Convention : Reuss Voigt Hill
#
# Bulk Modulus (GPa) = 39.11209 58.64093 48.87651
# Shear Modulus (GPa) = 32.45390 45.94077 39.19733
#
# Velocity S-wave (km/s) = 3.42390 4.07367 3.76284
# Velocity P-wave (km/s) = 5.45517 6.58094 6.04432
#
# Compressibility (1/GPa) = 0.02556754
#
# Stress axis : x y z
#
# Youngs Moduli (GPa) = 128.84190 45.62328 68.94145
#
# Poissons Ratio (x) = 0.09354 0.18351
# Poissons Ratio (y) = 0.26415 0.31691
# Poissons Ratio (z) = 0.34295 0.20972
#
# Static dielectric constant tensor:
#      x y z
#    x 2.186530 -0.010110 -0.012010 
#    y -0.010110 2.245010 -0.037240 
#    z -0.012010 -0.037240 2.134720 
# 
# From -- ./inp_files/348598.got.cif
#   From: 2010.05.17/outbox.cif.g08.bks.cpg/sg2_175_cif.got.tgz:348598.got - 2010.06.03 11:33:40.
