data_PCOD9089982
_publ_section_title
;
Structure prediction by ZEFSAII (Michael W. Deem and Ramdas Pophale) SiO2 
 PCOD9089982
Probable space group: P -1
;
_chemical_formula_sum "Si O2"
_cell_formula_units_Z 14
_cell_length_a 8.270148
_cell_length_b 17.806765
_cell_length_c 9.710968
_cell_angle_alpha 146.536164
_cell_angle_beta 45.031708
_cell_angle_gamma 133.714809
_cell_volume 538.691365
_symmetry_space_group_name_H-M "P -1"
_symmetry_group_IT_number 2
_symmetry_cell_setting 'triclinic'
loop_
_space_group_symop_operation_xyz
x,y,z
-x,-y,-z
loop_
_atom_site_type_symbol
_atom_site_label
_atom_site_fract_x
_atom_site_fract_y
_atom_site_fract_z
Si Si1 0.190719 0.805262 0.400800
Si Si2 0.469349 0.129133 0.120504
Si Si3 0.785380 0.783223 0.817358
Si Si4 0.260419 0.101306 0.700339
Si Si5 0.637827 0.715122 0.326436
Si Si6 0.270100 0.636382 0.853366
Si Si7 0.875313 0.478826 0.692522
O O1 0.461627 0.850643 0.355453
O O2 0.646328 0.768157 0.559374
O O3 0.015317 0.779997 0.592716
O O4 0.161364 0.937345 0.531921
O O5 0.311237 0.095201 0.023456
O O6 0.706384 0.236010 0.078687
O O7 0.500000 0.000000 0.000000
O O8 0.546223 0.656886 0.753288
O O9 0.844631 0.819163 0.995278
O O10 0.248489 0.150427 0.629192
O O11 0.354805 0.652560 0.375839
O O12 0.105177 0.496625 0.676673
O O13 0.159376 0.674265 0.118235
O O14 0.761406 0.598245 0.013854
O O15 0.000000 0.500000 0.500000
#
# Coordination Sequence:
#
# PCOD9089982 Si02
#       7
#     2   2   2   2   2   2   2
#     4  10  19  38  63  84 130 161 195 249 315 369
#     4  10  20  37  62  93 127 157 198 250 312 373
#     4   9  20  37  56  87 124 165 194 244 306 368
#     4  10  22  37  59  94 123 161 201 249 310 379
#     4  11  24  39  65  93 124 163 208 257 311 357
#     4   9  20  36  60  85 116 158 204 251 300 359
#     4  11  22  43  63  87 123 166 212 262 301 358
#
# _framework density 25.988904999999999
#
# number of rings (size 3 to 8) (size 9 to 14) (size 15 to 20)
#    0.857    1.143    1.429    2.143    2.000    2.286 
#    0.000    5.714    0.000   15.429    0.000    0.000 
#    0.000    0.000    0.000    0.000    0.000    0.000 
#
# Total GULP energy -78220.129029 kJ/mol
# GULP energy per Si atom -5587.152073 kJ/mol
# Density = 2.592975 g / cm^3
# Si number density = 25.988905 Si / 1000 Ang^3
#
#
#
# Elastic Constant Matrix: (Units=GPa)
#
#
# Indices 1 2 3 4 5 6 
#
# 1 40.5485 5.1565 35.1046 -2.8698 8.5263 16.0715
# 2 5.1565 91.8633 37.4283 -17.1976 -6.5829 1.7622
# 3 35.1046 37.4283 166.0739 -45.3982 24.4691 7.5336
# 4 -2.8698 -17.1976 -45.3982 40.2838 -2.0393 0.7282
# 5 8.5263 -6.5829 24.4691 -2.0393 41.6829 -1.5804
# 6 16.0715 1.7622 7.5336 0.7282 -1.5804 41.0329
#
#
#
# Elastic Compliance Matrix: (Units=1/GPa)
#
#
# Indices 1 2 3 4 5 6 
#
# 1 0.037749 0.000174 -0.008900 -0.007196 -0.003321 -0.013159
# 2 0.000174 0.012743 -0.002768 0.002522 0.003725 -0.000009
# 3 -0.008900 -0.002768 0.012579 0.012073 -0.005377 0.000874
# 4 -0.007196 0.002522 0.012073 0.038831 -0.003329 -0.000324
# 5 -0.003321 0.003725 -0.005377 -0.003329 0.028376 0.003280
# 6 -0.013159 -0.000009 0.000874 -0.000324 0.003280 0.029497
#
#
# Mechanical properties :
#
#
# Convention : Reuss Voigt Hill
#
# Bulk Modulus (GPa) = 24.94678 50.42937 37.68807
# Shear Modulus (GPa) = 25.49431 39.31966 32.40698
#
# Velocity S-wave (km/s) = 3.13544 3.89387 3.53506
# Velocity P-wave (km/s) = 4.76737 6.29783 5.58527
#
# Compressibility (1/GPa) = 0.04008534
#
# Stress axis : x y z
#
# Youngs Moduli (GPa) = 26.49078 78.47557 79.49635
#
# Poissons Ratio (x) = -0.01368 0.70748
# Poissons Ratio (y) = -0.00462 0.22002
# Poissons Ratio (z) = 0.23576 0.21719
#
# Static dielectric constant tensor:
#      x y z
#    x 2.086850 -0.040130 -0.102890 
#    y -0.040130 2.004990 0.058690 
#    z -0.102890 0.058690 2.058530 
# 
# From -- ./inp_files/403853.got.cif
#   From: 2010.05.17/outbox.cif.g08.bks.cpg/sg2_202_cif.got.tgz:403853.got - 2010.06.03 11:33:40.
