data_PCOD9089960
_publ_section_title
;
Structure prediction by ZEFSAII (Michael W. Deem and Ramdas Pophale) SiO2 
 PCOD9089960
Probable space group: P -1
;
_chemical_formula_sum "Si O2"
_cell_formula_units_Z 15
_cell_length_a 14.903223
_cell_length_b 11.352284
_cell_length_c 9.457576
_cell_angle_alpha 50.091886
_cell_angle_beta 129.911727
_cell_angle_gamma 151.523268
_cell_volume 571.871002
_symmetry_space_group_name_H-M "P -1"
_symmetry_group_IT_number 2
_symmetry_cell_setting 'triclinic'
loop_
_space_group_symop_operation_xyz
x,y,z
-x,-y,-z
loop_
_atom_site_type_symbol
_atom_site_label
_atom_site_fract_x
_atom_site_fract_y
_atom_site_fract_z
Si Si1 0.000000 0.500000 0.000000
Si Si2 0.202411 0.505270 0.833401
Si Si3 0.714373 0.462533 0.719234
Si Si4 0.209295 0.934558 0.264251
Si Si5 0.276216 0.218599 0.843087
Si Si6 0.852535 0.851159 0.756026
Si Si7 0.585059 0.909387 0.083767
Si Si8 0.614856 0.340242 0.393992
O O1 0.090673 0.420356 0.123993
O O2 0.779302 0.204533 0.026738
O O3 0.251819 0.563705 0.674678
O O4 0.165814 0.294287 0.022085
O O5 0.398803 0.757282 0.915716
O O6 0.991279 0.361653 0.745031
O O7 0.728509 0.646906 0.661207
O O8 0.512630 0.188462 0.786841
O O9 0.709775 0.430084 0.573304
O O10 0.182992 0.022433 0.303403
O O11 0.403696 0.045181 0.404015
O O12 0.256134 0.079627 0.058838
O O13 0.355043 0.201190 0.808523
O O14 0.416175 0.508451 0.777503
O O15 0.065690 0.073007 0.735557
#
# Coordination Sequence:
#
# PCOD9089960 Si02
#       8
#     1   2   2   2   2   2   2   2
#     4  12  26  54  72  84 122 176 236 280 326 362
#     4  10  20  37  63  97 131 170 217 253 312 395
#     4  11  27  43  66  99 129 173 223 273 323 384
#     4  11  20  35  63 101 144 174 206 252 317 408
#     4  11  19  37  67 104 136 175 206 257 325 402
#     4  10  19  38  62  99 135 183 213 246 319 399
#     4  11  24  44  74  94 123 176 228 264 322 393
#     4  12  22  37  64 104 145 168 199 264 336 393
#
# _framework density 26.229693000000001
#
# number of rings (size 3 to 8) (size 9 to 14) (size 15 to 20)
#    0.000    1.067    5.333    3.200    0.000    3.733 
#    0.000    0.667    0.000    4.800    0.000    0.000 
#    0.000    0.000    0.000    0.000    0.000    0.000 
#
# Total GULP energy -83645.546028 kJ/mol
# GULP energy per Si atom -5576.369735 kJ/mol
# Density = 2.616999 g / cm^3
# Si number density = 26.229693 Si / 1000 Ang^3
#
#
#
# Elastic Constant Matrix: (Units=GPa)
#
#
# Indices 1 2 3 4 5 6 
#
# 1 76.8134 7.3793 31.8209 -26.8907 13.2428 48.6725
# 2 7.3793 171.6244 38.5428 -10.6348 7.0304 52.1559
# 3 31.8209 38.5428 72.3253 2.0945 -29.2697 -1.7666
# 4 -26.8907 -10.6348 2.0945 14.5648 8.9692 6.3756
# 5 13.2428 7.0304 -29.2697 8.9692 25.1536 -12.1500
# 6 48.6725 52.1559 -1.7666 6.3756 -12.1500 33.4916
#
#
#
# Elastic Compliance Matrix: (Units=1/GPa)
#
#
# Indices 1 2 3 4 5 6 
#
# 1 0.003525 -0.003945 0.005017 -0.006087 0.010228 0.006155
# 2 -0.003945 0.005150 0.000791 -0.006256 0.003977 0.000389
# 3 0.005017 0.000791 0.011273 0.011419 0.001580 -0.009530
# 4 -0.006087 -0.006256 0.011419 0.034259 0.014724 0.018011
# 5 0.010228 0.003977 0.001580 0.014724 0.022264 -0.015701
# 6 0.006155 0.000389 -0.009530 0.018011 -0.015701 0.010681
#
#
# Mechanical properties :
#
#
# Convention : Reuss Voigt Hill
#
# Bulk Modulus (GPa) = 42.23684 52.91657 47.57670
# Shear Modulus (GPa) = 54.75492 30.84335 42.79913
#
# Velocity S-wave (km/s) = 4.57389 3.43285 4.04382
# Velocity P-wave (km/s) = 6.63563 5.99422 6.32307
#
# Compressibility (1/GPa) = 0.02367601
#
# Stress axis : x y z
#
# Youngs Moduli (GPa) = 283.69162 194.18266 88.70528
#
# Poissons Ratio (x) = 0.76602 -0.44507
# Poissons Ratio (y) = 1.11912 -0.07021
# Poissons Ratio (z) = -1.42339 -0.15369
#
# Static dielectric constant tensor:
#      x y z
#    x 1.989950 -0.029580 0.052190 
#    y -0.029580 2.058070 0.014830 
#    z 0.052190 0.014830 2.133540 
# 
# From -- ./inp_files/307126.got.cif
#   From: 2010.05.17/outbox.cif.g08.bks.cpg/sg2_154_cif.got.tgz:307126.got - 2010.06.03 11:33:40.
