data_PCOD9089987
_publ_section_title
;
Structure prediction by ZEFSAII (Michael W. Deem and Ramdas Pophale) SiO2 
 PCOD9089987
Probable space group: P -1
;
_chemical_formula_sum "Si O2"
_cell_formula_units_Z 16
_cell_length_a 18.275961
_cell_length_b 11.135663
_cell_length_c 9.516161
_cell_angle_alpha 138.518661
_cell_angle_beta 41.103646
_cell_angle_gamma 148.191114
_cell_volume 637.147188
_symmetry_space_group_name_H-M "P -1"
_symmetry_group_IT_number 2
_symmetry_cell_setting 'triclinic'
loop_
_space_group_symop_operation_xyz
x,y,z
-x,-y,-z
loop_
_atom_site_type_symbol
_atom_site_label
_atom_site_fract_x
_atom_site_fract_y
_atom_site_fract_z
Si Si1 0.549912 0.647624 0.201746
Si Si2 0.338168 0.022057 0.126149
Si Si3 0.085887 0.301719 0.339363
Si Si4 0.242032 0.887664 0.842153
Si Si5 0.672653 0.440790 0.005264
Si Si6 0.047223 0.523060 0.118691
Si Si7 0.755314 0.542836 0.484620
Si Si8 0.187392 0.202156 0.641568
O O1 0.634344 0.589720 0.116355
O O2 0.404867 0.558746 0.411333
O O3 0.646365 0.924873 0.270535
O O4 0.500000 0.500000 0.000000
O O5 0.513190 0.170493 0.003539
O O6 0.288705 0.136407 0.396273
O O7 0.222207 0.733859 0.066842
O O8 0.289717 0.026888 0.042519
O O9 0.008529 0.378592 0.609238
O O10 0.191330 0.327266 0.328414
O O11 0.189375 0.482821 0.221806
O O12 0.951125 0.021660 0.265432
O O13 0.076641 0.758643 0.917283
O O14 0.258436 0.688403 0.671685
O O15 0.726749 0.562733 0.183914
O O16 0.000000 0.500000 0.000000
O O17 0.855272 0.732884 0.382736
#
# Coordination Sequence:
#
# PCOD9089987 Si02
#       8
#     2   2   2   2   2   2   2   2
#     4  12  21  37  63  94 125 164 206 258 313 365
#     4  10  19  38  63  85 122 163 209 252 301 366
#     4  10  21  38  64  95 125 163 211 262 304 365
#     4  10  20  37  61  94 122 154 211 265 306 363
#     4  12  23  38  63  94 129 165 207 257 311 371
#     4   8  18  36  62  91 120 156 200 262 308 353
#     4  11  21  38  64  96 118 163 212 265 308 358
#     4  11  23  40  63  91 129 167 212 251 312 373
#
# _framework density 25.111936
#
# number of rings (size 3 to 8) (size 9 to 14) (size 15 to 20)
#    0.000    1.500    3.750    1.500    0.000    1.000 
#    6.750    2.500    5.500    3.750    0.000    0.000 
#    0.000    0.000    0.000    0.000    0.000    0.000 
#
# Total GULP energy -89264.439936 kJ/mol
# GULP energy per Si atom -5579.027496 kJ/mol
# Density = 2.505478 g / cm^3
# Si number density = 25.111936 Si / 1000 Ang^3
#
#
#
# Elastic Constant Matrix: (Units=GPa)
#
#
# Indices 1 2 3 4 5 6 
#
# 1 27.1517 24.0951 28.0212 6.7587 -2.9311 0.8201
# 2 24.0951 182.9049 50.2542 -15.0117 -6.3861 41.0316
# 3 28.0212 50.2542 77.3870 -7.0614 -3.6769 11.6798
# 4 6.7587 -15.0117 -7.0614 34.7288 9.5186 -4.4586
# 5 -2.9311 -6.3861 -3.6769 9.5186 34.1679 7.1950
# 6 0.8201 41.0316 11.6798 -4.4586 7.1950 39.7325
#
#
#
# Elastic Compliance Matrix: (Units=1/GPa)
#
#
# Indices 1 2 3 4 5 6 
#
# 1 0.076686 -0.006475 -0.026759 -0.024013 0.007293 0.008955
# 2 -0.006475 0.009120 -0.001882 0.003181 0.001896 -0.008718
# 3 -0.026759 -0.001882 0.025143 0.009574 -0.001875 -0.003481
# 4 -0.024013 0.003181 0.009574 0.040171 -0.011847 0.001050
# 5 0.007293 0.001896 -0.001875 -0.011847 0.035300 -0.009279
# 6 0.008955 -0.008718 -0.003481 0.001050 -0.009279 0.036808
#
#
# Mechanical properties :
#
#
# Convention : Reuss Voigt Hill
#
# Bulk Modulus (GPa) = 24.55913 54.68718 39.62316
# Shear Modulus (GPa) = 16.28486 34.06405 25.17446
#
# Velocity S-wave (km/s) = 2.54931 3.68705 3.16965
# Velocity P-wave (km/s) = 4.29726 6.32063 5.40448
#
# Compressibility (1/GPa) = 0.04071805
#
# Stress axis : x y z
#
# Youngs Moduli (GPa) = 13.04018 109.64323 39.77225
#
# Poissons Ratio (x) = 0.70997 1.06425
# Poissons Ratio (y) = 0.08444 0.07485
# Poissons Ratio (z) = 0.34894 0.20634
#
# Static dielectric constant tensor:
#      x y z
#    x 2.038780 0.034220 -0.063240 
#    y 0.034220 2.040640 -0.033470 
#    z -0.063240 -0.033470 2.069080 
# 
# From -- ./inp_files/345578.got.cif
#   From: 2010.05.17/outbox.cif.g08.bks.cpg/sg2_173_cif.got.tgz:345578.got - 2010.06.03 11:33:40.
