data_PCOD9089458
_publ_section_title
;
Structure prediction by ZEFSAII (Michael W. Deem and Ramdas Pophale) SiO2 
 PCOD9089458
Probable space group: P -1
;
_chemical_formula_sum "Si O2"
_cell_formula_units_Z 16
_cell_length_a 21.667886
_cell_length_b 14.604491
_cell_length_c 18.760616
_cell_angle_alpha 149.931667
_cell_angle_beta 163.197019
_cell_angle_gamma 24.088361
_cell_volume 698.637859
_symmetry_space_group_name_H-M "P -1"
_symmetry_group_IT_number 2
_symmetry_cell_setting 'triclinic'
loop_
_space_group_symop_operation_xyz
x,y,z
-x,-y,-z
loop_
_atom_site_type_symbol
_atom_site_label
_atom_site_fract_x
_atom_site_fract_y
_atom_site_fract_z
Si Si1 0.594816 0.722561 0.744606
Si Si2 0.854140 0.293187 0.825948
Si Si3 0.351430 0.473626 0.096115
Si Si4 0.439463 0.549192 0.093911
Si Si5 0.068111 0.252812 0.415056
Si Si6 0.306493 0.937359 0.717166
Si Si7 0.375704 0.947500 0.093279
Si Si8 0.991854 0.328140 0.543692
O O1 0.826581 0.478085 0.865205
O O2 0.403404 0.705142 0.469074
O O3 0.422449 0.823374 0.692975
O O4 0.675333 0.880497 0.910892
O O5 0.822915 0.372551 0.926387
O O6 0.126143 0.067246 0.949690
O O7 0.189471 0.390311 0.823828
O O8 0.400003 0.581133 0.156262
O O9 0.628322 0.259049 0.289548
O O10 0.692869 0.541314 0.349380
O O11 0.167232 0.725953 0.872495
O O12 0.538657 0.294494 0.005954
O O13 0.068379 0.214848 0.474289
O O14 0.000000 0.500000 0.500000
O O15 0.366802 0.093646 0.611924
O O16 0.031179 0.162313 0.540036
O O17 0.500000 0.000000 0.000000
#
# Coordination Sequence:
#
# PCOD9089458 Si02
#       8
#     2   2   2   2   2   2   2   2
#     4  10  19  38  56  85 124 156 199 239 283 354
#     4  10  23  36  60  85 120 163 197 233 294 356
#     4  10  21  39  54  87 128 150 190 246 290 357
#     4  11  23  37  64  89 114 158 200 245 299 344
#     4  10  20  38  61  90 115 148 202 255 288 344
#     4   9  17  32  58  88 119 150 180 245 298 340
#     4  11  20  36  61  87 113 153 199 244 293 344
#     4  11  19  37  62  86 118 153 197 248 300 341
#
# _framework density 22.901707999999999
#
# number of rings (size 3 to 8) (size 9 to 14) (size 15 to 20)
#    0.000    1.750    3.750    2.250    0.000    1.500 
#    0.000    8.125    0.000    1.500    0.000    0.000 
#    0.000    0.000    0.000    0.000    0.000    0.000 
#
# Total GULP energy -89244.020809 kJ/mol
# GULP energy per Si atom -5577.751301 kJ/mol
# Density = 2.284958 g / cm^3
# Si number density = 22.901708 Si / 1000 Ang^3
#
#
#
# Elastic Constant Matrix: (Units=GPa)
#
#
# Indices 1 2 3 4 5 6 
#
# 1 103.2140 20.2616 26.6106 -11.5237 -10.8867 -3.1740
# 2 20.2616 51.1567 2.2369 -5.9354 -0.1156 5.3132
# 3 26.6106 2.2369 74.3146 -27.5372 -18.1346 -5.5794
# 4 -11.5237 -5.9354 -27.5372 26.0876 -2.3863 5.8589
# 5 -10.8867 -0.1156 -18.1346 -2.3863 32.5617 -3.8095
# 6 -3.1740 5.3132 -5.5794 5.8589 -3.8095 32.0130
#
#
#
# Elastic Compliance Matrix: (Units=1/GPa)
#
#
# Indices 1 2 3 4 5 6 
#
# 1 0.011776 -0.004592 -0.003072 0.000793 0.002449 0.001541
# 2 -0.004592 0.022696 0.003895 0.008438 0.000748 -0.004999
# 3 -0.003072 0.003895 0.032413 0.035420 0.019700 0.000560
# 4 0.000793 0.008438 0.035420 0.081897 0.025188 -0.007140
# 5 0.002449 0.000748 0.019700 0.025188 0.044850 0.004279
# 6 0.001541 -0.004999 0.000560 -0.007140 0.004279 0.034133
#
#
# Mechanical properties :
#
#
# Convention : Reuss Voigt Hill
#
# Bulk Modulus (GPa) = 16.84990 36.32262 26.58626
# Shear Modulus (GPa) = 19.60120 30.10422 24.85271
#
# Velocity S-wave (km/s) = 2.92872 3.62953 3.29780
# Velocity P-wave (km/s) = 4.33705 5.78440 5.11221
#
# Compressibility (1/GPa) = 0.05934754
#
# Stress axis : x y z
#
# Youngs Moduli (GPa) = 84.91684 44.06015 30.85191
#
# Poissons Ratio (x) = 0.20234 0.09477
# Poissons Ratio (y) = 0.38997 -0.12017
# Poissons Ratio (z) = 0.26084 -0.17162
#
# Static dielectric constant tensor:
#      x y z
#    x 1.828560 0.104050 0.042630 
#    y 0.104050 1.948650 -0.084400 
#    z 0.042630 -0.084400 1.817600 
# 
# From -- ./inp_files/578216.got.cif
#   From: 2010.05.17/outbox.cif.g08.bks.cpg/sg2_290_cif.got.tgz:578216.got - 2010.06.03 11:33:40.
