data_PCOD9089339
_publ_section_title
;
Structure prediction by ZEFSAII (Michael W. Deem and Ramdas Pophale) SiO2 
 PCOD9089339
Probable space group: P -1
;
_chemical_formula_sum "Si O2"
_cell_formula_units_Z 12
_cell_length_a 8.267505
_cell_length_b 10.478008
_cell_length_c 11.020350
_cell_angle_alpha 136.792095
_cell_angle_beta 70.216481
_cell_angle_gamma 86.144018
_cell_volume 537.058130
_symmetry_space_group_name_H-M "P -1"
_symmetry_group_IT_number 2
_symmetry_cell_setting 'triclinic'
loop_
_space_group_symop_operation_xyz
x,y,z
-x,-y,-z
loop_
_atom_site_type_symbol
_atom_site_label
_atom_site_fract_x
_atom_site_fract_y
_atom_site_fract_z
Si Si1 0.816152 0.790561 0.699432
Si Si2 0.472703 0.553724 0.189724
Si Si3 0.903234 0.401782 0.044952
Si Si4 0.902515 0.260770 0.201704
Si Si5 0.041164 0.934970 0.581684
Si Si6 0.532330 0.264596 0.197731
O O1 0.661820 0.705117 0.664045
O O2 0.003814 0.688369 0.670603
O O3 0.907954 0.831887 0.584942
O O4 0.674703 0.018630 0.956964
O O5 0.272223 0.769415 0.417868
O O6 0.467318 0.381156 0.163828
O O7 0.500000 0.500000 0.000000
O O8 0.671286 0.547724 0.180475
O O9 0.968364 0.156737 0.823784
O O10 0.000000 0.500000 0.000000
O O11 0.956333 0.367638 0.149362
O O12 0.674598 0.326564 0.280779
O O13 0.000000 0.000000 0.000000
O O14 0.000000 0.000000 0.500000
#
# Coordination Sequence:
#
# PCOD9089339 Si02
#       6
#     2   2   2   2   2   2
#     4  10  19  37  68  92 127 176 216 268 338 387
#     4  11  22  41  65  91 132 174 215 274 328 388
#     4  11  24  43  65  98 135 173 218 274 336 390
#     4   9  17  38  64  90 131 170 208 273 329 383
#     4  12  23  42  67  97 132 174 224 270 330 403
#     4   9  19  36  61  97 122 170 217 267 328 390
#
# _framework density 22.34395
#
# number of rings (size 3 to 8) (size 9 to 14) (size 15 to 20)
#    0.000    1.667    6.667    0.000    2.333    1.333 
#    3.000    5.000    0.000    0.000    0.000    0.000 
#    0.000    0.000    0.000    0.000    0.000    0.000 
#
# Total GULP energy -66952.658837 kJ/mol
# GULP energy per Si atom -5579.388236 kJ/mol
# Density = 2.229309 g / cm^3
# Si number density = 22.343950 Si / 1000 Ang^3
#
#
#
# Elastic Constant Matrix: (Units=GPa)
#
#
# Indices 1 2 3 4 5 6 
#
# 1 113.1126 72.5056 36.2790 -8.0634 -13.0116 6.6272
# 2 72.5056 145.2166 24.2335 -38.4223 -24.2488 2.1081
# 3 36.2790 24.2335 94.2734 10.8951 -39.8217 8.1095
# 4 -8.0634 -38.4223 10.8951 53.7531 1.0427 -10.1445
# 5 -13.0116 -24.2488 -39.8217 1.0427 44.1066 -1.1280
# 6 6.6272 2.1081 8.1095 -10.1445 -1.1280 42.9430
#
#
#
# Elastic Compliance Matrix: (Units=1/GPa)
#
#
# Indices 1 2 3 4 5 6 
#
# 1 0.015121 -0.008163 -0.005272 -0.002728 -0.004766 -0.001707
# 2 -0.008163 0.014232 0.000653 0.009225 0.005859 0.002771
# 3 -0.005272 0.000653 0.020986 -0.005688 0.017782 -0.004058
# 4 -0.002728 0.009225 -0.005688 0.027378 -0.001325 0.007475
# 5 -0.004766 0.005859 0.017782 -0.001325 0.040518 -0.002159
# 6 -0.001707 0.002771 -0.004058 0.007475 -0.002159 0.025890
#
#
# Mechanical properties :
#
#
# Convention : Reuss Voigt Hill
#
# Bulk Modulus (GPa) = 40.36148 68.73764 54.54956
# Shear Modulus (GPa) = 28.09827 42.79950 35.44889
#
# Velocity S-wave (km/s) = 3.55002 4.38137 3.98742
# Velocity P-wave (km/s) = 5.90817 7.51169 6.75766
#
# Compressibility (1/GPa) = 0.02477610
#
# Stress axis : x y z
#
# Youngs Moduli (GPa) = 66.13107 70.26425 47.65093
#
# Poissons Ratio (x) = 0.57357 0.25121
# Poissons Ratio (y) = 0.53983 -0.03113
# Poissons Ratio (z) = 0.34863 -0.04590
#
# Static dielectric constant tensor:
#      x y z
#    x 1.918630 0.067560 0.105550 
#    y 0.067560 1.899980 0.043390 
#    z 0.105550 0.043390 1.924030 
# 
# From -- ./inp_files/254042.got.cif
#   From: 2010.05.17/outbox.cif.g08.bks.cpg/sg2_128_cif.got.tgz:254042.got - 2010.06.03 11:33:40.
