data_PCOD9089788
_publ_section_title
;
Structure prediction by ZEFSAII (Michael W. Deem and Ramdas Pophale) SiO2 
 PCOD9089788
Probable space group: P -1
;
_chemical_formula_sum "Si O2"
_cell_formula_units_Z 16
_cell_length_a 11.071374
_cell_length_b 8.819122
_cell_length_c 8.781494
_cell_angle_alpha 98.491364
_cell_angle_beta 119.871196
_cell_angle_gamma 103.412026
_cell_volume 687.128527
_symmetry_space_group_name_H-M "P -1"
_symmetry_group_IT_number 2
_symmetry_cell_setting 'triclinic'
loop_
_space_group_symop_operation_xyz
x,y,z
-x,-y,-z
loop_
_atom_site_type_symbol
_atom_site_label
_atom_site_fract_x
_atom_site_fract_y
_atom_site_fract_z
Si Si1 0.415866 0.594660 0.859253
Si Si2 0.112992 0.438264 0.469842
Si Si3 0.255137 0.719036 0.401034
Si Si4 0.343715 0.002417 0.701633
Si Si5 0.819658 0.028832 0.821504
Si Si6 0.336821 0.888843 0.008236
Si Si7 0.914611 0.919719 0.588469
Si Si8 0.449253 0.314357 0.371449
O O1 0.264986 0.478462 0.667396
O O2 0.520067 0.670735 0.789209
O O3 0.500000 0.500000 0.000000
O O4 0.359836 0.723018 0.937804
O O5 0.154195 0.533682 0.348496
O O6 0.056744 0.245692 0.391385
O O7 0.000000 0.500000 0.500000
O O8 0.422741 0.736699 0.479171
O O9 0.255826 0.814175 0.573686
O O10 0.215158 0.829463 0.272510
O O11 0.517264 0.042309 0.780871
O O12 0.256762 0.101245 0.572806
O O13 0.345725 0.004574 0.885062
O O14 0.947869 0.016917 0.785193
O O15 0.706660 0.836123 0.723444
O O16 0.802729 0.100177 0.986121
O O17 0.000000 0.000000 0.500000
O O18 0.500000 0.500000 0.500000
#
# Coordination Sequence:
#
# PCOD9089788 Si02
#       8
#     2   2   2   2   2   2   2   2
#     4  11  24  40  62 104 139 171 211 278 339 383
#     4  11  22  43  68  89 124 176 223 264 321 400
#     4  10  20  36  57  91 125 166 217 258 318 377
#     4  10  19  38  61  90 128 168 206 261 317 387
#     4  11  22  36  62  97 127 170 215 273 322 389
#     4  11  20  36  64  94 134 167 206 263 342 390
#     4  11  25  42  67  91 122 169 229 266 314 390
#     4  11  21  35  58  93 136 168 217 272 323 379
#
# _framework density 23.285309999999999
#
# number of rings (size 3 to 8) (size 9 to 14) (size 15 to 20)
#    0.000    1.250    3.750    4.875    3.500    0.000 
#    0.000    0.625    0.000    3.000    0.000    0.000 
#    0.000    0.000    0.000    0.000    0.000    0.000 
#
# Total GULP energy -89099.702670 kJ/mol
# GULP energy per Si atom -5568.731417 kJ/mol
# Density = 2.323231 g / cm^3
# Si number density = 23.285310 Si / 1000 Ang^3
#
#
#
# Elastic Constant Matrix: (Units=GPa)
#
#
# Indices 1 2 3 4 5 6 
#
# 1 92.5150 26.7841 46.0336 -14.2154 -13.2260 -14.7474
# 2 26.7841 129.4023 45.3890 1.6589 -11.6766 -17.1384
# 3 46.0336 45.3890 66.3270 -3.7014 -22.8185 -4.7233
# 4 -14.2154 1.6589 -3.7014 33.9041 -9.6551 -5.5028
# 5 -13.2260 -11.6766 -22.8185 -9.6551 43.4548 -0.0651
# 6 -14.7474 -17.1384 -4.7233 -5.5028 -0.0651 47.7028
#
#
#
# Elastic Compliance Matrix: (Units=1/GPa)
#
#
# Indices 1 2 3 4 5 6 
#
# 1 0.019236 0.001399 -0.013043 0.007883 0.001142 0.006069
# 2 0.001399 0.010798 -0.008628 -0.000723 -0.001359 0.003372
# 3 -0.013043 -0.008628 0.033935 0.001450 0.011848 -0.003589
# 4 0.007883 -0.000723 0.001450 0.037277 0.011259 0.006636
# 5 0.001142 -0.001359 0.011848 0.011259 0.031722 0.002380
# 6 0.006069 0.003372 -0.003589 0.006636 0.002380 0.024464
#
#
# Mechanical properties :
#
#
# Convention : Reuss Voigt Hill
#
# Bulk Modulus (GPa) = 42.68892 58.29530 50.49211
# Shear Modulus (GPa) = 24.29735 36.34820 30.32277
#
# Velocity S-wave (km/s) = 3.23377 3.95523 3.61255
# Velocity P-wave (km/s) = 5.68470 6.77850 6.25555
#
# Compressibility (1/GPa) = 0.02342528
#
# Stress axis : x y z
#
# Youngs Moduli (GPa) = 51.98632 92.61072 29.46819
#
# Poissons Ratio (x) = -0.12958 0.38435
# Poissons Ratio (y) = -0.07274 0.25425
# Poissons Ratio (z) = 0.67805 0.79905
#
# Static dielectric constant tensor:
#      x y z
#    x 2.008510 0.017650 -0.016160 
#    y 0.017650 1.912800 0.040740 
#    z -0.016160 0.040740 1.977790 
# 
# From -- ./inp_files/244647.got.cif
#   From: 2010.05.17/outbox.cif.g08.bks.cpg/sg2_123_cif.got.tgz:244647.got - 2010.06.03 11:33:40.
