data_PCOD9089346
_publ_section_title
;
Structure prediction by ZEFSAII (Michael W. Deem and Ramdas Pophale) SiO2 
 PCOD9089346
Probable space group: P -1
;
_chemical_formula_sum "Si O2"
_cell_formula_units_Z 16
_cell_length_a 14.342268
_cell_length_b 25.307335
_cell_length_c 16.818964
_cell_angle_alpha 161.063983
_cell_angle_beta 145.377430
_cell_angle_gamma 22.412145
_cell_volume 686.702583
_symmetry_space_group_name_H-M "P -1"
_symmetry_group_IT_number 2
_symmetry_cell_setting 'triclinic'
loop_
_space_group_symop_operation_xyz
x,y,z
-x,-y,-z
loop_
_atom_site_type_symbol
_atom_site_label
_atom_site_fract_x
_atom_site_fract_y
_atom_site_fract_z
Si Si1 0.256812 0.776269 0.134164
Si Si2 0.188837 0.255966 0.539362
Si Si3 0.727723 0.295245 0.435636
Si Si4 0.966571 0.454878 0.826267
Si Si5 0.852365 0.327672 0.930339
Si Si6 0.369722 0.340483 0.345022
Si Si7 0.402841 0.987368 0.633442
Si Si8 0.544861 0.095233 0.281083
O O1 0.169984 0.722412 0.066949
O O2 0.280037 0.933889 0.421727
O O3 0.568452 0.495279 0.929071
O O4 0.027085 0.974041 0.187016
O O5 0.194769 0.235683 0.609569
O O6 0.918077 0.385547 0.503405
O O7 0.444374 0.011831 0.318620
O O8 0.166875 0.461994 0.790254
O O9 0.500000 0.500000 0.500000
O O10 0.805658 0.419409 0.678747
O O11 0.582142 0.307377 0.419261
O O12 0.811378 0.728854 0.068383
O O13 0.000000 0.500000 0.000000
O O14 0.155212 0.057737 0.728675
O O15 0.370263 0.319387 0.409767
O O16 0.444616 0.103231 0.023024
O O17 0.567565 0.800582 0.560401
#
# Coordination Sequence:
#
# PCOD9089346 Si02
#       8
#     2   2   2   2   2   2   2   2
#     4  10  21  36  63  98 128 164 212 281 327 386
#     4  10  22  42  66  93 130 170 220 275 323 395
#     4  12  22  39  67  95 132 180 220 260 330 391
#     4  12  24  43  64  94 127 179 226 264 318 387
#     4   9  18  38  62  95 126 155 215 271 333 380
#     4  10  20  38  65  94 130 173 212 265 339 392
#     4  11  22  41  66  93 127 171 226 271 326 386
#     4  10  19  37  68  95 125 171 212 274 335 398
#
# _framework density 23.299754
#
# number of rings (size 3 to 8) (size 9 to 14) (size 15 to 20)
#    0.000    1.500    6.250    0.000    0.000    1.500 
#    2.250    0.625    2.750    0.000    0.000    0.000 
#    0.000    0.000    0.000    0.000    0.000    0.000 
#
# Total GULP energy -89100.780701 kJ/mol
# GULP energy per Si atom -5568.798794 kJ/mol
# Density = 2.324672 g / cm^3
# Si number density = 23.299754 Si / 1000 Ang^3
#
#
#
# Elastic Constant Matrix: (Units=GPa)
#
#
# Indices 1 2 3 4 5 6 
#
# 1 135.6104 51.0520 30.0619 -24.1864 -7.8399 -0.2140
# 2 51.0520 117.5113 29.5531 -1.4788 -9.6527 14.2862
# 3 30.0619 29.5531 49.0934 2.3487 7.2118 -9.8507
# 4 -24.1864 -1.4788 2.3487 24.5661 -2.6192 4.5931
# 5 -7.8399 -9.6527 7.2118 -2.6192 33.7237 -5.8727
# 6 -0.2140 14.2862 -9.8507 4.5931 -5.8727 50.1803
#
#
#
# Elastic Compliance Matrix: (Units=1/GPa)
#
#
# Indices 1 2 3 4 5 6 
#
# 1 0.013017 -0.002948 -0.007845 0.014151 0.004717 -0.001388
# 2 -0.002948 0.012407 -0.007078 -0.000257 0.003578 -0.004492
# 3 -0.007845 -0.007078 0.033386 -0.014076 -0.010588 0.008585
# 4 0.014151 -0.000257 -0.014076 0.058268 0.009560 -0.006844
# 5 0.004717 0.003578 -0.010588 0.009560 0.034801 0.000121
# 6 -0.001388 -0.004492 0.008585 -0.006844 0.000121 0.023527
#
#
# Mechanical properties :
#
#
# Convention : Reuss Voigt Hill
#
# Bulk Modulus (GPa) = 43.35120 58.17212 50.76166
# Shear Modulus (GPa) = 22.84784 34.46390 28.65587
#
# Velocity S-wave (km/s) = 3.13486 3.85015 3.51077
# Velocity P-wave (km/s) = 5.63466 6.69223 6.18608
#
# Compressibility (1/GPa) = 0.02306741
#
# Stress axis : x y z
#
# Youngs Moduli (GPa) = 76.82032 80.59652 29.95305
#
# Poissons Ratio (x) = 0.23759 0.23498
# Poissons Ratio (y) = 0.22646 0.21202
# Poissons Ratio (z) = 0.60266 0.57050
#
# Static dielectric constant tensor:
#      x y z
#    x 1.866750 0.017180 -0.031760 
#    y 0.017180 2.052150 0.113210 
#    z -0.031760 0.113210 1.936810 
# 
# From -- ./inp_files/574549.got.cif
#   From: 2010.05.17/outbox.cif.g08.bks.cpg/sg2_288_cif.got.tgz:574549.got - 2010.06.03 11:33:40.
