data_PCOD9089687
_publ_section_title
;
Structure prediction by ZEFSAII (Michael W. Deem and Ramdas Pophale) SiO2 
 PCOD9089687
Probable space group: P -1
;
_chemical_formula_sum "Si O2"
_cell_formula_units_Z 16
_cell_length_a 7.843995
_cell_length_b 5.415890
_cell_length_c 20.740186
_cell_angle_alpha 63.734413
_cell_angle_beta 126.209348
_cell_angle_gamma 119.821751
_cell_volume 602.689545
_symmetry_space_group_name_H-M "P -1"
_symmetry_group_IT_number 2
_symmetry_cell_setting 'triclinic'
loop_
_space_group_symop_operation_xyz
x,y,z
-x,-y,-z
loop_
_atom_site_type_symbol
_atom_site_label
_atom_site_fract_x
_atom_site_fract_y
_atom_site_fract_z
Si Si1 0.826863 0.052046 0.549239
Si Si2 0.706761 0.618349 0.459955
Si Si3 0.988713 0.631764 0.187457
Si Si4 0.090617 0.066442 0.271362
Si Si5 0.527493 0.444193 0.240847
Si Si6 0.394194 0.812201 0.059642
Si Si7 0.788469 0.732360 0.000979
Si Si8 0.512155 0.857759 0.284019
O O1 0.692178 0.283835 0.487907
O O2 0.064275 0.207841 0.548064
O O3 0.728865 0.755273 0.520417
O O4 0.848217 0.999869 0.635752
O O5 0.512654 0.705804 0.370262
O O6 0.956383 0.293280 0.220047
O O7 0.825123 0.679530 0.090662
O O8 0.971247 0.786802 0.232725
O O9 0.254887 0.785562 0.210934
O O10 0.310319 0.246952 0.256934
O O11 0.472781 0.605677 0.148610
O O12 0.633900 0.199533 0.276511
O O13 0.640587 0.701897 0.284781
O O14 0.217920 0.544345 0.010622
O O15 0.500000 0.000000 0.000000
O O16 0.386789 0.093713 0.067700
O O17 0.000000 0.000000 0.000000
#
# Coordination Sequence:
#
# PCOD9089687 Si02
#       8
#     2   2   2   2   2   2   2   2
#     4  10  21  38  61  87 126 165 215 259 321 409
#     4  10  21  39  60  88 125 169 206 262 332 393
#     4  10  21  37  59  90 127 155 220 266 319 390
#     4  10  19  38  60  90 124 165 208 277 314 387
#     4  10  21  40  62  86 130 162 212 268 324 392
#     4  12  26  46  69 101 142 180 230 287 348 403
#     4  12  23  43  73  98 132 188 229 281 343 407
#     4  10  20  39  62  90 124 167 208 271 331 383
#
# _framework density 26.547666
#
# number of rings (size 3 to 8) (size 9 to 14) (size 15 to 20)
#    0.000    1.500    0.000    6.750    0.000    0.000 
#    6.750   15.000    0.000    0.000    0.000    0.000 
#    0.000    0.000    0.000    0.000    0.000    0.000 
#
# Total GULP energy -89392.198586 kJ/mol
# GULP energy per Si atom -5587.012412 kJ/mol
# Density = 2.648724 g / cm^3
# Si number density = 26.547666 Si / 1000 Ang^3
#
#
#
# Elastic Constant Matrix: (Units=GPa)
#
#
# Indices 1 2 3 4 5 6 
#
# 1 67.2905 35.0730 6.9569 -1.0355 -0.1324 0.5572
# 2 35.0730 193.3213 42.4914 -8.8923 9.4877 -36.0045
# 3 6.9569 42.4914 149.7361 -15.2604 -8.6185 -9.1994
# 4 -1.0355 -8.8923 -15.2604 52.0972 -10.2083 -7.5677
# 5 -0.1324 9.4877 -8.6185 -10.2083 28.9381 -11.0981
# 6 0.5572 -36.0045 -9.1994 -7.5677 -11.0981 51.5361
#
#
#
# Elastic Compliance Matrix: (Units=1/GPa)
#
#
# Indices 1 2 3 4 5 6 
#
# 1 0.016744 -0.003588 -0.000009 -0.000705 -0.000076 -0.002809
# 2 -0.003588 0.007131 -0.001447 0.001341 -0.000448 0.004863
# 3 -0.000009 -0.001447 0.007798 0.003216 0.004642 0.001853
# 4 -0.000705 0.001341 0.003216 0.023758 0.011790 0.007546
# 5 -0.000076 -0.000448 0.004642 0.011790 0.044807 0.011897
# 6 -0.002809 0.004863 0.001853 0.007546 0.011897 0.026832
#
#
# Mechanical properties :
#
#
# Convention : Reuss Voigt Hill
#
# Bulk Modulus (GPa) = 46.32594 64.37674 55.35134
# Shear Modulus (GPa) = 34.63717 48.23605 41.43661
#
# Velocity S-wave (km/s) = 3.61600 4.26721 3.95503
# Velocity P-wave (km/s) = 5.90948 6.97000 6.46153
#
# Compressibility (1/GPa) = 0.02158618
#
# Stress axis : x y z
#
# Youngs Moduli (GPa) = 59.72259 140.23201 128.23329
#
# Poissons Ratio (x) = 0.50311 0.00110
# Poissons Ratio (y) = 0.21427 0.18559
# Poissons Ratio (z) = 0.00051 0.20296
#
# Static dielectric constant tensor:
#      x y z
#    x 2.314040 0.023020 -0.023630 
#    y 0.023020 2.131540 0.009770 
#    z -0.023630 0.009770 2.069170 
# 
# From -- ./inp_files/585574.got.cif
#   From: 2010.05.17/outbox.cif.g08.bks.cpg/sg2_293_cif.got.tgz:585574.got - 2010.06.03 11:33:40.
