data_PCOD9089991
_publ_section_title
;
Structure prediction by ZEFSAII (Michael W. Deem and Ramdas Pophale) SiO2 
 PCOD9089991
Probable space group: P -1
;
_chemical_formula_sum "Si O2"
_cell_formula_units_Z 16
_cell_length_a 12.156361
_cell_length_b 9.359272
_cell_length_c 8.721586
_cell_angle_alpha 132.284170
_cell_angle_beta 85.376704
_cell_angle_gamma 93.867682
_cell_volume 731.610963
_symmetry_space_group_name_H-M "P -1"
_symmetry_group_IT_number 2
_symmetry_cell_setting 'triclinic'
loop_
_space_group_symop_operation_xyz
x,y,z
-x,-y,-z
loop_
_atom_site_type_symbol
_atom_site_label
_atom_site_fract_x
_atom_site_fract_y
_atom_site_fract_z
Si Si1 0.331450 0.066228 0.650832
Si Si2 0.666588 0.964235 0.008099
Si Si3 0.801572 0.487371 0.326344
Si Si4 0.529534 0.304006 0.727796
Si Si5 0.089308 0.886658 0.003513
Si Si6 0.816564 0.942754 0.599729
Si Si7 0.643631 0.236592 0.968911
Si Si8 0.389188 0.457054 0.386101
O O1 0.400856 0.243520 0.693639
O O2 0.210335 0.050462 0.574916
O O3 0.403744 0.880708 0.472524
O O4 0.338378 0.074085 0.838836
O O5 0.638649 0.767394 0.783561
O O6 0.792622 0.030749 0.009448
O O7 0.598518 0.135200 0.055913
O O8 0.825348 0.715722 0.475036
O O9 0.719965 0.455253 0.458659
O O10 0.904798 0.342010 0.202189
O O11 0.728964 0.402438 0.131842
O O12 0.562480 0.320252 0.913722
O O13 0.580443 0.464706 0.727879
O O14 0.090678 0.942195 0.225893
O O15 0.000000 0.000000 0.000000
O O16 0.708274 0.059806 0.753972
O O17 0.500000 0.500000 0.500000
#
# Coordination Sequence:
#
# PCOD9089991 Si02
#       8
#     2   2   2   2   2   2   2   2
#     4  10  21  36  57  81 125 161 204 251 299 356
#     4  10  22  40  56  86 125 155 204 264 289 360
#     4  10  19  38  63  85 126 161 196 251 311 346
#     4  10  22  34  55  86 119 173 208 235 301 360
#     4  10  22  42  67  91 114 157 212 259 314 367
#     4   9  18  38  57  89 118 150 196 259 301 361
#     4   9  20  36  56  84 120 162 208 243 288 359
#     4  12  24  36  57  92 131 166 209 242 295 371
#
# _framework density 21.869548000000002
#
# number of rings (size 3 to 8) (size 9 to 14) (size 15 to 20)
#    0.000    2.250    2.500    2.250    7.000    1.500 
#    0.000    0.625    0.000    0.750    0.000    0.000 
#    0.000    0.000    0.000    0.000    0.000    0.000 
#
# Total GULP energy -89158.008368 kJ/mol
# GULP energy per Si atom -5572.375523 kJ/mol
# Density = 2.181977 g / cm^3
# Si number density = 21.869548 Si / 1000 Ang^3
#
#
#
# Elastic Constant Matrix: (Units=GPa)
#
#
# Indices 1 2 3 4 5 6 
#
# 1 34.8612 14.1974 10.9971 -4.5988 -1.5173 -25.8602
# 2 14.1974 99.0504 26.5104 2.0745 -0.8689 -21.6493
# 3 10.9971 26.5104 111.8162 8.7685 -1.6993 -18.3673
# 4 -4.5988 2.0745 8.7685 45.9485 -11.4540 7.5280
# 5 -1.5173 -0.8689 -1.6993 -11.4540 16.6668 1.5159
# 6 -25.8602 -21.6493 -18.3673 7.5280 1.5159 34.7625
#
#
#
# Elastic Compliance Matrix: (Units=1/GPa)
#
#
# Indices 1 2 3 4 5 6 
#
# 1 0.064605 0.001299 0.001763 -0.002142 0.000085 0.050261
# 2 0.001299 0.012131 -0.001543 -0.001806 -0.001390 0.008158
# 3 0.001763 -0.001543 0.010460 -0.003265 -0.001703 0.006659
# 4 -0.002142 -0.001806 -0.003265 0.029297 0.020575 -0.011685
# 5 0.000085 -0.001390 -0.001703 0.020575 0.074757 -0.009417
# 6 0.050261 0.008158 0.006659 -0.011685 -0.009417 0.077696
#
#
# Mechanical properties :
#
#
# Convention : Reuss Voigt Hill
#
# Bulk Modulus (GPa) = 11.08225 38.79306 24.93765
# Shear Modulus (GPa) = 16.89263 32.41044 24.65153
#
# Velocity S-wave (km/s) = 2.78227 3.85384 3.36103
# Velocity P-wave (km/s) = 3.92426 6.13022 5.14682
#
# Compressibility (1/GPa) = 0.09023440
#
# Stress axis : x y z
#
# Youngs Moduli (GPa) = 15.47863 82.43047 95.60525
#
# Poissons Ratio (x) = -0.10708 -0.16860
# Poissons Ratio (y) = -0.02011 0.14756
# Poissons Ratio (z) = -0.02730 0.12723
#
# Static dielectric constant tensor:
#      x y z
#    x 1.814540 -0.026960 -0.012170 
#    y -0.026960 1.872420 -0.030710 
#    z -0.012170 -0.030710 1.915890 
# 
# From -- ./inp_files/293467.got.cif
#   From: 2010.05.17/outbox.cif.g08.bks.cpg/sg2_147_cif.got.tgz:293467.got - 2010.06.03 11:33:40.
