data_PCOD9089819
_publ_section_title
;
Structure prediction by ZEFSAII (Michael W. Deem and Ramdas Pophale) SiO2 
 PCOD9089819
Probable space group: P -1
;
_chemical_formula_sum "Si O2"
_cell_formula_units_Z 16
_cell_length_a 30.846300
_cell_length_b 16.931125
_cell_length_c 12.590112
_cell_angle_alpha 23.907654
_cell_angle_beta 162.372843
_cell_angle_gamma 161.022740
_cell_volume 641.884109
_symmetry_space_group_name_H-M "P -1"
_symmetry_group_IT_number 2
_symmetry_cell_setting 'triclinic'
loop_
_space_group_symop_operation_xyz
x,y,z
-x,-y,-z
loop_
_atom_site_type_symbol
_atom_site_label
_atom_site_fract_x
_atom_site_fract_y
_atom_site_fract_z
Si Si1 0.856992 0.838208 0.772875
Si Si2 0.791743 0.340601 0.246250
Si Si3 0.067660 0.862646 0.768433
Si Si4 0.959279 0.399030 0.764159
Si Si5 0.526393 0.743657 0.803619
Si Si6 0.494737 0.592920 0.137585
Si Si7 0.104246 0.260674 0.699980
Si Si8 0.362191 0.697145 0.267620
O O1 0.674877 0.806337 0.358485
O O2 0.775149 0.559110 0.951573
O O3 0.988952 0.974066 0.812063
O O4 0.000000 0.000000 0.000000
O O5 0.000000 0.500000 0.500000
O O6 0.799740 0.238609 0.502798
O O7 0.661319 0.180189 0.040853
O O8 0.939488 0.716056 0.551070
O O9 0.000000 0.000000 0.500000
O O10 0.080696 0.721792 0.066803
O O11 0.263238 0.051776 0.944833
O O12 0.970144 0.638322 0.517702
O O13 0.153986 0.487570 0.071675
O O14 0.453351 0.816658 0.446897
O O15 0.500000 0.500000 0.000000
O O16 0.451205 0.690972 0.812161
O O17 0.543704 0.421653 0.410877
O O18 0.318820 0.424430 0.006032
#
# Coordination Sequence:
#
# PCOD9089819 Si02
#       8
#     2   2   2   2   2   2   2   2
#     4  11  22  43  69  97 134 185 219 265 347 397
#     4   9  20  39  66  89 131 178 216 269 328 393
#     4  12  24  40  70  99 128 180 229 272 343 406
#     4  11  23  43  65  97 137 173 223 284 337 391
#     4  10  19  38  61  95 127 164 222 283 321 387
#     4  10  21  41  68  98 131 173 228 275 323 401
#     4  12  25  43  69 104 135 174 226 280 334 399
#     4   9  19  40  65  88 130 176 216 269 329 386
#
# _framework density 24.926617
#
# number of rings (size 3 to 8) (size 9 to 14) (size 15 to 20)
#    0.000    1.500    2.500    4.125    3.500    0.500 
#    2.250    1.875    0.000    0.000    0.000    0.000 
#    0.000    0.000    0.000    0.000    0.000    0.000 
#
# Total GULP energy -89319.451383 kJ/mol
# GULP energy per Si atom -5582.465711 kJ/mol
# Density = 2.486988 g / cm^3
# Si number density = 24.926617 Si / 1000 Ang^3
#
#
#
# Elastic Constant Matrix: (Units=GPa)
#
#
# Indices 1 2 3 4 5 6 
#
# 1 69.2698 19.6767 49.6657 -1.4360 -25.8410 0.7133
# 2 19.6767 59.9241 29.3332 22.1634 8.7513 9.2189
# 3 49.6657 29.3332 123.1590 26.4184 -38.5270 -1.1017
# 4 -1.4360 22.1634 26.4184 47.2867 5.3418 2.4673
# 5 -25.8410 8.7513 -38.5270 5.3418 63.3737 3.2343
# 6 0.7133 9.2189 -1.1017 2.4673 3.2343 35.4381
#
#
#
# Elastic Compliance Matrix: (Units=1/GPa)
#
#
# Indices 1 2 3 4 5 6 
#
# 1 0.024856 -0.008169 -0.008153 0.008494 0.005577 0.000271
# 2 -0.008169 0.026696 -0.003609 -0.009540 -0.008127 -0.005487
# 3 -0.008153 -0.003609 0.016676 -0.008853 0.007981 0.001509
# 4 0.008494 -0.009540 -0.008853 0.031180 -0.003237 0.000160
# 5 0.005577 -0.008127 0.007981 -0.003237 0.024287 0.000259
# 6 0.000271 -0.005487 0.001509 0.000160 0.000259 0.029652
#
#
# Mechanical properties :
#
#
# Convention : Reuss Voigt Hill
#
# Bulk Modulus (GPa) = 35.25303 49.96712 42.61008
# Shear Modulus (GPa) = 24.67104 39.46484 32.06794
#
# Velocity S-wave (km/s) = 3.14944 3.98331 3.59066
# Velocity P-wave (km/s) = 5.23438 6.42222 5.85848
#
# Compressibility (1/GPa) = 0.02836636
#
# Stress axis : x y z
#
# Youngs Moduli (GPa) = 40.23146 37.45852 59.96485
#
# Poissons Ratio (x) = 0.30598 0.48891
# Poissons Ratio (y) = 0.32863 0.21644
# Poissons Ratio (z) = 0.32802 0.13520
#
# Static dielectric constant tensor:
#      x y z
#    x 2.041420 -0.062990 -0.037800 
#    y -0.062990 2.114130 -0.120850 
#    z -0.037800 -0.120850 2.028110 
# 
# From -- ./inp_files/308010.got.cif
#   From: 2010.05.17/outbox.cif.g08.bks.cpg/sg2_155_cif.got.tgz:308010.got - 2010.06.03 11:33:40.
