data_PCOD9089625
_publ_section_title
;
Structure prediction by ZEFSAII (Michael W. Deem and Ramdas Pophale) SiO2 
 PCOD9089625
Probable space group: P -1
;
_chemical_formula_sum "Si O2"
_cell_formula_units_Z 14
_cell_length_a 7.370018
_cell_length_b 9.012499
_cell_length_c 13.800569
_cell_angle_alpha 54.459726
_cell_angle_beta 84.910437
_cell_angle_gamma 115.251738
_cell_volume 599.886381
_symmetry_space_group_name_H-M "P -1"
_symmetry_group_IT_number 2
_symmetry_cell_setting 'triclinic'
loop_
_space_group_symop_operation_xyz
x,y,z
-x,-y,-z
loop_
_atom_site_type_symbol
_atom_site_label
_atom_site_fract_x
_atom_site_fract_y
_atom_site_fract_z
Si Si1 0.610487 0.627444 0.174664
Si Si2 0.911863 0.326990 0.158931
Si Si3 0.986935 0.607368 0.209319
Si Si4 0.604488 0.925299 0.901804
Si Si5 0.214369 0.678266 0.488090
Si Si6 0.356735 0.103321 0.750500
Si Si7 0.597309 0.832068 0.724268
O O1 0.855124 0.679109 0.123978
O O2 0.635868 0.722565 0.244778
O O3 0.425345 0.362383 0.263629
O O4 0.567438 0.764934 0.050623
O O5 0.052116 0.474906 0.189222
O O6 0.657316 0.234936 0.237321
O O7 0.872710 0.094504 0.217238
O O8 0.000000 0.500000 0.000000
O O9 0.816315 0.435853 0.364741
O O10 0.188565 0.824424 0.172298
O O11 0.412787 0.959326 0.870326
O O12 0.644451 0.835618 0.835176
O O13 0.438998 0.756913 0.388478
O O14 0.000000 0.500000 0.500000
O O15 0.238152 0.909918 0.415094
#
# Coordination Sequence:
#
# PCOD9089625 Si02
#       7
#     2   2   2   2   2   2   2
#     4  11  22  35  55  93 121 143 196 244 300 333
#     4   9  19  35  55  87 117 146 193 231 286 347
#     4  11  21  36  65  85 114 158 192 246 287 335
#     4  10  19  38  60  83 117 163 191 230 292 355
#     4  10  19  42  64  79 114 155 210 228 283 356
#     4  10  22  38  60  84 117 162 189 239 286 348
#     4   9  21  37  61  84 116 160 190 241 288 342
#
# _framework density 23.337751999999998
#
# number of rings (size 3 to 8) (size 9 to 14) (size 15 to 20)
#    0.000    2.286    2.857    2.143    0.000    8.000 
#    0.000    2.143    0.000    0.000    0.000    0.000 
#    0.000    0.000    0.000    0.000    0.000    0.000 
#
# Total GULP energy -78174.683837 kJ/mol
# GULP energy per Si atom -5583.905988 kJ/mol
# Density = 2.328463 g / cm^3
# Si number density = 23.337752 Si / 1000 Ang^3
#
#
#
# Elastic Constant Matrix: (Units=GPa)
#
#
# Indices 1 2 3 4 5 6 
#
# 1 45.2131 15.8204 8.1927 -1.1270 -3.4815 2.4740
# 2 15.8204 231.9371 46.1264 -32.1387 -9.0365 -14.5381
# 3 8.1927 46.1264 98.3562 -17.2030 -6.2420 -4.4094
# 4 -1.1270 -32.1387 -17.2030 39.0819 12.2628 0.5295
# 5 -3.4815 -9.0365 -6.2420 12.2628 15.2970 -7.1146
# 6 2.4740 -14.5381 -4.4094 0.5295 -7.1146 30.6006
#
#
#
# Elastic Compliance Matrix: (Units=1/GPa)
#
#
# Indices 1 2 3 4 5 6 
#
# 1 0.023369 -0.001604 -0.001437 -0.002965 0.005445 -0.001541
# 2 -0.001604 0.005410 -0.001648 0.003468 0.000555 0.002531
# 3 -0.001437 -0.001648 0.011792 0.003317 0.001464 0.001315
# 4 -0.002965 0.003468 0.003317 0.039916 -0.031946 -0.005753
# 5 0.005445 0.000555 0.001464 -0.031946 0.104746 0.024940
# 6 -0.001541 0.002531 0.001315 -0.005753 0.024940 0.040094
#
#
# Mechanical properties :
#
#
# Convention : Reuss Voigt Hill
#
# Bulk Modulus (GPa) = 32.05795 57.30949 44.68372
# Shear Modulus (GPa) = 20.39987 37.35370 28.87679
#
# Velocity S-wave (km/s) = 2.95975 4.00505 3.52140
# Velocity P-wave (km/s) = 5.04445 6.78212 5.97677
#
# Compressibility (1/GPa) = 0.03119351
#
# Stress axis : x y z
#
# Youngs Moduli (GPa) = 42.79246 184.85915 84.80594
#
# Poissons Ratio (x) = 0.29643 0.12183
# Poissons Ratio (y) = 0.06862 0.13976
# Poissons Ratio (z) = 0.06147 0.30465
#
# Static dielectric constant tensor:
#      x y z
#    x 1.947480 -0.006470 0.014000 
#    y -0.006470 2.002200 -0.002320 
#    z 0.014000 -0.002320 1.853080 
# 
# From -- ./inp_files/177325.got.cif
#   From: 2010.05.17/outbox.cif.g08.bks.cpg/sg2_89_cif.got.tgz:177325.got - 2010.06.03 11:33:40.
