data_PCOD9089976
_publ_section_title
;
Structure prediction by ZEFSAII (Michael W. Deem and Ramdas Pophale) SiO2 
 PCOD9089976
Probable space group: P -1
;
_chemical_formula_sum "Si O2"
_cell_formula_units_Z 15
_cell_length_a 7.646587
_cell_length_b 16.698660
_cell_length_c 7.334586
_cell_angle_alpha 95.278920
_cell_angle_beta 122.180362
_cell_angle_gamma 51.333548
_cell_volume 576.376858
_symmetry_space_group_name_H-M "P -1"
_symmetry_group_IT_number 2
_symmetry_cell_setting 'triclinic'
loop_
_space_group_symop_operation_xyz
x,y,z
-x,-y,-z
loop_
_atom_site_type_symbol
_atom_site_label
_atom_site_fract_x
_atom_site_fract_y
_atom_site_fract_z
Si Si1 0.910798 0.269650 0.783518
Si Si2 0.171799 0.833676 0.016937
Si Si3 0.316840 0.239020 0.530087
Si Si4 0.500000 0.500000 0.000000
Si Si5 0.189673 0.567424 0.484255
Si Si6 0.586782 0.936904 0.846905
Si Si7 0.930808 0.560998 0.783174
Si Si8 0.038365 0.145578 0.453906
O O1 0.923866 0.207772 0.598906
O O2 0.789785 0.384946 0.676754
O O3 0.234416 0.187886 0.017483
O O4 0.163333 0.074671 0.103202
O O5 0.245826 0.727489 0.129430
O O6 0.191119 0.826062 0.809378
O O7 0.364528 0.843386 0.237127
O O8 0.186353 0.184107 0.445624
O O9 0.131899 0.331630 0.603844
O O10 0.258627 0.308426 0.333236
O O11 0.383702 0.555271 0.742920
O O12 0.233026 0.509177 0.866897
O O13 0.212646 0.469180 0.425470
O O14 0.294036 0.013727 0.593110
O O15 0.500000 0.000000 0.000000
O O16 0.000000 0.500000 0.000000
#
# Coordination Sequence:
#
# PCOD9089976 Si02
#       8
#     2   2   2   1   2   2   2   2
#     4   8  20  36  61  88 119 159 201 252 304 367
#     4  10  21  37  62  87 121 159 202 250 312 366
#     4  10  23  39  57  93 119 151 213 256 300 380
#     4  10  22  42  66  84 122 168 204 262 318 358
#     4  10  22  44  62  88 125 163 210 260 314 380
#     4   8  17  36  62  87 119 159 205 246 306 376
#     4  11  26  41  63  95 125 165 215 261 316 388
#     4  10  19  38  63  83 121 163 196 253 314 359
#
# _framework density 26.024643000000001
#
# number of rings (size 3 to 8) (size 9 to 14) (size 15 to 20)
#    0.800    1.600    0.000    2.000    3.733    7.467 
#    0.000    0.000    0.000    5.600    0.000    0.000 
#    0.000    0.000    0.000    0.000    0.000    0.000 
#
# Total GULP energy -83534.758965 kJ/mol
# GULP energy per Si atom -5568.983931 kJ/mol
# Density = 2.596541 g / cm^3
# Si number density = 26.024643 Si / 1000 Ang^3
#
#
#
# Elastic Constant Matrix: (Units=GPa)
#
#
# Indices 1 2 3 4 5 6 
#
# 1 62.7150 4.2084 29.2367 -6.0207 -5.3074 -2.2112
# 2 4.2084 49.1191 53.7430 -4.8780 -10.0683 4.8301
# 3 29.2367 53.7430 171.8121 -12.9887 -12.5487 12.8951
# 4 -6.0207 -4.8780 -12.9887 29.3871 13.7095 -11.5311
# 5 -5.3074 -10.0683 -12.5487 13.7095 43.1606 -5.6148
# 6 -2.2112 4.8301 12.8951 -11.5311 -5.6148 37.3940
#
#
#
# Elastic Compliance Matrix: (Units=1/GPa)
#
#
# Indices 1 2 3 4 5 6 
#
# 1 0.018093 0.002992 -0.003928 0.003164 0.001191 0.003193
# 2 0.002992 0.032380 -0.010334 -0.001012 0.005243 0.000033
# 3 -0.003928 -0.010334 0.009925 0.001421 -0.000718 -0.001990
# 4 0.003164 -0.001012 0.001421 0.045628 -0.012361 0.012042
# 5 0.001191 0.005243 -0.000718 -0.012361 0.028266 0.000073
# 6 0.003193 0.000033 -0.001990 0.012042 0.000073 0.031337
#
#
# Mechanical properties :
#
#
# Convention : Reuss Voigt Hill
#
# Bulk Modulus (GPa) = 26.41407 50.89138 38.65273
# Shear Modulus (GPa) = 24.90188 35.08555 29.99371
#
# Velocity S-wave (km/s) = 3.09667 3.67572 3.39855
# Velocity P-wave (km/s) = 4.79140 6.13287 5.50316
#
# Compressibility (1/GPa) = 0.03785862
#
# Stress axis : x y z
#
# Youngs Moduli (GPa) = 55.27080 30.88366 100.75105
#
# Poissons Ratio (x) = -0.09241 0.39577
# Poissons Ratio (y) = -0.16538 1.04113
# Poissons Ratio (z) = 0.21711 0.31914
#
# Static dielectric constant tensor:
#      x y z
#    x 2.109760 -0.035370 -0.072730 
#    y -0.035370 2.141180 0.032420 
#    z -0.072730 0.032420 2.099220 
# 
# From -- ./inp_files/54373.got.cif
#   From: 2010.05.17/outbox.cif.g08.bks.cpg/sg2_28_cif.got.tgz:54373.got - 2010.06.03 11:33:40.
