data_PCOD9089643
_publ_section_title
;
Structure prediction by ZEFSAII (Michael W. Deem and Ramdas Pophale) SiO2 
 PCOD9089643
Probable space group: P -1
;
_chemical_formula_sum "Si O2"
_cell_formula_units_Z 16
_cell_length_a 8.843686
_cell_length_b 12.669734
_cell_length_c 8.334841
_cell_angle_alpha 92.135905
_cell_angle_beta 70.332956
_cell_angle_gamma 113.247998
_cell_volume 803.066886
_symmetry_space_group_name_H-M "P -1"
_symmetry_group_IT_number 2
_symmetry_cell_setting 'triclinic'
loop_
_space_group_symop_operation_xyz
x,y,z
-x,-y,-z
loop_
_atom_site_type_symbol
_atom_site_label
_atom_site_fract_x
_atom_site_fract_y
_atom_site_fract_z
Si Si1 0.504049 0.766742 0.682711
Si Si2 0.229815 0.275554 0.200887
Si Si3 0.625674 0.849509 0.291880
Si Si4 0.032466 0.129707 0.951690
Si Si5 0.343590 0.496520 0.670941
Si Si6 0.359413 0.934736 0.908590
Si Si7 0.145383 0.449729 0.431919
Si Si8 0.491252 0.381073 0.854384
O O1 0.687620 0.785787 0.706911
O O2 0.538277 0.815782 0.493228
O O3 0.385650 0.628810 0.706237
O O4 0.411720 0.836055 0.813464
O O5 0.119022 0.333093 0.340553
O O6 0.115722 0.203346 0.087719
O O7 0.413114 0.368521 0.060526
O O8 0.528398 0.746900 0.194557
O O9 0.633147 0.968790 0.221947
O O10 0.816005 0.842715 0.233086
O O11 0.844713 0.125056 0.968176
O O12 0.000000 0.000000 0.000000
O O13 0.500000 0.500000 0.500000
O O14 0.183473 0.439055 0.605274
O O15 0.355176 0.419798 0.808639
O O16 0.500000 0.000000 0.000000
O O17 0.316407 0.538436 0.276844
O O18 0.000000 0.500000 0.500000
#
# Coordination Sequence:
#
# PCOD9089643 Si02
#       8
#     2   2   2   2   2   2   2   2
#     4  12  21  38  66  89 122 162 204 244 309 355
#     4  11  22  38  65  89 119 168 200 246 305 361
#     4  10  20  40  66  89 121 163 200 253 300 358
#     4   9  21  41  61  87 122 153 202 254 299 356
#     4  10  19  38  60  85 124 161 197 244 297 362
#     4  11  24  43  63  91 122 158 206 253 304 360
#     4  11  22  36  58  91 125 154 203 250 298 351
#     4  10  19  40  63  85 122 164 206 237 302 363
#
# _framework density 19.923622000000002
#
# number of rings (size 3 to 8) (size 9 to 14) (size 15 to 20)
#    0.000    1.500    5.000    3.000    1.750    0.000 
#    0.000   15.000    0.000    0.000    0.000    0.000 
#    0.000    0.000    0.000    0.000    0.000    0.000 
#
# Total GULP energy -89114.596410 kJ/mol
# GULP energy per Si atom -5569.662276 kJ/mol
# Density = 1.987827 g / cm^3
# Si number density = 19.923622 Si / 1000 Ang^3
#
#
#
# Elastic Constant Matrix: (Units=GPa)
#
#
# Indices 1 2 3 4 5 6 
#
# 1 93.2528 20.6281 29.1640 24.3181 -4.1710 -16.3842
# 2 20.6281 106.3167 25.5293 27.1242 -9.0381 -17.1950
# 3 29.1640 25.5293 72.7185 19.2570 0.1791 -12.5396
# 4 24.3181 27.1242 19.2570 39.2292 -10.5772 -3.4782
# 5 -4.1710 -9.0381 0.1791 -10.5772 32.0322 5.0159
# 6 -16.3842 -17.1950 -12.5396 -3.4782 5.0159 34.5819
#
#
#
# Elastic Compliance Matrix: (Units=1/GPa)
#
#
# Indices 1 2 3 4 5 6 
#
# 1 0.014467 0.000695 -0.003014 -0.007846 -0.001358 0.005514
# 2 0.000695 0.012501 -0.001756 -0.007682 0.000293 0.005093
# 3 -0.003014 -0.001756 0.017990 -0.006393 -0.003745 0.004123
# 4 -0.007846 -0.007682 -0.006393 0.041287 0.011637 -0.007390
# 5 -0.001358 0.000293 -0.003745 0.011637 0.035911 -0.005893
# 6 0.005514 0.005093 0.004123 -0.007390 -0.005893 0.035668
#
#
# Mechanical properties :
#
#
# Convention : Reuss Voigt Hill
#
# Bulk Modulus (GPa) = 27.16763 46.99231 37.07997
# Shear Modulus (GPa) = 28.05169 34.29977 31.17573
#
# Velocity S-wave (km/s) = 3.75635 4.15367 3.96000
# Velocity P-wave (km/s) = 5.69904 6.82945 6.28969
#
# Compressibility (1/GPa) = 0.03680852
#
# Stress axis : x y z
#
# Youngs Moduli (GPa) = 69.12497 79.99254 55.58715
#
# Poissons Ratio (x) = -0.05560 0.16753
# Poissons Ratio (y) = -0.04804 0.09759
# Poissons Ratio (z) = 0.20833 0.14044
#
# Static dielectric constant tensor:
#      x y z
#    x 1.731340 0.056600 0.032030 
#    y 0.056600 1.755810 -0.023050 
#    z 0.032030 -0.023050 1.707380 
# 
# From -- ./inp_files/187450.got.cif
#   From: 2010.05.17/outbox.cif.g08.bks.cpg/sg2_94_cif.got.tgz:187450.got - 2010.06.03 11:33:40.
