data_PCOD9089483
_publ_section_title
;
Structure prediction by ZEFSAII (Michael W. Deem and Ramdas Pophale) SiO2 
 PCOD9089483
Probable space group: P -1
;
_chemical_formula_sum "Si O2"
_cell_formula_units_Z 16
_cell_length_a 8.669296
_cell_length_b 18.414030
_cell_length_c 14.982791
_cell_angle_alpha 23.069851
_cell_angle_beta 129.017646
_cell_angle_gamma 133.864841
_cell_volume 675.454825
_symmetry_space_group_name_H-M "P -1"
_symmetry_group_IT_number 2
_symmetry_cell_setting 'triclinic'
loop_
_space_group_symop_operation_xyz
x,y,z
-x,-y,-z
loop_
_atom_site_type_symbol
_atom_site_label
_atom_site_fract_x
_atom_site_fract_y
_atom_site_fract_z
Si Si1 0.268587 0.250284 0.781290
Si Si2 0.847859 0.566200 0.091798
Si Si3 0.726504 0.537251 0.279378
Si Si4 0.321452 0.877538 0.249161
Si Si5 0.706151 0.779597 0.493619
Si Si6 0.814254 0.970777 0.592194
Si Si7 0.368098 0.897372 0.452355
Si Si8 0.754883 0.521082 0.643965
O O1 0.247570 0.301852 0.817831
O O2 0.522534 0.353344 0.737235
O O3 0.165014 0.363928 0.549779
O O4 0.217248 0.018909 0.007177
O O5 0.841416 0.604873 0.151924
O O6 0.694533 0.336018 0.279084
O O7 0.081257 0.566744 0.155974
O O8 0.799243 0.744945 0.827884
O O9 0.471455 0.412506 0.305028
O O10 0.780402 0.355458 0.547499
O O11 0.573648 0.924468 0.269594
O O12 0.305514 0.899492 0.324881
O O13 0.733231 0.688258 0.512374
O O14 0.941278 0.885286 0.499549
O O15 0.624784 0.003617 0.431816
O O16 0.749819 0.007781 0.628677
#
# Coordination Sequence:
#
# PCOD9089483 Si02
#       8
#     2   2   2   2   2   2   2   2
#     4  10  19  38  57  84 110 152 184 229 276 328
#     4  11  20  39  58  81 116 150 177 233 281 322
#     4   8  20  36  54  80 115 144 186 224 274 328
#     4   9  19  37  57  77 116 148 175 232 280 315
#     4   9  19  37  55  82 112 148 181 234 266 328
#     4  11  21  36  63  84 107 150 188 222 285 329
#     4  10  22  38  58  85 113 140 190 234 268 338
#     4  10  21  35  59  83 116 142 193 230 267 334
#
# _framework density 23.687742
#
# number of rings (size 3 to 8) (size 9 to 14) (size 15 to 20)
#    0.750    1.500    1.250    1.875    0.000    1.500 
#    2.250    2.500    0.000    3.750    0.000    0.000 
#    0.000    0.000    0.000    0.000    0.000    0.000 
#
# Total GULP energy -89335.958653 kJ/mol
# GULP energy per Si atom -5583.497416 kJ/mol
# Density = 2.363383 g / cm^3
# Si number density = 23.687742 Si / 1000 Ang^3
#
#
#
# Elastic Constant Matrix: (Units=GPa)
#
#
# Indices 1 2 3 4 5 6 
#
# 1 78.0778 27.0211 21.1633 1.4533 26.1649 14.2948
# 2 27.0211 42.9189 25.4621 -11.8080 7.5320 19.6641
# 3 21.1633 25.4621 76.4746 -16.4970 21.3318 6.3760
# 4 1.4533 -11.8080 -16.4970 20.2198 1.0425 4.4804
# 5 26.1649 7.5320 21.3318 1.0425 22.8476 2.7205
# 6 14.2948 19.6641 6.3760 4.4804 2.7205 40.3894
#
#
#
# Elastic Compliance Matrix: (Units=1/GPa)
#
#
# Indices 1 2 3 4 5 6 
#
# 1 0.027548 -0.016943 0.005177 -0.006168 -0.030565 0.000425
# 2 -0.016943 0.057884 -0.007635 0.033948 0.008918 -0.025346
# 3 0.005177 -0.007635 0.026423 0.018744 -0.028647 -0.002436
# 4 -0.006168 0.033948 0.018744 0.091945 -0.022731 -0.025972
# 5 -0.030565 0.008918 -0.028647 -0.022731 0.102830 0.006594
# 6 0.000425 -0.025346 -0.002436 -0.025972 0.006594 0.039770
#
#
# Mechanical properties :
#
#
# Convention : Reuss Voigt Hill
#
# Bulk Modulus (GPa) = 13.68844 38.30714 25.99779
# Shear Modulus (GPa) = 12.20847 24.94636 18.57741
#
# Velocity S-wave (km/s) = 2.27269 3.24872 2.80351
# Velocity P-wave (km/s) = 3.56063 5.50264 4.63450
#
# Compressibility (1/GPa) = 0.07305434
#
# Stress axis : x y z
#
# Youngs Moduli (GPa) = 36.30058 17.27592 37.84599
#
# Poissons Ratio (x) = 0.29270 -0.19594
# Poissons Ratio (y) = 0.61504 0.28894
# Poissons Ratio (z) = -0.18794 0.13190
#
# Static dielectric constant tensor:
#      x y z
#    x 1.925650 0.051910 -0.016800 
#    y 0.051910 1.898010 0.000550 
#    z -0.016800 0.000550 1.893520 
# 
# From -- ./inp_files/325796.got.cif
#   From: 2010.05.17/outbox.cif.g08.bks.cpg/sg2_163_cif.got.tgz:325796.got - 2010.06.03 11:33:40.
