data_PCOD9089781
_publ_section_title
;
Structure prediction by ZEFSAII (Michael W. Deem and Ramdas Pophale) SiO2 
 PCOD9089781
Probable space group: P -1
;
_chemical_formula_sum "Si O2"
_cell_formula_units_Z 14
_cell_length_a 14.156619
_cell_length_b 10.869201
_cell_length_c 8.328433
_cell_angle_alpha 70.574580
_cell_angle_beta 104.156432
_cell_angle_gamma 45.121641
_cell_volume 596.847339
_symmetry_space_group_name_H-M "P -1"
_symmetry_group_IT_number 2
_symmetry_cell_setting 'triclinic'
loop_
_space_group_symop_operation_xyz
x,y,z
-x,-y,-z
loop_
_atom_site_type_symbol
_atom_site_label
_atom_site_fract_x
_atom_site_fract_y
_atom_site_fract_z
Si Si1 0.933717 0.325360 0.241790
Si Si2 0.328199 0.554099 0.753850
Si Si3 0.300251 0.871851 0.740115
Si Si4 0.151119 0.092085 0.918369
Si Si5 0.875681 0.262879 0.904343
Si Si6 0.645555 0.880619 0.974149
Si Si7 0.495909 0.293645 0.590976
O O1 0.866375 0.295372 0.356229
O O2 0.928217 0.254273 0.104279
O O3 0.777615 0.618626 0.065603
O O4 0.143649 0.133179 0.462932
O O5 0.319941 0.715358 0.719515
O O6 0.393663 0.451561 0.646164
O O7 0.492548 0.310559 0.049878
O O8 0.214287 0.943006 0.851016
O O9 0.291719 0.893493 0.213569
O O10 0.210255 0.173438 0.873585
O O11 0.938293 0.307728 0.790072
O O12 0.649249 0.498007 0.696504
O O13 0.000000 0.000000 0.000000
O O14 0.529875 0.098998 0.699910
O O15 0.500000 0.000000 0.000000
#
# Coordination Sequence:
#
# PCOD9089781 Si02
#       7
#     2   2   2   2   2   2   2
#     4  12  23  36  61  91 119 161 203 241 306 361
#     4  10  19  38  61  90 117 153 206 258 303 339
#     4  10  20  36  63  90 116 152 208 260 295 351
#     4   9  22  41  59  90 119 160 200 247 303 350
#     4  12  25  40  61  91 125 165 198 241 311 368
#     4  10  21  44  64  89 120 158 211 252 303 350
#     4   9  21  42  61  85 125 157 201 256 295 354
#
# _framework density 23.456583999999999
#
# number of rings (size 3 to 8) (size 9 to 14) (size 15 to 20)
#    0.857    0.857    1.429    3.000    0.000    3.429 
#    2.571    0.000    0.000    0.000    0.000    0.000 
#    0.000    0.000    0.000    0.000    0.000    0.000 
#
# Total GULP energy -78133.556175 kJ/mol
# GULP energy per Si atom -5580.968298 kJ/mol
# Density = 2.340320 g / cm^3
# Si number density = 23.456584 Si / 1000 Ang^3
#
#
#
# Elastic Constant Matrix: (Units=GPa)
#
#
# Indices 1 2 3 4 5 6 
#
# 1 62.6414 9.7409 -4.9274 -3.1119 10.9812 3.3784
# 2 9.7409 100.8152 28.8872 -6.0926 0.5599 2.5696
# 3 -4.9274 28.8872 123.6027 -4.9158 26.1107 8.7470
# 4 -3.1119 -6.0926 -4.9158 30.1560 3.6075 -4.8495
# 5 10.9812 0.5599 26.1107 3.6075 25.5862 -1.8957
# 6 3.3784 2.5696 8.7470 -4.8495 -1.8957 19.3730
#
#
#
# Elastic Compliance Matrix: (Units=1/GPa)
#
#
# Indices 1 2 3 4 5 6 
#
# 1 0.019852 -0.002961 0.005103 0.003051 -0.014540 -0.006032
# 2 -0.002961 0.011309 -0.003872 0.000997 0.004946 0.001498
# 3 0.005103 -0.003872 0.013346 0.002730 -0.016654 -0.007348
# 4 0.003051 0.000997 0.002730 0.036183 -0.008752 0.006304
# 5 -0.014540 0.004946 -0.016654 -0.008752 0.064447 0.013515
# 6 -0.006032 0.001498 -0.007348 0.006304 0.013515 0.058690
#
#
# Mechanical properties :
#
#
# Convention : Reuss Voigt Hill
#
# Bulk Modulus (GPa) = 24.36293 39.38452 31.87372
# Shear Modulus (GPa) = 22.62758 31.91360 27.27059
#
# Velocity S-wave (km/s) = 3.10926 3.69255 3.41339
# Velocity P-wave (km/s) = 4.82690 5.91665 5.39934
#
# Compressibility (1/GPa) = 0.04104597
#
# Stress axis : x y z
#
# Youngs Moduli (GPa) = 50.37340 88.42154 74.93098
#
# Poissons Ratio (x) = 0.26186 -0.38240
# Poissons Ratio (y) = 0.14918 0.29016
# Poissons Ratio (z) = -0.25707 0.34240
#
# Static dielectric constant tensor:
#      x y z
#    x 1.871100 0.012680 -0.027180 
#    y 0.012680 1.838880 -0.031850 
#    z -0.027180 -0.031850 1.959680 
# 
# From -- ./inp_files/331954.got.cif
#   From: 2010.05.17/outbox.cif.g08.bks.cpg/sg2_166_cif.got.tgz:331954.got - 2010.06.03 11:33:40.
