data_PCOD9089901
_publ_section_title
;
Structure prediction by ZEFSAII (Michael W. Deem and Ramdas Pophale) SiO2 
 PCOD9089901
Probable space group: P -1
;
_chemical_formula_sum "Si O2"
_cell_formula_units_Z 12
_cell_length_a 13.508149
_cell_length_b 11.347753
_cell_length_c 8.110858
_cell_angle_alpha 108.066787
_cell_angle_beta 61.423100
_cell_angle_gamma 148.485476
_cell_volume 557.648306
_symmetry_space_group_name_H-M "P -1"
_symmetry_group_IT_number 2
_symmetry_cell_setting 'triclinic'
loop_
_space_group_symop_operation_xyz
x,y,z
-x,-y,-z
loop_
_atom_site_type_symbol
_atom_site_label
_atom_site_fract_x
_atom_site_fract_y
_atom_site_fract_z
Si Si1 0.920648 0.933723 0.809062
Si Si2 0.950314 0.534562 0.713862
Si Si3 0.233194 0.986669 0.855209
Si Si4 0.288898 0.882624 0.101574
Si Si5 0.308322 0.508395 0.266583
Si Si6 0.117779 0.944272 0.438306
O O1 0.735576 0.662197 0.864507
O O2 0.121057 0.036257 0.637137
O O3 0.864506 0.953900 0.692598
O O4 0.921925 0.042163 0.990361
O O5 0.133714 0.800724 0.724273
O O6 0.000000 0.500000 0.500000
O O7 0.894704 0.387749 0.838380
O O8 0.752298 0.437009 0.784321
O O9 0.460169 0.253676 0.750615
O O10 0.261156 0.930077 0.974116
O O11 0.269045 0.969190 0.298138
O O12 0.500000 0.000000 0.000000
O O13 0.121463 0.331010 0.475047
#
# Coordination Sequence:
#
# PCOD9089901 Si02
#       6
#     2   2   2   2   2   2
#     4   8  17  37  62  89 121 156 201 243 308 355
#     4  12  24  41  58  90 126 160 207 252 293 360
#     4  11  23  37  66  91 119 167 197 248 308 355
#     4  11  21  41  61  89 123 161 203 247 305 362
#     4  10  19  38  62  89 122 157 197 252 299 360
#     4   8  17  35  65  85 122 160 189 255 299 353
#
# _framework density 21.518941000000002
#
# number of rings (size 3 to 8) (size 9 to 14) (size 15 to 20)
#    1.000    1.000    3.333    1.000    0.000    1.333 
#    0.000    0.000    0.000    3.000    0.000    0.000 
#    0.000    0.000    0.000    0.000    0.000    0.000 
#
# Total GULP energy -66855.512076 kJ/mol
# GULP energy per Si atom -5571.292673 kJ/mol
# Density = 2.146996 g / cm^3
# Si number density = 21.518941 Si / 1000 Ang^3
#
#
#
# Elastic Constant Matrix: (Units=GPa)
#
#
# Indices 1 2 3 4 5 6 
#
# 1 85.4462 31.7763 40.5096 5.9501 -23.5614 -18.9446
# 2 31.7763 111.6120 51.9086 19.9819 -11.1488 -8.5748
# 3 40.5096 51.9086 121.4544 29.4009 -26.0549 -0.5273
# 4 5.9501 19.9819 29.4009 35.4216 -9.9151 2.0880
# 5 -23.5614 -11.1488 -26.0549 -9.9151 36.6841 0.9567
# 6 -18.9446 -8.5748 -0.5273 2.0880 0.9567 37.2252
#
#
#
# Elastic Compliance Matrix: (Units=1/GPa)
#
#
# Indices 1 2 3 4 5 6 
#
# 1 0.018703 -0.002545 -0.004053 0.003721 0.009147 0.008431
# 2 -0.002545 0.012072 -0.003735 -0.003860 -0.001706 0.001693
# 3 -0.004053 -0.003735 0.013857 -0.007406 0.004166 -0.002418
# 4 0.003721 -0.003860 -0.007406 0.037746 0.006195 -0.001377
# 5 0.009147 -0.001706 0.004166 0.006195 0.037171 0.003018
# 6 0.008431 0.001693 -0.002418 -0.001377 0.003018 0.031510
#
#
# Mechanical properties :
#
#
# Convention : Reuss Voigt Hill
#
# Bulk Modulus (GPa) = 41.72225 62.98906 52.35565
# Shear Modulus (GPa) = 27.82224 34.82071 31.32148
#
# Velocity S-wave (km/s) = 3.59962 4.02698 3.81928
# Velocity P-wave (km/s) = 6.05863 7.13842 6.62058
#
# Compressibility (1/GPa) = 0.02396803
#
# Stress axis : x y z
#
# Youngs Moduli (GPa) = 53.46636 82.83746 72.16394
#
# Poissons Ratio (x) = 0.21081 0.29244
# Poissons Ratio (y) = 0.13607 0.26952
# Poissons Ratio (z) = 0.21667 0.30938
#
# Static dielectric constant tensor:
#      x y z
#    x 1.818140 -0.020610 -0.004640 
#    y -0.020610 1.764710 0.000360 
#    z -0.004640 0.000360 1.836560 
# 
# From -- ./inp_files/29172.got.cif
#   From: 2010.05.17/outbox.cif.g08.bks.cpg/sg2_15_cif.got.tgz:29172.got - 2010.06.03 11:33:40.
