data_PCOD9089575
_publ_section_title
;
Structure prediction by ZEFSAII (Michael W. Deem and Ramdas Pophale) SiO2 
 PCOD9089575
Probable space group: P -1
;
_chemical_formula_sum "Si O2"
_cell_formula_units_Z 16
_cell_length_a 11.020137
_cell_length_b 8.585991
_cell_length_c 9.442271
_cell_angle_alpha 71.149438
_cell_angle_beta 108.679858
_cell_angle_gamma 63.797278
_cell_volume 635.944333
_symmetry_space_group_name_H-M "P -1"
_symmetry_group_IT_number 2
_symmetry_cell_setting 'triclinic'
loop_
_space_group_symop_operation_xyz
x,y,z
-x,-y,-z
loop_
_atom_site_type_symbol
_atom_site_label
_atom_site_fract_x
_atom_site_fract_y
_atom_site_fract_z
Si Si1 0.728488 0.365381 0.230670
Si Si2 0.875234 0.987209 0.721558
Si Si3 0.568680 0.593090 0.830588
Si Si4 0.002144 0.618012 0.653469
Si Si5 0.491159 0.321363 0.507890
Si Si6 0.117514 0.071701 0.706292
Si Si7 0.149859 0.186036 0.970340
Si Si8 0.469183 0.029907 0.305557
O O1 0.556575 0.458406 0.204899
O O2 0.827112 0.434982 0.313262
O O3 0.816286 0.121896 0.317018
O O4 0.699716 0.445472 0.035535
O O5 0.680668 0.141343 0.592549
O O6 0.952451 0.105183 0.683614
O O7 0.937296 0.796504 0.695337
O O8 0.922961 0.887537 0.925173
O O9 0.626862 0.588496 0.697549
O O10 0.476897 0.834203 0.767090
O O11 0.031983 0.418798 0.794475
O O12 0.898023 0.745042 0.439274
O O13 0.500000 0.500000 0.500000
O O14 0.449671 0.207298 0.632660
O O15 0.209258 0.040885 0.895740
O O16 0.291695 0.157301 0.128065
O O17 0.500000 0.000000 0.500000
#
# Coordination Sequence:
#
# PCOD9089575 Si02
#       8
#     2   2   2   2   2   2   2   2
#     4  10  21  36  64  82 119 165 206 245 297 376
#     4  10  22  41  63  89 127 163 211 245 311 379
#     4  10  19  38  59  88 114 162 210 241 301 370
#     4  11  21  41  64  91 124 169 205 252 307 377
#     4  10  21  37  63  90 122 153 198 258 313 352
#     4  11  23  39  62  92 130 160 204 260 314 360
#     4  11  22  39  62  95 125 158 211 262 308 362
#     4   9  20  39  60  86 122 161 201 252 302 370
#
# _framework density 25.159434999999998
#
# number of rings (size 3 to 8) (size 9 to 14) (size 15 to 20)
#    0.000    1.750    1.250    4.125    3.500    0.000 
#    0.000    8.125    0.000    0.000    0.000    0.000 
#    0.000    0.000    0.000    0.000    0.000    0.000 
#
# Total GULP energy -89176.608450 kJ/mol
# GULP energy per Si atom -5573.538028 kJ/mol
# Density = 2.510217 g / cm^3
# Si number density = 25.159435 Si / 1000 Ang^3
#
#
#
# Elastic Constant Matrix: (Units=GPa)
#
#
# Indices 1 2 3 4 5 6 
#
# 1 64.0246 2.8666 9.6775 -5.1934 3.8218 14.7654
# 2 2.8666 65.6318 25.2490 -10.3874 -8.6384 16.5666
# 3 9.6775 25.2490 157.5874 -13.0015 -25.0589 5.9505
# 4 -5.1934 -10.3874 -13.0015 39.3183 14.9000 -8.8516
# 5 3.8218 -8.6384 -25.0589 14.9000 31.7693 -5.0690
# 6 14.7654 16.5666 5.9505 -8.8516 -5.0690 26.1657
#
#
#
# Elastic Compliance Matrix: (Units=1/GPa)
#
#
# Indices 1 2 3 4 5 6 
#
# 1 0.019213 0.002586 -0.001919 0.002077 -0.006094 -0.012521
# 2 0.002586 0.019639 -0.002670 0.001766 0.000072 -0.012675
# 3 -0.001919 -0.002670 0.007758 -0.000216 0.006062 0.002110
# 4 0.002077 0.001766 -0.000216 0.032941 -0.014414 0.006110
# 5 -0.006094 0.000072 0.006062 -0.014414 0.044697 0.005797
# 6 -0.012521 -0.012675 0.002110 0.006110 0.005797 0.056019
#
#
# Mechanical properties :
#
#
# Convention : Reuss Voigt Hill
#
# Bulk Modulus (GPa) = 23.47140 40.31443 31.89292
# Shear Modulus (GPa) = 25.19239 36.08071 30.63655
#
# Velocity S-wave (km/s) = 3.16778 3.79104 3.49334
# Velocity P-wave (km/s) = 4.76750 5.93473 5.38285
#
# Compressibility (1/GPa) = 0.04260503
#
# Stress axis : x y z
#
# Youngs Moduli (GPa) = 52.04787 50.91897 128.90369
#
# Poissons Ratio (x) = -0.13169 0.24738
# Poissons Ratio (y) = -0.13461 0.34412
# Poissons Ratio (z) = 0.09989 0.13593
#
# Static dielectric constant tensor:
#      x y z
#    x 2.014460 -0.052920 -0.046360 
#    y -0.052920 2.069290 -0.027330 
#    z -0.046360 -0.027330 1.942870 
# 
# From -- ./inp_files/243122.got.cif
#   From: 2010.05.17/outbox.cif.g08.bks.cpg/sg2_122_cif.got.tgz:243122.got - 2010.06.03 11:33:40.
