data_PCOD9089724
_publ_section_title
;
Structure prediction by ZEFSAII (Michael W. Deem and Ramdas Pophale) SiO2 
 PCOD9089724
Probable space group: P -1
;
_chemical_formula_sum "Si O2"
_cell_formula_units_Z 12
_cell_length_a 9.874319
_cell_length_b 20.642775
_cell_length_c 11.396912
_cell_angle_alpha 158.146491
_cell_angle_beta 140.899492
_cell_angle_gamma 34.601502
_cell_volume 490.247704
_symmetry_space_group_name_H-M "P -1"
_symmetry_group_IT_number 2
_symmetry_cell_setting 'triclinic'
loop_
_space_group_symop_operation_xyz
x,y,z
-x,-y,-z
loop_
_atom_site_type_symbol
_atom_site_label
_atom_site_fract_x
_atom_site_fract_y
_atom_site_fract_z
Si Si1 0.319769 0.905149 0.745346
Si Si2 0.256973 0.354118 0.289676
Si Si3 0.673290 0.030402 0.890742
Si Si4 0.397618 0.347743 0.834645
Si Si5 0.642059 0.343972 0.232614
Si Si6 0.844005 0.278440 0.853268
O O1 0.532166 0.687226 0.543478
O O2 0.138721 0.895427 0.512912
O O3 0.202663 0.978317 0.915175
O O4 0.500000 0.000000 0.000000
O O5 0.185208 0.568388 0.555909
O O6 0.400306 0.189924 0.010921
O O7 0.052135 0.298049 0.099750
O O8 0.675357 0.828284 0.522284
O O9 0.746151 0.137415 0.018182
O O10 0.631768 0.298897 0.830429
O O11 0.463767 0.354373 0.025809
O O12 0.210770 0.546151 0.982552
O O13 0.500000 0.500000 0.500000
#
# Coordination Sequence:
#
# PCOD9089724 Si02
#       6
#     2   2   2   2   2   2
#     4  10  19  38  61  84 118 152 186 239 291 342
#     4   9  21  38  62  86 114 163 189 233 289 357
#     4   9  20  37  62  85 118 155 195 237 288 343
#     4  11  21  35  60  90 120 150 192 251 286 337
#     4  10  19  40  59  81 120 162 192 234 294 345
#     4  11  21  38  60  92 118 150 196 236 298 343
#
# _framework density 24.477421
#
# number of rings (size 3 to 8) (size 9 to 14) (size 15 to 20)
#    1.000    1.000    3.333    0.500    0.000    3.333 
#    0.000   10.000    0.000    0.000    0.000    0.000 
#    0.000    0.000    0.000    0.000    0.000    0.000 
#
# Total GULP energy -66941.667045 kJ/mol
# GULP energy per Si atom -5578.472254 kJ/mol
# Density = 2.442171 g / cm^3
# Si number density = 24.477421 Si / 1000 Ang^3
#
#
#
# Elastic Constant Matrix: (Units=GPa)
#
#
# Indices 1 2 3 4 5 6 
#
# 1 59.6412 20.2699 29.4795 0.4700 6.0201 22.6367
# 2 20.2699 99.6019 49.5694 -14.4246 0.0743 24.6848
# 3 29.4795 49.5694 159.3649 -4.7125 19.0036 23.2221
# 4 0.4700 -14.4246 -4.7125 51.2156 15.9914 3.2162
# 5 6.0201 0.0743 19.0036 15.9914 42.7076 -5.6594
# 6 22.6367 24.6848 23.2221 3.2162 -5.6594 36.8127
#
#
#
# Elastic Compliance Matrix: (Units=1/GPa)
#
#
# Indices 1 2 3 4 5 6 
#
# 1 0.023580 -0.000141 -0.001499 0.002202 -0.005400 -0.014483
# 2 -0.000141 0.014250 -0.002856 0.004784 -0.001630 -0.008336
# 3 -0.001499 -0.002856 0.008543 0.001665 -0.004661 -0.003415
# 4 0.002202 0.004784 0.001665 0.025299 -0.011810 -0.009638
# 5 -0.005400 -0.001630 -0.004661 -0.011810 0.032448 0.013374
# 6 -0.014483 -0.008336 -0.003415 -0.009638 0.013374 0.046712
#
#
# Mechanical properties :
#
#
# Convention : Reuss Voigt Hill
#
# Bulk Modulus (GPa) = 26.75032 57.47174 42.11103
# Shear Modulus (GPa) = 29.02214 40.76646 34.89430
#
# Velocity S-wave (km/s) = 3.44709 4.08545 3.77977
# Velocity P-wave (km/s) = 5.17644 6.76646 6.02414
#
# Compressibility (1/GPa) = 0.03738273
#
# Stress axis : x y z
#
# Youngs Moduli (GPa) = 42.40869 70.17600 117.05407
#
# Poissons Ratio (x) = 0.00988 0.17543
# Poissons Ratio (y) = 0.00597 0.33427
# Poissons Ratio (z) = 0.06356 0.20040
#
# Static dielectric constant tensor:
#      x y z
#    x 1.930600 -0.001020 0.000080 
#    y -0.001020 2.061460 0.072990 
#    z 0.000080 0.072990 1.942160 
# 
# From -- ./inp_files/64044.got.cif
#   From: 2010.05.17/outbox.cif.g08.bks.cpg/sg2_33_cif.got.tgz:64044.got - 2010.06.03 11:33:40.
