data_PCOD9089614
_publ_section_title
;
Structure prediction by ZEFSAII (Michael W. Deem and Ramdas Pophale) SiO2 
 PCOD9089614
Probable space group: P -1
;
_chemical_formula_sum "Si O2"
_cell_formula_units_Z 14
_cell_length_a 7.709934
_cell_length_b 8.475051
_cell_length_c 12.289256
_cell_angle_alpha 85.627176
_cell_angle_beta 86.383927
_cell_angle_gamma 51.825857
_cell_volume 629.303646
_symmetry_space_group_name_H-M "P -1"
_symmetry_group_IT_number 2
_symmetry_cell_setting 'triclinic'
loop_
_space_group_symop_operation_xyz
x,y,z
-x,-y,-z
loop_
_atom_site_type_symbol
_atom_site_label
_atom_site_fract_x
_atom_site_fract_y
_atom_site_fract_z
Si Si1 0.447172 0.377266 0.077005
Si Si2 0.910574 0.537722 0.778691
Si Si3 0.358083 0.293836 0.863768
Si Si4 0.791963 0.752642 0.412900
Si Si5 0.528951 0.602946 0.358475
Si Si6 0.443667 0.922316 0.758186
Si Si7 0.122886 0.764177 0.513734
O O1 0.217561 0.522204 0.142782
O O2 0.607790 0.212537 0.170302
O O3 0.500000 0.500000 0.000000
O O4 0.423200 0.263110 0.987427
O O5 0.709611 0.767177 0.747176
O O6 0.106331 0.493725 0.847754
O O7 0.029622 0.402667 0.675966
O O8 0.488605 0.328415 0.768496
O O9 0.375782 0.107483 0.826231
O O10 0.616331 0.707045 0.420562
O O11 0.938288 0.731546 0.507348
O O12 0.666337 0.976255 0.357176
O O13 0.302508 0.666186 0.413584
O O14 0.723548 0.366204 0.382811
O O15 0.000000 0.000000 0.500000
#
# Coordination Sequence:
#
# PCOD9089614 Si02
#       7
#     2   2   2   2   2   2   2
#     4  10  20  33  56  87 120 152 184 237 284 331
#     4   8  19  35  59  80 114 153 191 223 287 331
#     4  10  19  38  60  80 116 153 198 228 276 347
#     4  10  21  41  63  83 121 153 192 238 289 351
#     4   9  23  40  60  90 112 155 192 241 291 344
#     4   8  19  35  57  83 112 155 192 224 276 341
#     4  11  24  40  62  88 118 145 196 246 296 347
#
# _framework density 22.246814000000001
#
# number of rings (size 3 to 8) (size 9 to 14) (size 15 to 20)
#    0.857    2.000    0.000    1.286    2.000    8.571 
#    0.000    2.857    0.000    0.000    0.000    0.000 
#    0.000    0.000    0.000    0.000    0.000    0.000 
#
# Total GULP energy -77997.991970 kJ/mol
# GULP energy per Si atom -5571.285141 kJ/mol
# Density = 2.219618 g / cm^3
# Si number density = 22.246814 Si / 1000 Ang^3
#
#
#
# Elastic Constant Matrix: (Units=GPa)
#
#
# Indices 1 2 3 4 5 6 
#
# 1 71.7057 11.6242 18.0633 -4.1302 -9.3527 1.2754
# 2 11.6242 95.5176 21.8357 -25.6204 1.7714 -12.5577
# 3 18.0633 21.8357 54.9010 -22.2310 -7.7296 -1.5106
# 4 -4.1302 -25.6204 -22.2310 32.9390 8.1118 0.2503
# 5 -9.3527 1.7714 -7.7296 8.1118 34.8440 -9.0020
# 6 1.2754 -12.5577 -1.5106 0.2503 -9.0020 30.4362
#
#
#
# Elastic Compliance Matrix: (Units=1/GPa)
#
#
# Indices 1 2 3 4 5 6 
#
# 1 0.015976 -0.001951 -0.005687 -0.004333 0.003995 -0.000540
# 2 -0.001951 0.014639 -0.000900 0.011167 -0.002730 0.005178
# 3 -0.005687 -0.000900 0.027451 0.016845 0.001049 0.001401
# 4 -0.004333 0.011167 0.016845 0.052200 -0.009532 0.002376
# 5 0.003995 -0.002730 0.001049 -0.009532 0.034714 0.009104
# 6 -0.000540 0.005178 0.001401 0.002376 0.009104 0.037757
#
#
# Mechanical properties :
#
#
# Convention : Reuss Voigt Hill
#
# Bulk Modulus (GPa) = 24.39686 36.13009 30.26347
# Shear Modulus (GPa) = 23.42159 31.01725 27.21942
#
# Velocity S-wave (km/s) = 3.24822 3.73799 3.50168
# Velocity P-wave (km/s) = 5.00581 5.90813 5.47559
#
# Compressibility (1/GPa) = 0.04098889
#
# Stress axis : x y z
#
# Youngs Moduli (GPa) = 62.59411 68.30937 36.42850
#
# Poissons Ratio (x) = 0.13329 0.20717
# Poissons Ratio (y) = 0.12214 0.03280
# Poissons Ratio (z) = 0.35597 0.06151
#
# Static dielectric constant tensor:
#      x y z
#    x 1.883520 0.044510 0.043560 
#    y 0.044510 1.840560 -0.023370 
#    z 0.043560 -0.023370 1.884750 
# 
# From -- ./inp_files/489536.got.cif
#   From: 2010.05.17/outbox.cif.g08.bks.cpg/sg2_245_cif.got.tgz:489536.got - 2010.06.03 11:33:40.
