data_PCOD9089484
_publ_section_title
;
Structure prediction by ZEFSAII (Michael W. Deem and Ramdas Pophale) SiO2 
 PCOD9089484
Probable space group: P -1
;
_chemical_formula_sum "Si O2"
_cell_formula_units_Z 16
_cell_length_a 16.353559
_cell_length_b 14.255752
_cell_length_c 19.146076
_cell_angle_alpha 33.501989
_cell_angle_beta 21.162348
_cell_angle_gamma 46.227980
_cell_volume 802.677339
_symmetry_space_group_name_H-M "P -1"
_symmetry_group_IT_number 2
_symmetry_cell_setting 'triclinic'
loop_
_space_group_symop_operation_xyz
x,y,z
-x,-y,-z
loop_
_atom_site_type_symbol
_atom_site_label
_atom_site_fract_x
_atom_site_fract_y
_atom_site_fract_z
Si Si1 0.676056 0.748770 0.870420
Si Si2 0.097520 0.473145 0.515537
Si Si3 0.438393 0.913919 0.247521
Si Si4 0.226150 0.333700 0.307107
Si Si5 0.955605 0.094411 0.805047
Si Si6 0.928178 0.601552 0.870203
Si Si7 0.887388 0.690988 0.115069
Si Si8 0.586802 0.630818 0.246118
O O1 0.395722 0.586210 0.207088
O O2 0.749132 0.769083 0.718245
O O3 0.862095 0.686553 0.801524
O O4 0.665096 0.939222 0.785929
O O5 0.000000 0.500000 0.500000
O O6 0.964774 0.568527 0.611428
O O7 0.011455 0.250064 0.724086
O O8 0.527293 0.813000 0.179120
O O9 0.217633 0.740445 0.570558
O O10 0.672671 0.023797 0.044057
O O11 0.130700 0.197109 0.534967
O O12 0.500000 0.500000 0.000000
O O13 0.986585 0.909707 0.917219
O O14 0.913877 0.396342 0.996088
O O15 0.745927 0.610895 0.068697
O O16 0.748486 0.661703 0.168883
O O17 0.672328 0.555228 0.423188
#
# Coordination Sequence:
#
# PCOD9089484 Si02
#       8
#     2   2   2   2   2   2   2   2
#     4  12  23  37  58  91 122 151 188 236 300 353
#     4  10  19  38  57  84 117 142 194 244 283 336
#     4  10  21  37  56  87 120 149 192 237 282 352
#     4  11  20  37  63  88 113 149 190 245 295 332
#     4  10  19  39  63  88 113 147 199 249 279 333
#     4  11  24  38  57  86 125 157 189 231 292 353
#     4   9  20  39  58  85 114 151 203 238 273 343
#     4   9  20  40  59  80 115 160 198 240 276 328
#
# _framework density 19.933288999999998
#
# number of rings (size 3 to 8) (size 9 to 14) (size 15 to 20)
#    0.000    1.750    5.000    1.500    3.500    2.500 
#    2.250    0.625    0.000    1.500    0.000    0.000 
#    0.000    0.000    0.000    0.000    0.000    0.000 
#
# Total GULP energy -89305.461412 kJ/mol
# GULP energy per Si atom -5581.591338 kJ/mol
# Density = 1.988792 g / cm^3
# Si number density = 19.933289 Si / 1000 Ang^3
#
#
#
# Elastic Constant Matrix: (Units=GPa)
#
#
# Indices 1 2 3 4 5 6 
#
# 1 2.9807 -1.1398 6.2640 4.6857 -3.2862 -9.2889
# 2 -1.1398 167.6775 42.9458 -14.9049 1.1433 -13.4729
# 3 6.2640 42.9458 72.1454 -3.3110 -5.3047 15.9454
# 4 4.6857 -14.9049 -3.3110 42.3671 5.2629 8.6288
# 5 -3.2862 1.1433 -5.3047 5.2629 14.1506 1.7985
# 6 -9.2889 -13.4729 15.9454 8.6288 1.7985 14.3128
#
#
#
# Elastic Compliance Matrix: (Units=1/GPa)
#
#
# Indices 1 2 3 4 5 6 
#
# 1 -0.040449 -0.014384 0.033402 0.019225 0.008536 -0.089667
# 2 -0.014384 0.006823 -0.002537 0.005067 -0.006431 -0.002333
# 3 0.033402 -0.002537 0.010948 -0.007426 0.013574 0.009864
# 4 0.019225 0.005067 -0.007426 0.020857 -0.008263 0.013984
# 5 0.008536 -0.006431 0.013574 -0.008263 0.084028 -0.021213
# 6 -0.089667 -0.002333 0.009864 0.013984 -0.021213 -0.007276
#
#
# Mechanical properties :
#
#
# Convention : Reuss Voigt Hill
#
# Bulk Modulus (GPa) = 97.24055 37.66039 67.45047
# Shear Modulus (GPa) = 110.13988 27.14834 68.64411
#
# Velocity S-wave (km/s) = 7.44138 3.69448 5.87466
# Velocity P-wave (km/s) = 11.07796 6.09370 8.94020
#
# Compressibility (1/GPa) = 0.01028378
#
# Stress axis : x y z
#
# Youngs Moduli (GPa) = -24.72232 146.57089 91.33970
#
# Poissons Ratio (x) = 2.10826 -3.05094
# Poissons Ratio (y) = -0.35560 0.23174
# Poissons Ratio (z) = 0.82578 0.37186
#
# Static dielectric constant tensor:
#      x y z
#    x 1.689210 -0.006600 -0.013540 
#    y -0.006600 1.753360 -0.011000 
#    z -0.013540 -0.011000 1.717220 
# 
# From -- ./inp_files/467577.got.cif
#   From: 2010.05.17/outbox.cif.g08.bks.cpg/sg2_234_cif.got.tgz:467577.got - 2010.06.03 11:33:40.
