data_PCOD9089049
_publ_section_title
;
Structure prediction by ZEFSAII (Michael W. Deem and Ramdas Pophale) SiO2 
 PCOD9089049
Probable space group: P -1
;
_chemical_formula_sum "Si O2"
_cell_formula_units_Z 14
_cell_length_a 12.443539
_cell_length_b 14.184655
_cell_length_c 9.282035
_cell_angle_alpha 115.286632
_cell_angle_beta 94.008941
_cell_angle_gamma 33.183740
_cell_volume 659.846616
_symmetry_space_group_name_H-M "P -1"
_symmetry_group_IT_number 2
_symmetry_cell_setting 'triclinic'
loop_
_space_group_symop_operation_xyz
x,y,z
-x,-y,-z
loop_
_atom_site_type_symbol
_atom_site_label
_atom_site_fract_x
_atom_site_fract_y
_atom_site_fract_z
Si Si1 0.648421 0.970784 0.944785
Si Si2 0.838945 0.492235 0.778259
Si Si3 0.502331 0.818847 0.422387
Si Si4 0.059119 0.678978 0.004572
Si Si5 0.025032 0.120580 0.499386
Si Si6 0.743513 0.796002 0.547197
Si Si7 0.781058 0.243751 0.828361
O O1 0.821147 0.858627 0.013071
O O2 0.794026 0.804442 0.710413
O O3 0.500000 0.000000 0.000000
O O4 0.438129 0.235871 0.062595
O O5 0.889167 0.344518 0.592829
O O6 0.020702 0.417480 0.672314
O O7 0.926227 0.388040 0.880050
O O8 0.714866 0.562771 0.218762
O O9 0.604013 0.806439 0.549131
O O10 0.426888 0.970800 0.395044
O O11 0.264768 0.952604 0.498988
O O12 0.087586 0.778471 0.087605
O O13 0.841383 0.220297 0.652770
O O14 0.119949 0.959575 0.281480
O O15 0.500000 0.500000 0.000000
#
# Coordination Sequence:
#
# PCOD9089049 Si02
#       7
#     2   2   2   2   2   2   2
#     4  12  27  40  61  98 131 168 215 261 309 383
#     4  10  23  45  63  89 135 170 211 260 314 379
#     4  10  19  37  66  88 123 173 207 254 317 378
#     4  11  23  40  69  93 127 169 214 261 321 367
#     4   9  20  36  64  94 121 163 211 261 320 369
#     4  10  23  40  61  90 131 171 210 251 317 376
#     4  10  19  37  64  98 121 159 216 265 310 380
#
# _framework density 21.217053
#
# number of rings (size 3 to 8) (size 9 to 14) (size 15 to 20)
#    0.000    1.714    2.857    0.857    8.000    3.429 
#    0.000    0.714    0.000   12.000    0.000    0.000 
#    0.000    0.000    0.000    0.000    0.000    0.000 
#
# Total GULP energy -78128.082347 kJ/mol
# GULP energy per Si atom -5580.577310 kJ/mol
# Density = 2.116876 g / cm^3
# Si number density = 21.217053 Si / 1000 Ang^3
#
#
#
# Elastic Constant Matrix: (Units=GPa)
#
#
# Indices 1 2 3 4 5 6 
#
# 1 93.3870 37.0704 44.3930 -4.7822 7.5199 -26.4878
# 2 37.0704 106.4161 45.5372 6.7154 8.7799 -22.0036
# 3 44.3930 45.5372 132.2473 6.3683 6.7969 -18.8902
# 4 -4.7822 6.7154 6.3683 15.0672 -3.8097 -3.6190
# 5 7.5199 8.7799 6.7969 -3.8097 41.4238 0.9616
# 6 -26.4878 -22.0036 -18.8902 -3.6190 0.9616 21.9708
#
#
#
# Elastic Compliance Matrix: (Units=1/GPa)
#
#
# Indices 1 2 3 4 5 6 
#
# 1 0.020092 -0.001630 -0.003615 0.013358 -0.001986 0.021770
# 2 -0.001630 0.013286 -0.002456 -0.003993 -0.002686 0.008689
# 3 -0.003615 -0.002456 0.010035 -0.004242 -0.000887 0.001150
# 4 0.013358 -0.003993 -0.004242 0.080881 0.006056 0.021516
# 5 -0.001986 -0.002686 -0.000887 0.006056 0.025912 -0.005983
# 6 0.021770 0.008689 0.001150 0.021516 -0.005983 0.085257
#
#
# Mechanical properties :
#
#
# Convention : Reuss Voigt Hill
#
# Bulk Modulus (GPa) = 35.70069 65.11685 50.40877
# Shear Modulus (GPa) = 19.21581 29.36233 24.28907
#
# Velocity S-wave (km/s) = 3.01271 3.72412 3.38715
# Velocity P-wave (km/s) = 5.38190 7.01780 6.25357
#
# Compressibility (1/GPa) = 0.02801066
#
# Stress axis : x y z
#
# Youngs Moduli (GPa) = 49.77048 75.26629 99.65214
#
# Poissons Ratio (x) = 0.12270 0.36023
# Poissons Ratio (y) = 0.08114 0.24477
# Poissons Ratio (z) = 0.17992 0.18487
#
# Static dielectric constant tensor:
#      x y z
#    x 1.850080 0.028200 0.005170 
#    y 0.028200 1.778430 -0.018760 
#    z 0.005170 -0.018760 1.823880 
# 
# From -- ./inp_files/212832.got.cif
#   From: 2010.05.17/outbox.cif.g08.bks.cpg/sg2_107_cif.got.tgz:212832.got - 2010.06.03 11:33:40.
