data_PCOD9089888
_publ_section_title
;
Structure prediction by ZEFSAII (Michael W. Deem and Ramdas Pophale) SiO2 
 PCOD9089888
Probable space group: P -1
;
_chemical_formula_sum "Si O2"
_cell_formula_units_Z 14
_cell_length_a 11.336277
_cell_length_b 11.196159
_cell_length_c 14.216851
_cell_angle_alpha 148.151453
_cell_angle_beta 62.338188
_cell_angle_gamma 94.551412
_cell_volume 622.995682
_symmetry_space_group_name_H-M "P -1"
_symmetry_group_IT_number 2
_symmetry_cell_setting 'triclinic'
loop_
_space_group_symop_operation_xyz
x,y,z
-x,-y,-z
loop_
_atom_site_type_symbol
_atom_site_label
_atom_site_fract_x
_atom_site_fract_y
_atom_site_fract_z
Si Si1 0.833621 0.447873 0.625343
Si Si2 0.751245 0.766974 0.273474
Si Si3 0.118164 0.465028 0.545915
Si Si4 0.448015 0.300385 0.380496
Si Si5 0.995981 0.883168 0.322289
Si Si6 0.552037 0.230108 0.084693
Si Si7 0.466149 0.850670 0.551267
O O1 0.890772 0.398182 0.460207
O O2 0.620550 0.636674 0.826394
O O3 0.924392 0.579271 0.717319
O O4 0.922360 0.147726 0.451891
O O5 0.582595 0.910486 0.498176
O O6 0.876673 0.790354 0.302359
O O7 0.712706 0.939482 0.304903
O O8 0.820289 0.439775 0.998779
O O9 0.232983 0.495225 0.592586
O O10 0.259775 0.091791 0.233965
O O11 0.500000 0.500000 0.500000
O O12 0.512712 0.176834 0.168100
O O13 0.540940 0.088590 0.295605
O O14 0.000000 0.000000 0.500000
O O15 0.550949 0.503117 0.276795
#
# Coordination Sequence:
#
# PCOD9089888 Si02
#       7
#     2   2   2   2   2   2   2
#     4  10  20  37  59  87 124 152 201 260 307 362
#     4  10  23  42  61  88 123 167 204 259 311 351
#     4  10  21  35  62  90 118 159 198 253 315 365
#     4   9  19  33  59  85 116 154 197 245 305 373
#     4  11  24  41  63  88 124 164 211 257 305 368
#     4  10  19  38  62  88 121 158 198 253 313 366
#     4  10  20  40  62  85 123 160 205 252 309 371
#
# _framework density 22.472062999999999
#
# number of rings (size 3 to 8) (size 9 to 14) (size 15 to 20)
#    0.000    2.000    1.429    2.571    2.000    2.286 
#    0.000    1.429    0.000   15.429    0.000    0.000 
#    0.000    0.000    0.000    0.000    0.000    0.000 
#
# Total GULP energy -78020.658390 kJ/mol
# GULP energy per Si atom -5572.904171 kJ/mol
# Density = 2.242092 g / cm^3
# Si number density = 22.472063 Si / 1000 Ang^3
#
#
#
# Elastic Constant Matrix: (Units=GPa)
#
#
# Indices 1 2 3 4 5 6 
#
# 1 140.7761 29.8353 38.4417 -18.4802 14.8719 -9.1304
# 2 29.8353 110.4407 36.7629 17.6667 2.2735 -25.2039
# 3 38.4417 36.7629 56.0613 4.5587 14.3722 -17.3584
# 4 -18.4802 17.6667 4.5587 27.7199 4.4287 -8.5357
# 5 14.8719 2.2735 14.3722 4.4287 36.5727 0.8273
# 6 -9.1304 -25.2039 -17.3584 -8.5357 0.8273 38.5279
#
#
#
# Elastic Compliance Matrix: (Units=1/GPa)
#
#
# Indices 1 2 3 4 5 6 
#
# 1 0.010990 -0.002552 -0.005587 0.010684 -0.003428 0.000859
# 2 -0.002552 0.014157 -0.006668 -0.009144 0.003805 0.003545
# 3 -0.005587 -0.006668 0.031191 -0.000443 -0.009709 0.008477
# 4 0.010684 -0.009144 -0.000443 0.053317 -0.010248 0.008383
# 5 -0.003428 0.003805 -0.009709 -0.010248 0.033685 -0.005691
# 6 0.000859 0.003545 0.008477 0.008383 -0.005691 0.034276
#
#
# Mechanical properties :
#
#
# Convention : Reuss Voigt Hill
#
# Bulk Modulus (GPa) = 37.41852 57.48422 47.45137
# Shear Modulus (GPa) = 23.13321 34.04664 28.58993
#
# Velocity S-wave (km/s) = 3.21194 3.89661 3.57072
# Velocity P-wave (km/s) = 5.51749 6.77352 6.17751
#
# Compressibility (1/GPa) = 0.02672474
#
# Stress axis : x y z
#
# Youngs Moduli (GPa) = 90.98927 70.63662 32.06034
#
# Poissons Ratio (x) = 0.18026 0.17911
# Poissons Ratio (y) = 0.23219 0.21379
# Poissons Ratio (z) = 0.50833 0.47102
#
# Static dielectric constant tensor:
#      x y z
#    x 1.979130 -0.003710 -0.042700 
#    y -0.003710 1.819590 0.001950 
#    z -0.042700 0.001950 1.929920 
# 
# From -- ./inp_files/519937.got.cif
#   From: 2010.05.17/outbox.cif.g08.bks.cpg/sg2_260_cif.got.tgz:519937.got - 2010.06.03 11:33:40.
