data_PCOD9089335
_publ_section_title
;
Structure prediction by ZEFSAII (Michael W. Deem and Ramdas Pophale) SiO2 
 PCOD9089335
Probable space group: P -1
;
_chemical_formula_sum "Si O2"
_cell_formula_units_Z 13
_cell_length_a 9.479259
_cell_length_b 9.105521
_cell_length_c 8.953609
_cell_angle_alpha 109.322977
_cell_angle_beta 104.580077
_cell_angle_gamma 125.546008
_cell_volume 484.055116
_symmetry_space_group_name_H-M "P -1"
_symmetry_group_IT_number 2
_symmetry_cell_setting 'triclinic'
loop_
_space_group_symop_operation_xyz
x,y,z
-x,-y,-z
loop_
_atom_site_type_symbol
_atom_site_label
_atom_site_fract_x
_atom_site_fract_y
_atom_site_fract_z
Si Si1 0.000000 0.000000 0.000000
Si Si2 0.115522 0.858413 0.716309
Si Si3 0.346473 0.553089 0.652756
Si Si4 0.937672 0.720820 0.131250
Si Si5 0.585664 0.957036 0.639462
Si Si6 0.748180 0.795854 0.325328
Si Si7 0.284102 0.731541 0.943850
O O1 0.044482 0.946486 0.833374
O O2 0.067611 0.222094 0.018939
O O3 0.194230 0.780381 0.813158
O O4 0.908252 0.637928 0.497658
O O5 0.285893 0.064502 0.713969
O O6 0.385686 0.401251 0.651876
O O7 0.414071 0.712577 0.865213
O O8 0.448361 0.707010 0.584690
O O9 0.186279 0.936066 0.311325
O O10 0.758212 0.676021 0.156443
O O11 0.886405 0.506247 0.094288
O O12 0.500000 0.000000 0.500000
O O13 0.620674 0.090485 0.839590
O O14 0.000000 0.000000 0.500000
#
# Coordination Sequence:
#
# PCOD9089335 Si02
#       7
#     1   2   2   2   2   2   2
#     4  10  20  36  64  90 122 156 212 260 298 362
#     4  10  19  37  68  92 119 163 220 253 305 371
#     4  10  22  40  63  93 130 162 204 266 317 371
#     4  10  21  39  66  89 121 165 213 253 306 372
#     4  12  25  38  60  98 135 160 203 266 325 362
#     4   8  18  38  62  88 120 163 212 247 298 382
#     4  11  22  41  67  90 124 170 218 251 306 381
#
# _framework density 26.856445999999998
#
# number of rings (size 3 to 8) (size 9 to 14) (size 15 to 20)
#    0.000    1.846    1.538    2.308    2.154    2.462 
#    0.000    7.692    3.385    0.000    0.000    0.000 
#    0.000    0.000    0.000    0.000    0.000    0.000 
#
# Total GULP energy -72390.310646 kJ/mol
# GULP energy per Si atom -5568.485434 kJ/mol
# Density = 2.679532 g / cm^3
# Si number density = 26.856446 Si / 1000 Ang^3
#
#
#
# Elastic Constant Matrix: (Units=GPa)
#
#
# Indices 1 2 3 4 5 6 
#
# 1 85.5167 33.5705 25.4362 1.1999 -6.1966 -2.5018
# 2 33.5705 349.5684 46.8500 -30.6173 24.0686 -34.6605
# 3 25.4362 46.8500 89.7513 -14.9907 -11.4560 -10.3339
# 4 1.1999 -30.6173 -14.9907 42.0784 -1.7790 0.7909
# 5 -6.1966 24.0686 -11.4560 -1.7790 37.4121 -5.2865
# 6 -2.5018 -34.6605 -10.3339 0.7909 -5.2865 28.2418
#
#
#
# Elastic Compliance Matrix: (Units=1/GPa)
#
#
# Indices 1 2 3 4 5 6 
#
# 1 0.013340 -0.001272 -0.003456 -0.002443 0.001675 -0.001262
# 2 -0.001272 0.003871 -0.001166 0.002265 -0.002429 0.003693
# 3 -0.003456 -0.001166 0.014742 0.004651 0.005559 0.004567
# 4 -0.002443 0.002265 0.004651 0.027128 0.001384 0.003765
# 5 0.001675 -0.002429 0.005559 0.001384 0.031040 0.004973
# 6 -0.001262 0.003693 0.004567 0.003765 0.004973 0.042326
#
#
# Mechanical properties :
#
#
# Convention : Reuss Voigt Hill
#
# Bulk Modulus (GPa) = 49.59423 81.83887 65.71655
# Shear Modulus (GPa) = 33.12185 49.47844 41.30014
#
# Velocity S-wave (km/s) = 3.51564 4.29689 3.92575
# Velocity P-wave (km/s) = 5.91491 7.42675 6.71352
#
# Compressibility (1/GPa) = 0.02016364
#
# Stress axis : x y z
#
# Youngs Moduli (GPa) = 74.96367 258.33026 67.83129
#
# Poissons Ratio (x) = 0.32869 0.23442
# Poissons Ratio (y) = 0.09538 0.07912
# Poissons Ratio (z) = 0.25907 0.30134
#
# Static dielectric constant tensor:
#      x y z
#    x 2.192670 -0.008890 -0.007430 
#    y -0.008890 2.127630 0.005950 
#    z -0.007430 0.005950 2.129880 
# 
# From -- ./inp_files/157332.got.cif
#   From: 2010.05.17/outbox.cif.g08.bks.cpg/sg2_79_cif.got.tgz:157332.got - 2010.06.03 11:33:40.
