data_PCOD9089414
_publ_section_title
;
Structure prediction by ZEFSAII (Michael W. Deem and Ramdas Pophale) SiO2 
 PCOD9089414
Probable space group: P -1
;
_chemical_formula_sum "Si O2"
_cell_formula_units_Z 16
_cell_length_a 9.234748
_cell_length_b 10.877267
_cell_length_c 8.698687
_cell_angle_alpha 81.926881
_cell_angle_beta 110.107540
_cell_angle_gamma 122.339997
_cell_volume 692.203019
_symmetry_space_group_name_H-M "P -1"
_symmetry_group_IT_number 2
_symmetry_cell_setting 'triclinic'
loop_
_space_group_symop_operation_xyz
x,y,z
-x,-y,-z
loop_
_atom_site_type_symbol
_atom_site_label
_atom_site_fract_x
_atom_site_fract_y
_atom_site_fract_z
Si Si1 0.006927 0.652712 0.098841
Si Si2 0.687153 0.812929 0.290481
Si Si3 0.972590 0.064200 0.820132
Si Si4 0.190464 0.370731 0.447557
Si Si5 0.381795 0.499146 0.173731
Si Si6 0.623388 0.371297 0.309852
Si Si7 0.876389 0.345342 0.186885
Si Si8 0.401683 0.089381 0.475219
O O1 0.012754 0.523356 0.208907
O O2 0.028818 0.788388 0.173328
O O3 0.800905 0.566567 0.976293
O O4 0.134454 0.698093 0.987202
O O5 0.756321 0.740053 0.451174
O O6 0.515660 0.671670 0.176518
O O7 0.631343 0.905631 0.356505
O O8 0.853495 0.900570 0.222287
O O9 0.784954 0.967442 0.677216
O O10 0.000000 0.000000 0.000000
O O11 0.319982 0.458651 0.336070
O O12 0.222620 0.480472 0.578592
O O13 0.986136 0.287808 0.328543
O O14 0.485334 0.415642 0.186470
O O15 0.701088 0.314738 0.217840
O O16 0.533510 0.251146 0.429814
O O17 0.500000 0.000000 0.500000
#
# Coordination Sequence:
#
# PCOD9089414 Si02
#       8
#     2   2   2   2   2   2   2   2
#     4  10  23  43  61  99 141 172 221 266 358 400
#     4  11  23  46  73  98 128 176 238 276 340 395
#     4  12  29  47  68  93 141 196 228 266 324 422
#     4  10  19  37  71  98 128 161 216 292 336 385
#     4  10  19  39  73  98 129 168 215 297 333 402
#     4  11  20  38  62  97 126 161 224 272 342 374
#     4  10  23  35  67  98 131 168 207 294 338 396
#     4  12  28  44  68  99 138 182 228 280 322 404
#
# _framework density 23.114606999999999
#
# number of rings (size 3 to 8) (size 9 to 14) (size 15 to 20)
#    0.000    1.250    2.500    3.750    5.250    5.000 
#    0.000    1.250    0.000    0.000    0.000    0.000 
#    0.000    0.000    0.000    0.000    0.000    0.000 
#
# Total GULP energy -89576.826427 kJ/mol
# GULP energy per Si atom -5598.551652 kJ/mol
# Density = 2.306200 g / cm^3
# Si number density = 23.114607 Si / 1000 Ang^3
#
#
#
# Elastic Constant Matrix: (Units=GPa)
#
#
# Indices 1 2 3 4 5 6 
#
# 1 141.0114 14.2767 32.3569 7.7786 -35.5372 7.3604
# 2 14.2767 52.3078 12.1527 3.1040 -13.3160 -6.9868
# 3 32.3569 12.1527 47.8099 -0.4493 -10.6911 8.3631
# 4 7.7786 3.1040 -0.4493 21.6095 -2.7028 -11.8783
# 5 -35.5372 -13.3160 -10.6911 -2.7028 46.9679 -0.1450
# 6 7.3604 -6.9868 8.3631 -11.8783 -0.1450 28.4556
#
#
#
# Elastic Compliance Matrix: (Units=1/GPa)
#
#
# Indices 1 2 3 4 5 6 
#
# 1 0.010269 -0.000185 -0.004981 -0.004734 0.006301 -0.003182
# 2 -0.000185 0.022837 -0.005951 0.001799 0.005109 0.008181
# 3 -0.004981 -0.005951 0.027498 -0.001597 0.000683 -0.008917
# 4 -0.004734 0.001799 -0.001597 0.063463 0.000305 0.028629
# 5 0.006301 0.005109 0.000683 0.000305 0.027679 -0.000308
# 6 -0.003182 0.008181 -0.008917 0.028629 -0.000308 0.052544
#
#
# Mechanical properties :
#
#
# Convention : Reuss Voigt Hill
#
# Bulk Modulus (GPa) = 26.06369 39.85575 32.95972
# Shear Modulus (GPa) = 20.89290 31.56278 26.22784
#
# Velocity S-wave (km/s) = 3.00973 3.69926 3.37217
# Velocity P-wave (km/s) = 4.83511 5.96038 5.42699
#
# Compressibility (1/GPa) = 0.03836755
#
# Stress axis : x y z
#
# Youngs Moduli (GPa) = 97.38475 43.78779 36.36631
#
# Poissons Ratio (x) = 0.00812 0.18116
# Poissons Ratio (y) = 0.01805 0.21643
# Poissons Ratio (z) = 0.48512 0.26060
#
# Static dielectric constant tensor:
#      x y z
#    x 1.878020 -0.011520 -0.019870 
#    y -0.011520 1.865770 -0.005460 
#    z -0.019870 -0.005460 1.897450 
# 
# From -- ./inp_files/179284.got.cif
#   From: 2010.05.17/outbox.cif.g08.bks.cpg/sg2_90_cif.got.tgz:179284.got - 2010.06.03 11:33:40.
