data_PCOD9089472
_publ_section_title
;
Structure prediction by ZEFSAII (Michael W. Deem and Ramdas Pophale) SiO2 
 PCOD9089472
Probable space group: P -1
;
_chemical_formula_sum "Si O2"
_cell_formula_units_Z 16
_cell_length_a 23.873192
_cell_length_b 7.002764
_cell_length_c 14.815303
_cell_angle_alpha 111.533300
_cell_angle_beta 159.197919
_cell_angle_gamma 57.353932
_cell_volume 658.041259
_symmetry_space_group_name_H-M "P -1"
_symmetry_group_IT_number 2
_symmetry_cell_setting 'triclinic'
loop_
_space_group_symop_operation_xyz
x,y,z
-x,-y,-z
loop_
_atom_site_type_symbol
_atom_site_label
_atom_site_fract_x
_atom_site_fract_y
_atom_site_fract_z
Si Si1 0.133926 0.875167 0.817855
Si Si2 0.848409 0.377668 0.681110
Si Si3 0.847929 0.551339 0.907344
Si Si4 0.486860 0.073286 0.787281
Si Si5 0.671821 0.866961 0.851727
Si Si6 0.614105 0.151264 0.246601
Si Si7 0.735461 0.292508 0.212686
Si Si8 0.991320 0.672080 0.708749
O O1 0.918729 0.144615 0.529677
O O2 0.113388 0.739200 0.846088
O O3 0.300015 0.916215 0.087455
O O4 0.184442 0.731858 0.772691
O O5 0.765828 0.216215 0.511930
O O6 0.060353 0.297225 0.955735
O O7 0.708563 0.641269 0.462194
O O8 0.824541 0.445630 0.762797
O O9 0.663108 0.741964 0.725916
O O10 0.985461 0.326214 0.147525
O O11 0.472635 0.906293 0.809834
O O12 0.517661 0.955244 0.713438
O O13 0.650357 0.124981 0.055516
O O14 0.885217 0.630943 0.173579
O O15 0.762822 0.874085 0.375311
O O16 0.436485 0.410108 0.975504
#
# Coordination Sequence:
#
# PCOD9089472 Si02
#       8
#     2   2   2   2   2   2   2   2
#     4  10  19  40  59  81 107 147 180 226 272 323
#     4  10  20  38  58  80 110 143 188 222 269 322
#     4   9  20  39  54  84 109 142 185 226 267 322
#     4  10  19  38  57  81 113 143 178 231 268 320
#     4   9  20  36  57  79 114 142 179 224 274 316
#     4  11  21  36  58  82 111 146 181 224 272 324
#     4   9  22  36  61  82 107 142 188 221 271 324
#     4  10  21  35  55  81 113 141 181 222 270 322
#
# _framework density 24.314585999999998
#
# number of rings (size 3 to 8) (size 9 to 14) (size 15 to 20)
#    0.750    1.500    1.250    1.500    0.000    2.500 
#    2.250    5.625    0.000    0.000    0.000    0.000 
#    0.000    0.000    0.000    0.000    0.000    0.000 
#
# Total GULP energy -89323.005134 kJ/mol
# GULP energy per Si atom -5582.687821 kJ/mol
# Density = 2.425925 g / cm^3
# Si number density = 24.314586 Si / 1000 Ang^3
#
#
#
# Elastic Constant Matrix: (Units=GPa)
#
#
# Indices 1 2 3 4 5 6 
#
# 1 117.1142 46.2307 13.1470 12.1561 -1.6819 33.0062
# 2 46.2307 104.2425 27.4146 0.8476 -2.8832 29.7684
# 3 13.1470 27.4146 68.2874 -8.4602 1.0364 1.8827
# 4 12.1561 0.8476 -8.4602 35.0253 -6.4399 5.7567
# 5 -1.6819 -2.8832 1.0364 -6.4399 33.2719 -6.0540
# 6 33.0062 29.7684 1.8827 5.7567 -6.0540 42.7360
#
#
#
# Elastic Compliance Matrix: (Units=1/GPa)
#
#
# Indices 1 2 3 4 5 6 
#
# 1 0.012229 -0.003095 -0.001347 -0.003641 -0.001580 -0.006963
# 2 -0.003095 0.014390 -0.004877 0.000789 0.000027 -0.007521
# 3 -0.001347 -0.004877 0.017303 0.004317 0.000379 0.003147
# 4 -0.003641 0.000789 0.004317 0.032125 0.005704 -0.001447
# 5 -0.001580 0.000027 0.000379 0.005704 0.031970 0.004945
# 6 -0.006963 -0.007521 0.003147 -0.001447 0.004945 0.034773
#
#
# Mechanical properties :
#
#
# Convention : Reuss Voigt Hill
#
# Bulk Modulus (GPa) = 39.54775 51.46984 45.50880
# Shear Modulus (GPa) = 29.43663 35.73011 32.58337
#
# Velocity S-wave (km/s) = 3.48323 3.83756 3.66468
# Velocity P-wave (km/s) = 5.69890 6.39140 6.05506
#
# Compressibility (1/GPa) = 0.02528589
#
# Stress axis : x y z
#
# Youngs Moduli (GPa) = 81.77108 69.49185 57.79199
#
# Poissons Ratio (x) = 0.21507 0.07785
# Poissons Ratio (y) = 0.25308 0.28182
# Poissons Ratio (z) = 0.11015 0.33888
#
# Static dielectric constant tensor:
#      x y z
#    x 1.960270 -0.049660 0.004870 
#    y -0.049660 1.938410 -0.012640 
#    z 0.004870 -0.012640 2.024510 
# 
# From -- ./inp_files/572746.got.cif
#   From: 2010.05.17/outbox.cif.g08.bks.cpg/sg2_287_cif.got.tgz:572746.got - 2010.06.03 11:33:40.
