data_PCOD9089182
_publ_section_title
;
Structure prediction by ZEFSAII (Michael W. Deem and Ramdas Pophale) SiO2 
 PCOD9089182
Probable space group: P -1
;
_chemical_formula_sum "Si O2"
_cell_formula_units_Z 16
_cell_length_a 7.526734
_cell_length_b 6.831319
_cell_length_c 15.417696
_cell_angle_alpha 68.598910
_cell_angle_beta 70.986802
_cell_angle_gamma 65.312576
_cell_volume 656.382651
_symmetry_space_group_name_H-M "P -1"
_symmetry_group_IT_number 2
_symmetry_cell_setting 'triclinic'
loop_
_space_group_symop_operation_xyz
x,y,z
-x,-y,-z
loop_
_atom_site_type_symbol
_atom_site_label
_atom_site_fract_x
_atom_site_fract_y
_atom_site_fract_z
Si Si1 0.808316 0.267208 0.385933
Si Si2 0.362498 0.714500 0.224958
Si Si3 0.069434 0.526562 0.218079
Si Si4 0.205048 0.893977 0.400707
Si Si5 0.236212 0.984186 0.805858
Si Si6 0.499458 0.104123 0.387140
Si Si7 0.091810 0.202972 0.115691
Si Si8 0.345708 0.127688 0.930456
O O1 0.921414 0.430045 0.310167
O O2 0.603434 0.287739 0.365881
O O3 0.976462 0.017642 0.386777
O O4 0.778832 0.266693 0.494064
O O5 0.578399 0.688529 0.157104
O O6 0.265402 0.535400 0.236056
O O7 0.332674 0.756202 0.324508
O O8 0.227843 0.959354 0.169504
O O9 0.937135 0.782588 0.182231
O O10 0.125848 0.383980 0.144851
O O11 0.290634 0.089221 0.386259
O O12 0.356742 0.950217 0.881491
O O13 0.355102 0.012221 0.697536
O O14 0.130719 0.802605 0.838500
O O15 0.500000 0.000000 0.500000
O O16 0.145738 0.222223 0.003769
O O17 0.500000 0.000000 0.000000
#
# Coordination Sequence:
#
# PCOD9089182 Si02
#       8
#     2   2   2   2   2   2   2   2
#     4  10  20  38  61  95 123 166 207 254 307 376
#     4  10  20  38  60  89 122 160 207 259 305 375
#     4  11  22  37  62  89 125 164 204 255 316 371
#     4  10  19  37  66  87 125 167 211 250 311 370
#     4  11  21  40  65  89 122 162 206 257 312 372
#     4  10  20  38  66  93 123 164 208 253 304 373
#     4  10  21  40  63  85 119 165 206 256 316 363
#     4  10  22  40  64  89 120 161 210 261 312 371
#
# _framework density 24.376024000000001
#
# number of rings (size 3 to 8) (size 9 to 14) (size 15 to 20)
#    0.000    1.750    3.750    1.125    0.000    1.500 
#    2.250    5.000    0.000    0.000    0.000    0.000 
#    0.000    0.000    0.000    0.000    0.000    0.000 
#
# Total GULP energy -89328.857149 kJ/mol
# GULP energy per Si atom -5583.053572 kJ/mol
# Density = 2.432054 g / cm^3
# Si number density = 24.376024 Si / 1000 Ang^3
#
#
#
# Elastic Constant Matrix: (Units=GPa)
#
#
# Indices 1 2 3 4 5 6 
#
# 1 87.5094 22.0266 24.5140 6.7609 0.4700 26.7172
# 2 22.0266 76.2317 37.7860 16.9294 4.7656 8.6917
# 3 24.5140 37.7860 186.3487 27.0083 -22.0885 11.3769
# 4 6.7609 16.9294 27.0083 14.4201 10.5878 2.6448
# 5 0.4700 4.7656 -22.0885 10.5878 39.9268 -0.7490
# 6 26.7172 8.6917 11.3769 2.6448 -0.7490 38.4232
#
#
#
# Elastic Compliance Matrix: (Units=1/GPa)
#
#
# Indices 1 2 3 4 5 6 
#
# 1 0.015394 -0.002853 -0.000923 0.000062 -0.000551 -0.009801
# 2 -0.002853 0.019167 0.001161 -0.027341 0.005625 -0.000704
# 3 -0.000923 0.001161 0.012471 -0.036212 0.016365 -0.000502
# 4 0.000062 -0.027341 -0.036212 0.225486 -0.076568 -0.000150
# 5 -0.000551 0.005625 0.016365 -0.076568 0.053749 0.000584
# 6 -0.009801 -0.000704 -0.000502 -0.000150 0.000584 0.033171
#
#
# Mechanical properties :
#
#
# Convention : Reuss Voigt Hill
#
# Bulk Modulus (GPa) = 23.92117 57.63813 40.77965
# Shear Modulus (GPa) = 13.20651 36.27156 24.73904
#
# Velocity S-wave (km/s) = 2.33015 3.86165 3.18919
# Velocity P-wave (km/s) = 4.13209 6.60150 5.50700
#
# Compressibility (1/GPa) = 0.04180398
#
# Stress axis : x y z
#
# Youngs Moduli (GPa) = 64.95942 52.17303 80.18638
#
# Poissons Ratio (x) = 0.14883 0.07398
# Poissons Ratio (y) = 0.18530 -0.09310
# Poissons Ratio (z) = 0.05994 -0.06058
#
# Static dielectric constant tensor:
#      x y z
#    x 2.083900 -0.013500 0.020390 
#    y -0.013500 1.949810 -0.034110 
#    z 0.020390 -0.034110 1.940140 
# 
# From -- ./inp_files/37998.got.cif
#   From: 2010.05.17/outbox.cif.g08.bks.cpg/sg2_19_cif.got.tgz:37998.got - 2010.06.03 11:33:40.
