data_PCOD9089108
_publ_section_title
;
Structure prediction by ZEFSAII (Michael W. Deem and Ramdas Pophale) SiO2 
 PCOD9089108
Probable space group: P -1
;
_chemical_formula_sum "Si O2"
_cell_formula_units_Z 14
_cell_length_a 8.505477
_cell_length_b 9.161379
_cell_length_c 18.302690
_cell_angle_alpha 144.941579
_cell_angle_beta 136.081816
_cell_angle_gamma 48.838487
_cell_volume 559.759815
_symmetry_space_group_name_H-M "P -1"
_symmetry_group_IT_number 2
_symmetry_cell_setting 'triclinic'
loop_
_space_group_symop_operation_xyz
x,y,z
-x,-y,-z
loop_
_atom_site_type_symbol
_atom_site_label
_atom_site_fract_x
_atom_site_fract_y
_atom_site_fract_z
Si Si1 0.016598 0.762947 0.852063
Si Si2 0.208595 0.660457 0.641222
Si Si3 0.688053 0.115702 0.376356
Si Si4 0.217647 0.056938 0.917616
Si Si5 0.520216 0.642090 0.140737
Si Si6 0.346544 0.566291 0.208519
Si Si7 0.830228 0.279873 0.638849
O O1 0.241222 0.535879 0.828314
O O2 0.843496 0.577981 0.746403
O O3 0.052477 0.905018 0.846550
O O4 0.000000 0.000000 0.000000
O O5 0.302233 0.675623 0.596710
O O6 0.400467 0.533825 0.712078
O O7 0.000000 0.500000 0.500000
O O8 0.172815 0.958654 0.781109
O O9 0.672051 0.202271 0.489969
O O10 0.501068 0.936031 0.229058
O O11 0.928342 0.913484 0.367968
O O12 0.184551 0.349190 0.054885
O O13 0.500000 0.000000 0.000000
O O14 0.373425 0.651655 0.169456
O O15 0.500000 0.500000 0.000000
O O16 0.245239 0.749451 0.315642
#
# Coordination Sequence:
#
# PCOD9089108 Si02
#       7
#     2   2   2   2   2   2   2
#     4  11  20  37  65  96 126 168 210 273 323 381
#     4  11  23  41  68  97 129 172 221 266 327 387
#     4  10  24  42  64  90 139 169 210 272 334 391
#     4  10  19  37  65  91 127 165 217 264 318 371
#     4  11  24  43  64  96 130 173 215 270 335 384
#     4  11  23  42  70  94 128 173 228 268 318 400
#     4  10  23  42  65  94 131 177 215 265 342 383
#
# _framework density 25.010725999999998
#
# number of rings (size 3 to 8) (size 9 to 14) (size 15 to 20)
#    0.000    1.429    4.286    1.714    6.000    1.143 
#    2.571    2.143    0.000    0.000    0.000    0.000 
#    0.000    0.000    0.000    0.000    0.000    0.000 
#
# Total GULP energy -77990.642792 kJ/mol
# GULP energy per Si atom -5570.760199 kJ/mol
# Density = 2.495380 g / cm^3
# Si number density = 25.010726 Si / 1000 Ang^3
#
#
#
# Elastic Constant Matrix: (Units=GPa)
#
#
# Indices 1 2 3 4 5 6 
#
# 1 125.5707 43.4770 46.2139 -6.6253 -29.2548 26.1611
# 2 43.4770 87.3157 29.3026 -14.8873 8.0533 17.0277
# 3 46.2139 29.3026 145.2860 -7.8834 -8.9365 4.2335
# 4 -6.6253 -14.8873 -7.8834 28.3758 4.6648 -7.5592
# 5 -29.2548 8.0533 -8.9365 4.6648 51.4601 2.4882
# 6 26.1611 17.0277 4.2335 -7.5592 2.4882 36.2175
#
#
#
# Elastic Compliance Matrix: (Units=1/GPa)
#
#
# Indices 1 2 3 4 5 6 
#
# 1 0.015407 -0.006628 -0.002928 -0.004868 0.010183 -0.009386
# 2 -0.006628 0.017515 -0.001407 0.008192 -0.007444 -0.001062
# 3 -0.002928 -0.001407 0.008097 0.001446 -0.000273 0.002151
# 4 -0.004868 0.008192 0.001446 0.042510 -0.008083 0.008924
# 5 0.010183 -0.007444 -0.000273 -0.008083 0.027429 -0.007395
# 6 -0.009386 -0.001062 0.002151 0.008924 -0.007395 0.037009
#
#
# Mechanical properties :
#
#
# Convention : Reuss Voigt Hill
#
# Bulk Modulus (GPa) = 52.37313 66.23994 59.30653
# Shear Modulus (GPa) = 28.36738 39.15593 33.76166
#
# Velocity S-wave (km/s) = 3.37146 3.96102 3.67807
# Velocity P-wave (km/s) = 6.01177 6.88924 6.46541
#
# Compressibility (1/GPa) = 0.01909376
#
# Stress axis : x y z
#
# Youngs Moduli (GPa) = 64.90537 57.09295 123.49968
#
# Poissons Ratio (x) = 0.37838 0.36166
# Poissons Ratio (y) = 0.43016 0.17376
# Poissons Ratio (z) = 0.19007 0.08033
#
# Static dielectric constant tensor:
#      x y z
#    x 2.161660 -0.076490 0.042960 
#    y -0.076490 2.067220 0.025340 
#    z 0.042960 0.025340 1.992550 
# 
# From -- ./inp_files/556692.got.cif
#   From: 2010.05.17/outbox.cif.g08.bks.cpg/sg2_279_cif.got.tgz:556692.got - 2010.06.03 11:33:40.
