data_PCOD9089174
_publ_section_title
;
Structure prediction by ZEFSAII (Michael W. Deem and Ramdas Pophale) SiO2 
 PCOD9089174
Probable space group: P -1
;
_chemical_formula_sum "Si O2"
_cell_formula_units_Z 16
_cell_length_a 9.814079
_cell_length_b 11.306617
_cell_length_c 7.370378
_cell_angle_alpha 123.963995
_cell_angle_beta 110.881218
_cell_angle_gamma 85.948323
_cell_volume 624.991925
_symmetry_space_group_name_H-M "P -1"
_symmetry_group_IT_number 2
_symmetry_cell_setting 'triclinic'
loop_
_space_group_symop_operation_xyz
x,y,z
-x,-y,-z
loop_
_atom_site_type_symbol
_atom_site_label
_atom_site_fract_x
_atom_site_fract_y
_atom_site_fract_z
Si Si1 0.858228 0.543169 0.867313
Si Si2 0.062922 0.903604 0.694191
Si Si3 0.177509 0.956887 0.420237
Si Si4 0.623194 0.168561 0.865052
Si Si5 0.837440 0.700237 0.630740
Si Si6 0.353483 0.097089 0.145298
Si Si7 0.167649 0.588900 0.616834
Si Si8 0.652123 0.743159 0.085593
O O1 0.887409 0.671950 0.838241
O O2 0.804656 0.411176 0.587682
O O3 0.737370 0.606763 0.986664
O O4 0.000000 0.500000 0.000000
O O5 0.091578 0.870595 0.470916
O O6 0.217295 0.983868 0.905977
O O7 0.980111 0.764183 0.636487
O O8 0.949242 0.016416 0.756446
O O9 0.237755 0.116742 0.666106
O O10 0.300231 0.881631 0.320328
O O11 0.559619 0.016162 0.810719
O O12 0.752715 0.272233 0.123001
O O13 0.491841 0.259904 0.862122
O O14 0.753338 0.545414 0.394491
O O15 0.721543 0.809045 0.667825
O O16 0.403134 0.208176 0.099499
O O17 0.000000 0.500000 0.500000
#
# Coordination Sequence:
#
# PCOD9089174 Si02
#       8
#     2   2   2   2   2   2   2   2
#     4   9  22  45  71  99 134 179 238 293 351 412
#     4  10  19  37  66 103 135 175 236 291 353 396
#     4  10  23  36  67 107 143 176 236 295 347 411
#     4  12  23  41  66 103 148 189 227 286 353 432
#     4   9  19  38  64 101 134 176 224 292 352 411
#     4  10  20  37  68  98 132 175 233 290 346 420
#     4  10  24  39  68 100 140 182 232 285 357 416
#     4  10  23  43  67 100 140 189 238 286 353 417
#
# _framework density 25.600331000000001
#
# number of rings (size 3 to 8) (size 9 to 14) (size 15 to 20)
#    0.750    1.250    1.250    1.875    1.750    3.500 
#    0.000    3.125    0.000    3.000    0.000    0.875 
#    0.000    0.000    0.000    0.000    0.000    0.000 
#
# Total GULP energy -89233.358566 kJ/mol
# GULP energy per Si atom -5577.084910 kJ/mol
# Density = 2.554206 g / cm^3
# Si number density = 25.600331 Si / 1000 Ang^3
#
#
#
# Elastic Constant Matrix: (Units=GPa)
#
#
# Indices 1 2 3 4 5 6 
#
# 1 110.5460 27.8544 31.7832 -3.3406 -34.6123 -39.5441
# 2 27.8544 79.6393 25.2705 8.0591 -3.5199 -11.4447
# 3 31.7832 25.2705 105.8608 5.0407 -8.5892 -13.3740
# 4 -3.3406 8.0591 5.0407 29.9420 1.4910 -5.7376
# 5 -34.6123 -3.5199 -8.5892 1.4910 39.0732 6.3544
# 6 -39.5441 -11.4447 -13.3740 -5.7376 6.3544 31.3267
#
#
#
# Elastic Compliance Matrix: (Units=1/GPa)
#
#
# Indices 1 2 3 4 5 6 
#
# 1 0.027925 -0.004804 -0.002346 0.009736 0.018451 0.030533
# 2 -0.004804 0.015056 -0.002411 -0.004378 -0.002971 -0.001792
# 3 -0.002346 -0.002411 0.010863 -0.001341 0.000056 0.000538
# 4 0.009736 -0.004378 -0.001341 0.038856 0.003774 0.016469
# 5 0.018451 -0.002971 0.000056 0.003774 0.039100 0.014989
# 6 0.030533 -0.001792 0.000538 0.016469 0.014989 0.070015
#
#
# Mechanical properties :
#
#
# Convention : Reuss Voigt Hill
#
# Bulk Modulus (GPa) = 28.80099 51.76247 40.28173
# Shear Modulus (GPa) = 21.50436 34.14424 27.82430
#
# Velocity S-wave (km/s) = 2.90143 3.65601 3.30035
# Velocity P-wave (km/s) = 4.74331 6.17132 5.50383
#
# Compressibility (1/GPa) = 0.03472103
#
# Stress axis : x y z
#
# Youngs Moduli (GPa) = 35.81069 66.41857 92.05858
#
# Poissons Ratio (x) = 0.31909 0.21599
# Poissons Ratio (y) = 0.17204 0.22193
# Poissons Ratio (z) = 0.08402 0.16012
#
# Static dielectric constant tensor:
#      x y z
#    x 2.158930 -0.112830 -0.090660 
#    y -0.112830 2.220130 -0.002300 
#    z -0.090660 -0.002300 2.086060 
# 
# From -- ./inp_files/190901.got.cif
#   From: 2010.05.17/outbox.cif.g08.bks.cpg/sg2_96_cif.got.tgz:190901.got - 2010.06.03 11:33:40.
