data_PCOD9089813
_publ_section_title
;
Structure prediction by ZEFSAII (Michael W. Deem and Ramdas Pophale) SiO2 
 PCOD9089813
Probable space group: P -1
;
_chemical_formula_sum "Si O2"
_cell_formula_units_Z 14
_cell_length_a 15.802567
_cell_length_b 24.864949
_cell_length_c 8.620960
_cell_angle_alpha 149.399078
_cell_angle_beta 130.895066
_cell_angle_gamma 26.972024
_cell_volume 683.105838
_symmetry_space_group_name_H-M "P -1"
_symmetry_group_IT_number 2
_symmetry_cell_setting 'triclinic'
loop_
_space_group_symop_operation_xyz
x,y,z
-x,-y,-z
loop_
_atom_site_type_symbol
_atom_site_label
_atom_site_fract_x
_atom_site_fract_y
_atom_site_fract_z
Si Si1 0.816688 0.010266 0.398094
Si Si2 0.953554 0.628452 0.388234
Si Si3 0.214384 0.628119 0.717718
Si Si4 0.046955 0.921228 0.032096
Si Si5 0.262809 0.169199 0.070635
Si Si6 0.578869 0.241889 0.386159
Si Si7 0.509994 0.926880 0.173135
O O1 0.865136 0.051819 0.695535
O O2 0.626013 0.200988 0.526899
O O3 0.775113 0.925982 0.202797
O O4 0.033353 0.827931 0.103998
O O5 0.910291 0.638155 0.543227
O O6 0.127081 0.580900 0.462491
O O7 0.724692 0.863665 0.658541
O O8 0.000000 0.500000 0.000000
O O9 0.424684 0.449917 0.633851
O O10 0.210215 0.696204 0.720410
O O11 0.813953 0.067529 0.166967
O O12 0.000000 0.000000 0.000000
O O13 0.296285 0.185102 0.977074
O O14 0.500000 0.000000 0.000000
O O15 0.481945 0.205547 0.136460
O O16 0.500000 0.000000 0.500000
#
# Coordination Sequence:
#
# PCOD9089813 Si02
#       7
#     2   2   2   2   2   2   2
#     4  10  21  41  67  88 126 167 210 269 317 385
#     4  10  19  38  61  93 134 168 208 271 319 381
#     4  10  21  41  64  92 125 165 216 260 321 389
#     4  11  25  42  63  90 127 166 214 271 322 378
#     4   9  18  38  63  90 128 165 213 257 319 388
#     4  11  21  41  65  91 124 169 213 261 327 385
#     4  11  21  36  66  94 128 177 212 263 327 381
#
# _framework density 20.494627999999999
#
# number of rings (size 3 to 8) (size 9 to 14) (size 15 to 20)
#    0.000    1.714    5.714    2.571    2.000    2.857 
#    0.000    7.857    0.000    0.000    0.000    0.000 
#    0.000    0.000    0.000    0.000    0.000    0.000 
#
# Total GULP energy -77997.589831 kJ/mol
# GULP energy per Si atom -5571.256416 kJ/mol
# Density = 2.044798 g / cm^3
# Si number density = 20.494628 Si / 1000 Ang^3
#
#
#
# Elastic Constant Matrix: (Units=GPa)
#
#
# Indices 1 2 3 4 5 6 
#
# 1 134.6212 42.3118 43.2126 -13.1687 2.9234 23.9955
# 2 42.3118 76.7701 19.6716 12.3345 19.0210 75.3548
# 3 43.2126 19.6716 68.6121 -7.3527 8.9266 44.6523
# 4 -13.1687 12.3345 -7.3527 54.0297 6.4762 -3.0246
# 5 2.9234 19.0210 8.9266 6.4762 13.7447 -6.3231
# 6 23.9955 75.3548 44.6523 -3.0246 -6.3231 -7.9605
#
#
#
# Elastic Compliance Matrix: (Units=1/GPa)
#
#
# Indices 1 2 3 4 5 6 
#
# 1 0.009755 -0.001487 -0.003249 0.002142 -0.000457 -0.003349
# 2 -0.001487 0.006157 -0.007700 -0.002569 0.002444 0.009646
# 3 -0.003249 -0.007700 0.015993 0.003213 0.001551 0.004576
# 4 0.002142 -0.002569 0.003213 0.021125 -0.009199 -0.000560
# 5 -0.000457 0.002444 0.001551 -0.009199 0.064756 -0.017479
# 6 -0.003349 0.009646 0.004576 -0.000560 -0.017479 -0.004638
#
#
# Mechanical properties :
#
#
# Convention : Reuss Voigt Hill
#
# Bulk Modulus (GPa) = 142.17804 54.48839 98.33322
# Shear Modulus (GPa) = 35.62161 23.61660 29.61911
#
# Velocity S-wave (km/s) = 4.17357 3.39828 3.80572
# Velocity P-wave (km/s) = 9.63062 6.48399 8.20948
#
# Compressibility (1/GPa) = 0.00703343
#
# Stress axis : x y z
#
# Youngs Moduli (GPa) = 102.51107 162.41097 62.52865
#
# Poissons Ratio (x) = 0.24159 0.20313
# Poissons Ratio (y) = 0.15248 0.48145
# Poissons Ratio (z) = 0.33302 1.25051
#
# Static dielectric constant tensor:
#      x y z
#    x 1.854050 0.128420 -0.002530 
#    y 0.128420 1.834260 -0.018920 
#    z -0.002530 -0.018920 1.781570 
# 
# From -- ./inp_files/320243.got.cif
#   From: 2010.05.17/outbox.cif.g08.bks.cpg/sg2_161_cif.got.tgz:320243.got - 2010.06.03 11:33:40.
