data_PCOD9089974
_publ_section_title
;
Structure prediction by ZEFSAII (Michael W. Deem and Ramdas Pophale) SiO2 
 PCOD9089974
Probable space group: P -1
;
_chemical_formula_sum "Si O2"
_cell_formula_units_Z 14
_cell_length_a 9.930500
_cell_length_b 14.746855
_cell_length_c 7.149931
_cell_angle_alpha 41.924327
_cell_angle_beta 105.090536
_cell_angle_gamma 128.655878
_cell_volume 502.651903
_symmetry_space_group_name_H-M "P -1"
_symmetry_group_IT_number 2
_symmetry_cell_setting 'triclinic'
loop_
_space_group_symop_operation_xyz
x,y,z
-x,-y,-z
loop_
_atom_site_type_symbol
_atom_site_label
_atom_site_fract_x
_atom_site_fract_y
_atom_site_fract_z
Si Si1 0.529700 0.751754 0.118934
Si Si2 0.804618 0.614320 0.613563
Si Si3 0.810894 0.257506 0.521179
Si Si4 0.713960 0.146241 0.226376
Si Si5 0.881069 0.850980 0.965668
Si Si6 0.710766 0.942946 0.244974
Si Si7 0.154961 0.416187 0.902771
O O1 0.392982 0.550716 0.293021
O O2 0.728102 0.868933 0.900037
O O3 0.410959 0.810945 0.956377
O O4 0.581817 0.769786 0.328946
O O5 0.892444 0.801669 0.257283
O O6 0.963532 0.605948 0.633773
O O7 0.789402 0.605220 0.842791
O O8 0.731817 0.176902 0.408813
O O9 0.747665 0.099546 0.884101
O O10 0.771238 0.382001 0.391602
O O11 0.635887 0.958993 0.384505
O O12 0.928790 0.284821 0.021065
O O13 0.800668 0.669022 0.102033
O O14 0.090472 0.001970 0.730841
#
# Coordination Sequence:
#
# PCOD9089974 Si02
#       7
#     2   2   2   2   2   2   2
#     4  12  21  39  57  86 119 143 184 238 275 327
#     4  10  20  38  60  85 111 145 190 234 274 324
#     4  10  19  38  63  83 109 147 189 231 277 331
#     4  10  20  38  60  85 111 145 190 234 274 324
#     4  10  24  38  59  81 114 155 185 221 282 337
#     4  10  24  38  59  81 114 155 185 221 282 337
#     4  10  19  38  63  83 109 147 189 231 277 331
#
# _framework density 27.852277999999998
#
# number of rings (size 3 to 8) (size 9 to 14) (size 15 to 20)
#    0.000    1.714    2.857    2.143    2.000    2.857 
#    0.000    1.429    0.000    6.857    0.000    0.000 
#    0.000    0.000    0.000    0.000    0.000    0.000 
#
# Total GULP energy -78499.864931 kJ/mol
# GULP energy per Si atom -5607.133209 kJ/mol
# Density = 2.778888 g / cm^3
# Si number density = 27.852278 Si / 1000 Ang^3
#
#
#
# Elastic Constant Matrix: (Units=GPa)
#
#
# Indices 1 2 3 4 5 6 
#
# 1 203.0916 86.2815 21.6109 6.8721 -8.0733 -6.9042
# 2 86.2815 174.4694 17.5603 5.2957 10.4273 7.6201
# 3 21.6109 17.5603 53.5018 10.4840 8.6516 4.9367
# 4 6.8721 5.2957 10.4840 43.7969 2.8590 3.4971
# 5 -8.0733 10.4273 8.6516 2.8590 33.9769 -4.9643
# 6 -6.9042 7.6201 4.9367 3.4971 -4.9643 56.5144
#
#
#
# Elastic Compliance Matrix: (Units=1/GPa)
#
#
# Indices 1 2 3 4 5 6 
#
# 1 0.006849 -0.003436 -0.002291 -0.000492 0.003576 0.001845
# 2 -0.003436 0.007750 -0.000472 0.000070 -0.003332 -0.001721
# 3 -0.002291 -0.000472 0.021778 -0.004219 -0.005937 -0.002379
# 4 -0.000492 0.000070 -0.004219 0.024099 -0.001282 -0.001305
# 5 0.003576 -0.003332 -0.005937 -0.001282 0.033571 0.004433
# 6 0.001845 -0.001721 -0.002379 -0.001305 0.004433 0.018830
#
#
# Mechanical properties :
#
#
# Convention : Reuss Voigt Hill
#
# Bulk Modulus (GPa) = 41.70277 75.77426 58.73851
# Shear Modulus (GPa) = 37.51832 47.23164 42.37498
#
# Velocity S-wave (km/s) = 3.67420 4.12247 3.90477
# Velocity P-wave (km/s) = 5.74499 7.06572 6.43931
#
# Compressibility (1/GPa) = 0.02397922
#
# Stress axis : x y z
#
# Youngs Moduli (GPa) = 146.01085 129.02455 45.91867
#
# Poissons Ratio (x) = 0.44330 0.10519
# Poissons Ratio (y) = 0.50166 0.02168
# Poissons Ratio (z) = 0.33449 0.06092
#
# Static dielectric constant tensor:
#      x y z
#    x 2.124580 0.004800 0.001410 
#    y 0.004800 2.179300 -0.031060 
#    z 0.001410 -0.031060 2.183010 
# 
# From -- ./inp_files/195289.got.cif
#   From: 2010.05.17/outbox.cif.g08.bks.cpg/sg2_98_cif.got.tgz:195289.got - 2010.06.03 11:33:40.
