data_PCOD9089425
_publ_section_title
;
Structure prediction by ZEFSAII (Michael W. Deem and Ramdas Pophale) SiO2 
 PCOD9089425
Probable space group: P -1
;
_chemical_formula_sum "Si O2"
_cell_formula_units_Z 16
_cell_length_a 18.200116
_cell_length_b 10.322052
_cell_length_c 7.806736
_cell_angle_alpha 133.355848
_cell_angle_beta 100.348824
_cell_angle_gamma 47.665052
_cell_volume 670.427742
_symmetry_space_group_name_H-M "P -1"
_symmetry_group_IT_number 2
_symmetry_cell_setting 'triclinic'
loop_
_space_group_symop_operation_xyz
x,y,z
-x,-y,-z
loop_
_atom_site_type_symbol
_atom_site_label
_atom_site_fract_x
_atom_site_fract_y
_atom_site_fract_z
Si Si1 0.769763 0.590133 0.011401
Si Si2 0.029355 0.374413 0.088912
Si Si3 0.127340 0.547449 0.433299
Si Si4 0.346428 0.958851 0.116729
Si Si5 0.865771 0.123812 0.873341
Si Si6 0.426311 0.266754 0.094758
Si Si7 0.213847 0.102162 0.509719
Si Si8 0.248594 0.791008 0.745503
O O1 0.842602 0.433391 0.725330
O O2 0.833544 0.363885 0.981975
O O3 0.646041 0.720876 0.056072
O O4 0.756490 0.828415 0.251436
O O5 0.125654 0.047133 0.828510
O O6 0.088314 0.416514 0.265726
O O7 0.000000 0.500000 0.000000
O O8 0.904571 0.578097 0.309384
O O9 0.253257 0.291302 0.344796
O O10 0.005341 0.856502 0.723916
O O11 0.317936 0.941139 0.277073
O O12 0.478877 0.776250 0.986367
O O13 0.312963 0.856715 0.885405
O O14 0.826069 0.030772 0.645515
O O15 0.793081 0.226431 0.110995
O O16 0.335121 0.532807 0.420922
O O17 0.500000 0.000000 0.000000
#
# Coordination Sequence:
#
# PCOD9089425 Si02
#       8
#     2   2   2   2   2   2   2   2
#     4  12  25  40  68 100 137 182 221 278 333 402
#     4  10  19  37  73 103 134 173 212 280 343 409
#     4  10  20  39  69 101 136 171 217 275 349 398
#     4  10  22  47  69  94 130 183 226 278 331 401
#     4  10  24  43  69 107 136 170 224 280 347 415
#     4  12  27  45  65  94 135 183 236 277 325 397
#     4  10  23  43  68 102 139 171 218 277 350 396
#     4  10  24  45  70  99 132 179 229 279 339 403
#
# _framework density 23.865362000000001
#
# number of rings (size 3 to 8) (size 9 to 14) (size 15 to 20)
#    0.000    1.500    2.500    1.500    5.250    4.500 
#    2.250    3.125    0.000    0.000    0.000    0.000 
#    0.000    0.000    0.000    0.000    0.000    0.000 
#
# Total GULP energy -89381.090753 kJ/mol
# GULP energy per Si atom -5586.318172 kJ/mol
# Density = 2.381104 g / cm^3
# Si number density = 23.865362 Si / 1000 Ang^3
#
#
#
# Elastic Constant Matrix: (Units=GPa)
#
#
# Indices 1 2 3 4 5 6 
#
# 1 123.8099 -14.0041 42.2316 -6.1366 -2.3850 -16.7458
# 2 -14.0041 20.2835 6.8882 3.9461 8.5307 5.2820
# 3 42.2316 6.8882 108.6743 -3.8538 -3.1527 -6.3595
# 4 -6.1366 3.9461 -3.8538 26.0329 -1.5605 -0.6075
# 5 -2.3850 8.5307 -3.1527 -1.5605 48.5924 -2.3153
# 6 -16.7458 5.2820 -6.3595 -0.6075 -2.3153 35.0153
#
#
#
# Elastic Compliance Matrix: (Units=1/GPa)
#
#
# Indices 1 2 3 4 5 6 
#
# 1 0.011103 0.008838 -0.004709 0.000583 -0.001148 0.003056
# 2 0.008838 0.068215 -0.009018 -0.010568 -0.012882 -0.008736
# 3 -0.004709 -0.009018 0.011830 0.002177 0.002258 0.001444
# 4 0.000583 -0.010568 0.002177 0.040758 0.003487 0.003206
# 5 -0.001148 -0.012882 0.002258 0.003487 0.023205 0.003399
# 6 0.003056 -0.008736 0.001444 0.003206 0.003399 0.031881
#
#
# Mechanical properties :
#
#
# Convention : Reuss Voigt Hill
#
# Bulk Modulus (GPa) = 12.28937 35.88879 24.08908
# Shear Modulus (GPa) = 22.33212 36.43825 29.38518
#
# Velocity S-wave (km/s) = 3.06233 3.91170 3.51278
# Velocity P-wave (km/s) = 4.20291 5.95588 5.15446
#
# Compressibility (1/GPa) = 0.08137114
#
# Stress axis : x y z
#
# Youngs Moduli (GPa) = 90.06758 14.65958 84.52751
#
# Poissons Ratio (x) = -0.12956 0.39801
# Poissons Ratio (y) = -0.79604 0.76227
# Poissons Ratio (z) = 0.42410 0.13220
#
# Static dielectric constant tensor:
#      x y z
#    x 1.963470 0.000250 0.042920 
#    y 0.000250 2.010260 -0.049540 
#    z 0.042920 -0.049540 1.961770 
# 
# From -- ./inp_files/333916.got.cif
#   From: 2010.05.17/outbox.cif.g08.bks.cpg/sg2_167_cif.got.tgz:333916.got - 2010.06.03 11:33:40.
