data_PCOD9089125
_publ_section_title
;
Structure prediction by ZEFSAII (Michael W. Deem and Ramdas Pophale) SiO2 
 PCOD9089125
Probable space group: P -1
;
_chemical_formula_sum "Si O2"
_cell_formula_units_Z 12
_cell_length_a 11.677220
_cell_length_b 9.313845
_cell_length_c 11.212062
_cell_angle_alpha 141.657576
_cell_angle_beta 52.232270
_cell_angle_gamma 132.975217
_cell_volume 545.284906
_symmetry_space_group_name_H-M "P -1"
_symmetry_group_IT_number 2
_symmetry_cell_setting 'triclinic'
loop_
_space_group_symop_operation_xyz
x,y,z
-x,-y,-z
loop_
_atom_site_type_symbol
_atom_site_label
_atom_site_fract_x
_atom_site_fract_y
_atom_site_fract_z
Si Si1 0.868358 0.764612 0.697256
Si Si2 0.583197 0.659226 0.666392
Si Si3 0.734233 0.614056 0.190648
Si Si4 0.315261 0.452303 0.087179
Si Si5 0.161733 0.834135 0.425768
Si Si6 0.157581 0.808092 0.146479
O O1 0.729864 0.604504 0.587195
O O2 0.788352 0.707252 0.839702
O O3 0.025139 0.724538 0.541248
O O4 0.908142 0.055066 0.819230
O O5 0.500000 0.500000 0.500000
O O6 0.449555 0.574894 0.797374
O O7 0.665252 0.963457 0.796107
O O8 0.764018 0.865260 0.408019
O O9 0.758852 0.673254 0.073569
O O10 0.828117 0.448190 0.065776
O O11 0.288818 0.712699 0.276597
O O12 0.500000 0.500000 0.000000
O O13 0.085942 0.775298 0.303536
#
# Coordination Sequence:
#
# PCOD9089125 Si02
#       6
#     2   2   2   2   2   2
#     4  10  22  41  63  95 129 165 205 263 317 364
#     4  10  19  37  65  93 121 166 210 255 304 369
#     4  11  21  40  63  93 125 167 210 256 311 374
#     4  11  23  43  65  89 129 168 210 260 308 375
#     4  11  23  40  66  93 130 163 209 260 317 373
#     4   9  21  37  66  87 130 157 212 258 307 360
#
# _framework density 22.006844000000001
#
# number of rings (size 3 to 8) (size 9 to 14) (size 15 to 20)
#    1.000    0.667    3.333    1.500    0.000    2.000 
#    0.000    3.333    0.000    0.000    0.000    0.000 
#    0.000    0.000    0.000    0.000    0.000    0.000 
#
# Total GULP energy -66941.197263 kJ/mol
# GULP energy per Si atom -5578.433105 kJ/mol
# Density = 2.195676 g / cm^3
# Si number density = 22.006844 Si / 1000 Ang^3
#
#
#
# Elastic Constant Matrix: (Units=GPa)
#
#
# Indices 1 2 3 4 5 6 
#
# 1 86.1993 27.9224 50.6724 -3.7710 -5.2258 -13.0214
# 2 27.9224 100.8311 41.5804 -23.5168 -0.4576 -21.4680
# 3 50.6724 41.5804 141.0529 2.2081 -14.7550 -6.5710
# 4 -3.7710 -23.5168 2.2081 43.1890 3.4697 0.9712
# 5 -5.2258 -0.4576 -14.7550 3.4697 36.6780 -6.6881
# 6 -13.0214 -21.4680 -6.5710 0.9712 -6.6881 42.3203
#
#
#
# Elastic Compliance Matrix: (Units=1/GPa)
#
#
# Indices 1 2 3 4 5 6 
#
# 1 0.015552 -0.001356 -0.004959 0.000735 0.000760 0.003430
# 2 -0.001356 0.015200 -0.003960 0.008319 -0.001236 0.006292
# 3 -0.004959 -0.003960 0.010399 -0.003374 0.003512 -0.001288
# 4 0.000735 0.008319 -0.003374 0.028124 -0.003307 0.002754
# 5 0.000760 -0.001236 0.003512 -0.003307 0.029988 0.004967
# 6 0.003430 0.006292 -0.001288 0.002754 0.004967 0.028399
#
#
# Mechanical properties :
#
#
# Convention : Reuss Voigt Hill
#
# Bulk Modulus (GPa) = 48.54453 63.15931 55.85192
# Shear Modulus (GPa) = 32.24131 38.29800 35.26966
#
# Velocity S-wave (km/s) = 3.83176 4.17619 4.00768
# Velocity P-wave (km/s) = 6.45626 7.21223 6.84469
#
# Compressibility (1/GPa) = 0.02059964
#
# Stress axis : x y z
#
# Youngs Moduli (GPa) = 64.29966 65.78740 96.16611
#
# Poissons Ratio (x) = 0.08924 0.47692
# Poissons Ratio (y) = 0.08722 0.38082
# Poissons Ratio (z) = 0.31889 0.26052
#
# Static dielectric constant tensor:
#      x y z
#    x 1.854560 0.021730 -0.005530 
#    y 0.021730 1.870120 -0.021910 
#    z -0.005530 -0.021910 1.784060 
# 
# From -- ./inp_files/517314.got.cif
#   From: 2010.05.17/outbox.cif.g08.bks.cpg/sg2_259_cif.got.tgz:517314.got - 2010.06.03 11:33:40.
