data_PCOD9089558
_publ_section_title
;
Structure prediction by ZEFSAII (Michael W. Deem and Ramdas Pophale) SiO2 
 PCOD9089558
Probable space group: P -1
;
_chemical_formula_sum "Si O2"
_cell_formula_units_Z 12
_cell_length_a 10.755501
_cell_length_b 5.506397
_cell_length_c 9.869023
_cell_angle_alpha 94.380466
_cell_angle_beta 67.069646
_cell_angle_gamma 125.297173
_cell_volume 430.651981
_symmetry_space_group_name_H-M "P -1"
_symmetry_group_IT_number 2
_symmetry_cell_setting 'triclinic'
loop_
_space_group_symop_operation_xyz
x,y,z
-x,-y,-z
loop_
_atom_site_type_symbol
_atom_site_label
_atom_site_fract_x
_atom_site_fract_y
_atom_site_fract_z
Si Si1 0.311992 0.762113 0.016944
Si Si2 0.959545 0.183171 0.827331
Si Si3 0.802517 0.919357 0.589298
Si Si4 0.581128 0.477995 0.264100
Si Si5 0.404045 0.680145 0.453895
Si Si6 0.980698 0.259987 0.256039
O O1 0.209302 0.899615 0.031926
O O2 0.183265 0.516765 0.174355
O O3 0.320131 0.569514 0.888111
O O4 0.500000 0.000000 0.000000
O O5 0.075260 0.548947 0.783950
O O6 0.897955 0.061319 0.694252
O O7 0.040889 0.016055 0.827778
O O8 0.614671 0.828200 0.676005
O O9 0.765081 0.590543 0.562554
O O10 0.892985 0.140874 0.432821
O O11 0.541452 0.723855 0.289197
O O12 0.633331 0.509607 0.399079
O O13 0.500000 0.000000 0.500000
#
# Coordination Sequence:
#
# PCOD9089558 Si02
#       6
#     2   2   2   2   2   2
#     4  10  20  37  59  85 120 152 187 239 296 348
#     4  10  22  37  59  90 118 152 190 235 295 349
#     4  10  19  38  59  85 115 154 195 240 287 341
#     4   9  19  38  55  86 112 146 199 238 284 339
#     4   9  20  35  60  86 109 153 200 242 280 335
#     4  10  23  37  57  90 123 151 190 234 296 349
#
# _framework density 27.864730000000002
#
# number of rings (size 3 to 8) (size 9 to 14) (size 15 to 20)
#    2.000    0.333    1.667    1.000    0.000    6.000 
#    0.000    0.833    0.000    2.000    0.000    0.000 
#    0.000    0.000    0.000    0.000    0.000    0.000 
#
# Total GULP energy -66854.630712 kJ/mol
# GULP energy per Si atom -5571.219226 kJ/mol
# Density = 2.780131 g / cm^3
# Si number density = 27.864730 Si / 1000 Ang^3
#
#
#
# Elastic Constant Matrix: (Units=GPa)
#
#
# Indices 1 2 3 4 5 6 
#
# 1 68.8260 40.2198 27.1436 16.0582 -8.5944 -1.9142
# 2 40.2198 176.9095 61.4061 27.1328 -18.8961 -4.4335
# 3 27.1436 61.4061 151.6969 18.5451 -26.8904 13.0140
# 4 16.0582 27.1328 18.5451 59.0138 1.9604 -12.1103
# 5 -8.5944 -18.8961 -26.8904 1.9604 45.1501 16.6020
# 6 -1.9142 -4.4335 13.0140 -12.1103 16.6020 43.7485
#
#
#
# Elastic Compliance Matrix: (Units=1/GPa)
#
#
# Indices 1 2 3 4 5 6 
#
# 1 0.017690 -0.002923 -0.001169 -0.003332 0.001892 -0.000815
# 2 -0.002923 0.007484 -0.002019 -0.002030 0.001412 0.000133
# 3 -0.001169 -0.002019 0.010047 -0.003640 0.007714 -0.007180
# 4 -0.003332 -0.002030 -0.003640 0.022268 -0.008315 0.010051
# 5 0.001892 0.001412 0.007714 -0.008315 0.034472 -0.017452
# 6 -0.000815 0.000133 -0.007180 0.010051 -0.017452 0.034377
#
#
# Mechanical properties :
#
#
# Convention : Reuss Voigt Hill
#
# Bulk Modulus (GPa) = 43.48387 72.77459 58.12923
# Shear Modulus (GPa) = 34.19341 47.49333 40.84337
#
# Velocity S-wave (km/s) = 3.50683 4.13295 3.83269
# Velocity P-wave (km/s) = 5.66007 6.99634 6.36338
#
# Compressibility (1/GPa) = 0.02299703
#
# Stress axis : x y z
#
# Youngs Moduli (GPa) = 56.52987 133.62531 99.53065
#
# Poissons Ratio (x) = 0.39060 0.11640
# Poissons Ratio (y) = 0.16524 0.20097
# Poissons Ratio (z) = 0.06611 0.26981
#
# Static dielectric constant tensor:
#      x y z
#    x 2.344470 -0.169750 -0.113660 
#    y -0.169750 2.371690 -0.017710 
#    z -0.113660 -0.017710 2.121370 
# 
# From -- ./inp_files/407903.got.cif
#   From: 2010.05.17/outbox.cif.g08.bks.cpg/sg2_204_cif.got.tgz:407903.got - 2010.06.03 11:33:40.
