data_PCOD9089502
_publ_section_title
;
Structure prediction by ZEFSAII (Michael W. Deem and Ramdas Pophale) SiO2 
 PCOD9089502
Probable space group: P -1
;
_chemical_formula_sum "Si O2"
_cell_formula_units_Z 16
_cell_length_a 12.768113
_cell_length_b 12.826697
_cell_length_c 8.242716
_cell_angle_alpha 48.807785
_cell_angle_beta 50.104037
_cell_angle_gamma 58.599365
_cell_volume 767.903899
_symmetry_space_group_name_H-M "P -1"
_symmetry_group_IT_number 2
_symmetry_cell_setting 'triclinic'
loop_
_space_group_symop_operation_xyz
x,y,z
-x,-y,-z
loop_
_atom_site_type_symbol
_atom_site_label
_atom_site_fract_x
_atom_site_fract_y
_atom_site_fract_z
Si Si1 0.627491 0.285662 0.054579
Si Si2 0.883639 0.668080 0.155518
Si Si3 0.951816 0.591079 0.618376
Si Si4 0.307555 0.412403 0.291448
Si Si5 0.706811 0.868856 0.900154
Si Si6 0.063423 0.140164 0.815541
Si Si7 0.678742 0.998943 0.463116
Si Si8 0.433314 0.894207 0.973768
O O1 0.464367 0.339577 0.188902
O O2 0.639163 0.216271 0.936111
O O3 0.676910 0.160970 0.259288
O O4 0.698982 0.420544 0.861387
O O5 0.981333 0.516143 0.201953
O O6 0.757927 0.640215 0.426801
O O7 0.955743 0.778352 0.077313
O O8 0.818854 0.741950 0.982368
O O9 0.785736 0.615290 0.741748
O O10 0.990925 0.742688 0.387794
O O11 0.000000 0.500000 0.500000
O O12 0.749025 0.946219 0.618651
O O13 0.556033 0.829518 0.043242
O O14 0.670702 0.986096 0.955003
O O15 0.228180 0.090263 0.673721
O O16 0.000000 0.000000 0.000000
O O17 0.524894 0.965004 0.679311
#
# Coordination Sequence:
#
# PCOD9089502 Si02
#       8
#     2   2   2   2   2   2   2   2
#     4  11  19  31  58  84 111 139 181 243 266 333
#     4  10  19  38  58  72 115 153 178 224 282 326
#     4   8  18  35  54  75 109 144 178 225 271 324
#     4   9  20  32  55  85 107 141 189 222 286 322
#     4   9  20  35  54  81 110 154 177 219 283 343
#     4  10  20  33  59  84 103 139 196 236 263 319
#     4  10  20  31  57  81 113 134 187 230 279 313
#     4   9  18  34  55  80 114 145 183 222 282 322
#
# _framework density 20.835941999999999
#
# number of rings (size 3 to 8) (size 9 to 14) (size 15 to 20)
#    0.750    2.000    0.000    3.375    5.250    0.000 
#    0.000    1.875    0.000    0.000    0.000    0.000 
#    0.000    0.000    0.000    0.000    0.000    0.000 
#
# Total GULP energy -89186.456153 kJ/mol
# GULP energy per Si atom -5574.153510 kJ/mol
# Density = 2.078852 g / cm^3
# Si number density = 20.835942 Si / 1000 Ang^3
#
#
#
# Elastic Constant Matrix: (Units=GPa)
#
#
# Indices 1 2 3 4 5 6 
#
# 1 90.5674 24.8050 45.9824 -25.5383 30.4307 -13.6418
# 2 24.8050 72.9800 44.8367 -28.8160 9.8966 -6.8514
# 3 45.9824 44.8367 69.7897 -42.4814 13.8832 3.2288
# 4 -25.5383 -28.8160 -42.4814 46.4042 -9.5098 1.0140
# 5 30.4307 9.8966 13.8832 -9.5098 39.5050 -9.5308
# 6 -13.6418 -6.8514 3.2288 1.0140 -9.5308 33.4587
#
#
#
# Elastic Compliance Matrix: (Units=1/GPa)
#
#
# Indices 1 2 3 4 5 6 
#
# 1 0.023553 0.004502 -0.019272 -0.004408 -0.011316 0.009295
# 2 0.004502 0.024861 -0.019136 0.000025 -0.000911 0.008513
# 3 -0.019272 -0.019136 0.059925 0.033223 0.002253 -0.017924
# 4 -0.004408 0.000025 0.033223 0.050170 0.002381 -0.005840
# 5 -0.011316 -0.000911 0.002253 0.002381 0.035233 0.004946
# 6 0.009295 0.008513 -0.017924 -0.005840 0.004946 0.038736
#
#
# Mechanical properties :
#
#
# Convention : Reuss Voigt Hill
#
# Bulk Modulus (GPa) = 24.67524 51.62059 38.14791
# Shear Modulus (GPa) = 15.93375 31.72110 23.82743
#
# Velocity S-wave (km/s) = 2.76836 3.90606 3.38534
# Velocity P-wave (km/s) = 4.69966 6.72098 5.79907
#
# Compressibility (1/GPa) = 0.04052646
#
# Stress axis : x y z
#
# Youngs Moduli (GPa) = 42.45793 40.22312 16.68757
#
# Poissons Ratio (x) = -0.18108 0.32161
# Poissons Ratio (y) = -0.19114 0.31933
# Poissons Ratio (z) = 0.81826 0.76970
#
# Static dielectric constant tensor:
#      x y z
#    x 1.838300 -0.022290 0.012700 
#    y -0.022290 1.789140 -0.005040 
#    z 0.012700 -0.005040 1.744890 
# 
# From -- ./inp_files/256250.got.cif
#   From: 2010.05.17/outbox.cif.g08.bks.cpg/sg2_129_cif.got.tgz:256250.got - 2010.06.03 11:33:40.
