data_PCOD9089585
_publ_section_title
;
Structure prediction by ZEFSAII (Michael W. Deem and Ramdas Pophale) SiO2 
 PCOD9089585
Probable space group: P -1
;
_chemical_formula_sum "Si O2"
_cell_formula_units_Z 15
_cell_length_a 16.239639
_cell_length_b 8.153418
_cell_length_c 11.226763
_cell_angle_alpha 97.925275
_cell_angle_beta 47.481726
_cell_angle_gamma 58.416335
_cell_volume 580.187109
_symmetry_space_group_name_H-M "P -1"
_symmetry_group_IT_number 2
_symmetry_cell_setting 'triclinic'
loop_
_space_group_symop_operation_xyz
x,y,z
-x,-y,-z
loop_
_atom_site_type_symbol
_atom_site_label
_atom_site_fract_x
_atom_site_fract_y
_atom_site_fract_z
Si Si1 0.661435 0.449444 0.497533
Si Si2 0.755643 0.840806 0.991881
Si Si3 0.854105 0.524318 0.298759
Si Si4 0.500000 0.000000 0.500000
Si Si5 0.466632 0.377567 0.698988
Si Si6 0.831849 0.048448 0.787340
Si Si7 0.302728 0.580272 0.262689
Si Si8 0.518312 0.091149 0.830380
O O1 0.858733 0.318082 0.263651
O O2 0.618874 0.318787 0.479563
O O3 0.650427 0.434184 0.649364
O O4 0.457960 0.820523 0.706395
O O5 0.935621 0.642141 0.892867
O O6 0.812312 0.883500 0.828874
O O7 0.687178 0.746553 0.004063
O O8 0.715307 0.759522 0.347838
O O9 0.712940 0.729389 0.578051
O O10 0.592279 0.707291 0.328731
O O11 0.566326 0.181093 0.703013
O O12 0.266905 0.727263 0.981685
O O13 0.713901 0.252989 0.803067
O O14 0.070351 0.796683 0.511245
O O15 0.460119 0.242036 0.027130
#
# Coordination Sequence:
#
# PCOD9089585 Si02
#       8
#     2   2   2   1   2   2   2   2
#     4  10  21  39  63  86 125 157 201 243 292 350
#     4  10  20  38  58  89 126 158 195 250 286 344
#     4  10  21  42  61  89 121 155 199 253 295 358
#     4  10  22  44  66  84 116 152 198 252 326 348
#     4   9  20  41  61  88 116 152 201 253 293 360
#     4   9  19  36  59  89 119 159 203 229 286 352
#     4  10  19  38  59  88 126 167 195 236 285 353
#     4   9  21  38  57  90 130 158 200 236 290 349
#
# _framework density 25.853728
#
# number of rings (size 3 to 8) (size 9 to 14) (size 15 to 20)
#    0.000    2.400    1.333    0.000    0.000    8.000 
#   19.200    8.667    0.000    0.000    0.000    0.000 
#    0.000    0.000    0.000    0.000    0.000    0.000 
#
# Total GULP energy -83581.611899 kJ/mol
# GULP energy per Si atom -5572.107460 kJ/mol
# Density = 2.579488 g / cm^3
# Si number density = 25.853728 Si / 1000 Ang^3
#
#
#
# Elastic Constant Matrix: (Units=GPa)
#
#
# Indices 1 2 3 4 5 6 
#
# 1 149.3216 38.1289 34.1513 9.5158 -17.2374 -3.3820
# 2 38.1289 64.6128 22.2436 -3.0321 -12.0659 -13.4007
# 3 34.1513 22.2436 59.4168 -8.2474 -18.9460 -5.4351
# 4 9.5158 -3.0321 -8.2474 38.5081 -9.5770 -9.5723
# 5 -17.2374 -12.0659 -18.9460 -9.5770 39.6477 6.1343
# 6 -3.3820 -13.4007 -5.4351 -9.5723 6.1343 60.6787
#
#
#
# Elastic Compliance Matrix: (Units=1/GPa)
#
#
# Indices 1 2 3 4 5 6 
#
# 1 0.008973 -0.004340 -0.004253 -0.003867 -0.000164 -0.001433
# 2 -0.004340 0.020870 -0.003401 0.003839 0.003093 0.004356
# 3 -0.004253 -0.003401 0.025667 0.009535 0.011428 0.001660
# 4 -0.003867 0.003839 0.009535 0.033467 0.011257 0.005628
# 5 -0.000164 0.003093 0.011428 0.011257 0.034271 0.000009
# 6 -0.001433 0.004356 0.001660 0.005628 0.000009 0.018398
#
#
# Mechanical properties :
#
#
# Convention : Reuss Voigt Hill
#
# Bulk Modulus (GPa) = 31.72372 51.37764 41.55068
# Shear Modulus (GPa) = 28.38644 39.68872 34.03758
#
# Velocity S-wave (km/s) = 3.31715 3.92232 3.63236
# Velocity P-wave (km/s) = 5.19311 6.35833 5.80503
#
# Compressibility (1/GPa) = 0.03152215
#
# Stress axis : x y z
#
# Youngs Moduli (GPa) = 111.44686 47.91594 38.96048
#
# Poissons Ratio (x) = 0.20797 0.16569
# Poissons Ratio (y) = 0.48371 0.13250
# Poissons Ratio (z) = 0.47396 0.16295
#
# Static dielectric constant tensor:
#      x y z
#    x 2.064490 0.005700 0.001170 
#    y 0.005700 2.241900 -0.104960 
#    z 0.001170 -0.104960 2.080700 
# 
# From -- ./inp_files/446027.got.cif
#   From: 2010.05.17/outbox.cif.g08.bks.cpg/sg2_224_cif.got.tgz:446027.got - 2010.06.03 11:33:40.
