data_PCOD9089265
_publ_section_title
;
Structure prediction by ZEFSAII (Michael W. Deem and Ramdas Pophale) SiO2 
 PCOD9089265
Probable space group: P -1
;
_chemical_formula_sum "Si O2"
_cell_formula_units_Z 14
_cell_length_a 8.469861
_cell_length_b 8.939911
_cell_length_c 11.718049
_cell_angle_alpha 121.099560
_cell_angle_beta 120.633265
_cell_angle_gamma 102.263101
_cell_volume 499.291450
_symmetry_space_group_name_H-M "P -1"
_symmetry_group_IT_number 2
_symmetry_cell_setting 'triclinic'
loop_
_space_group_symop_operation_xyz
x,y,z
-x,-y,-z
loop_
_atom_site_type_symbol
_atom_site_label
_atom_site_fract_x
_atom_site_fract_y
_atom_site_fract_z
Si Si1 0.941461 0.860337 0.305340
Si Si2 0.090312 0.933292 0.109001
Si Si3 0.460841 0.935760 0.752871
Si Si4 0.934635 0.462195 0.780346
Si Si5 0.459785 0.185237 0.632627
Si Si6 0.789891 0.292331 0.220075
Si Si7 0.409826 0.347781 0.065034
O O1 0.925487 0.636375 0.211223
O O2 0.666959 0.742084 0.127123
O O3 0.207406 0.043587 0.417887
O O4 0.000000 0.000000 0.500000
O O5 0.870053 0.852202 0.079975
O O6 0.380697 0.121675 0.270993
O O7 0.041366 0.691118 0.982003
O O8 0.000000 0.000000 0.000000
O O9 0.219396 0.784044 0.684437
O O10 0.432266 0.044483 0.677062
O O11 0.639335 0.097104 0.988953
O O12 0.679007 0.265136 0.663646
O O13 0.956582 0.535318 0.684594
O O14 0.530330 0.422302 0.787663
O O15 0.625035 0.363926 0.196743
#
# Coordination Sequence:
#
# PCOD9089265 Si02
#       7
#     2   2   2   2   2   2   2
#     4  12  25  42  68 104 139 181 232 286 343 404
#     4  10  19  37  67 102 132 177 230 281 346 409
#     4  10  20  36  61  97 132 175 218 278 341 402
#     4  10  23  41  66  99 138 180 227 286 336 416
#     4  11  24  44  72 100 137 179 234 285 346 410
#     4  10  20  36  63  98 135 170 222 273 342 408
#     4  11  22  41  72 101 135 179 232 288 340 416
#
# _framework density 28.039733999999999
#
# number of rings (size 3 to 8) (size 9 to 14) (size 15 to 20)
#    0.000    1.429    1.429    4.714    0.000    5.714 
#    0.000    2.143    3.143    2.571    0.000    0.000 
#    0.000    0.000    0.000    0.000    0.000    0.000 
#
# Total GULP energy -77970.401473 kJ/mol
# GULP energy per Si atom -5569.314391 kJ/mol
# Density = 2.797591 g / cm^3
# Si number density = 28.039734 Si / 1000 Ang^3
#
#
#
# Elastic Constant Matrix: (Units=GPa)
#
#
# Indices 1 2 3 4 5 6 
#
# 1 168.7987 53.6080 -9.6640 9.0030 4.8340 35.4069
# 2 53.6080 93.4637 9.4613 9.6347 42.1087 22.1259
# 3 -9.6640 9.4613 76.3229 -0.5561 11.4435 -7.2881
# 4 9.0030 9.6347 -0.5561 11.5860 -3.1291 6.0557
# 5 4.8340 42.1087 11.4435 -3.1291 48.7669 21.1524
# 6 35.4069 22.1259 -7.2881 6.0557 21.1524 80.6934
#
#
#
# Elastic Compliance Matrix: (Units=1/GPa)
#
#
# Indices 1 2 3 4 5 6 
#
# 1 0.009048 -0.008524 0.000582 0.004509 0.008404 -0.004122
# 2 -0.008524 0.031046 -0.000101 -0.030185 -0.030220 0.005405
# 3 0.000582 -0.000101 0.014063 -0.002126 -0.004433 0.002364
# 4 0.004509 -0.030185 -0.002126 0.125928 0.040220 -0.013887
# 5 0.008404 -0.030220 -0.004433 0.040220 0.055146 -0.013275
# 6 -0.004122 0.005405 0.002364 -0.013887 -0.013275 0.017455
#
#
# Mechanical properties :
#
#
# Convention : Reuss Voigt Hill
#
# Bulk Modulus (GPa) = 26.26667 49.48845 37.87756
# Shear Modulus (GPa) = 17.76444 47.22124 32.49284
#
# Velocity S-wave (km/s) = 2.51976 4.10821 3.40783
# Velocity P-wave (km/s) = 4.22535 6.33963 5.38723
#
# Compressibility (1/GPa) = 0.03807106
#
# Stress axis : x y z
#
# Youngs Moduli (GPa) = 110.52231 32.21048 71.10758
#
# Poissons Ratio (x) = 0.27456 -0.04135
# Poissons Ratio (y) = 0.94208 0.00715
# Poissons Ratio (z) = -0.06427 0.00324
#
# Static dielectric constant tensor:
#      x y z
#    x 2.288910 0.206640 -0.025820 
#    y 0.206640 2.629460 0.015200 
#    z -0.025820 0.015200 2.333770 
# 
# From -- ./inp_files/383325.got.cif
#   From: 2010.05.17/outbox.cif.g08.bks.cpg/sg2_192_cif.got.tgz:383325.got - 2010.06.03 11:33:40.
