data_PCOD9089568
_publ_section_title
;
Structure prediction by ZEFSAII (Michael W. Deem and Ramdas Pophale) SiO2 
 PCOD9089568
Probable space group: P -1
;
_chemical_formula_sum "Si O2"
_cell_formula_units_Z 16
_cell_length_a 7.740764
_cell_length_b 19.676736
_cell_length_c 11.768656
_cell_angle_alpha 46.524874
_cell_angle_beta 110.817109
_cell_angle_gamma 71.508131
_cell_volume 681.620994
_symmetry_space_group_name_H-M "P -1"
_symmetry_group_IT_number 2
_symmetry_cell_setting 'triclinic'
loop_
_space_group_symop_operation_xyz
x,y,z
-x,-y,-z
loop_
_atom_site_type_symbol
_atom_site_label
_atom_site_fract_x
_atom_site_fract_y
_atom_site_fract_z
Si Si1 0.872952 0.817551 0.236177
Si Si2 0.222927 0.942138 0.015105
Si Si3 0.220007 0.659048 0.119693
Si Si4 0.358535 0.934634 0.825098
Si Si5 0.385467 0.676884 0.348482
Si Si6 0.956488 0.277051 0.245281
Si Si7 0.728120 0.601970 0.220140
Si Si8 0.802930 0.457321 0.196422
O O1 0.202392 0.723249 0.365972
O O2 0.016138 0.701647 0.508910
O O3 0.663815 0.001295 0.991769
O O4 0.685676 0.830079 0.089888
O O5 0.106114 0.007658 0.782635
O O6 0.462868 0.753295 0.274885
O O7 0.000000 0.000000 0.000000
O O8 0.127846 0.761553 0.088555
O O9 0.312512 0.521177 0.357033
O O10 0.528792 0.591730 0.223557
O O11 0.020009 0.723691 0.884577
O O12 0.476315 0.795725 0.940944
O O13 0.209784 0.088471 0.554747
O O14 0.961572 0.373326 0.205555
O O15 0.592246 0.392735 0.064464
O O16 0.843437 0.531655 0.199640
O O17 0.000000 0.500000 0.500000
#
# Coordination Sequence:
#
# PCOD9089568 Si02
#       8
#     2   2   2   2   2   2   2   2
#     4  11  20  37  61  90 120 157 205 254 302 352
#     4  10  22  34  58  93 120 153 205 255 299 357
#     4  10  20  36  61  85 117 163 208 245 306 365
#     4  12  22  37  63  96 122 157 204 260 305 354
#     4  10  19  38  59  87 114 160 208 255 291 366
#     4  10  22  37  58  90 123 165 198 254 309 369
#     4  11  20  35  58  94 123 153 204 256 300 350
#     4  10  20  36  57  87 127 156 199 247 306 359
#
# _framework density 23.473455000000001
#
# number of rings (size 3 to 8) (size 9 to 14) (size 15 to 20)
#    0.000    1.500    6.250    0.375    0.000    2.000 
#    0.000    0.625    0.000    0.750    6.500    0.000 
#    0.000    0.000    0.000    0.000    0.000    0.000 
#
# Total GULP energy -89117.977127 kJ/mol
# GULP energy per Si atom -5569.873570 kJ/mol
# Density = 2.342003 g / cm^3
# Si number density = 23.473455 Si / 1000 Ang^3
#
#
#
# Elastic Constant Matrix: (Units=GPa)
#
#
# Indices 1 2 3 4 5 6 
#
# 1 40.5962 21.8742 8.4391 -5.0588 -17.0987 17.9179
# 2 21.8742 161.9929 35.4331 -11.9432 -22.6164 19.6964
# 3 8.4391 35.4331 86.3214 -8.1496 -12.2056 9.2264
# 4 -5.0588 -11.9432 -8.1496 37.8833 2.3822 -15.9448
# 5 -17.0987 -22.6164 -12.2056 2.3822 28.8326 -6.1138
# 6 17.9179 19.6964 9.2264 -15.9448 -6.1138 36.1527
#
#
#
# Elastic Compliance Matrix: (Units=1/GPa)
#
#
# Indices 1 2 3 4 5 6 
#
# 1 0.041190 -0.000937 0.000867 -0.003572 0.020487 -0.018236
# 2 -0.000937 0.007650 -0.002188 0.000645 0.004002 -0.002183
# 3 0.000867 -0.002188 0.013242 0.001481 0.004008 -0.001286
# 4 -0.003572 0.000645 0.001481 0.033003 -0.000420 0.015526
# 5 0.020487 0.004002 0.004008 -0.000420 0.050648 -0.004977
# 6 -0.018236 -0.002183 -0.001286 0.015526 -0.004977 0.044222
#
#
# Mechanical properties :
#
#
# Convention : Reuss Voigt Hill
#
# Bulk Modulus (GPa) = 17.37183 46.71148 32.04165
# Shear Modulus (GPa) = 23.40144 35.45133 29.42638
#
# Velocity S-wave (km/s) = 3.16085 3.89044 3.54447
# Velocity P-wave (km/s) = 4.55390 6.33432 5.51641
#
# Compressibility (1/GPa) = 0.05756446
#
# Stress axis : x y z
#
# Youngs Moduli (GPa) = 24.27746 130.71599 75.51627
#
# Poissons Ratio (x) = 0.12253 -0.06544
# Poissons Ratio (y) = 0.02276 0.16526
# Poissons Ratio (z) = -0.02104 0.28606
#
# Static dielectric constant tensor:
#      x y z
#    x 1.957580 -0.074330 0.074750 
#    y -0.074330 2.061950 -0.027810 
#    z 0.074750 -0.027810 1.890000 
# 
# From -- ./inp_files/401956.got.cif
#   From: 2010.05.17/outbox.cif.g08.bks.cpg/sg2_201_cif.got.tgz:401956.got - 2010.06.03 11:33:40.
