data_PCOD9089314
_publ_section_title
;
Structure prediction by ZEFSAII (Michael W. Deem and Ramdas Pophale) SiO2 
 PCOD9089314
Probable space group: P -1
;
_chemical_formula_sum "Si O2"
_cell_formula_units_Z 12
_cell_length_a 15.043558
_cell_length_b 8.918012
_cell_length_c 17.413146
_cell_angle_alpha 47.551266
_cell_angle_beta 15.588968
_cell_angle_gamma 53.734431
_cell_volume 442.568645
_symmetry_space_group_name_H-M "P -1"
_symmetry_group_IT_number 2
_symmetry_cell_setting 'triclinic'
loop_
_space_group_symop_operation_xyz
x,y,z
-x,-y,-z
loop_
_atom_site_type_symbol
_atom_site_label
_atom_site_fract_x
_atom_site_fract_y
_atom_site_fract_z
Si Si1 0.087160 0.512019 0.234834
Si Si2 0.667127 0.852768 0.283241
Si Si3 0.914693 0.107661 0.609718
Si Si4 0.306593 0.505435 0.799733
Si Si5 0.388954 0.226112 0.409665
Si Si6 0.806239 0.203854 0.432843
O O1 0.053614 0.358421 0.389434
O O2 0.848812 0.348444 0.425694
O O3 0.373873 0.696459 0.739831
O O4 0.434038 0.622341 0.861167
O O5 0.616981 0.624321 0.441915
O O6 0.566783 0.814075 0.289363
O O7 0.387099 0.985378 0.484572
O O8 0.000000 0.000000 0.000000
O O9 0.000000 0.000000 0.500000
O O10 0.131843 0.021405 0.521231
O O11 0.500000 0.000000 0.000000
O O12 0.944896 0.705073 0.312319
O O13 0.000000 0.500000 0.000000
O O14 0.136679 0.314315 0.066030
#
# Coordination Sequence:
#
# PCOD9089314 Si02
#       6
#     2   2   2   2   2   2
#     4  10  21  40  65  93 125 166 215 268 323 386
#     4  11  23  40  63  96 134 174 217 270 330 390
#     4  10  19  37  67  98 125 163 218 276 325 382
#     4   9  19  37  60  85 119 166 218 262 309 375
#     4  11  22  39  62  93 131 167 208 269 329 383
#     4   9  21  41  66  95 128 172 223 269 321 394
#
# _framework density 27.114438
#
# number of rings (size 3 to 8) (size 9 to 14) (size 15 to 20)
#    0.000    2.000    0.000    4.500    0.000    1.333 
#    0.000   22.500    0.000    0.000    0.000    5.833 
#    0.000    0.000    0.000    0.000    0.000    0.000 
#
# Total GULP energy -66899.715126 kJ/mol
# GULP energy per Si atom -5574.976260 kJ/mol
# Density = 2.705272 g / cm^3
# Si number density = 27.114438 Si / 1000 Ang^3
#
#
#
# Elastic Constant Matrix: (Units=GPa)
#
#
# Indices 1 2 3 4 5 6 
#
# 1 81.7858 21.6461 33.1557 -17.5193 4.5547 -31.1018
# 2 21.6461 120.9168 9.6438 -21.7662 11.6304 -30.4492
# 3 33.1557 9.6438 123.6217 5.9154 17.4549 -14.4319
# 4 -17.5193 -21.7662 5.9154 54.7473 4.6104 13.1741
# 5 4.5547 11.6304 17.4549 4.6104 48.7477 -12.1869
# 6 -31.1018 -30.4492 -14.4319 13.1741 -12.1869 50.5387
#
#
#
# Elastic Compliance Matrix: (Units=1/GPa)
#
#
# Indices 1 2 3 4 5 6 
#
# 1 0.018272 -0.000033 -0.004236 0.003866 0.001813 0.009444
# 2 -0.000033 0.010214 -0.000150 0.002991 -0.001421 0.004968
# 3 -0.004236 -0.000150 0.009744 -0.002222 -0.002853 -0.000024
# 4 0.003866 0.002991 -0.002222 0.021889 -0.003074 -0.002901
# 5 0.001813 -0.001421 -0.002853 -0.003074 0.023472 0.005907
# 6 0.009444 0.004968 -0.000024 -0.002901 0.005907 0.030766
#
#
# Mechanical properties :
#
#
# Convention : Reuss Voigt Hill
#
# Bulk Modulus (GPa) = 34.02570 50.57950 42.30260
# Shear Modulus (GPa) = 37.59575 48.26532 42.93054
#
# Velocity S-wave (km/s) = 3.72769 4.22365 3.98340
# Velocity P-wave (km/s) = 5.57707 6.51769 6.06564
#
# Compressibility (1/GPa) = 0.02938955
#
# Stress axis : x y z
#
# Youngs Moduli (GPa) = 54.72834 97.90265 102.63232
#
# Poissons Ratio (x) = 0.00326 0.43480
# Poissons Ratio (y) = 0.00182 0.01543
# Poissons Ratio (z) = 0.23186 0.01472
#
# Static dielectric constant tensor:
#      x y z
#    x 2.218000 -0.109020 0.012830 
#    y -0.109020 2.381460 0.102960 
#    z 0.012830 0.102960 2.258810 
# 
# From -- ./inp_files/573155.got.cif
#   From: 2010.05.17/outbox.cif.g08.bks.cpg/sg2_287_cif.got.tgz:573155.got - 2010.06.03 11:33:40.
