data_PCOD9089246
_publ_section_title
;
Structure prediction by ZEFSAII (Michael W. Deem and Ramdas Pophale) SiO2 
 PCOD9089246
Probable space group: P -1
;
_chemical_formula_sum "Si O2"
_cell_formula_units_Z 16
_cell_length_a 9.174582
_cell_length_b 8.010812
_cell_length_c 12.084734
_cell_angle_alpha 99.158321
_cell_angle_beta 64.688575
_cell_angle_gamma 95.044503
_cell_volume 792.478402
_symmetry_space_group_name_H-M "P -1"
_symmetry_group_IT_number 2
_symmetry_cell_setting 'triclinic'
loop_
_space_group_symop_operation_xyz
x,y,z
-x,-y,-z
loop_
_atom_site_type_symbol
_atom_site_label
_atom_site_fract_x
_atom_site_fract_y
_atom_site_fract_z
Si Si1 0.571469 0.990236 0.785741
Si Si2 0.379836 0.070575 0.638588
Si Si3 0.901779 0.840898 0.568683
Si Si4 0.006041 0.339770 0.904601
Si Si5 0.874384 0.243885 0.308885
Si Si6 0.889920 0.851286 0.969278
Si Si7 0.677779 0.127886 0.985969
Si Si8 0.194780 0.379439 0.633228
O O1 0.736344 0.910204 0.681201
O O2 0.454838 0.854470 0.873688
O O3 0.475496 0.066344 0.722423
O O4 0.612621 0.126351 0.882746
O O5 0.324629 0.253184 0.631107
O O6 0.500000 0.000000 0.500000
O O7 0.233246 0.929694 0.679330
O O8 0.856539 0.703211 0.475246
O O9 0.014605 0.766211 0.619450
O O10 0.000000 0.000000 0.500000
O O11 0.048765 0.361382 0.766339
O O12 0.832290 0.248591 0.959917
O O13 0.000000 0.500000 0.000000
O O14 0.148075 0.244745 0.914852
O O15 0.774312 0.417704 0.361507
O O16 0.996623 0.243075 0.164348
O O17 0.744945 0.938246 0.963838
O O18 0.000000 0.000000 0.000000
#
# Coordination Sequence:
#
# PCOD9089246 Si02
#       8
#     2   2   2   2   2   2   2   2
#     4  11  22  40  69  97 136 175 227 272 346 404
#     4  12  24  44  66  96 136 183 223 277 342 404
#     4  12  23  45  70  98 135 182 231 284 335 407
#     4  11  21  38  64 100 133 166 223 278 336 396
#     4  12  24  43  71  99 133 178 235 280 338 403
#     4  10  19  37  66  97 125 169 222 279 326 397
#     4  10  21  38  68  95 129 179 218 277 342 402
#     4  12  25  42  70 100 135 176 229 284 334 404
#
# _framework density 20.189824999999999
#
# number of rings (size 3 to 8) (size 9 to 14) (size 15 to 20)
#    0.000    0.750    5.000    4.875    0.000    0.500 
#    0.000    0.000    2.750    4.500    0.000    0.000 
#    0.000    0.000    0.000    0.000    0.000    0.000 
#
# Total GULP energy -89235.819184 kJ/mol
# GULP energy per Si atom -5577.238699 kJ/mol
# Density = 2.014387 g / cm^3
# Si number density = 20.189825 Si / 1000 Ang^3
#
#
#
# Elastic Constant Matrix: (Units=GPa)
#
#
# Indices 1 2 3 4 5 6 
#
# 1 111.9074 39.4461 47.3537 -2.7449 18.5063 -20.6126
# 2 39.4461 95.3802 27.8828 11.7829 9.1784 -24.2725
# 3 47.3537 27.8828 131.2867 -1.6073 8.4044 -9.3618
# 4 -2.7449 11.7829 -1.6073 29.3769 -6.2604 1.2379
# 5 18.5063 9.1784 8.4044 -6.2604 53.6563 -7.5397
# 6 -20.6126 -24.2725 -9.3618 1.2379 -7.5397 24.7108
#
#
#
# Elastic Compliance Matrix: (Units=1/GPa)
#
#
# Indices 1 2 3 4 5 6 
#
# 1 0.012904 -0.002739 -0.003476 0.001342 -0.002446 0.005944
# 2 -0.002739 0.016547 -0.001614 -0.007685 -0.000626 0.013552
# 3 -0.003476 -0.001614 0.009149 0.000867 -0.000006 -0.001065
# 4 0.001342 -0.007685 0.000867 0.038487 0.004261 -0.006729
# 5 -0.002446 -0.000626 -0.000006 0.004261 0.020564 0.003404
# 6 0.005944 0.013552 -0.001065 -0.006729 0.003404 0.059710
#
#
# Mechanical properties :
#
#
# Convention : Reuss Voigt Hill
#
# Bulk Modulus (GPa) = 43.58697 63.10437 53.34567
# Shear Modulus (GPa) = 27.67528 36.47493 32.07511
#
# Velocity S-wave (km/s) = 3.70639 4.25502 3.99014
# Velocity P-wave (km/s) = 6.32075 7.44739 6.90708
#
# Compressibility (1/GPa) = 0.02294264
#
# Stress axis : x y z
#
# Youngs Moduli (GPa) = 77.49317 60.43343 109.30615
#
# Poissons Ratio (x) = 0.16550 0.37995
# Poissons Ratio (y) = 0.21222 0.17645
# Poissons Ratio (z) = 0.26937 0.09755
#
# Static dielectric constant tensor:
#      x y z
#    x 1.717540 -0.021590 -0.027780 
#    y -0.021590 1.746290 -0.002500 
#    z -0.027780 -0.002500 1.730760 
# 
# From -- ./inp_files/351454.got.cif
#   From: 2010.05.17/outbox.cif.g08.bks.cpg/sg2_176_cif.got.tgz:351454.got - 2010.06.03 11:33:40.
