data_PCOD9089582
_publ_section_title
;
Structure prediction by ZEFSAII (Michael W. Deem and Ramdas Pophale) SiO2 
 PCOD9089582
Probable space group: P -1
;
_chemical_formula_sum "Si O2"
_cell_formula_units_Z 15
_cell_length_a 6.678653
_cell_length_b 8.707177
_cell_length_c 18.719787
_cell_angle_alpha 134.229986
_cell_angle_beta 129.576755
_cell_angle_gamma 63.931518
_cell_volume 601.200412
_symmetry_space_group_name_H-M "P -1"
_symmetry_group_IT_number 2
_symmetry_cell_setting 'triclinic'
loop_
_space_group_symop_operation_xyz
x,y,z
-x,-y,-z
loop_
_atom_site_type_symbol
_atom_site_label
_atom_site_fract_x
_atom_site_fract_y
_atom_site_fract_z
Si Si1 0.423293 0.723859 0.124860
Si Si2 0.128989 0.107413 0.960304
Si Si3 0.652379 0.333163 0.121124
Si Si4 0.411162 0.972405 0.623002
Si Si5 0.148741 0.988955 0.760763
Si Si6 0.884463 0.488267 0.367229
Si Si7 0.171654 0.051248 0.452528
Si Si8 0.500000 0.500000 0.500000
O O1 0.543934 0.488411 0.085536
O O2 0.611527 0.875897 0.171083
O O3 0.128635 0.754702 0.041561
O O4 0.447320 0.824899 0.243323
O O5 0.117551 0.048292 0.854736
O O6 0.177297 0.873185 0.930442
O O7 0.395351 0.240471 0.072787
O O8 0.809818 0.466212 0.259737
O O9 0.544618 0.758217 0.610666
O O10 0.115930 0.985316 0.590025
O O11 0.368404 0.945889 0.519066
O O12 0.194894 0.733749 0.685509
O O13 0.894173 0.028275 0.667456
O O14 0.764499 0.695754 0.444408
O O15 0.190404 0.524037 0.451619
#
# Coordination Sequence:
#
# PCOD9089582 Si02
#       8
#     2   2   2   2   2   2   2   1
#     4  11  21  41  67  89 125 171 204 259 320 367
#     4  10  23  43  63  95 123 163 216 259 312 374
#     4  10  21  41  69  89 125 169 208 261 314 370
#     4   9  17  31  55  86 111 158 202 235 307 370
#     4  10  22  37  63  93 127 158 208 264 309 368
#     4  10  19  38  59  88 121 163 204 252 312 370
#     4   9  17  32  56  81 118 155 195 243 305 361
#     4  10  20  32  62  84 122 160 200 252 300 370
#
# _framework density 24.950084
#
# number of rings (size 3 to 8) (size 9 to 14) (size 15 to 20)
#    0.000    2.133    1.333    2.400    1.867    0.533 
#    0.000   11.333    5.867    0.000    0.000    0.000 
#    0.000    0.000    0.000    0.000    0.000    0.000 
#
# Total GULP energy -83658.217143 kJ/mol
# GULP energy per Si atom -5577.214476 kJ/mol
# Density = 2.489330 g / cm^3
# Si number density = 24.950084 Si / 1000 Ang^3
#
#
#
# Elastic Constant Matrix: (Units=GPa)
#
#
# Indices 1 2 3 4 5 6 
#
# 1 53.7348 49.9693 13.4657 -4.2322 0.9567 -5.6260
# 2 49.9693 106.1368 -4.9227 4.6540 8.1064 -12.7879
# 3 13.4657 -4.9227 58.7014 0.1891 -1.3653 6.3514
# 4 -4.2322 4.6540 0.1891 39.7009 7.2977 -1.9100
# 5 0.9567 8.1064 -1.3653 7.2977 38.8272 -9.3826
# 6 -5.6260 -12.7879 6.3514 -1.9100 -9.3826 41.2336
#
#
#
# Elastic Compliance Matrix: (Units=1/GPa)
#
#
# Indices 1 2 3 4 5 6 
#
# 1 0.040430 -0.019759 -0.011106 0.006404 0.001981 0.001847
# 2 -0.019759 0.019555 0.005942 -0.003934 -0.002221 0.001766
# 3 -0.011106 0.005942 0.020403 -0.002013 -0.000607 -0.003047
# 4 0.006404 -0.003934 -0.002013 0.027172 -0.004464 0.000207
# 5 0.001981 -0.002221 -0.000607 -0.004464 0.028422 0.005936
# 6 0.001847 0.001766 -0.003047 0.000207 0.005936 0.026881
#
#
# Mechanical properties :
#
#
# Convention : Reuss Voigt Hill
#
# Bulk Modulus (GPa) = 32.74038 37.28860 35.01449
# Shear Modulus (GPa) = 22.43263 34.62304 28.52784
#
# Velocity S-wave (km/s) = 3.00175 3.72922 3.38508
# Velocity P-wave (km/s) = 5.01646 5.78969 5.41689
#
# Compressibility (1/GPa) = 0.03054332
#
# Stress axis : x y z
#
# Youngs Moduli (GPa) = 24.73415 51.13808 49.01169
#
# Poissons Ratio (x) = 1.01045 0.54431
# Poissons Ratio (y) = 0.48873 -0.29125
# Poissons Ratio (z) = 0.27469 -0.30389
#
# Static dielectric constant tensor:
#      x y z
#    x 2.063580 0.062570 -0.014620 
#    y 0.062570 2.014110 -0.065200 
#    z -0.014620 -0.065200 1.887640 
# 
# From -- ./inp_files/527504.got.cif
#   From: 2010.05.17/outbox.cif.g08.bks.cpg/sg2_264_cif.got.tgz:527504.got - 2010.06.03 11:33:40.
