data_PCOD9089824
_publ_section_title
;
Structure prediction by ZEFSAII (Michael W. Deem and Ramdas Pophale) SiO2 
 PCOD9089824
Probable space group: P -1
;
_chemical_formula_sum "Si O2"
_cell_formula_units_Z 13
_cell_length_a 5.255672
_cell_length_b 13.005220
_cell_length_c 10.478155
_cell_angle_alpha 85.880044
_cell_angle_beta 127.370326
_cell_angle_gamma 117.080332
_cell_volume 485.161832
_symmetry_space_group_name_H-M "P -1"
_symmetry_group_IT_number 2
_symmetry_cell_setting 'triclinic'
loop_
_space_group_symop_operation_xyz
x,y,z
-x,-y,-z
loop_
_atom_site_type_symbol
_atom_site_label
_atom_site_fract_x
_atom_site_fract_y
_atom_site_fract_z
Si Si1 0.986107 0.276828 0.913160
Si Si2 0.569768 0.405163 0.705939
Si Si3 0.618933 0.978674 0.329431
Si Si4 0.564204 0.403330 0.401853
Si Si5 0.500000 0.000000 0.000000
Si Si6 0.765039 0.222954 0.411089
Si Si7 0.380814 0.771772 0.920214
O O1 0.883455 0.378419 0.848234
O O2 0.705710 0.161086 0.751574
O O3 0.854450 0.236971 0.023716
O O4 0.395979 0.298916 0.007678
O O5 0.565911 0.408624 0.552901
O O6 0.627521 0.535648 0.742177
O O7 0.142366 0.293581 0.606346
O O8 0.671194 0.007002 0.192359
O O9 0.569453 0.080710 0.372736
O O10 0.000000 0.000000 0.500000
O O11 0.503665 0.275071 0.359424
O O12 0.000000 0.500000 0.500000
O O13 0.668030 0.915176 0.001467
O O14 0.839732 0.256758 0.278243
#
# Coordination Sequence:
#
# PCOD9089824 Si02
#       7
#     2   2   2   2   1   2   2
#     4  11  24  42  64  98 135 170 212 270 329 381
#     4  10  21  40  67  91 125 166 220 274 322 388
#     4  10  19  38  61  96 132 171 219 263 325 394
#     4   9  21  39  65  90 123 164 221 271 329 381
#     4   8  20  38  58  86 138 174 210 258 320 374
#     4  10  21  40  65  92 126 174 221 261 323 399
#     4  10  24  41  63  92 137 175 212 264 329 386
#
# _framework density 26.795185
#
# number of rings (size 3 to 8) (size 9 to 14) (size 15 to 20)
#    0.000    2.154    1.538    0.000    6.462    5.538 
#    5.538    5.385    0.000    0.000    0.000    0.000 
#    0.000    0.000    0.000    0.000    0.000    0.000 
#
# Total GULP energy -72403.010440 kJ/mol
# GULP energy per Si atom -5569.462342 kJ/mol
# Density = 2.673420 g / cm^3
# Si number density = 26.795185 Si / 1000 Ang^3
#
#
#
# Elastic Constant Matrix: (Units=GPa)
#
#
# Indices 1 2 3 4 5 6 
#
# 1 75.9043 22.2118 21.4522 1.7059 5.9884 -19.7174
# 2 22.2118 125.1026 22.7236 -3.1217 11.4840 -46.5938
# 3 21.4522 22.7236 105.9561 -13.4776 16.5985 -11.9713
# 4 1.7059 -3.1217 -13.4776 43.3861 -10.7572 9.3661
# 5 5.9884 11.4840 16.5985 -10.7572 35.1331 -8.1780
# 6 -19.7174 -46.5938 -11.9713 9.3661 -8.1780 51.7715
#
#
#
# Elastic Compliance Matrix: (Units=1/GPa)
#
#
# Indices 1 2 3 4 5 6 
#
# 1 0.015564 -0.000218 -0.002709 -0.002878 -0.000907 0.005482
# 2 -0.000218 0.012463 -0.001444 -0.002285 -0.001499 0.010976
# 3 -0.002709 -0.001444 0.011125 0.002726 -0.003682 -0.000834
# 4 -0.002878 -0.002285 0.002726 0.026872 0.006705 -0.006324
# 5 -0.000907 -0.001499 -0.003682 0.006705 0.033248 0.001493
# 6 0.005482 0.010976 -0.000834 -0.006324 0.001493 0.032469
#
#
# Mechanical properties :
#
#
# Convention : Reuss Voigt Hill
#
# Bulk Modulus (GPa) = 32.88400 48.85981 40.87190
# Shear Modulus (GPa) = 33.19586 42.09650 37.64618
#
# Velocity S-wave (km/s) = 3.52358 3.96794 3.75235
# Velocity P-wave (km/s) = 5.37152 6.26633 5.83610
#
# Compressibility (1/GPa) = 0.03040993
#
# Stress axis : x y z
#
# Youngs Moduli (GPa) = 64.24977 80.23687 89.88446
#
# Poissons Ratio (x) = 0.01749 0.24350
# Poissons Ratio (y) = 0.01401 0.12983
# Poissons Ratio (z) = 0.17405 0.11589
#
# Static dielectric constant tensor:
#      x y z
#    x 7.217470 4.406040 3.708920 
#    y 4.406040 6.153550 3.251640 
#    z 3.708920 3.251640 4.789760 
# 
# From -- ./inp_files/31188.got.cif
#   From: 2010.05.17/outbox.cif.g08.bks.cpg/sg2_16_cif.got.tgz:31188.got - 2010.06.03 11:33:40.
