data_PCOD9089555
_publ_section_title
;
Structure prediction by ZEFSAII (Michael W. Deem and Ramdas Pophale) SiO2 
 PCOD9089555
Probable space group: P -1
;
_chemical_formula_sum "Si O2"
_cell_formula_units_Z 14
_cell_length_a 9.184053
_cell_length_b 17.897924
_cell_length_c 7.349254
_cell_angle_alpha 68.064749
_cell_angle_beta 82.498617
_cell_angle_gamma 32.635304
_cell_volume 561.940367
_symmetry_space_group_name_H-M "P -1"
_symmetry_group_IT_number 2
_symmetry_cell_setting 'triclinic'
loop_
_space_group_symop_operation_xyz
x,y,z
-x,-y,-z
loop_
_atom_site_type_symbol
_atom_site_label
_atom_site_fract_x
_atom_site_fract_y
_atom_site_fract_z
Si Si1 0.796807 0.769184 0.262501
Si Si2 0.672442 0.582662 0.347597
Si Si3 0.678042 0.475313 0.122350
Si Si4 0.720314 0.096646 0.768738
Si Si5 0.192381 0.125448 0.526109
Si Si6 0.861567 0.645945 0.030465
Si Si7 0.253852 0.921965 0.778070
O O1 0.512225 0.857590 0.302964
O O2 0.803172 0.851305 0.282590
O O3 0.785516 0.761937 0.055639
O O4 0.089414 0.582748 0.438390
O O5 0.529680 0.590741 0.213243
O O6 0.437204 0.741159 0.361048
O O7 0.841713 0.577017 0.225625
O O8 0.942671 0.297576 0.321571
O O9 0.500000 0.500000 0.000000
O O10 0.832316 0.475938 0.990946
O O11 0.754912 0.066784 0.008508
O O12 0.031335 0.954742 0.752091
O O13 0.500000 0.000000 0.500000
O O14 0.138079 0.057267 0.584964
O O15 0.597054 0.756642 0.833164
#
# Coordination Sequence:
#
# PCOD9089555 Si02
#       7
#     2   2   2   2   2   2   2
#     4   9  20  35  61  86 110 152 195 235 289 342
#     4   9  19  37  61  81 117 148 185 247 289 331
#     4  11  24  39  56  87 117 153 195 231 290 347
#     4   9  18  36  61  91 110 140 209 234 282 333
#     4  11  22  41  56  82 124 157 185 233 295 346
#     4  10  19  38  59  83 115 150 198 232 290 335
#     4   9  19  36  58  83 118 151 184 243 281 338
#
# _framework density 24.913674
#
# number of rings (size 3 to 8) (size 9 to 14) (size 15 to 20)
#    0.000    2.571    1.429    2.143    0.000    5.714 
#   10.286    3.571    0.000    0.000    0.000    0.000 
#    0.000    0.000    0.000    0.000    0.000    0.000 
#
# Total GULP energy -78188.186152 kJ/mol
# GULP energy per Si atom -5584.870439 kJ/mol
# Density = 2.485697 g / cm^3
# Si number density = 24.913674 Si / 1000 Ang^3
#
#
#
# Elastic Constant Matrix: (Units=GPa)
#
#
# Indices 1 2 3 4 5 6 
#
# 1 95.4026 33.1117 4.1336 4.5622 25.0286 -8.0470
# 2 33.1117 40.3182 16.0650 -0.2081 14.3583 4.0496
# 3 4.1336 16.0650 36.7817 -16.5583 -3.3379 5.2748
# 4 4.5622 -0.2081 -16.5583 24.7404 8.6828 0.4357
# 5 25.0286 14.3583 -3.3379 8.6828 34.4480 4.6319
# 6 -8.0470 4.0496 5.2748 0.4357 4.6319 38.0585
#
#
#
# Elastic Compliance Matrix: (Units=1/GPa)
#
#
# Indices 1 2 3 4 5 6 
#
# 1 0.017442 -0.013165 0.002825 0.001269 -0.007992 0.005655
# 2 -0.013165 0.049811 -0.025484 -0.010428 -0.010615 -0.003140
# 3 0.002825 -0.025484 0.054491 0.033696 0.006078 -0.005369
# 4 0.001269 -0.010428 0.033696 0.066061 -0.009573 -0.002884
# 5 -0.007992 -0.010615 0.006078 -0.009573 0.043142 -0.006544
# 6 0.005655 -0.003140 -0.005369 -0.002884 -0.006544 0.029379
#
#
# Mechanical properties :
#
#
# Convention : Reuss Voigt Hill
#
# Bulk Modulus (GPa) = 19.96185 31.01369 25.48777
# Shear Modulus (GPa) = 14.34013 27.39551 20.86782
#
# Velocity S-wave (km/s) = 2.40175 3.31965 2.89728
# Velocity P-wave (km/s) = 3.96498 5.21238 4.63087
#
# Compressibility (1/GPa) = 0.05009556
#
# Stress axis : x y z
#
# Youngs Moduli (GPa) = 57.33399 20.07601 18.35156
#
# Poissons Ratio (x) = 0.26430 -0.05184
# Poissons Ratio (y) = 0.75481 0.46767
# Poissons Ratio (z) = -0.16196 0.51161
#
# Static dielectric constant tensor:
#      x y z
#    x 1.943270 -0.016000 0.042940 
#    y -0.016000 2.070660 0.041510 
#    z 0.042940 0.041510 2.005960 
# 
# From -- ./inp_files/216997.got.cif
#   From: 2010.05.17/outbox.cif.g08.bks.cpg/sg2_109_cif.got.tgz:216997.got - 2010.06.03 11:33:40.
