data_PCOD9089107
_publ_section_title
;
Structure prediction by ZEFSAII (Michael W. Deem and Ramdas Pophale) SiO2 
 PCOD9089107
Probable space group: P -1
;
_chemical_formula_sum "Si O2"
_cell_formula_units_Z 16
_cell_length_a 8.887497
_cell_length_b 23.720015
_cell_length_c 8.947248
_cell_angle_alpha 130.243267
_cell_angle_beta 116.016348
_cell_angle_gamma 31.208997
_cell_volume 714.405701
_symmetry_space_group_name_H-M "P -1"
_symmetry_group_IT_number 2
_symmetry_cell_setting 'triclinic'
loop_
_space_group_symop_operation_xyz
x,y,z
-x,-y,-z
loop_
_atom_site_type_symbol
_atom_site_label
_atom_site_fract_x
_atom_site_fract_y
_atom_site_fract_z
Si Si1 0.148600 0.536446 0.750686
Si Si2 0.579470 0.726214 0.641894
Si Si3 0.452375 0.013221 0.827626
Si Si4 0.643596 0.123808 0.511400
Si Si5 0.166796 0.148210 0.665419
Si Si6 0.900550 0.663042 0.168184
Si Si7 0.354122 0.571618 0.401095
Si Si8 0.934271 0.166397 0.323474
O O1 0.289073 0.405036 0.547316
O O2 0.404812 0.500668 0.750610
O O3 0.853425 0.664401 0.741305
O O4 0.045847 0.566529 0.928881
O O5 0.460885 0.805333 0.572780
O O6 0.287748 0.818937 0.778755
O O7 0.454669 0.926477 0.630151
O O8 0.723702 0.965695 0.806295
O O9 0.157392 0.148356 0.839789
O O10 0.500000 0.000000 0.000000
O O11 0.426874 0.238040 0.740952
O O12 0.000000 0.000000 0.500000
O O13 0.120322 0.247162 0.757187
O O14 0.944913 0.176764 0.525543
O O15 0.500000 0.000000 0.500000
O O16 0.128328 0.590447 0.281675
O O17 0.500000 0.500000 0.500000
O O18 0.177608 0.714470 0.587869
#
# Coordination Sequence:
#
# PCOD9089107 Si02
#       8
#     2   2   2   2   2   2   2   2
#     4  10  23  40  64  96 123 174 212 261 334 377
#     4  10  23  42  63  89 137 163 211 265 328 386
#     4  11  23  38  62  94 120 164 219 259 315 379
#     4  12  25  42  64  97 132 172 216 268 329 381
#     4   9  17  36  61  82 121 158 203 250 311 367
#     4  11  22  39  65  95 123 165 221 263 318 392
#     4  10  19  37  65  91 125 158 211 268 314 372
#     4   9  19  39  61  82 120 171 199 249 319 375
#
# _framework density 22.396236999999999
#
# number of rings (size 3 to 8) (size 9 to 14) (size 15 to 20)
#    0.000    1.750    3.750    1.875    3.500    1.500 
#    0.000    2.500    0.000    0.000    0.000    0.000 
#    0.000    0.000    0.000    0.000    0.000    0.000 
#
# Total GULP energy -89216.010112 kJ/mol
# GULP energy per Si atom -5576.000632 kJ/mol
# Density = 2.234526 g / cm^3
# Si number density = 22.396237 Si / 1000 Ang^3
#
#
#
# Elastic Constant Matrix: (Units=GPa)
#
#
# Indices 1 2 3 4 5 6 
#
# 1 59.4693 17.8364 -2.0930 0.3967 -11.0210 -18.2205
# 2 17.8364 123.0712 8.0573 -32.0678 -13.8829 -3.7659
# 3 -2.0930 8.0573 45.8323 -14.9266 -19.3998 -5.1542
# 4 0.3967 -32.0678 -14.9266 27.8859 10.7175 -14.3378
# 5 -11.0210 -13.8829 -19.3998 10.7175 26.6525 2.0681
# 6 -18.2205 -3.7659 -5.1542 -14.3378 2.0681 45.0238
#
#
#
# Elastic Compliance Matrix: (Units=1/GPa)
#
#
# Indices 1 2 3 4 5 6 
#
# 1 0.023379 -0.001089 0.009577 0.004045 0.013581 0.011131
# 2 -0.001089 0.014932 0.007462 0.025495 0.001755 0.009701
# 3 0.009577 0.007462 0.044322 0.031707 0.025924 0.018480
# 4 0.004045 0.025495 0.031707 0.106666 -0.008100 0.041739
# 5 0.013581 0.001755 0.025924 -0.008100 0.065943 0.003002
# 6 0.011131 0.009701 0.018480 0.041739 0.003002 0.042796
#
#
# Mechanical properties :
#
#
# Convention : Reuss Voigt Hill
#
# Bulk Modulus (GPa) = 8.73116 30.66380 19.69748
# Shear Modulus (GPa) = 16.43027 33.55057 24.99042
#
# Velocity S-wave (km/s) = 2.71148 3.87466 3.34403
# Velocity P-wave (km/s) = 3.70267 5.80849 4.87074
#
# Compressibility (1/GPa) = 0.11453237
#
# Stress axis : x y z
#
# Youngs Moduli (GPa) = 42.77320 66.96856 22.56235
#
# Poissons Ratio (x) = 0.07291 -0.21607
# Poissons Ratio (y) = 0.04657 -0.16836
# Poissons Ratio (z) = -0.40962 -0.49971
#
# Static dielectric constant tensor:
#      x y z
#    x 1.865450 -0.062430 0.022650 
#    y -0.062430 1.959040 -0.077210 
#    z 0.022650 -0.077210 1.944990 
# 
# From -- ./inp_files/225539.got.cif
#   From: 2010.05.17/outbox.cif.g08.bks.cpg/sg2_113_cif.got.tgz:225539.got - 2010.06.03 11:33:40.
