data_PCOD9089193
_publ_section_title
;
Structure prediction by ZEFSAII (Michael W. Deem and Ramdas Pophale) SiO2 
 PCOD9089193
Probable space group: P -1
;
_chemical_formula_sum "Si O2"
_cell_formula_units_Z 15
_cell_length_a 6.867923
_cell_length_b 22.985794
_cell_length_c 10.484138
_cell_angle_alpha 37.866462
_cell_angle_beta 70.065563
_cell_angle_gamma 98.804493
_cell_volume 650.996545
_symmetry_space_group_name_H-M "P -1"
_symmetry_group_IT_number 2
_symmetry_cell_setting 'triclinic'
loop_
_space_group_symop_operation_xyz
x,y,z
-x,-y,-z
loop_
_atom_site_type_symbol
_atom_site_label
_atom_site_fract_x
_atom_site_fract_y
_atom_site_fract_z
Si Si1 0.827393 0.194815 0.850087
Si Si2 0.897352 0.013591 0.167672
Si Si3 0.500000 0.500000 0.000000
Si Si4 0.672493 0.899066 0.689023
Si Si5 0.481551 0.445840 0.380584
Si Si6 0.385444 0.714611 0.431733
Si Si7 0.502815 0.710676 0.685018
Si Si8 0.661717 0.398200 0.804502
O O1 0.823407 0.278484 0.603383
O O2 0.123874 0.305912 0.679259
O O3 0.541906 0.117189 0.139096
O O4 0.819899 0.085638 0.989637
O O5 0.718695 0.959394 0.435570
O O6 0.757074 0.874597 0.372361
O O7 0.259615 0.132508 0.908570
O O8 0.607541 0.522528 0.084347
O O9 0.376323 0.348547 0.289662
O O10 0.539505 0.749680 0.958947
O O11 0.000000 0.000000 0.500000
O O12 0.622889 0.388236 0.465788
O O13 0.474925 0.542299 0.293760
O O14 0.305833 0.677522 0.663753
O O15 0.339976 0.628969 0.996163
O O16 0.000000 0.500000 0.500000
#
# Coordination Sequence:
#
# PCOD9089193 Si02
#       8
#     2   2   1   2   2   2   2   2
#     4  11  21  36  61  87 125 163 200 249 308 358
#     4  10  21  36  60  89 120 164 201 252 303 369
#     4   8  16  36  60  78 118 150 198 242 294 356
#     4  11  21  38  63  90 124 160 211 253 307 363
#     4   9  19  37  62  89 114 165 199 244 307 359
#     4  10  20  37  60  90 127 156 202 252 302 368
#     4   9  19  35  59  90 118 159 204 243 309 360
#     4  10  19  37  66  90 121 162 206 254 306 371
#
# _framework density 23.041596999999999
#
# number of rings (size 3 to 8) (size 9 to 14) (size 15 to 20)
#    0.000    2.133    2.667    0.800    0.000    0.533 
#    0.000    6.667   11.733    0.000    0.000    0.000 
#    0.000    0.000    0.000    0.000    0.000    0.000 
#
# Total GULP energy -83524.897850 kJ/mol
# GULP energy per Si atom -5568.326523 kJ/mol
# Density = 2.298915 g / cm^3
# Si number density = 23.041597 Si / 1000 Ang^3
#
#
#
# Elastic Constant Matrix: (Units=GPa)
#
#
# Indices 1 2 3 4 5 6 
#
# 1 101.9185 42.0512 36.6305 -22.2919 20.1876 -19.9367
# 2 42.0512 91.7466 49.3328 -11.6531 12.9376 -25.0691
# 3 36.6305 49.3328 109.6072 -17.8307 11.0538 -13.0058
# 4 -22.2919 -11.6531 -17.8307 51.6834 -7.6186 13.9566
# 5 20.1876 12.9376 11.0538 -7.6186 42.8920 -5.6583
# 6 -19.9367 -25.0691 -13.0058 13.9566 -5.6583 24.2409
#
#
#
# Elastic Compliance Matrix: (Units=1/GPa)
#
#
# Indices 1 2 3 4 5 6 
#
# 1 0.014179 -0.003310 -0.001816 0.002885 -0.004081 0.004651
# 2 -0.003310 0.020098 -0.006466 -0.003766 -0.001337 0.016450
# 3 -0.001816 -0.006466 0.012791 0.002955 -0.000376 -0.003107
# 4 0.002885 -0.003766 0.002955 0.024724 0.001587 -0.013800
# 5 -0.004081 -0.001337 -0.000376 0.001587 0.026047 0.000225
# 6 0.004651 0.016450 -0.003107 -0.013800 0.000225 0.068420
#
#
# Mechanical properties :
#
#
# Convention : Reuss Voigt Hill
#
# Bulk Modulus (GPa) = 41.86732 62.14461 52.00596
# Shear Modulus (GPa) = 25.32869 35.44711 30.38790
#
# Velocity S-wave (km/s) = 3.31910 3.92649 3.63551
# Velocity P-wave (km/s) = 5.73571 6.89824 6.34366
#
# Compressibility (1/GPa) = 0.02388498
#
# Stress axis : x y z
#
# Youngs Moduli (GPa) = 70.52529 49.75550 78.18234
#
# Poissons Ratio (x) = 0.16467 0.14200
# Poissons Ratio (y) = 0.23341 0.50551
# Poissons Ratio (z) = 0.12809 0.32171
#
# Static dielectric constant tensor:
#      x y z
#    x 1.952020 -0.025320 0.031350 
#    y -0.025320 1.900070 0.060710 
#    z 0.031350 0.060710 1.892870 
# 
# From -- ./inp_files/370976.got.cif
#   From: 2010.05.17/outbox.cif.g08.bks.cpg/sg2_186_cif.got.tgz:370976.got - 2010.06.03 11:33:40.
