data_PCOD9089752
_publ_section_title
;
Structure prediction by ZEFSAII (Michael W. Deem and Ramdas Pophale) SiO2 
 PCOD9089752
Probable space group: P -1
;
_chemical_formula_sum "Si O2"
_cell_formula_units_Z 16
_cell_length_a 14.293688
_cell_length_b 16.567560
_cell_length_c 7.699207
_cell_angle_alpha 91.615705
_cell_angle_beta 94.205445
_cell_angle_gamma 21.180097
_cell_volume 652.873747
_symmetry_space_group_name_H-M "P -1"
_symmetry_group_IT_number 2
_symmetry_cell_setting 'triclinic'
loop_
_space_group_symop_operation_xyz
x,y,z
-x,-y,-z
loop_
_atom_site_type_symbol
_atom_site_label
_atom_site_fract_x
_atom_site_fract_y
_atom_site_fract_z
Si Si1 0.348191 0.117070 0.270125
Si Si2 0.874352 0.173860 0.889575
Si Si3 0.880639 0.704682 0.118614
Si Si4 0.684374 0.152704 0.343796
Si Si5 0.122383 0.593057 0.672241
Si Si6 0.487061 0.428676 0.601216
Si Si7 0.203404 0.584180 0.052524
Si Si8 0.660287 0.707460 0.586960
O O1 0.355167 0.184106 0.413005
O O2 0.185136 0.172811 0.325862
O O3 0.632264 0.880679 0.210680
O O4 0.176185 0.278570 0.083753
O O5 0.595945 0.366276 0.798363
O O6 0.854966 0.275758 0.983924
O O7 0.052372 0.048654 0.737715
O O8 0.000000 0.000000 0.000000
O O9 0.945871 0.747904 0.108472
O O10 0.134107 0.472479 0.240528
O O11 0.676789 0.211879 0.520549
O O12 0.447103 0.378279 0.203665
O O13 0.599868 0.130279 0.380406
O O14 0.214758 0.599288 0.585578
O O15 0.228847 0.429799 0.572441
O O16 0.250934 0.498376 0.874242
O O17 0.500000 0.500000 0.500000
#
# Coordination Sequence:
#
# PCOD9089752 Si02
#       8
#     2   2   2   2   2   2   2   2
#     4  10  19  38  61  87 125 154 205 260 305 370
#     4  12  25  39  66  96 121 164 215 264 317 367
#     4   9  20  36  63  91 117 167 203 247 316 377
#     4  10  22  41  64  92 120 165 212 252 309 383
#     4  10  23  38  60  90 122 165 206 255 314 364
#     4  11  23  43  66  87 125 170 208 257 315 369
#     4  10  21  42  61  89 132 160 207 262 311 372
#     4  10  20  38  61  89 123 161 202 251 313 371
#
# _framework density 24.507035999999999
#
# number of rings (size 3 to 8) (size 9 to 14) (size 15 to 20)
#    0.000    1.750    1.250    2.625    1.750    1.500 
#    0.000    6.250    0.000    0.000    0.000    0.000 
#    0.000    0.000    0.000    0.000    0.000    0.000 
#
# Total GULP energy -89503.058668 kJ/mol
# GULP energy per Si atom -5593.941167 kJ/mol
# Density = 2.445126 g / cm^3
# Si number density = 24.507036 Si / 1000 Ang^3
#
#
#
# Elastic Constant Matrix: (Units=GPa)
#
#
# Indices 1 2 3 4 5 6 
#
# 1 191.8264 61.1327 43.0028 16.3230 2.2162 -19.6763
# 2 61.1327 51.7166 15.6662 11.0141 -4.4514 -29.8610
# 3 43.0028 15.6662 84.4393 5.8177 10.7149 -2.2912
# 4 16.3230 11.0141 5.8177 40.9732 -3.1568 -15.5959
# 5 2.2162 -4.4514 10.7149 -3.1568 44.2012 5.7337
# 6 -19.6763 -29.8610 -2.2912 -15.5959 5.7337 45.9844
#
#
#
# Elastic Compliance Matrix: (Units=1/GPa)
#
#
# Indices 1 2 3 4 5 6 
#
# 1 0.009627 -0.013335 -0.002344 -0.001965 -0.000719 -0.005234
# 2 -0.013335 0.052047 -0.002672 0.002794 0.003057 0.028525
# 3 -0.002344 -0.002672 0.013999 -0.001392 -0.003373 -0.002092
# 4 -0.001965 0.002794 -0.001392 0.028731 0.001411 0.010472
# 5 -0.000719 0.003057 -0.003373 0.001411 0.024017 -0.001007
# 6 -0.005234 0.028525 -0.002092 0.010472 -0.001007 0.041604
#
#
# Mechanical properties :
#
#
# Convention : Reuss Voigt Hill
#
# Bulk Modulus (GPa) = 25.65961 63.06508 44.36235
# Shear Modulus (GPa) = 22.75668 40.11045 31.43357
#
# Velocity S-wave (km/s) = 3.05056 4.04999 3.58527
# Velocity P-wave (km/s) = 4.78549 6.90357 5.93971
#
# Compressibility (1/GPa) = 0.03897175
#
# Stress axis : x y z
#
# Youngs Moduli (GPa) = 103.87584 19.21355 71.43131
#
# Poissons Ratio (x) = 0.25621 0.16744
# Poissons Ratio (y) = 1.38517 0.19084
# Poissons Ratio (z) = 0.24349 0.05133
#
# Static dielectric constant tensor:
#      x y z
#    x 1.941630 0.026120 -0.017180 
#    y 0.026120 1.927280 -0.023000 
#    z -0.017180 -0.023000 1.917520 
# 
# From -- ./inp_files/317745.got.cif
#   From: 2010.05.17/outbox.cif.g08.bks.cpg/sg2_159_cif.got.tgz:317745.got - 2010.06.03 11:33:40.
