data_PCOD9089199
_publ_section_title
;
Structure prediction by ZEFSAII (Michael W. Deem and Ramdas Pophale) SiO2 
 PCOD9089199
Probable space group: P -1
;
_chemical_formula_sum "Si O2"
_cell_formula_units_Z 16
_cell_length_a 9.384264
_cell_length_b 12.208635
_cell_length_c 16.934643
_cell_angle_alpha 52.817796
_cell_angle_beta 150.779081
_cell_angle_gamma 117.931453
_cell_volume 745.874979
_symmetry_space_group_name_H-M "P -1"
_symmetry_group_IT_number 2
_symmetry_cell_setting 'triclinic'
loop_
_space_group_symop_operation_xyz
x,y,z
-x,-y,-z
loop_
_atom_site_type_symbol
_atom_site_label
_atom_site_fract_x
_atom_site_fract_y
_atom_site_fract_z
Si Si1 0.306942 0.353687 0.900787
Si Si2 0.696623 0.067776 0.447449
Si Si3 0.677056 0.931103 0.041795
Si Si4 0.386830 0.658700 0.783469
Si Si5 0.305587 0.630114 0.309497
Si Si6 0.881714 0.909471 0.745945
Si Si7 0.986293 0.373305 0.990304
Si Si8 0.354911 0.944302 0.194240
O O1 0.333507 0.230726 0.904320
O O2 0.295143 0.507806 0.793314
O O3 0.006645 0.348180 0.805722
O O4 0.561174 0.328358 0.102654
O O5 0.808182 0.206294 0.408451
O O6 0.447810 0.107680 0.377870
O O7 0.905361 0.948988 0.648357
O O8 0.529319 0.011807 0.317150
O O9 0.004246 0.968832 0.200888
O O10 0.500000 0.000000 0.000000
O O11 0.559419 0.005447 0.871835
O O12 0.704483 0.654835 0.896155
O O13 0.500000 0.500000 0.500000
O O14 0.414968 0.778580 0.303221
O O15 0.254890 0.598121 0.207267
O O16 0.061073 0.763086 0.924108
O O17 0.000000 0.500000 0.000000
O O18 0.000000 0.000000 0.000000
#
# Coordination Sequence:
#
# PCOD9089199 Si02
#       8
#     2   2   2   2   2   2   2   2
#     4  10  20  40  64  90 127 166 209 260 323 383
#     4  10  19  37  66  91 117 163 216 263 309 374
#     4  12  24  40  66  95 126 171 215 263 319 382
#     4   9  19  37  63  89 120 168 206 254 325 381
#     4  11  23  39  65  97 123 163 220 263 312 383
#     4  10  21  38  59  92 121 158 216 258 311 371
#     4  10  21  37  59  86 127 164 201 259 317 373
#     4  12  19  42  71  88 123 173 219 259 309 386
#
# _framework density 21.451315999999998
#
# number of rings (size 3 to 8) (size 9 to 14) (size 15 to 20)
#    0.000    1.500    5.000    0.750    3.500    0.000 
#    4.500    1.250    0.000    0.000    0.000    0.000 
#    0.000    0.000    0.000    0.000    0.000    0.000 
#
# Total GULP energy -89337.584268 kJ/mol
# GULP energy per Si atom -5583.599017 kJ/mol
# Density = 2.140249 g / cm^3
# Si number density = 21.451316 Si / 1000 Ang^3
#
#
#
# Elastic Constant Matrix: (Units=GPa)
#
#
# Indices 1 2 3 4 5 6 
#
# 1 73.9002 33.9303 32.2896 -7.6542 -26.8965 -6.3967
# 2 33.9303 171.0563 58.8046 -33.2032 -32.5367 -5.9860
# 3 32.2896 58.8046 106.8563 -12.4145 -48.5694 -12.3052
# 4 -7.6542 -33.2032 -12.4145 24.7514 6.4306 -6.2511
# 5 -26.8965 -32.5367 -48.5694 6.4306 38.9378 -2.4114
# 6 -6.3967 -5.9860 -12.3052 -6.2511 -2.4114 36.8992
#
#
#
# Elastic Compliance Matrix: (Units=1/GPa)
#
#
# Indices 1 2 3 4 5 6 
#
# 1 0.019421 -0.000920 0.003213 0.003626 0.016426 0.005977
# 2 -0.000920 0.009668 -0.001716 0.011667 0.003565 0.003046
# 3 0.003213 -0.001716 0.027212 0.006610 0.034425 0.012723
# 4 0.003626 0.011667 0.006610 0.061563 0.011316 0.015895
# 5 0.016426 0.003565 0.034425 0.011316 0.082455 0.022212
# 6 0.005977 0.003046 0.012723 0.015895 0.022212 0.037018
#
#
# Mechanical properties :
#
#
# Convention : Reuss Voigt Hill
#
# Bulk Modulus (GPa) = 17.40444 66.87352 42.13898
# Shear Modulus (GPa) = 19.58216 35.23690 27.40953
#
# Velocity S-wave (km/s) = 3.02464 4.05735 3.57845
# Velocity P-wave (km/s) = 4.50877 7.29326 6.06303
#
# Compressibility (1/GPa) = 0.05745661
#
# Stress axis : x y z
#
# Youngs Moduli (GPa) = 51.48951 103.43879 36.74838
#
# Poissons Ratio (x) = 0.09512 -0.11808
# Poissons Ratio (y) = 0.04735 0.06305
# Poissons Ratio (z) = -0.16544 0.17748
#
# Static dielectric constant tensor:
#      x y z
#    x 1.815720 0.037290 0.044070 
#    y 0.037290 1.776750 0.001080 
#    z 0.044070 0.001080 1.868120 
# 
# From -- ./inp_files/500111.got.cif
#   From: 2010.05.17/outbox.cif.g08.bks.cpg/sg2_251_cif.got.tgz:500111.got - 2010.06.03 11:33:40.
