data_PCOD9089305
_publ_section_title
;
Structure prediction by ZEFSAII (Michael W. Deem and Ramdas Pophale) SiO2 
 PCOD9089305
Probable space group: P -1
;
_chemical_formula_sum "Si O2"
_cell_formula_units_Z 16
_cell_length_a 9.288731
_cell_length_b 19.816451
_cell_length_c 8.772440
_cell_angle_alpha 57.461670
_cell_angle_beta 106.954410
_cell_angle_gamma 58.644264
_cell_volume 706.937573
_symmetry_space_group_name_H-M "P -1"
_symmetry_group_IT_number 2
_symmetry_cell_setting 'triclinic'
loop_
_space_group_symop_operation_xyz
x,y,z
-x,-y,-z
loop_
_atom_site_type_symbol
_atom_site_label
_atom_site_fract_x
_atom_site_fract_y
_atom_site_fract_z
Si Si1 0.237376 0.279723 0.045751
Si Si2 0.158680 0.510085 0.068268
Si Si3 0.838352 0.344199 0.303940
Si Si4 0.672694 0.271383 0.705245
Si Si5 0.933253 0.315230 0.711003
Si Si6 0.157506 0.978297 0.350507
Si Si7 0.065704 0.852505 0.610002
Si Si8 0.359770 0.382840 0.770838
O O1 0.510570 0.166396 0.372359
O O2 0.229918 0.362505 0.835019
O O3 0.973237 0.394803 0.934627
O O4 0.210616 0.211844 0.016605
O O5 0.485195 0.353695 0.396047
O O6 0.089596 0.600466 0.801507
O O7 0.000000 0.500000 0.000000
O O8 0.952547 0.279007 0.586933
O O9 0.970755 0.216653 0.393872
O O10 0.500000 0.500000 0.000000
O O11 0.736493 0.334778 0.697110
O O12 0.493659 0.307146 0.737993
O O13 0.977718 0.096429 0.016080
O O14 0.799218 0.462837 0.477999
O O15 0.092163 0.056494 0.392527
O O16 0.039542 0.941700 0.385823
O O17 0.385814 0.711198 0.926783
#
# Coordination Sequence:
#
# PCOD9089305 Si02
#       8
#     2   2   2   2   2   2   2   2
#     4  11  25  42  69  99 134 178 226 274 335 395
#     4  12  27  43  67 105 136 170 225 291 335 384
#     4  12  24  42  69  98 139 176 222 285 334 396
#     4  11  23  40  69  98 129 175 227 271 329 402
#     4  12  23  38  66 102 129 174 222 277 335 386
#     4   9  22  43  71  95 133 183 220 274 324 415
#     4   9  19  41  68  95 129 178 232 259 337 399
#     4  10  19  37  67  96 129 167 221 282 321 389
#
# _framework density 22.632835
#
# number of rings (size 3 to 8) (size 9 to 14) (size 15 to 20)
#    0.000    1.250    3.750    2.250    7.000    0.500 
#    0.000    3.125    0.000    0.000    0.000    0.000 
#    0.000    0.000    0.000    0.000    0.000    0.000 
#
# Total GULP energy -89312.017146 kJ/mol
# GULP energy per Si atom -5582.001072 kJ/mol
# Density = 2.258132 g / cm^3
# Si number density = 22.632835 Si / 1000 Ang^3
#
#
#
# Elastic Constant Matrix: (Units=GPa)
#
#
# Indices 1 2 3 4 5 6 
#
# 1 82.7148 -1.9757 12.8035 -0.9002 -4.8221 7.7865
# 2 -1.9757 37.4797 -6.4296 0.7122 -7.8024 8.3924
# 3 12.8035 -6.4296 102.5501 -5.3729 -1.0240 6.3215
# 4 -0.9002 0.7122 -5.3729 25.0745 0.2458 -3.3501
# 5 -4.8221 -7.8024 -1.0240 0.2458 21.9150 6.0053
# 6 7.7865 8.3924 6.3215 -3.3501 6.0053 32.2772
#
#
#
# Elastic Compliance Matrix: (Units=1/GPa)
#
#
# Indices 1 2 3 4 5 6 
#
# 1 0.013046 0.002557 -0.001164 -0.000512 0.004983 -0.004564
# 2 0.002557 0.033647 0.002647 -0.002213 0.016293 -0.013145
# 3 -0.001164 0.002647 0.010332 0.001732 0.001862 -0.002598
# 4 -0.000512 -0.002213 0.001732 0.041006 -0.002681 0.005115
# 5 0.004983 0.016293 0.001862 -0.002681 0.057229 -0.016729
# 6 -0.004564 -0.013145 -0.002598 0.005115 -0.016729 0.039653
#
#
# Mechanical properties :
#
#
# Convention : Reuss Voigt Hill
#
# Bulk Modulus (GPa) = 15.35966 25.72677 20.54321
# Shear Modulus (GPa) = 23.97686 30.40977 27.19331
#
# Velocity S-wave (km/s) = 3.25835 3.66951 3.47002
# Velocity P-wave (km/s) = 4.57788 5.41714 5.01510
#
# Compressibility (1/GPa) = 0.06510561
#
# Stress axis : x y z
#
# Youngs Moduli (GPa) = 76.65420 29.72008 96.78572
#
# Poissons Ratio (x) = -0.07600 0.11268
# Poissons Ratio (y) = -0.19601 -0.25623
# Poissons Ratio (z) = 0.08924 -0.07868
#
# Static dielectric constant tensor:
#      x y z
#    x 1.837250 -0.026850 0.007590 
#    y -0.026850 1.914120 0.003560 
#    z 0.007590 0.003560 1.909940 
# 
# From -- ./inp_files/223236.got.cif
#   From: 2010.05.17/outbox.cif.g08.bks.cpg/sg2_112_cif.got.tgz:223236.got - 2010.06.03 11:33:40.
