data_PCOD9089757
_publ_section_title
;
Structure prediction by ZEFSAII (Michael W. Deem and Ramdas Pophale) SiO2 
 PCOD9089757
Probable space group: P -1
;
_chemical_formula_sum "Si O2"
_cell_formula_units_Z 16
_cell_length_a 14.444626
_cell_length_b 4.990312
_cell_length_c 17.110032
_cell_angle_alpha 67.141040
_cell_angle_beta 139.970083
_cell_angle_gamma 110.679652
_cell_volume 727.737628
_symmetry_space_group_name_H-M "P -1"
_symmetry_group_IT_number 2
_symmetry_cell_setting 'triclinic'
loop_
_space_group_symop_operation_xyz
x,y,z
-x,-y,-z
loop_
_atom_site_type_symbol
_atom_site_label
_atom_site_fract_x
_atom_site_fract_y
_atom_site_fract_z
Si Si1 0.995470 0.884623 0.640859
Si Si2 0.909753 0.815219 0.833963
Si Si3 0.720954 0.638014 0.871145
Si Si4 0.933303 0.565719 0.136746
Si Si5 0.434760 0.783970 0.300541
Si Si6 0.352465 0.804176 0.411683
Si Si7 0.723090 0.189622 0.471548
Si Si8 0.136878 0.332663 0.583087
O O1 0.906423 0.805263 0.513195
O O2 0.044767 0.606533 0.749535
O O3 0.879203 0.057255 0.594021
O O4 0.135160 0.090710 0.676753
O O5 0.864180 0.682241 0.903698
O O6 0.949143 0.568908 0.827874
O O7 0.769879 0.978265 0.703831
O O8 0.034416 0.084056 0.880931
O O9 0.600607 0.445164 0.765158
O O10 0.662535 0.950615 0.809723
O O11 0.777543 0.503009 0.002164
O O12 0.378568 0.650219 0.363447
O O13 0.595440 0.938738 0.399416
O O14 0.310080 0.659962 0.483874
O O15 0.500000 0.000000 0.500000
O O16 0.734833 0.423610 0.382195
O O17 0.000000 0.500000 0.500000
#
# Coordination Sequence:
#
# PCOD9089757 Si02
#       8
#     2   2   2   2   2   2   2   2
#     4  10  21  36  62  94 116 151 195 257 313 356
#     4  11  21  37  56  87 117 162 205 239 296 347
#     4  11  23  41  55  85 122 164 207 244 287 345
#     4  12  23  37  63  85 119 157 205 252 293 352
#     4  10  23  39  60  85 126 167 204 239 289 354
#     4   9  18  35  53  86 123 158 192 239 283 352
#     4  10  19  38  61  88 119 159 200 246 302 364
#     4   9  20  37  59  91 121 146 192 251 321 362
#
# _framework density 21.985945999999998
#
# number of rings (size 3 to 8) (size 9 to 14) (size 15 to 20)
#    0.000    1.750    1.250    3.750    3.500    0.000 
#    2.250    6.250    0.000    1.500    0.000    0.000 
#    0.000    0.000    0.000    0.000    0.000    0.000 
#
# Total GULP energy -89378.859918 kJ/mol
# GULP energy per Si atom -5586.178745 kJ/mol
# Density = 2.193590 g / cm^3
# Si number density = 21.985946 Si / 1000 Ang^3
#
#
#
# Elastic Constant Matrix: (Units=GPa)
#
#
# Indices 1 2 3 4 5 6 
#
# 1 77.0943 32.0285 12.9778 -0.7013 -8.9820 22.9022
# 2 32.0285 96.6193 17.9355 2.9822 -10.1687 13.2670
# 3 12.9778 17.9355 94.4736 1.5152 -4.1828 14.5482
# 4 -0.7013 2.9822 1.5152 22.5173 0.2649 -1.4890
# 5 -8.9820 -10.1687 -4.1828 0.2649 19.2641 -5.7287
# 6 22.9022 13.2670 14.5482 -1.4890 -5.7287 34.2263
#
#
#
# Elastic Compliance Matrix: (Units=1/GPa)
#
#
# Indices 1 2 3 4 5 6 
#
# 1 0.018071 -0.004310 -0.000011 0.000445 0.003210 -0.009860
# 2 -0.004310 0.012652 -0.001478 -0.001811 0.004141 -0.000777
# 3 -0.000011 -0.001478 0.011563 -0.000872 0.000460 -0.004296
# 4 0.000445 -0.001811 -0.000872 0.044904 -0.000783 0.002597
# 5 0.003210 0.004141 0.000460 -0.000783 0.057375 0.005620
# 6 -0.009860 -0.000777 -0.004296 0.002597 0.005620 0.038996
#
#
# Mechanical properties :
#
#
# Convention : Reuss Voigt Hill
#
# Bulk Modulus (GPa) = 32.58639 43.78566 38.18602
# Shear Modulus (GPa) = 24.34439 28.88456 26.61447
#
# Velocity S-wave (km/s) = 3.33118 3.62853 3.48303
# Velocity P-wave (km/s) = 5.44512 6.12483 5.79495
#
# Compressibility (1/GPa) = 0.03068766
#
# Stress axis : x y z
#
# Youngs Moduli (GPa) = 55.33818 79.04191 86.48384
#
# Poissons Ratio (x) = 0.34070 0.00093
# Poissons Ratio (y) = 0.23853 0.12779
# Poissons Ratio (z) = 0.00059 0.11680
#
# Static dielectric constant tensor:
#      x y z
#    x 1.904850 -0.017630 -0.048210 
#    y -0.017630 1.898950 0.002740 
#    z -0.048210 0.002740 1.847580 
# 
# From -- ./inp_files/364775.got.cif
#   From: 2010.05.17/outbox.cif.g08.bks.cpg/sg2_183_cif.got.tgz:364775.got - 2010.06.03 11:33:40.
