data_PCOD9089638
_publ_section_title
;
Structure prediction by ZEFSAII (Michael W. Deem and Ramdas Pophale) SiO2 
 PCOD9089638
Probable space group: P -1
;
_chemical_formula_sum "Si O2"
_cell_formula_units_Z 16
_cell_length_a 9.058559
_cell_length_b 17.678857
_cell_length_c 14.977915
_cell_angle_alpha 156.260762
_cell_angle_beta 41.875123
_cell_angle_gamma 127.338798
_cell_volume 618.904218
_symmetry_space_group_name_H-M "P -1"
_symmetry_group_IT_number 2
_symmetry_cell_setting 'triclinic'
loop_
_space_group_symop_operation_xyz
x,y,z
-x,-y,-z
loop_
_atom_site_type_symbol
_atom_site_label
_atom_site_fract_x
_atom_site_fract_y
_atom_site_fract_z
Si Si1 0.325285 0.771639 0.426905
Si Si2 0.187384 0.129616 0.273600
Si Si3 0.524941 0.701937 0.800721
Si Si4 0.254248 0.238750 0.551744
Si Si5 0.272928 0.737911 0.699089
Si Si6 0.117702 0.685431 0.075685
Si Si7 0.234628 0.171647 0.007678
Si Si8 0.528066 0.356799 0.966143
O O1 0.487936 0.576547 0.186636
O O2 0.068066 0.748229 0.506965
O O3 0.405539 0.780790 0.298571
O O4 0.306048 0.967083 0.702247
O O5 0.373828 0.233806 0.265290
O O6 0.218064 0.113722 0.348565
O O7 0.219549 0.920039 0.987232
O O8 0.649703 0.472590 0.515697
O O9 0.621073 0.823751 0.963594
O O10 0.257688 0.726686 0.971954
O O11 0.515122 0.248337 0.442728
O O12 0.136324 0.193216 0.646376
O O13 0.115543 0.460613 0.825209
O O14 0.036007 0.766512 0.783493
O O15 0.280524 0.692767 0.095928
O O16 0.298651 0.328762 0.083774
#
# Coordination Sequence:
#
# PCOD9089638 Si02
#       8
#     2   2   2   2   2   2   2   2
#     4  10  21  34  60  90 115 153 190 238 297 345
#     4  11  22  38  61  88 121 150 199 241 285 348
#     4  10  22  38  61  88 118 153 191 246 294 339
#     4  10  20  39  61  84 116 160 197 236 286 343
#     4  10  22  37  59  87 117 160 191 236 292 344
#     4   9  20  38  63  84 115 157 196 238 290 345
#     4  10  21  36  57  89 119 149 191 241 290 349
#     4  10  19  38  60  85 120 150 189 241 296 346
#
# _framework density 25.852142000000001
#
# number of rings (size 3 to 8) (size 9 to 14) (size 15 to 20)
#    0.000    2.000    1.250    1.875    0.000    9.000 
#    0.000    0.625    0.000    0.000    0.000    0.000 
#    0.000    0.000    0.000    0.000    0.000    0.000 
#
# Total GULP energy -89673.464884 kJ/mol
# GULP energy per Si atom -5604.591555 kJ/mol
# Density = 2.579330 g / cm^3
# Si number density = 25.852142 Si / 1000 Ang^3
#
#
#
# Elastic Constant Matrix: (Units=GPa)
#
#
# Indices 1 2 3 4 5 6 
#
# 1 46.5834 13.6246 7.6885 -7.6318 3.7778 12.4388
# 2 13.6246 115.3264 39.6247 -6.9277 -10.3506 5.5063
# 3 7.6885 39.6247 105.0992 -14.2601 14.2678 2.4676
# 4 -7.6318 -6.9277 -14.2601 53.1378 9.6156 -10.0214
# 5 3.7778 -10.3506 14.2678 9.6156 35.1125 -7.0720
# 6 12.4388 5.5063 2.4676 -10.0214 -7.0720 40.1292
#
#
#
# Elastic Compliance Matrix: (Units=1/GPa)
#
#
# Indices 1 2 3 4 5 6 
#
# 1 0.025436 -0.003334 0.000896 0.003161 -0.006529 -0.007843
# 2 -0.003334 0.011245 -0.005040 -0.001386 0.006211 0.000549
# 3 0.000896 -0.005040 0.013072 0.004326 -0.008231 -0.000760
# 4 0.003161 -0.001386 0.004326 0.022283 -0.007984 0.003102
# 5 -0.006529 0.006211 -0.008231 -0.007984 0.037823 0.006350
# 6 -0.007843 0.000549 -0.000760 0.003102 0.006350 0.029216
#
#
# Mechanical properties :
#
#
# Convention : Reuss Voigt Hill
#
# Bulk Modulus (GPa) = 28.73932 43.20939 35.97436
# Shear Modulus (GPa) = 30.18794 39.41398 34.80096
#
# Velocity S-wave (km/s) = 3.42089 3.90884 3.67298
# Velocity P-wave (km/s) = 5.17149 6.09281 5.65096
#
# Compressibility (1/GPa) = 0.03479553
#
# Stress axis : x y z
#
# Youngs Moduli (GPa) = 39.31444 88.93197 76.50194
#
# Poissons Ratio (x) = 0.29654 -0.06853
# Poissons Ratio (y) = 0.13109 0.38554
# Poissons Ratio (z) = -0.03522 0.44819
#
# Static dielectric constant tensor:
#      x y z
#    x 2.019580 -0.004340 -0.023970 
#    y -0.004340 2.011920 -0.004060 
#    z -0.023970 -0.004060 2.086980 
# 
# From -- ./inp_files/260116.got.cif
#   From: 2010.05.17/outbox.cif.g08.bks.cpg/sg2_131_cif.got.tgz:260116.got - 2010.06.03 11:33:40.
