data_PCOD9089052
_publ_section_title
;
Structure prediction by ZEFSAII (Michael W. Deem and Ramdas Pophale) SiO2 
 PCOD9089052
Probable space group: P -1
;
_chemical_formula_sum "Si O2"
_cell_formula_units_Z 15
_cell_length_a 6.895220
_cell_length_b 8.902031
_cell_length_c 13.143307
_cell_angle_alpha 59.315616
_cell_angle_beta 114.748958
_cell_angle_gamma 124.482750
_cell_volume 562.241338
_symmetry_space_group_name_H-M "P -1"
_symmetry_group_IT_number 2
_symmetry_cell_setting 'triclinic'
loop_
_space_group_symop_operation_xyz
x,y,z
-x,-y,-z
loop_
_atom_site_type_symbol
_atom_site_label
_atom_site_fract_x
_atom_site_fract_y
_atom_site_fract_z
Si Si1 0.441941 0.397538 0.688244
Si Si2 0.000000 0.500000 0.500000
Si Si3 0.325047 0.079725 0.631113
Si Si4 0.726924 0.323994 0.149264
Si Si5 0.641068 0.837419 0.046033
Si Si6 0.011937 0.742408 0.029724
Si Si7 0.812618 0.067711 0.557849
Si Si8 0.306732 0.275443 0.217417
O O1 0.507447 0.289697 0.646790
O O2 0.366030 0.235205 0.816681
O O3 0.643169 0.595223 0.714635
O O4 0.218704 0.438455 0.598347
O O5 0.847766 0.285098 0.491729
O O6 0.071025 0.080503 0.584982
O O7 0.286892 0.880619 0.747389
O O8 0.360861 0.051994 0.530602
O O9 0.545705 0.360180 0.172506
O O10 0.604533 0.285880 0.024796
O O11 0.967153 0.527819 0.128407
O O12 0.838759 0.794186 0.045488
O O13 0.732826 0.069958 0.973221
O O14 0.905995 0.732023 0.896995
O O15 0.745843 0.944127 0.689380
#
# Coordination Sequence:
#
# PCOD9089052 Si02
#       8
#     2   1   2   2   2   2   2   2
#     4  11  21  40  61  92 128 172 205 270 309 391
#     4  10  22  38  66  88 118 166 224 248 314 368
#     4  10  24  42  61  90 139 160 211 261 330 372
#     4  11  21  41  65 101 124 168 210 275 309 389
#     4  10  20  37  64  95 132 163 215 259 325 370
#     4  10  19  37  64  98 126 167 210 274 308 375
#     4  10  23  45  63  93 124 175 206 273 312 382
#     4  11  21  41  69  89 127 163 226 257 319 370
#
# _framework density 26.678939
#
# number of rings (size 3 to 8) (size 9 to 14) (size 15 to 20)
#    0.000    1.600    2.667    3.200    0.000    3.200 
#    2.400    2.667    0.000    0.000    0.000    0.000 
#    0.000    0.000    0.000    0.000    0.000    0.000 
#
# Total GULP energy -83849.793295 kJ/mol
# GULP energy per Si atom -5589.986220 kJ/mol
# Density = 2.661822 g / cm^3
# Si number density = 26.678939 Si / 1000 Ang^3
#
#
#
# Elastic Constant Matrix: (Units=GPa)
#
#
# Indices 1 2 3 4 5 6 
#
# 1 62.0836 30.6364 27.6091 -9.1452 15.1741 -9.4670
# 2 30.6364 166.6258 37.8658 -10.7353 8.0772 -27.4305
# 3 27.6091 37.8658 110.8035 -15.8808 14.6206 -22.3806
# 4 -9.1452 -10.7353 -15.8808 47.7721 -7.7852 2.4500
# 5 15.1741 8.0772 14.6206 -7.7852 44.3144 -4.2880
# 6 -9.4670 -27.4305 -22.3806 2.4500 -4.2880 37.9220
#
#
#
# Elastic Compliance Matrix: (Units=1/GPa)
#
#
# Indices 1 2 3 4 5 6 
#
# 1 0.020354 -0.002570 -0.003179 0.001389 -0.005143 0.000675
# 2 -0.002570 0.007408 -0.001011 0.000688 0.000383 0.004119
# 3 -0.003179 -0.001011 0.011772 0.002545 -0.001673 0.005069
# 4 0.001389 0.000688 0.002545 0.022568 0.002639 0.001187
# 5 -0.005143 0.000383 -0.001673 0.002639 0.025341 0.000700
# 6 0.000675 0.004119 0.005069 0.001187 0.000700 0.032512
#
#
# Mechanical properties :
#
#
# Convention : Reuss Voigt Hill
#
# Bulk Modulus (GPa) = 38.44276 59.08171 48.76223
# Shear Modulus (GPa) = 35.17506 42.22848 38.70177
#
# Velocity S-wave (km/s) = 3.63500 3.98281 3.81287
# Velocity P-wave (km/s) = 5.66200 6.58361 6.14012
#
# Compressibility (1/GPa) = 0.02601270
#
# Stress axis : x y z
#
# Youngs Moduli (GPa) = 49.13058 134.99732 84.94655
#
# Poissons Ratio (x) = 0.34694 0.27008
# Poissons Ratio (y) = 0.12626 0.08589
# Poissons Ratio (z) = 0.15620 0.13650
#
# Static dielectric constant tensor:
#      x y z
#    x 2.131170 -0.022820 -0.006680 
#    y -0.022820 2.044210 0.025070 
#    z -0.006680 0.025070 2.017330 
# 
# From -- ./inp_files/492139.got.cif
#   From: 2010.05.17/outbox.cif.g08.bks.cpg/sg2_247_cif.got.tgz:492139.got - 2010.06.03 11:33:40.
