data_PCOD9089088
_publ_section_title
;
Structure prediction by ZEFSAII (Michael W. Deem and Ramdas Pophale) SiO2 
 PCOD9089088
Probable space group: P -1
;
_chemical_formula_sum "Si O2"
_cell_formula_units_Z 13
_cell_length_a 14.917363
_cell_length_b 14.968645
_cell_length_c 12.817604
_cell_angle_alpha 147.567018
_cell_angle_beta 33.487785
_cell_angle_gamma 159.748567
_cell_volume 517.432092
_symmetry_space_group_name_H-M "P -1"
_symmetry_group_IT_number 2
_symmetry_cell_setting 'triclinic'
loop_
_space_group_symop_operation_xyz
x,y,z
-x,-y,-z
loop_
_atom_site_type_symbol
_atom_site_label
_atom_site_fract_x
_atom_site_fract_y
_atom_site_fract_z
Si Si1 0.816442 0.132835 0.958382
Si Si2 0.626462 0.481168 0.616899
Si Si3 0.404355 0.534300 0.724149
Si Si4 0.273887 0.622722 0.381863
Si Si5 0.808659 0.144567 0.647593
Si Si6 0.491357 0.106274 0.778206
Si Si7 0.500000 0.000000 0.000000
O O1 0.090818 0.286814 0.802808
O O2 0.548387 0.831337 0.863036
O O3 0.731651 0.242567 0.107917
O O4 0.755900 0.065959 0.073593
O O5 0.518714 0.564632 0.754067
O O6 0.717715 0.524545 0.690876
O O7 0.897992 0.675696 0.482894
O O8 0.389290 0.161758 0.502854
O O9 0.500000 0.500000 0.500000
O O10 0.416852 0.694620 0.204822
O O11 0.000000 0.500000 0.500000
O O12 0.428850 0.889664 0.559594
O O13 0.737753 0.254388 0.758687
O O14 0.744621 0.133347 0.816035
#
# Coordination Sequence:
#
# PCOD9089088 Si02
#       7
#     2   2   2   2   2   2   1
#     4  11  25  41  64  90 126 156 203 255 298 356
#     4  11  22  38  60  86 118 159 205 237 295 360
#     4  12  25  43  62  87 126 169 202 239 298 368
#     4  10  19  37  65  89 120 156 201 255 305 356
#     4  10  20  35  59  88 117 149 197 253 297 358
#     4   9  21  36  59  95 120 151 198 260 309 345
#     4  10  22  38  62  90 116 152 194 252 316 344
#
# _framework density 25.124068000000001
#
# number of rings (size 3 to 8) (size 9 to 14) (size 15 to 20)
#    0.000    1.538    1.538    3.231    2.154    4.923 
#    0.000    1.538    0.000    0.000    0.000    0.000 
#    0.000    0.000    0.000    0.000    0.000    0.000 
#
# Total GULP energy -72461.762004 kJ/mol
# GULP energy per Si atom -5573.981693 kJ/mol
# Density = 2.506688 g / cm^3
# Si number density = 25.124068 Si / 1000 Ang^3
#
#
#
# Elastic Constant Matrix: (Units=GPa)
#
#
# Indices 1 2 3 4 5 6 
#
# 1 195.1650 52.5633 38.7344 -33.7148 11.7033 -15.2241
# 2 52.5633 138.9652 56.7751 -47.4075 -1.0020 3.3998
# 3 38.7344 56.7751 73.9671 -34.8572 19.7094 -8.6123
# 4 -33.7148 -47.4075 -34.8572 57.3850 -5.7075 -4.1795
# 5 11.7033 -1.0020 19.7094 -5.7075 40.4708 -15.1813
# 6 -15.2241 3.3998 -8.6123 -4.1795 -15.1813 44.3695
#
#
#
# Elastic Compliance Matrix: (Units=1/GPa)
#
#
# Indices 1 2 3 4 5 6 
#
# 1 0.006212 -0.001293 -0.000925 0.002151 -0.000263 0.002164
# 2 -0.001293 0.012915 -0.008137 0.005425 0.005143 -0.000742
# 3 -0.000925 -0.008137 0.027565 0.008561 -0.011159 0.002645
# 4 0.002151 0.005425 0.008561 0.028884 0.001355 0.005169
# 5 -0.000263 0.005143 -0.011159 0.001355 0.033949 0.009093
# 6 0.002164 -0.000742 0.002645 0.005169 0.009093 0.027449
#
#
# Mechanical properties :
#
#
# Convention : Reuss Voigt Hill
#
# Bulk Modulus (GPa) = 38.48536 78.24920 58.36728
# Shear Modulus (GPa) = 30.05830 45.78002 37.91916
#
# Velocity S-wave (km/s) = 3.46265 4.27331 3.88916
# Velocity P-wave (km/s) = 5.59803 7.45392 6.59162
#
# Compressibility (1/GPa) = 0.02598391
#
# Stress axis : x y z
#
# Youngs Moduli (GPa) = 160.98525 77.42755 36.27768
#
# Poissons Ratio (x) = 0.10008 0.03356
# Poissons Ratio (y) = 0.20809 0.29517
# Poissons Ratio (z) = 0.14892 0.62999
#
# Static dielectric constant tensor:
#      x y z
#    x 2.342360 -0.109080 -0.044420 
#    y -0.109080 2.127110 0.085460 
#    z -0.044420 0.085460 2.007830 
# 
# From -- ./inp_files/27541.got.cif
#   From: 2010.05.17/outbox.cif.g08.bks.cpg/sg2_14_cif.got.tgz:27541.got - 2010.06.03 11:33:40.
