data_PCOD9089884
_publ_section_title
;
Structure prediction by ZEFSAII (Michael W. Deem and Ramdas Pophale) SiO2 
 PCOD9089884
Probable space group: P -1
;
_chemical_formula_sum "Si O2"
_cell_formula_units_Z 14
_cell_length_a 16.128533
_cell_length_b 19.723434
_cell_length_c 7.783064
_cell_angle_alpha 119.573869
_cell_angle_beta 129.239759
_cell_angle_gamma 20.168389
_cell_volume 612.798515
_symmetry_space_group_name_H-M "P -1"
_symmetry_group_IT_number 2
_symmetry_cell_setting 'triclinic'
loop_
_space_group_symop_operation_xyz
x,y,z
-x,-y,-z
loop_
_atom_site_type_symbol
_atom_site_label
_atom_site_fract_x
_atom_site_fract_y
_atom_site_fract_z
Si Si1 0.088859 0.729095 0.531074
Si Si2 0.319801 0.898857 0.743297
Si Si3 0.830798 0.010877 0.822908
Si Si4 0.705972 0.741348 0.871928
Si Si5 0.298126 0.768535 0.333830
Si Si6 0.384270 0.076929 0.713492
Si Si7 0.659629 0.741977 0.312999
O O1 0.406614 0.480385 0.599650
O O2 0.060545 0.813198 0.748797
O O3 0.885610 0.796289 0.425997
O O4 0.965921 0.853580 0.350365
O O5 0.484614 0.820184 0.688826
O O6 0.283775 0.833037 0.564678
O O7 0.535222 0.775602 0.027409
O O8 0.715620 0.166054 0.770794
O O9 0.564220 0.136632 0.685617
O O10 0.009290 0.912591 0.106991
O O11 0.667096 0.829214 0.778711
O O12 0.613373 0.860390 0.054318
O O13 0.000000 0.500000 0.000000
O O14 0.367904 0.147563 0.624449
O O15 0.000000 0.500000 0.500000
#
# Coordination Sequence:
#
# PCOD9089884 Si02
#       7
#     2   2   2   2   2   2   2
#     4  10  19  38  62  88 119 157 203 253 298 358
#     4   9  21  36  60  89 117 156 207 249 299 369
#     4  10  23  39  62  92 121 158 206 249 303 369
#     4   9  16  31  55  83 112 149 195 242 288 349
#     4  10  20  41  66  87 115 160 210 256 298 351
#     4   9  19  32  53  83 116 151 192 237 294 361
#     4  11  23  41  59  89 132 165 197 253 315 366
#
# _framework density 22.846008999999999
#
# number of rings (size 3 to 8) (size 9 to 14) (size 15 to 20)
#    0.000    2.286    0.000    3.000    0.000    6.857 
#    0.000    6.429    0.000    0.000    0.000    0.000 
#    0.000    0.000    0.000    0.000    0.000    0.000 
#
# Total GULP energy -77973.194452 kJ/mol
# GULP energy per Si atom -5569.513889 kJ/mol
# Density = 2.279401 g / cm^3
# Si number density = 22.846009 Si / 1000 Ang^3
#
#
#
# Elastic Constant Matrix: (Units=GPa)
#
#
# Indices 1 2 3 4 5 6 
#
# 1 76.5520 41.2261 17.5853 -15.9259 -7.2807 7.3196
# 2 41.2261 172.7146 69.0249 -38.2176 2.2677 27.2433
# 3 17.5853 69.0249 148.5522 1.0565 -2.5829 9.6715
# 4 -15.9259 -38.2176 1.0565 45.0638 0.8603 -6.9631
# 5 -7.2807 2.2677 -2.5829 0.8603 39.1431 -1.4292
# 6 7.3196 27.2433 9.6715 -6.9631 -1.4292 28.6573
#
#
#
# Elastic Compliance Matrix: (Units=1/GPa)
#
#
# Indices 1 2 3 4 5 6 
#
# 1 0.015655 -0.002892 -0.000465 0.003001 0.002975 -0.000215
# 2 -0.002892 0.010908 -0.004391 0.007370 -0.001857 -0.006451
# 3 -0.000465 -0.004391 0.008847 -0.004055 0.000854 0.000364
# 4 0.003001 0.007370 -0.004055 0.029732 -0.000761 0.000782
# 5 0.002975 -0.001857 0.000854 -0.000761 0.026349 0.001846
# 6 -0.000215 -0.006451 0.000364 0.000782 0.001846 0.041242
#
#
# Mechanical properties :
#
#
# Convention : Reuss Voigt Hill
#
# Bulk Modulus (GPa) = 50.21590 72.61015 61.41302
# Shear Modulus (GPa) = 32.28607 40.57168 36.42888
#
# Velocity S-wave (km/s) = 3.76334 4.21869 3.99750
# Velocity P-wave (km/s) = 6.39621 7.45528 6.94596
#
# Compressibility (1/GPa) = 0.01991401
#
# Stress axis : x y z
#
# Youngs Moduli (GPa) = 63.87679 91.67878 113.03568
#
# Poissons Ratio (x) = 0.26515 0.05256
# Poissons Ratio (y) = 0.18474 0.49630
# Poissons Ratio (z) = 0.02970 0.40253
#
# Static dielectric constant tensor:
#      x y z
#    x 1.952820 -0.017740 -0.095950 
#    y -0.017740 1.861830 -0.012110 
#    z -0.095950 -0.012110 2.069310 
# 
# From -- ./inp_files/337279.got.cif
#   From: 2010.05.17/outbox.cif.g08.bks.cpg/sg2_169_cif.got.tgz:337279.got - 2010.06.03 11:33:40.
