data_PCOD9089973
_publ_section_title
;
Structure prediction by ZEFSAII (Michael W. Deem and Ramdas Pophale) SiO2 
 PCOD9089973
Probable space group: P -1
;
_chemical_formula_sum "Si O2"
_cell_formula_units_Z 14
_cell_length_a 10.983990
_cell_length_b 9.533663
_cell_length_c 19.833642
_cell_angle_alpha 33.683567
_cell_angle_beta 148.029393
_cell_angle_gamma 132.957250
_cell_volume 607.784610
_symmetry_space_group_name_H-M "P -1"
_symmetry_group_IT_number 2
_symmetry_cell_setting 'triclinic'
loop_
_space_group_symop_operation_xyz
x,y,z
-x,-y,-z
loop_
_atom_site_type_symbol
_atom_site_label
_atom_site_fract_x
_atom_site_fract_y
_atom_site_fract_z
Si Si1 0.111501 0.774288 0.056290
Si Si2 0.375448 0.843039 0.402092
Si Si3 0.364769 0.977311 0.205875
Si Si4 0.422889 0.196894 0.008526
Si Si5 0.243898 0.254613 0.274257
Si Si6 0.056766 0.460454 0.653398
Si Si7 0.884340 0.895974 0.304517
O O1 0.277927 0.748946 0.210863
O O2 0.239716 0.985912 0.991643
O O3 0.112008 0.527451 0.110754
O O4 0.867087 0.878352 0.929558
O O5 0.497946 0.869935 0.376958
O O6 0.525867 0.728660 0.580471
O O7 0.155873 0.678421 0.359013
O O8 0.302402 0.128687 0.280537
O O9 0.455469 0.165414 0.117242
O O10 0.661499 0.093725 0.128761
O O11 0.279001 0.446035 0.812728
O O12 0.097092 0.052553 0.322789
O O13 0.142677 0.302503 0.689712
O O14 0.949132 0.731398 0.467470
#
# Coordination Sequence:
#
# PCOD9089973 Si02
#       7
#     2   2   2   2   2   2   2
#     4   9  18  37  60  86 110 148 203 246 284 342
#     4  10  19  39  60  86 115 153 198 247 290 342
#     4   9  19  37  61  85 112 150 206 238 284 353
#     4  10  19  39  62  87 111 158 203 237 287 357
#     4  10  22  36  58  91 122 146 192 254 301 335
#     4  10  19  38  63  82 120 159 200 241 279 359
#     4  10  22  37  55  91 124 156 191 237 304 354
#
# _framework density 23.034475
#
# number of rings (size 3 to 8) (size 9 to 14) (size 15 to 20)
#    0.857    1.429    1.429    1.286    0.000    2.286 
#    5.143    1.429    0.000    0.000    0.000    0.000 
#    0.000    0.000    0.000    0.000    0.000    0.000 
#
# Total GULP energy -78069.930623 kJ/mol
# GULP energy per Si atom -5576.423616 kJ/mol
# Density = 2.298205 g / cm^3
# Si number density = 23.034475 Si / 1000 Ang^3
#
#
#
# Elastic Constant Matrix: (Units=GPa)
#
#
# Indices 1 2 3 4 5 6 
#
# 1 64.2303 7.6077 8.9378 12.8284 -14.5226 -4.6382
# 2 7.6077 34.0258 11.0782 0.1587 -1.3319 -14.3658
# 3 8.9378 11.0782 70.5160 13.1028 -9.4888 0.5571
# 4 12.8284 0.1587 13.1028 19.0771 1.3047 10.2151
# 5 -14.5226 -1.3319 -9.4888 1.3047 43.3010 3.8765
# 6 -4.6382 -14.3658 0.5571 10.2151 3.8765 22.6662
#
#
#
# Elastic Compliance Matrix: (Units=1/GPa)
#
#
# Indices 1 2 3 4 5 6 
#
# 1 0.023339 0.001137 0.002768 -0.026797 0.007829 0.016166
# 2 0.001137 0.047126 -0.004668 -0.018689 -0.002120 0.039001
# 3 0.002768 -0.004668 0.018329 -0.016838 0.004960 0.003897
# 4 -0.026797 -0.018689 -0.016838 0.119903 -0.010676 -0.069126
# 5 0.007829 -0.002120 0.004960 -0.010676 0.027034 0.000324
# 6 0.016166 0.039001 0.003897 -0.069126 0.000324 0.103148
#
#
# Mechanical properties :
#
#
# Convention : Reuss Voigt Hill
#
# Bulk Modulus (GPa) = 11.45899 24.89105 18.17502
# Shear Modulus (GPa) = 13.53202 26.41874 19.97538
#
# Velocity S-wave (km/s) = 2.42640 3.39030 2.94801
# Velocity P-wave (km/s) = 3.58266 5.11419 4.41534
#
# Compressibility (1/GPa) = 0.08726770
#
# Stress axis : x y z
#
# Youngs Moduli (GPa) = 42.84742 21.21980 54.55834
#
# Poissons Ratio (x) = -0.02414 -0.15103
# Poissons Ratio (y) = -0.04873 0.25470
# Poissons Ratio (z) = -0.11861 0.09906
#
# Static dielectric constant tensor:
#      x y z
#    x 1.850500 -0.020530 -0.044130 
#    y -0.020530 1.846620 -0.002920 
#    z -0.044130 -0.002920 1.964990 
# 
# From -- ./inp_files/610253.got.cif
#   From: 2010.05.17/outbox.cif.g08.bks.cpg/sg2_306_cif.got.tgz:610253.got - 2010.06.03 11:33:40.
