data_PCOD9089178
_publ_section_title
;
Structure prediction by ZEFSAII (Michael W. Deem and Ramdas Pophale) SiO2 
 PCOD9089178
Probable space group: P -1
;
_chemical_formula_sum "Si O2"
_cell_formula_units_Z 16
_cell_length_a 7.871889
_cell_length_b 8.057540
_cell_length_c 12.053904
_cell_angle_alpha 98.230694
_cell_angle_beta 101.136592
_cell_angle_gamma 78.285766
_cell_volume 730.223053
_symmetry_space_group_name_H-M "P -1"
_symmetry_group_IT_number 2
_symmetry_cell_setting 'triclinic'
loop_
_space_group_symop_operation_xyz
x,y,z
-x,-y,-z
loop_
_atom_site_type_symbol
_atom_site_label
_atom_site_fract_x
_atom_site_fract_y
_atom_site_fract_z
Si Si1 0.589214 0.326467 0.557012
Si Si2 0.285610 0.557754 0.062186
Si Si3 0.566171 0.176147 0.770724
Si Si4 0.719289 0.903102 0.098547
Si Si5 0.949564 0.573618 0.154224
Si Si6 0.914068 0.491379 0.606903
Si Si7 0.487042 0.763004 0.874443
Si Si8 0.381911 0.187795 0.344137
O O1 0.500000 0.500000 0.500000
O O2 0.530658 0.304109 0.673911
O O3 0.792719 0.345316 0.583915
O O4 0.523754 0.183304 0.460339
O O5 0.320352 0.741569 0.117732
O O6 0.467524 0.424380 0.087582
O O7 0.148774 0.509564 0.132865
O O8 0.182098 0.527308 0.935500
O O9 0.399339 0.141714 0.816761
O O10 0.655641 0.997459 0.710467
O O11 0.897727 0.770147 0.126014
O O12 0.696311 0.107184 0.118773
O O13 0.628892 0.853626 0.968694
O O14 0.944390 0.550161 0.281756
O O15 0.787868 0.672819 0.632885
O O16 0.000000 0.500000 0.500000
O O17 0.530111 0.751691 0.749605
#
# Coordination Sequence:
#
# PCOD9089178 Si02
#       8
#     2   2   2   2   2   2   2   2
#     4  10  21  39  61  84 114 162 206 248 301 357
#     4  10  19  37  66  83 122 167 202 242 315 369
#     4  11  21  39  62  91 121 161 209 249 298 370
#     4   9  21  33  64  90 123 155 203 258 297 359
#     4  10  20  37  61  91 120 159 201 253 311 357
#     4  11  23  42  63  85 122 159 205 259 309 362
#     4   9  17  39  58  88 123 160 198 244 304 357
#     4  10  21  39  64  87 120 165 206 250 299 365
#
# _framework density 21.911114000000001
#
# number of rings (size 3 to 8) (size 9 to 14) (size 15 to 20)
#    0.000    2.000    2.500    1.125    3.500    2.000 
#    2.250    3.750    0.000    0.000    0.000    0.000 
#    0.000    0.000    0.000    0.000    0.000    0.000 
#
# Total GULP energy -89294.753974 kJ/mol
# GULP energy per Si atom -5580.922123 kJ/mol
# Density = 2.186124 g / cm^3
# Si number density = 21.911114 Si / 1000 Ang^3
#
#
#
# Elastic Constant Matrix: (Units=GPa)
#
#
# Indices 1 2 3 4 5 6 
#
# 1 44.1344 28.8541 21.2797 3.8688 -2.7172 3.9106
# 2 28.8541 115.0384 39.7523 21.1963 13.6129 -3.0780
# 3 21.2797 39.7523 155.6079 -5.6198 -4.9223 2.8010
# 4 3.8688 21.1963 -5.6198 38.9923 6.6640 -6.5747
# 5 -2.7172 13.6129 -4.9223 6.6640 28.7790 -0.4577
# 6 3.9106 -3.0780 2.8010 -6.5747 -0.4577 27.6961
#
#
#
# Elastic Compliance Matrix: (Units=1/GPa)
#
#
# Indices 1 2 3 4 5 6 
#
# 1 0.029272 -0.007350 -0.001883 -0.001047 0.006083 -0.004908
# 2 -0.007350 0.013312 -0.002818 -0.005633 -0.006147 0.001363
# 3 -0.001883 -0.002818 0.007555 0.002454 0.001876 -0.000198
# 4 -0.001047 -0.005633 0.002454 0.030969 -0.004082 0.006558
# 5 0.006083 -0.006147 0.001876 -0.004082 0.039463 -0.002048
# 6 -0.004908 0.001363 -0.000198 0.006558 -0.002048 0.038494
#
#
# Mechanical properties :
#
#
# Convention : Reuss Voigt Hill
#
# Bulk Modulus (GPa) = 38.40451 54.95031 46.67741
# Shear Modulus (GPa) = 26.06287 34.08644 30.07466
#
# Velocity S-wave (km/s) = 3.45263 3.94848 3.70885
# Velocity P-wave (km/s) = 5.78443 6.77646 6.30000
#
# Compressibility (1/GPa) = 0.02603861
#
# Stress axis : x y z
#
# Youngs Moduli (GPa) = 34.16251 75.12225 132.35808
#
# Poissons Ratio (x) = 0.55212 0.24916
# Poissons Ratio (y) = 0.25108 0.37298
# Poissons Ratio (z) = 0.06431 0.21169
#
# Static dielectric constant tensor:
#      x y z
#    x 1.804450 0.002720 -0.002660 
#    y 0.002720 1.887210 0.002330 
#    z -0.002660 0.002330 1.802950 
# 
# From -- ./inp_files/379646.got.cif
#   From: 2010.05.17/outbox.cif.g08.bks.cpg/sg2_190_cif.got.tgz:379646.got - 2010.06.03 11:33:40.
