data_PCOD9089424
_publ_section_title
;
Structure prediction by ZEFSAII (Michael W. Deem and Ramdas Pophale) SiO2 
 PCOD9089424
Probable space group: P -1
;
_chemical_formula_sum "Si O2"
_cell_formula_units_Z 15
_cell_length_a 13.309525
_cell_length_b 16.636306
_cell_length_c 8.141516
_cell_angle_alpha 40.007201
_cell_angle_beta 132.166369
_cell_angle_gamma 145.707613
_cell_volume 649.267467
_symmetry_space_group_name_H-M "P -1"
_symmetry_group_IT_number 2
_symmetry_cell_setting 'triclinic'
loop_
_space_group_symop_operation_xyz
x,y,z
-x,-y,-z
loop_
_atom_site_type_symbol
_atom_site_label
_atom_site_fract_x
_atom_site_fract_y
_atom_site_fract_z
Si Si1 0.170703 0.611226 0.626788
Si Si2 0.570601 0.294073 0.501548
Si Si3 0.645153 0.473300 0.818294
Si Si4 0.295156 0.925485 0.379537
Si Si5 0.369778 0.134962 0.840592
Si Si6 0.000000 0.000000 0.500000
Si Si7 0.295172 0.393222 0.663891
Si Si8 0.788065 0.885382 0.786591
O O1 0.331196 0.728337 0.490276
O O2 0.170532 0.728659 0.563990
O O3 0.000000 0.500000 0.500000
O O4 0.222250 0.517498 0.928909
O O5 0.492778 0.172279 0.762115
O O6 0.703375 0.481721 0.420441
O O7 0.405951 0.258406 0.282686
O O8 0.504644 0.290685 0.866334
O O9 0.507224 0.483185 0.740240
O O10 0.749578 0.599379 0.584613
O O11 0.240758 0.000647 0.329564
O O12 0.500000 0.000000 0.500000
O O13 0.280729 0.975982 0.103383
O O14 0.208050 0.114573 0.616499
O O15 0.072418 0.029589 0.340774
O O16 0.186166 0.212900 0.903089
#
# Coordination Sequence:
#
# PCOD9089424 Si02
#       8
#     2   2   2   2   2   1   2   2
#     4  12  26  46  67 103 143 185 247 288 346 420
#     4  10  21  39  69 102 139 184 224 302 350 420
#     4  10  20  41  71 100 134 186 229 291 355 422
#     4  12  22  45  76  95 138 196 240 280 350 438
#     4  10  21  43  69 102 136 187 236 287 354 422
#     4  10  26  42  64 110 148 166 240 294 356 410
#     4  10  19  37  73 101 132 176 231 284 365 428
#     4  11  21  43  72 105 141 184 231 294 356 427
#
# _framework density 23.102959999999999
#
# number of rings (size 3 to 8) (size 9 to 14) (size 15 to 20)
#    0.000    1.333    5.333    0.400    0.000    2.133 
#    9.600    2.667    2.933    0.000    0.000    0.000 
#    0.000    0.000    0.000    0.000    0.000    0.000 
#
# Total GULP energy -83597.772662 kJ/mol
# GULP energy per Si atom -5573.184844 kJ/mol
# Density = 2.305038 g / cm^3
# Si number density = 23.102960 Si / 1000 Ang^3
#
#
#
# Elastic Constant Matrix: (Units=GPa)
#
#
# Indices 1 2 3 4 5 6 
#
# 1 135.7692 31.0009 52.6435 -21.0515 -24.7356 2.9021
# 2 31.0009 64.8863 38.4987 19.6315 4.4860 4.6364
# 3 52.6435 38.4987 106.2239 16.9063 -13.3341 -0.9879
# 4 -21.0515 19.6315 16.9063 36.8013 0.2675 -0.3240
# 5 -24.7356 4.4860 -13.3341 0.2675 25.3284 -6.6318
# 6 2.9021 4.6364 -0.9879 -0.3240 -6.6318 31.9071
#
#
#
# Elastic Compliance Matrix: (Units=1/GPa)
#
#
# Indices 1 2 3 4 5 6 
#
# 1 0.019352 -0.014078 -0.005328 0.020924 0.019516 0.004389
# 2 -0.014078 0.034786 -0.004961 -0.024233 -0.024703 -0.009308
# 3 -0.005328 -0.004961 0.015677 -0.007614 0.004686 0.002588
# 4 0.020924 -0.024233 -0.007614 0.055466 0.021830 0.006483
# 5 0.019516 -0.024703 0.004686 0.021830 0.069506 0.016628
# 6 0.004389 -0.009308 0.002588 0.006483 0.016628 0.035896
#
#
# Mechanical properties :
#
#
# Convention : Reuss Voigt Hill
#
# Bulk Modulus (GPa) = 47.43755 61.24061 54.33908
# Shear Modulus (GPa) = 17.45540 31.12311 24.28925
#
# Velocity S-wave (km/s) = 2.75171 3.67433 3.24597
# Velocity P-wave (km/s) = 5.53837 6.67579 6.13350
#
# Compressibility (1/GPa) = 0.02108035
#
# Stress axis : x y z
#
# Youngs Moduli (GPa) = 51.67420 28.74720 63.78844
#
# Poissons Ratio (x) = 0.40471 0.33986
# Poissons Ratio (y) = 0.72748 0.31646
# Poissons Ratio (z) = 0.27532 0.14262
#
# Static dielectric constant tensor:
#      x y z
#    x 1.838910 -0.016590 0.004030 
#    y -0.016590 1.885220 -0.014550 
#    z 0.004030 -0.014550 1.896900 
# 
# From -- ./inp_files/318901.got.cif
#   From: 2010.05.17/outbox.cif.g08.bks.cpg/sg2_160_cif.got.tgz:318901.got - 2010.06.03 11:33:40.
