data_PCOD9089567
_publ_section_title
;
Structure prediction by ZEFSAII (Michael W. Deem and Ramdas Pophale) SiO2 
 PCOD9089567
Probable space group: P -1
;
_chemical_formula_sum "Si O2"
_cell_formula_units_Z 16
_cell_length_a 14.452177
_cell_length_b 11.920834
_cell_length_c 13.800030
_cell_angle_alpha 47.947192
_cell_angle_beta 31.272721
_cell_angle_gamma 66.212697
_cell_volume 823.462560
_symmetry_space_group_name_H-M "P -1"
_symmetry_group_IT_number 2
_symmetry_cell_setting 'triclinic'
loop_
_space_group_symop_operation_xyz
x,y,z
-x,-y,-z
loop_
_atom_site_type_symbol
_atom_site_label
_atom_site_fract_x
_atom_site_fract_y
_atom_site_fract_z
Si Si1 0.840659 0.984375 0.070662
Si Si2 0.489054 0.650368 0.293267
Si Si3 0.442150 0.864968 0.717139
Si Si4 0.875040 0.994211 0.807195
Si Si5 0.781636 0.354113 0.293745
Si Si6 0.706195 0.978455 0.603772
Si Si7 0.378888 0.839357 0.134137
Si Si8 0.456760 0.656401 0.663036
O O1 0.663530 0.802963 0.357240
O O2 0.753754 0.123122 0.075212
O O3 0.899627 0.986228 0.905419
O O4 0.000000 0.000000 0.000000
O O5 0.357843 0.595393 0.540846
O O6 0.547403 0.517729 0.265176
O O7 0.691856 0.817437 0.040750
O O8 0.352754 0.688252 0.315061
O O9 0.421725 0.694887 0.782390
O O10 0.500000 0.000000 0.500000
O O11 0.612150 0.925194 0.611623
O O12 0.088983 0.030347 0.553702
O O13 0.806204 0.136313 0.755655
O O14 0.755804 0.174657 0.460640
O O15 0.700762 0.318962 0.277800
O O16 0.000000 0.500000 0.000000
O O17 0.530520 0.860924 0.899438
O O18 0.500000 0.000000 0.000000
#
# Coordination Sequence:
#
# PCOD9089567 Si02
#       8
#     2   2   2   2   2   2   2   2
#     4  11  21  36  65  90 121 165 203 257 316 366
#     4  11  23  42  59  90 130 168 200 258 315 364
#     4  10  19  38  59  86 126 155 207 254 302 371
#     4  11  21  38  66  90 124 162 211 257 308 365
#     4  12  23  37  61  95 133 157 196 263 323 371
#     4  12  21  40  65  94 122 164 211 258 304 369
#     4  10  21  42  63  86 125 167 213 256 293 371
#     4  11  22  38  57  89 130 157 203 255 316 374
#
# _framework density 19.430149
#
# number of rings (size 3 to 8) (size 9 to 14) (size 15 to 20)
#    0.000    1.000    7.500    2.625    1.750    2.000 
#    2.250    0.625    0.000    1.500    0.000    0.000 
#    0.000    0.000    0.000    0.000    0.000    0.000 
#
# Total GULP energy -89213.876619 kJ/mol
# GULP energy per Si atom -5575.867289 kJ/mol
# Density = 1.938592 g / cm^3
# Si number density = 19.430149 Si / 1000 Ang^3
#
#
#
# Elastic Constant Matrix: (Units=GPa)
#
#
# Indices 1 2 3 4 5 6 
#
# 1 102.8111 21.7104 25.0074 1.8711 -21.4545 1.7271
# 2 21.7104 101.1763 18.0907 13.3685 -3.4101 5.5943
# 3 25.0074 18.0907 45.6417 10.6770 -24.4925 2.5234
# 4 1.8711 13.3685 10.6770 21.6809 -6.0900 -6.9889
# 5 -21.4545 -3.4101 -24.4925 -6.0900 29.7037 6.4259
# 6 1.7271 5.5943 2.5234 -6.9889 6.4259 29.5870
#
#
#
# Elastic Compliance Matrix: (Units=1/GPa)
#
#
# Indices 1 2 3 4 5 6 
#
# 1 0.012354 -0.002342 -0.002669 0.003491 0.007346 -0.000822
# 2 -0.002342 0.012080 -0.004189 -0.007313 -0.004718 -0.002493
# 3 -0.002669 -0.004189 0.051091 -0.016290 0.039820 -0.015906
# 4 0.003491 -0.007313 -0.016290 0.063451 -0.002664 0.018135
# 5 0.007346 -0.004718 0.039820 -0.002664 0.075013 -0.019854
# 6 -0.000822 -0.002493 -0.015906 0.018135 -0.019854 0.044270
#
#
# Mechanical properties :
#
#
# Convention : Reuss Voigt Hill
#
# Bulk Modulus (GPa) = 17.50533 42.13846 29.82189
# Shear Modulus (GPa) = 16.90897 28.51568 22.71233
#
# Velocity S-wave (km/s) = 2.95319 3.83508 3.42266
# Velocity P-wave (km/s) = 4.54504 6.42999 5.56786
#
# Compressibility (1/GPa) = 0.05712546
#
# Stress axis : x y z
#
# Youngs Moduli (GPa) = 80.94748 82.78001 19.57289
#
# Poissons Ratio (x) = 0.19385 0.05225
# Poissons Ratio (y) = 0.18956 0.08198
# Poissons Ratio (z) = 0.21609 0.34673
#
# Static dielectric constant tensor:
#      x y z
#    x 1.646190 -0.024930 0.007780 
#    y -0.024930 1.755970 0.029600 
#    z 0.007780 0.029600 1.589070 
# 
# From -- ./inp_files/432571.got.cif
#   From: 2010.05.17/outbox.cif.g08.bks.cpg/sg2_217_cif.got.tgz:432571.got - 2010.06.03 11:33:40.
