data_PCOD9089195
_publ_section_title
;
Structure prediction by ZEFSAII (Michael W. Deem and Ramdas Pophale) SiO2 
 PCOD9089195
Probable space group: P -1
;
_chemical_formula_sum "Si O2"
_cell_formula_units_Z 16
_cell_length_a 11.406733
_cell_length_b 7.361560
_cell_length_c 22.208697
_cell_angle_alpha 87.211748
_cell_angle_beta 156.897290
_cell_angle_gamma 79.970779
_cell_volume 606.258611
_symmetry_space_group_name_H-M "P -1"
_symmetry_group_IT_number 2
_symmetry_cell_setting 'triclinic'
loop_
_space_group_symop_operation_xyz
x,y,z
-x,-y,-z
loop_
_atom_site_type_symbol
_atom_site_label
_atom_site_fract_x
_atom_site_fract_y
_atom_site_fract_z
Si Si1 0.648420 0.445314 0.364708
Si Si2 0.182630 0.785722 0.983715
Si Si3 0.214430 0.225505 0.537054
Si Si4 0.255380 0.660731 0.436413
Si Si5 0.866477 0.404614 0.256982
Si Si6 0.748976 0.818247 0.670939
Si Si7 0.321415 0.220136 0.167239
Si Si8 0.305900 0.047332 0.761445
O O1 0.547146 0.672624 0.342735
O O2 0.332848 0.411620 0.201604
O O3 0.850026 0.408595 0.397146
O O4 0.956642 0.245026 0.555732
O O5 0.869676 0.897425 0.783394
O O6 0.026222 0.769848 0.973392
O O7 0.466988 0.553197 0.091046
O O8 0.390690 0.901656 0.089183
O O9 0.097152 0.206267 0.415884
O O10 0.373348 0.004369 0.651561
O O11 0.500000 0.500000 0.500000
O O12 0.557389 0.697839 0.604709
O O13 0.056633 0.535405 0.357680
O O14 0.891214 0.911925 0.267449
O O15 0.916681 0.344697 0.212245
O O16 0.500000 0.000000 0.500000
O O17 0.478353 0.169042 0.174597
#
# Coordination Sequence:
#
# PCOD9089195 Si02
#       8
#     2   2   2   2   2   2   2   2
#     4  10  20  37  65  93 124 169 217 257 306 372
#     4  11  22  38  61  89 130 168 199 263 332 364
#     4  10  19  37  66  90 123 165 221 253 307 375
#     4   9  19  37  63  85 113 161 205 255 310 372
#     4  10  21  41  63  86 128 164 205 266 324 366
#     4  11  23  39  65  94 115 159 223 263 311 385
#     4  11  23  37  67  95 127 173 214 254 308 382
#     4  10  19  38  60  89 126 166 202 255 327 364
#
# _framework density 26.391375
#
# number of rings (size 3 to 8) (size 9 to 14) (size 15 to 20)
#    0.000    1.750    2.500    3.750    0.000    1.000 
#    0.000    3.125    8.250    0.000    0.000    0.000 
#    0.000    0.000    0.000    0.000    0.000    0.000 
#
# Total GULP energy -89204.188169 kJ/mol
# GULP energy per Si atom -5575.261761 kJ/mol
# Density = 2.633131 g / cm^3
# Si number density = 26.391375 Si / 1000 Ang^3
#
#
#
# Elastic Constant Matrix: (Units=GPa)
#
#
# Indices 1 2 3 4 5 6 
#
# 1 111.0643 30.5025 35.0979 -3.1670 24.8995 -34.0662
# 2 30.5025 102.1078 13.9044 22.7882 0.5258 -20.4114
# 3 35.0979 13.9044 92.0176 6.9004 19.3108 -5.1916
# 4 -3.1670 22.7882 6.9004 46.8650 -2.8616 1.1379
# 5 24.8995 0.5258 19.3108 -2.8616 53.4844 -7.0389
# 6 -34.0662 -20.4114 -5.1916 1.1379 -7.0389 40.3077
#
#
#
# Elastic Compliance Matrix: (Units=1/GPa)
#
#
# Indices 1 2 3 4 5 6 
#
# 1 0.015073 -0.002386 -0.004138 0.002293 -0.004031 0.010230
# 2 -0.002386 0.013001 -0.000612 -0.006420 0.001509 0.004933
# 3 -0.004138 -0.000612 0.013239 -0.002070 -0.003303 -0.002620
# 4 0.002293 -0.006420 -0.002070 0.025020 0.000799 -0.002146
# 5 -0.004031 0.001509 -0.003303 0.000799 0.021890 0.000732
# 6 0.010230 0.004933 -0.002620 -0.002146 0.000732 0.035804
#
#
# Mechanical properties :
#
#
# Convention : Reuss Voigt Hill
#
# Bulk Modulus (GPa) = 36.97795 51.57772 44.27784
# Shear Modulus (GPa) = 33.94161 43.17709 38.55935
#
# Velocity S-wave (km/s) = 3.59010 4.04918 3.82653
# Velocity P-wave (km/s) = 5.58810 6.43793 6.02801
#
# Compressibility (1/GPa) = 0.02704314
#
# Stress axis : x y z
#
# Youngs Moduli (GPa) = 66.34234 76.91844 75.53600
#
# Poissons Ratio (x) = 0.18349 0.31255
# Poissons Ratio (y) = 0.15826 0.04619
# Poissons Ratio (z) = 0.27451 0.04704
#
# Static dielectric constant tensor:
#      x y z
#    x 1.336930 -0.166450 0.216480 
#    y -0.166450 2.107560 -0.025780 
#    z 0.216480 -0.025780 2.080160 
# 
# From -- ./inp_files/610011.got.cif
#   From: 2010.05.17/outbox.cif.g08.bks.cpg/sg2_306_cif.got.tgz:610011.got - 2010.06.03 11:33:40.
