data_PCOD9089920
_publ_section_title
;
Structure prediction by ZEFSAII (Michael W. Deem and Ramdas Pophale) SiO2 
 PCOD9089920
Probable space group: P -1
;
_chemical_formula_sum "Si O2"
_cell_formula_units_Z 16
_cell_length_a 15.073109
_cell_length_b 14.850181
_cell_length_c 11.985094
_cell_angle_alpha 150.845537
_cell_angle_beta 47.830871
_cell_angle_gamma 141.188147
_cell_volume 818.769449
_symmetry_space_group_name_H-M "P -1"
_symmetry_group_IT_number 2
_symmetry_cell_setting 'triclinic'
loop_
_space_group_symop_operation_xyz
x,y,z
-x,-y,-z
loop_
_atom_site_type_symbol
_atom_site_label
_atom_site_fract_x
_atom_site_fract_y
_atom_site_fract_z
Si Si1 0.153735 0.596846 0.612088
Si Si2 0.086092 0.347477 0.061512
Si Si3 0.133527 0.435219 0.701356
Si Si4 0.882553 0.973812 0.657756
Si Si5 0.153245 0.207699 0.066904
Si Si6 0.804139 0.189128 0.782444
Si Si7 0.340269 0.805650 0.292682
Si Si8 0.661560 0.986179 0.243817
O O1 0.174094 0.558356 0.682583
O O2 0.168228 0.417666 0.340038
O O3 0.258217 0.831532 0.722252
O O4 0.998569 0.563829 0.702939
O O5 0.148500 0.244493 0.979114
O O6 0.217115 0.551789 0.112438
O O7 0.968915 0.165579 0.881928
O O8 0.961205 0.295633 0.709664
O O9 0.179888 0.260658 0.486424
O O10 0.191819 0.611243 0.941529
O O11 0.785370 0.022279 0.715224
O O12 0.000000 0.000000 0.500000
O O13 0.268873 0.156536 0.953465
O O14 0.000000 0.000000 0.000000
O O15 0.689178 0.087171 0.671826
O O16 0.321560 0.894185 0.522317
O O17 0.495599 0.847498 0.206840
#
# Coordination Sequence:
#
# PCOD9089920 Si02
#       8
#     2   2   2   2   2   2   2   2
#     4  12  22  42  63  94 129 161 205 261 311 368
#     4  12  21  38  67  94 123 161 207 259 313 365
#     4  10  20  35  64  97 126 155 204 262 309 367
#     4  10  21  34  58 103 124 152 206 262 310 367
#     4  12  24  37  64  93 123 166 206 257 316 362
#     4  10  19  38  62  91 126 163 200 258 314 356
#     4  11  23  45  65  87 130 170 207 258 307 373
#     4  11  27  44  60  93 129 168 212 253 310 373
#
# _framework density 19.541520999999999
#
# number of rings (size 3 to 8) (size 9 to 14) (size 15 to 20)
#    0.000    1.000    5.000    3.375    3.500    0.500 
#    0.000    0.625    0.000    1.500    0.000    0.000 
#    0.000    0.000    0.000    0.000    0.000    0.000 
#
# Total GULP energy -89370.106949 kJ/mol
# GULP energy per Si atom -5585.631684 kJ/mol
# Density = 1.949704 g / cm^3
# Si number density = 19.541521 Si / 1000 Ang^3
#
#
#
# Elastic Constant Matrix: (Units=GPa)
#
#
# Indices 1 2 3 4 5 6 
#
# 1 151.7424 66.8852 58.6896 1.1497 -10.3425 -27.0049
# 2 66.8852 79.1293 32.1391 1.9981 -14.3645 -13.9647
# 3 58.6896 32.1391 59.3627 1.5922 -22.4286 -9.9936
# 4 1.1497 1.9981 1.5922 19.4580 -10.8982 -5.2159
# 5 -10.3425 -14.3645 -22.4286 -10.8982 29.5226 -4.4780
# 6 -27.0049 -13.9647 -9.9936 -5.2159 -4.4780 35.9050
#
#
#
# Elastic Compliance Matrix: (Units=1/GPa)
#
#
# Indices 1 2 3 4 5 6 
#
# 1 0.015859 -0.009010 -0.014473 -0.004402 -0.011089 0.002373
# 2 -0.009010 0.022355 0.002219 0.006430 0.012544 0.005035
# 3 -0.014473 0.002219 0.047460 0.023866 0.042692 0.011978
# 4 -0.004402 0.006430 0.023866 0.087060 0.055713 0.025429
# 5 -0.011089 0.012544 0.042692 0.055713 0.093362 0.028159
# 6 0.002373 0.005035 0.011978 0.025429 0.028159 0.042134
#
#
# Mechanical properties :
#
#
# Convention : Reuss Voigt Hill
#
# Bulk Modulus (GPa) = 23.17724 67.29582 45.23653
# Shear Modulus (GPa) = 13.69332 25.81182 19.75257
#
# Velocity S-wave (km/s) = 2.65000 3.63832 3.18276
# Velocity P-wave (km/s) = 4.60973 7.22232 6.05853
#
# Compressibility (1/GPa) = 0.04314578
#
# Stress axis : x y z
#
# Youngs Moduli (GPa) = 63.05485 44.73240 21.07035
#
# Poissons Ratio (x) = 0.40302 0.30496
# Poissons Ratio (y) = 0.56810 -0.04675
# Poissons Ratio (z) = 0.91262 -0.09925
#
# Static dielectric constant tensor:
#      x y z
#    x 1.791670 -0.059290 0.108660 
#    y -0.059290 1.712960 0.041200 
#    z 0.108660 0.041200 2.014920 
# 
# From -- ./inp_files/451721.got.cif
#   From: 2010.05.17/outbox.cif.g08.bks.cpg/sg2_226_cif.got.tgz:451721.got - 2010.06.03 11:33:40.
