data_PCOD9089820
_publ_section_title
;
Structure prediction by ZEFSAII (Michael W. Deem and Ramdas Pophale) SiO2 
 PCOD9089820
Probable space group: P -1
;
_chemical_formula_sum "Si O2"
_cell_formula_units_Z 16
_cell_length_a 8.916189
_cell_length_b 14.840277
_cell_length_c 24.582004
_cell_angle_alpha 162.793384
_cell_angle_beta 52.871591
_cell_angle_gamma 129.926864
_cell_volume 737.229259
_symmetry_space_group_name_H-M "P -1"
_symmetry_group_IT_number 2
_symmetry_cell_setting 'triclinic'
loop_
_space_group_symop_operation_xyz
x,y,z
-x,-y,-z
loop_
_atom_site_type_symbol
_atom_site_label
_atom_site_fract_x
_atom_site_fract_y
_atom_site_fract_z
Si Si1 0.945036 0.046352 0.698989
Si Si2 0.084004 0.626329 0.936777
Si Si3 0.490578 0.695094 0.862351
Si Si4 0.286619 0.750145 0.409192
Si Si5 0.151603 0.298462 0.362200
Si Si6 0.562891 0.644241 0.510004
Si Si7 0.723286 0.098043 0.125509
Si Si8 0.101810 0.320961 0.099137
O O1 0.027511 0.419517 0.884156
O O2 0.111838 0.886449 0.547242
O O3 0.733611 0.962807 0.666153
O O4 0.898264 0.890809 0.678765
O O5 0.263742 0.510974 0.805223
O O6 0.921965 0.558533 0.885737
O O7 0.140862 0.004449 0.153889
O O8 0.650960 0.502303 0.709684
O O9 0.500000 0.000000 0.000000
O O10 0.533228 0.838386 0.996394
O O11 0.211101 0.574352 0.266885
O O12 0.500000 0.000000 0.500000
O O13 0.362274 0.561900 0.472722
O O14 0.000000 0.500000 0.500000
O O15 0.500000 0.500000 0.500000
O O16 0.682099 0.425762 0.330877
O O17 0.889073 0.152288 0.074294
O O18 0.793575 0.960602 0.084809
#
# Coordination Sequence:
#
# PCOD9089820 Si02
#       8
#     2   2   2   2   2   2   2   2
#     4  11  25  46  68  96 142 175 218 280 340 401
#     4  12  24  44  65 100 139 174 222 278 344 399
#     4  11  22  36  64 100 129 174 219 271 323 395
#     4  11  23  43  64  99 139 175 215 269 343 402
#     4  11  27  46  73  98 125 179 237 281 324 398
#     4  10  22  41  68  93 127 176 226 273 326 392
#     4  10  19  38  61  95 129 167 223 273 318 386
#     4  10  23  36  65  97 134 172 215 275 333 388
#
# _framework density 21.702881999999999
#
# number of rings (size 3 to 8) (size 9 to 14) (size 15 to 20)
#    0.000    1.250    5.000    0.375    5.250    0.500 
#    4.500    0.625    0.000    0.000    0.000    0.000 
#    0.000    0.000    0.000    0.000    0.000    0.000 
#
# Total GULP energy -89118.551428 kJ/mol
# GULP energy per Si atom -5569.909464 kJ/mol
# Density = 2.165349 g / cm^3
# Si number density = 21.702882 Si / 1000 Ang^3
#
#
#
# Elastic Constant Matrix: (Units=GPa)
#
#
# Indices 1 2 3 4 5 6 
#
# 1 140.6042 32.3754 42.1936 9.0075 -6.6981 -3.7482
# 2 32.3754 64.6613 13.9395 15.7812 -12.4818 -7.9728
# 3 42.1936 13.9395 62.5474 11.0461 -8.0610 -0.1545
# 4 9.0075 15.7812 11.0461 27.6599 -3.7205 -0.1475
# 5 -6.6981 -12.4818 -8.0610 -3.7205 26.3379 8.8906
# 6 -3.7482 -7.9728 -0.1545 -0.1475 8.8906 34.5566
#
#
#
# Elastic Compliance Matrix: (Units=1/GPa)
#
#
# Indices 1 2 3 4 5 6 
#
# 1 0.009739 -0.004110 -0.006068 0.001429 -0.001266 0.000413
# 2 -0.004110 0.021572 0.000695 -0.010286 0.007032 0.002681
# 3 -0.006068 0.000695 0.021714 -0.006413 0.005115 -0.001744
# 4 0.001429 -0.010286 -0.006413 0.044174 0.000504 -0.002188
# 5 -0.001266 0.007032 0.005115 0.000504 0.046110 -0.010353
# 6 0.000413 0.002681 -0.001744 -0.002188 -0.010353 0.032248
#
#
# Mechanical properties :
#
#
# Convention : Reuss Voigt Hill
#
# Bulk Modulus (GPa) = 29.36218 49.42555 39.39387
# Shear Modulus (GPa) = 24.28643 29.66451 26.97547
#
# Velocity S-wave (km/s) = 3.34884 3.70110 3.52937
# Velocity P-wave (km/s) = 5.33961 6.40994 5.89910
#
# Compressibility (1/GPa) = 0.03405742
#
# Stress axis : x y z
#
# Youngs Moduli (GPa) = 102.68342 46.35655 46.05347
#
# Poissons Ratio (x) = 0.19053 0.27945
# Poissons Ratio (y) = 0.42204 -0.03199
# Poissons Ratio (z) = 0.62309 -0.03220
#
# Static dielectric constant tensor:
#      x y z
#    x 1.868610 0.001800 0.021460 
#    y 0.001800 1.756790 0.024160 
#    z 0.021460 0.024160 1.811100 
# 
# From -- ./inp_files/589777.got.cif
#   From: 2010.05.17/outbox.cif.g08.bks.cpg/sg2_295_cif.got.tgz:589777.got - 2010.06.03 11:33:40.
