data_PCOD9089086
_publ_section_title
;
Structure prediction by ZEFSAII (Michael W. Deem and Ramdas Pophale) SiO2 
 PCOD9089086
Probable space group: P -1
;
_chemical_formula_sum "Si O2"
_cell_formula_units_Z 12
_cell_length_a 11.382207
_cell_length_b 8.521738
_cell_length_c 10.721817
_cell_angle_alpha 136.224280
_cell_angle_beta 39.284699
_cell_angle_gamma 120.570751
_cell_volume 452.554656
_symmetry_space_group_name_H-M "P -1"
_symmetry_group_IT_number 2
_symmetry_cell_setting 'triclinic'
loop_
_space_group_symop_operation_xyz
x,y,z
-x,-y,-z
loop_
_atom_site_type_symbol
_atom_site_label
_atom_site_fract_x
_atom_site_fract_y
_atom_site_fract_z
Si Si1 0.277674 0.259073 0.912458
Si Si2 0.764757 0.985492 0.537357
Si Si3 0.197323 0.378126 0.308083
Si Si4 0.689626 0.202468 0.453293
Si Si5 0.875926 0.327655 0.862496
Si Si6 0.609817 0.089131 0.077870
O O1 0.467087 0.233935 0.664681
O O2 0.232114 0.999697 0.819043
O O3 0.315128 0.369212 0.077932
O O4 0.129962 0.423580 0.050544
O O5 0.764185 0.105378 0.471649
O O6 0.813804 0.169445 0.707672
O O7 0.556154 0.909981 0.684811
O O8 0.925429 0.776033 0.306363
O O9 0.261813 0.541611 0.454456
O O10 0.000000 0.500000 0.500000
O O11 0.217819 0.114318 0.172903
O O12 0.711182 0.308780 0.088265
O O13 0.500000 0.000000 0.000000
#
# Coordination Sequence:
#
# PCOD9089086 Si02
#       6
#     2   2   2   2   2   2
#     4  11  24  41  67  95 127 169 217 262 320 386
#     4  10  19  37  65  88 128 169 210 263 319 380
#     4  12  24  41  69  93 128 171 211 270 322 376
#     4  11  22  42  67  93 128 171 215 261 323 384
#     4  10  21  38  63  95 125 167 217 259 321 385
#     4  10  21  36  63  95 123 164 216 257 319 384
#
# _framework density 26.516134999999998
#
# number of rings (size 3 to 8) (size 9 to 14) (size 15 to 20)
#    0.000    1.333    3.333    3.500    4.667    1.333 
#    0.000    0.833    7.333    0.000    0.000    0.000 
#    0.000    0.000    0.000    0.000    0.000    0.000 
#
# Total GULP energy -67112.509407 kJ/mol
# GULP energy per Si atom -5592.709117 kJ/mol
# Density = 2.645578 g / cm^3
# Si number density = 26.516135 Si / 1000 Ang^3
#
#
#
# Elastic Constant Matrix: (Units=GPa)
#
#
# Indices 1 2 3 4 5 6 
#
# 1 75.0267 0.2373 37.4740 0.6015 -8.1826 -8.3988
# 2 0.2373 64.8454 39.5205 7.4980 5.8369 4.4511
# 3 37.4740 39.5205 102.4671 15.4406 -21.6080 10.9566
# 4 0.6015 7.4980 15.4406 37.1822 3.4800 -8.4108
# 5 -8.1826 5.8369 -21.6080 3.4800 40.0646 10.4737
# 6 -8.3988 4.4511 10.9566 -8.4108 10.4737 32.4954
#
#
#
# Elastic Compliance Matrix: (Units=1/GPa)
#
#
# Indices 1 2 3 4 5 6 
#
# 1 0.022642 0.009387 -0.017615 0.009926 -0.011492 0.016779
# 2 0.009387 0.027347 -0.019906 0.007011 -0.016703 0.012590
# 3 -0.017615 -0.019906 0.035486 -0.019232 0.027320 -0.027575
# 4 0.009926 0.007011 -0.019232 0.040755 -0.019415 0.024896
# 5 -0.011492 -0.016703 0.027320 -0.019415 0.049542 -0.030887
# 6 0.016779 0.012590 -0.027575 0.024896 -0.030887 0.059082
#
#
# Mechanical properties :
#
#
# Convention : Reuss Voigt Hill
#
# Bulk Modulus (GPa) = 34.23456 44.08919 39.16188
# Shear Modulus (GPa) = 16.61916 32.95561 24.78738
#
# Velocity S-wave (km/s) = 2.50623 3.52923 3.06077
# Velocity P-wave (km/s) = 4.61668 5.76808 5.22420
#
# Compressibility (1/GPa) = 0.02921024
#
# Stress axis : x y z
#
# Youngs Moduli (GPa) = 44.16500 36.56679 28.17984
#
# Poissons Ratio (x) = -0.34327 0.49638
# Poissons Ratio (y) = -0.41460 0.56094
# Poissons Ratio (z) = 0.77795 0.72789
#
# Static dielectric constant tensor:
#      x y z
#    x 2.135850 0.018170 0.086120 
#    y 0.018170 2.131950 0.016260 
#    z 0.086120 0.016260 2.103890 
# 
# From -- ./inp_files/149904.got.cif
#   From: 2010.05.17/outbox.cif.g08.bks.cpg/sg2_75_cif.got.tgz:149904.got - 2010.06.03 11:33:40.
