data_PCOD9089031
_publ_section_title
;
Structure prediction by ZEFSAII (Michael W. Deem and Ramdas Pophale) SiO2 
 PCOD9089031
Probable space group: P -1
;
_chemical_formula_sum "Si O2"
_cell_formula_units_Z 16
_cell_length_a 15.058122
_cell_length_b 10.045941
_cell_length_c 12.770616
_cell_angle_alpha 146.981033
_cell_angle_beta 130.426310
_cell_angle_gamma 68.710038
_cell_volume 721.374638
_symmetry_space_group_name_H-M "P -1"
_symmetry_group_IT_number 2
_symmetry_cell_setting 'triclinic'
loop_
_space_group_symop_operation_xyz
x,y,z
-x,-y,-z
loop_
_atom_site_type_symbol
_atom_site_label
_atom_site_fract_x
_atom_site_fract_y
_atom_site_fract_z
Si Si1 0.389381 0.245576 0.903696
Si Si2 0.405878 0.900672 0.105869
Si Si3 0.802097 0.587735 0.257788
Si Si4 0.152424 0.260993 0.196500
Si Si5 0.060197 0.779006 0.663526
Si Si6 0.705629 0.164890 0.250547
Si Si7 0.413753 0.149447 0.495860
Si Si8 0.868779 0.137249 0.898156
O O1 0.454808 0.103833 0.785179
O O2 0.276378 0.299406 0.799733
O O3 0.339900 0.067454 0.851933
O O4 0.504854 0.536245 0.212189
O O5 0.395636 0.089155 0.316279
O O6 0.294865 0.603851 0.855350
O O7 0.381521 0.931349 0.984513
O O8 0.934300 0.813922 0.554404
O O9 0.849128 0.384049 0.100373
O O10 0.274134 0.551100 0.493190
O O11 0.133493 0.107050 0.191151
O O12 0.018708 0.273915 0.067927
O O13 0.156314 0.037290 0.972934
O O14 0.148643 0.757427 0.625594
O O15 0.000000 0.500000 0.500000
O O16 0.500000 0.000000 0.500000
O O17 0.275344 0.021001 0.365556
#
# Coordination Sequence:
#
# PCOD9089031 Si02
#       8
#     2   2   2   2   2   2   2   2
#     4  12  27  44  66  98 144 180 213 279 342 399
#     4  11  24  43  69  97 132 178 230 270 323 406
#     4  11  22  42  67 100 130 169 225 284 326 388
#     4  11  22  38  67  97 130 169 221 277 329 393
#     4  12  21  41  71 100 130 173 230 280 329 390
#     4  12  26  44  66 101 141 176 219 276 341 400
#     4  11  23  41  68  99 132 172 223 277 329 388
#     4  10  19  37  64  95 124 161 220 278 320 372
#
# _framework density 22.179876
#
# number of rings (size 3 to 8) (size 9 to 14) (size 15 to 20)
#    0.000    0.750    6.250    3.000    1.750    2.000 
#    0.000    0.625    0.000    0.000    0.000    0.000 
#    0.000    0.000    0.000    0.000    0.000    0.000 
#
# Total GULP energy -89309.151308 kJ/mol
# GULP energy per Si atom -5581.821957 kJ/mol
# Density = 2.212939 g / cm^3
# Si number density = 22.179876 Si / 1000 Ang^3
#
#
#
# Elastic Constant Matrix: (Units=GPa)
#
#
# Indices 1 2 3 4 5 6 
#
# 1 69.9306 20.2296 1.1994 -2.3657 4.7169 -16.2722
# 2 20.2296 81.1666 17.4687 -18.0933 8.9043 -11.0715
# 3 1.1994 17.4687 92.6791 -20.2420 -7.5785 -1.4008
# 4 -2.3657 -18.0933 -20.2420 32.7698 -7.3564 11.0709
# 5 4.7169 8.9043 -7.5785 -7.3564 29.8735 -8.6389
# 6 -16.2722 -11.0715 -1.4008 11.0709 -8.6389 31.0004
#
#
#
# Elastic Compliance Matrix: (Units=1/GPa)
#
#
# Indices 1 2 3 4 5 6 
#
# 1 0.017462 -0.003976 -0.000258 -0.004216 -0.000004 0.009239
# 2 -0.003976 0.015456 -0.001655 0.006523 -0.002714 0.000273
# 3 -0.000258 -0.001655 0.013598 0.009388 0.005758 -0.001860
# 4 -0.004216 0.006523 0.009388 0.046105 0.008540 -0.013544
# 5 -0.000004 -0.002714 0.005758 0.008540 0.039982 0.007381
# 6 0.009239 0.000273 -0.001860 -0.013544 0.007381 0.044014
#
#
# Mechanical properties :
#
#
# Convention : Reuss Voigt Hill
#
# Bulk Modulus (GPa) = 28.78595 35.73020 32.25807
# Shear Modulus (GPa) = 25.00306 32.38733 28.69520
#
# Velocity S-wave (km/s) = 3.36115 3.82542 3.60077
# Velocity P-wave (km/s) = 5.29808 5.97127 5.64472
#
# Compressibility (1/GPa) = 0.03473917
#
# Stress axis : x y z
#
# Youngs Moduli (GPa) = 57.26776 64.69779 73.53811
#
# Poissons Ratio (x) = 0.25722 0.01898
# Poissons Ratio (y) = 0.22768 0.12170
# Poissons Ratio (z) = 0.01478 0.10707
#
# Static dielectric constant tensor:
#      x y z
#    x 1.868120 -0.047790 -0.046730 
#    y -0.047790 1.803680 -0.060100 
#    z -0.046730 -0.060100 1.913550 
# 
# From -- ./inp_files/448418.got.cif
#   From: 2010.05.17/outbox.cif.g08.bks.cpg/sg2_225_cif.got.tgz:448418.got - 2010.06.03 11:33:40.
