data_PCOD9089956
_publ_section_title
;
Structure prediction by ZEFSAII (Michael W. Deem and Ramdas Pophale) SiO2 
 PCOD9089956
Probable space group: P -1
;
_chemical_formula_sum "Si O2"
_cell_formula_units_Z 16
_cell_length_a 12.367956
_cell_length_b 12.440150
_cell_length_c 9.397658
_cell_angle_alpha 90.990536
_cell_angle_beta 118.587062
_cell_angle_gamma 132.503848
_cell_volume 796.013996
_symmetry_space_group_name_H-M "P -1"
_symmetry_group_IT_number 2
_symmetry_cell_setting 'triclinic'
loop_
_space_group_symop_operation_xyz
x,y,z
-x,-y,-z
loop_
_atom_site_type_symbol
_atom_site_label
_atom_site_fract_x
_atom_site_fract_y
_atom_site_fract_z
Si Si1 0.308943 0.112709 0.931167
Si Si2 0.021235 0.084616 0.869970
Si Si3 0.926908 0.702542 0.708769
Si Si4 0.648172 0.196560 0.625509
Si Si5 0.618177 0.357828 0.379619
Si Si6 0.455568 0.703854 0.199741
Si Si7 0.952730 0.647628 0.035916
Si Si8 0.345789 0.275653 0.441273
O O1 0.194409 0.145984 0.893610
O O2 0.398363 0.173921 0.832552
O O3 0.491035 0.236568 0.159954
O O4 0.141949 0.905028 0.834589
O O5 0.038787 0.220589 0.919349
O O6 0.819350 0.928702 0.655862
O O7 0.000000 0.000000 0.000000
O O8 0.823305 0.564807 0.512484
O O9 0.776508 0.698601 0.643785
O O10 0.927898 0.628440 0.848067
O O11 0.658223 0.279386 0.496261
O O12 0.565558 0.213034 0.701742
O O13 0.855295 0.286338 0.799482
O O14 0.500000 0.000000 0.500000
O O15 0.472129 0.332861 0.383510
O O16 0.523706 0.647333 0.334753
O O17 0.235249 0.529223 0.008667
#
# Coordination Sequence:
#
# PCOD9089956 Si02
#       8
#     2   2   2   2   2   2   2   2
#     4  11  24  44  63 103 137 166 211 277 342 366
#     4  11  20  36  70  94 131 171 214 265 315 403
#     4  11  21  37  71  90 129 175 221 261 317 403
#     4  11  24  44  71  92 124 176 229 265 314 395
#     4  11  21  40  67  91 124 175 226 260 316 402
#     4  11  26  41  64  97 139 161 212 286 325 375
#     4  12  21  41  68  98 122 175 223 263 319 390
#     4  10  19  38  62  97 125 172 221 260 322 384
#
# _framework density 20.100148999999998
#
# number of rings (size 3 to 8) (size 9 to 14) (size 15 to 20)
#    0.000    1.000    6.250    3.000    1.750    2.500 
#    4.500    3.125    0.000    0.000    0.000    0.000 
#    0.000    0.000    0.000    0.000    0.000    0.000 
#
# Total GULP energy -89334.750313 kJ/mol
# GULP energy per Si atom -5583.421895 kJ/mol
# Density = 2.005440 g / cm^3
# Si number density = 20.100149 Si / 1000 Ang^3
#
#
#
# Elastic Constant Matrix: (Units=GPa)
#
#
# Indices 1 2 3 4 5 6 
#
# 1 66.7549 31.1431 32.2846 -8.0567 13.4862 2.2102
# 2 31.1431 72.2001 32.4203 7.9285 2.2486 -1.1628
# 3 32.2846 32.4203 107.1348 18.8883 16.6954 1.9273
# 4 -8.0567 7.9285 18.8883 25.3019 2.1957 -6.8786
# 5 13.4862 2.2486 16.6954 2.1957 24.9614 4.5946
# 6 2.2102 -1.1628 1.9273 -6.8786 4.5946 31.2924
#
#
#
# Elastic Compliance Matrix: (Units=1/GPa)
#
#
# Indices 1 2 3 4 5 6 
#
# 1 0.027894 -0.010672 -0.006809 0.019466 -0.012022 0.004097
# 2 -0.010672 0.020258 -0.002337 -0.008912 0.006521 -0.001266
# 3 -0.006809 -0.002337 0.015170 -0.013108 -0.004599 -0.002746
# 4 0.019466 -0.008912 -0.013108 0.062973 -0.009115 0.014282
# 5 -0.012022 0.006521 -0.004599 -0.009115 0.051351 -0.008169
# 6 0.004097 -0.001266 -0.002746 0.014282 -0.008169 0.036128
#
#
# Mechanical properties :
#
#
# Convention : Reuss Voigt Hill
#
# Bulk Modulus (GPa) = 42.21539 48.64287 45.42913
# Shear Modulus (GPa) = 19.13475 26.32725 22.73100
#
# Velocity S-wave (km/s) = 3.08875 3.62305 3.36651
# Velocity P-wave (km/s) = 5.81108 6.46179 6.14505
#
# Compressibility (1/GPa) = 0.02368804
#
# Stress axis : x y z
#
# Youngs Moduli (GPa) = 35.84967 49.36307 65.92014
#
# Poissons Ratio (x) = 0.52680 0.44882
# Poissons Ratio (y) = 0.38259 0.15403
# Poissons Ratio (z) = 0.24408 0.11534
#
# Static dielectric constant tensor:
#      x y z
#    x 1.678770 -0.014590 -0.002550 
#    y -0.014590 1.718780 0.047190 
#    z -0.002550 0.047190 1.772840 
# 
# From -- ./inp_files/186183.got.cif
#   From: 2010.05.17/outbox.cif.g08.bks.cpg/sg2_94_cif.got.tgz:186183.got - 2010.06.03 11:33:40.
