data_PCOD9089790
_publ_section_title
;
Structure prediction by ZEFSAII (Michael W. Deem and Ramdas Pophale) SiO2 
 PCOD9089790
Probable space group: P -1
;
_chemical_formula_sum "Si O2"
_cell_formula_units_Z 12
_cell_length_a 6.664391
_cell_length_b 13.652804
_cell_length_c 12.697188
_cell_angle_alpha 32.617101
_cell_angle_beta 115.516506
_cell_angle_gamma 129.113429
_cell_volume 468.986893
_symmetry_space_group_name_H-M "P -1"
_symmetry_group_IT_number 2
_symmetry_cell_setting 'triclinic'
loop_
_space_group_symop_operation_xyz
x,y,z
-x,-y,-z
loop_
_atom_site_type_symbol
_atom_site_label
_atom_site_fract_x
_atom_site_fract_y
_atom_site_fract_z
Si Si1 0.223526 0.266641 0.076587
Si Si2 0.585073 0.300709 0.524138
Si Si3 0.254092 0.653460 0.847433
Si Si4 0.962054 0.848366 0.502226
Si Si5 0.154598 0.459580 0.419774
Si Si6 0.681313 0.126456 0.023639
O O1 0.470242 0.252278 0.113744
O O2 0.972736 0.172266 0.029300
O O3 0.095088 0.105785 0.295029
O O4 0.283256 0.500734 0.909770
O O5 0.660582 0.439198 0.526059
O O6 0.866886 0.407162 0.435951
O O7 0.349276 0.283478 0.416661
O O8 0.459286 0.047141 0.756936
O O9 0.174750 0.806999 0.637415
O O10 0.000000 0.500000 0.000000
O O11 0.914635 0.762300 0.448188
O O12 0.272970 0.636973 0.190325
O O13 0.500000 0.000000 0.000000
#
# Coordination Sequence:
#
# PCOD9089790 Si02
#       6
#     2   2   2   2   2   2
#     4  10  23  42  60  90 125 160 207 262 307 368
#     4   9  21  35  61  95 123 167 207 247 313 378
#     4  11  25  41  63  90 121 165 213 254 311 370
#     4  11  22  39  64  88 122 165 205 260 311 367
#     4  10  19  38  61  90 131 162 203 257 310 371
#     4   9  18  37  62  89 125 159 199 256 306 366
#
# _framework density 25.587069
#
# number of rings (size 3 to 8) (size 9 to 14) (size 15 to 20)
#    0.000    2.000    1.667    1.000    2.333    3.333 
#    0.000    0.000    0.000   12.000    0.000    0.000 
#    0.000    0.000    0.000    0.000    0.000    0.000 
#
# Total GULP energy -66969.107948 kJ/mol
# GULP energy per Si atom -5580.758996 kJ/mol
# Density = 2.552883 g / cm^3
# Si number density = 25.587069 Si / 1000 Ang^3
#
#
#
# Elastic Constant Matrix: (Units=GPa)
#
#
# Indices 1 2 3 4 5 6 
#
# 1 90.2138 59.7508 7.5895 5.2133 3.8774 27.5497
# 2 59.7508 122.7915 20.7517 9.6450 14.5035 38.9758
# 3 7.5895 20.7517 110.7838 -3.3276 14.1505 7.6075
# 4 5.2133 9.6450 -3.3276 34.1359 7.7669 13.6480
# 5 3.8774 14.5035 14.1505 7.7669 37.0578 -0.1112
# 6 27.5497 38.9758 7.6075 13.6480 -0.1112 60.6643
#
#
#
# Elastic Compliance Matrix: (Units=1/GPa)
#
#
# Indices 1 2 3 4 5 6 
#
# 1 0.016839 -0.007438 0.000353 0.000579 0.000884 -0.003041
# 2 -0.007438 0.014282 -0.001199 0.000278 -0.004429 -0.005719
# 3 0.000353 -0.001199 0.009888 0.002627 -0.003898 -0.001228
# 4 0.000579 0.000278 0.002627 0.034754 -0.008482 -0.008605
# 5 0.000884 -0.004429 -0.003898 -0.008482 0.031907 0.004900
# 6 -0.003041 -0.005719 -0.001228 -0.008605 0.004900 0.023638
#
#
# Mechanical properties :
#
#
# Convention : Reuss Voigt Hill
#
# Bulk Modulus (GPa) = 40.91461 55.55255 48.23358
# Shear Modulus (GPa) = 32.04651 42.08475 37.06563
#
# Velocity S-wave (km/s) = 3.54284 4.05997 3.81019
# Velocity P-wave (km/s) = 5.72369 6.61333 6.18453
#
# Compressibility (1/GPa) = 0.02444115
#
# Stress axis : x y z
#
# Youngs Moduli (GPa) = 59.38693 70.01648 101.13210
#
# Poissons Ratio (x) = 0.52078 -0.03570
# Poissons Ratio (y) = 0.44172 0.12126
# Poissons Ratio (z) = -0.02097 0.08395
#
# Static dielectric constant tensor:
#      x y z
#    x 2.016150 0.039950 -0.006310 
#    y 0.039950 2.108170 -0.029340 
#    z -0.006310 -0.029340 2.101950 
# 
# From -- ./inp_files/28812.got.cif
#   From: 2010.05.17/outbox.cif.g08.bks.cpg/sg2_15_cif.got.tgz:28812.got - 2010.06.03 11:33:40.
