data_PCOD9089062
_publ_section_title
;
Structure prediction by ZEFSAII (Michael W. Deem and Ramdas Pophale) SiO2 
 PCOD9089062
Probable space group: P -1
;
_chemical_formula_sum "Si O2"
_cell_formula_units_Z 16
_cell_length_a 8.830649
_cell_length_b 11.946965
_cell_length_c 13.453633
_cell_angle_alpha 131.044442
_cell_angle_beta 59.895894
_cell_angle_gamma 128.412257
_cell_volume 828.196787
_symmetry_space_group_name_H-M "P -1"
_symmetry_group_IT_number 2
_symmetry_cell_setting 'triclinic'
loop_
_space_group_symop_operation_xyz
x,y,z
-x,-y,-z
loop_
_atom_site_type_symbol
_atom_site_label
_atom_site_fract_x
_atom_site_fract_y
_atom_site_fract_z
Si Si1 0.794499 0.228717 0.315340
Si Si2 0.782389 0.905514 0.063402
Si Si3 0.605564 0.311917 0.609521
Si Si4 0.435562 0.346514 0.185906
Si Si5 0.011448 0.427392 0.656144
Si Si6 0.893983 0.788863 0.641839
Si Si7 0.881176 0.552486 0.146379
Si Si8 0.196897 0.155783 0.749345
O O1 0.647785 0.253411 0.454708
O O2 0.882199 0.379922 0.297936
O O3 0.977017 0.241932 0.331543
O O4 0.713093 0.049109 0.186818
O O5 0.789922 0.836770 0.130644
O O6 0.651942 0.760513 0.946947
O O7 0.000000 0.000000 0.000000
O O8 0.593495 0.485947 0.706855
O O9 0.793987 0.346554 0.634839
O O10 0.404578 0.183548 0.651575
O O11 0.308338 0.240908 0.258906
O O12 0.665045 0.405123 0.151083
O O13 0.127398 0.338355 0.512038
O O14 0.010026 0.402463 0.758474
O O15 0.026524 0.975919 0.674080
O O16 0.850693 0.702855 0.197355
O O17 0.000000 0.500000 0.000000
#
# Coordination Sequence:
#
# PCOD9089062 Si02
#       8
#     2   2   2   2   2   2   2   2
#     4  10  19  37  65 102 121 150 214 262 298 356
#     4  11  21  36  69  95 124 158 205 259 311 357
#     4  10  20  39  69  94 121 157 212 261 303 353
#     4  11  21  42  65  92 118 166 211 248 309 368
#     4  11  21  39  66  90 127 166 202 251 306 371
#     4  10  19  39  70  92 120 155 216 260 297 356
#     4  11  29  42  56  89 135 166 200 250 315 375
#     4  10  24  41  62  95 126 156 205 262 307 368
#
# _framework density 19.319078999999999
#
# number of rings (size 3 to 8) (size 9 to 14) (size 15 to 20)
#    0.000    1.500    5.000    0.750    5.250    6.500 
#    0.000    2.500    0.000    0.000    0.000    0.000 
#    0.000    0.000    0.000    0.000    0.000    0.000 
#
# Total GULP energy -89386.863125 kJ/mol
# GULP energy per Si atom -5586.678945 kJ/mol
# Density = 1.927511 g / cm^3
# Si number density = 19.319079 Si / 1000 Ang^3
#
#
#
# Elastic Constant Matrix: (Units=GPa)
#
#
# Indices 1 2 3 4 5 6 
#
# 1 44.0712 29.5813 29.9091 -10.2191 -16.5423 2.8911
# 2 29.5813 119.4147 37.9114 -12.8188 -12.0466 1.5843
# 3 29.9091 37.9114 131.0837 -1.6570 -13.9986 -6.8267
# 4 -10.2191 -12.8188 -1.6570 35.6759 5.0702 -1.9750
# 5 -16.5423 -12.0466 -13.9986 5.0702 20.1957 -9.3948
# 6 2.8911 1.5843 -6.8267 -1.9750 -9.3948 27.2972
#
#
#
# Elastic Compliance Matrix: (Units=1/GPa)
#
#
# Indices 1 2 3 4 5 6 
#
# 1 0.040831 -0.005308 -0.004459 0.005874 0.028007 0.004933
# 2 -0.005308 0.010498 -0.001824 0.002155 -0.000063 -0.000369
# 3 -0.004459 -0.001824 0.009887 -0.001890 0.004695 0.004530
# 4 0.005874 0.002155 -0.001890 0.030819 -0.002953 -0.000006
# 5 0.028007 -0.000063 0.004695 -0.002953 0.089872 0.028929
# 6 0.004933 -0.000369 0.004530 -0.000006 0.028929 0.047222
#
#
# Mechanical properties :
#
#
# Convention : Reuss Voigt Hill
#
# Bulk Modulus (GPa) = 26.29245 54.37481 40.33363
# Shear Modulus (GPa) = 18.86881 29.77829 24.32355
#
# Velocity S-wave (km/s) = 3.12860 3.93032 3.55215
# Velocity P-wave (km/s) = 5.16623 6.98593 6.14383
#
# Compressibility (1/GPa) = 0.03803373
#
# Stress axis : x y z
#
# Youngs Moduli (GPa) = 24.49128 95.25548 101.14421
#
# Poissons Ratio (x) = 0.50566 0.45099
# Poissons Ratio (y) = 0.13001 0.18445
# Poissons Ratio (z) = 0.10920 0.17371
#
# Static dielectric constant tensor:
#      x y z
#    x 1.663650 0.003780 -0.014380 
#    y 0.003780 1.691490 0.008830 
#    z -0.014380 0.008830 1.672790 
# 
# From -- ./inp_files/187681.got.cif
#   From: 2010.05.17/outbox.cif.g08.bks.cpg/sg2_94_cif.got.tgz:187681.got - 2010.06.03 11:33:40.
