data_PCOD9089754
_publ_section_title
;
Structure prediction by ZEFSAII (Michael W. Deem and Ramdas Pophale) SiO2 
 PCOD9089754
Probable space group: P -1
;
_chemical_formula_sum "Si O2"
_cell_formula_units_Z 16
_cell_length_a 11.031369
_cell_length_b 12.652281
_cell_length_c 14.717580
_cell_angle_alpha 151.471701
_cell_angle_beta 127.657938
_cell_angle_gamma 59.540641
_cell_volume 774.249916
_symmetry_space_group_name_H-M "P -1"
_symmetry_group_IT_number 2
_symmetry_cell_setting 'triclinic'
loop_
_space_group_symop_operation_xyz
x,y,z
-x,-y,-z
loop_
_atom_site_type_symbol
_atom_site_label
_atom_site_fract_x
_atom_site_fract_y
_atom_site_fract_z
Si Si1 0.179308 0.232177 0.616006
Si Si2 0.765956 0.547174 0.372378
Si Si3 0.480451 0.201158 0.015942
Si Si4 0.515892 0.263529 0.283192
Si Si5 0.798438 0.628733 0.081467
Si Si6 0.155764 0.758905 0.326835
Si Si7 0.157379 0.643859 0.446667
Si Si8 0.951098 0.739910 0.771114
O O1 0.257244 0.292760 0.602584
O O2 0.217515 0.412145 0.849017
O O3 0.996511 0.232931 0.514942
O O4 0.213480 0.002663 0.504887
O O5 0.613118 0.390689 0.199638
O O6 0.900122 0.388890 0.286261
O O7 0.826916 0.683943 0.592022
O O8 0.439553 0.236180 0.129532
O O9 0.333377 0.227359 0.906865
O O10 0.536287 0.953906 0.846905
O O11 0.500000 0.500000 0.500000
O O12 0.700719 0.258036 0.354051
O O13 0.969468 0.746385 0.235516
O O14 0.794378 0.411181 0.853949
O O15 0.201374 0.681578 0.389847
O O16 0.115907 0.389327 0.266894
O O17 0.000000 0.000000 0.000000
#
# Coordination Sequence:
#
# PCOD9089754 Si02
#       8
#     2   2   2   2   2   2   2   2
#     4  10  21  38  61  84 119 157 200 253 291 347
#     4  10  23  40  58  89 121 160 203 241 306 361
#     4  11  23  39  58  86 128 158 194 253 299 359
#     4  11  23  37  59  88 120 161 200 242 305 361
#     4  10  21  37  57  89 116 155 203 243 303 348
#     4  10  20  37  62  86 114 154 205 255 294 347
#     4  10  19  38  61  88 116 151 206 251 299 352
#     4  10  22  40  62  86 120 160 204 249 297 361
#
# _framework density 20.665161000000001
#
# number of rings (size 3 to 8) (size 9 to 14) (size 15 to 20)
#    0.000    1.750    1.250    3.750    1.750    4.500 
#    0.000    0.625    0.000    0.000    0.000    0.000 
#    0.000    0.000    0.000    0.000    0.000    0.000 
#
# Total GULP energy -89352.129212 kJ/mol
# GULP energy per Si atom -5584.508076 kJ/mol
# Density = 2.061813 g / cm^3
# Si number density = 20.665161 Si / 1000 Ang^3
#
#
#
# Elastic Constant Matrix: (Units=GPa)
#
#
# Indices 1 2 3 4 5 6 
#
# 1 31.9288 38.2897 22.6382 6.5482 -1.5780 16.6679
# 2 38.2897 127.9991 54.3721 1.9341 2.7182 26.6310
# 3 22.6382 54.3721 115.6601 18.7961 -5.1210 17.5311
# 4 6.5482 1.9341 18.7961 38.4488 0.7300 12.2680
# 5 -1.5780 2.7182 -5.1210 0.7300 21.5984 -0.0308
# 6 16.6679 26.6310 17.5311 12.2680 -0.0308 29.8550
#
#
#
# Elastic Compliance Matrix: (Units=1/GPa)
#
#
# Indices 1 2 3 4 5 6 
#
# 1 0.058993 -0.012893 -0.001923 -0.002401 0.005530 -0.019313
# 2 -0.012893 0.014826 -0.004694 0.005602 -0.004118 -0.005577
# 3 -0.001923 -0.004694 0.012239 -0.005609 0.003542 0.000382
# 4 -0.002401 0.005602 -0.005609 0.033443 -0.003361 -0.014109
# 5 0.005530 -0.004118 0.003542 -0.003361 0.048175 -0.000063
# 6 -0.019313 -0.005577 0.000382 -0.014109 -0.000063 0.054826
#
#
# Mechanical properties :
#
#
# Convention : Reuss Voigt Hill
#
# Bulk Modulus (GPa) = 21.25916 56.24309 38.75113
# Shear Modulus (GPa) = 18.03731 28.66632 23.35182
#
# Velocity S-wave (km/s) = 2.95759 3.72853 3.36521
# Velocity P-wave (km/s) = 4.68752 6.76841 5.82169
#
# Compressibility (1/GPa) = 0.04703854
#
# Stress axis : x y z
#
# Youngs Moduli (GPa) = 16.95118 67.44707 81.70299
#
# Poissons Ratio (x) = 0.86961 0.15713
# Poissons Ratio (y) = 0.21855 0.38349
# Poissons Ratio (z) = 0.03260 0.31658
#
# Static dielectric constant tensor:
#      x y z
#    x 1.760540 0.002050 -0.011740 
#    y 0.002050 1.752930 0.021970 
#    z -0.011740 0.021970 1.725500 
# 
# From -- ./inp_files/433244.got.cif
#   From: 2010.05.17/outbox.cif.g08.bks.cpg/sg2_217_cif.got.tgz:433244.got - 2010.06.03 11:33:40.
