data_PCOD9089293
_publ_section_title
;
Structure prediction by ZEFSAII (Michael W. Deem and Ramdas Pophale) SiO2 
 PCOD9089293
Probable space group: P -1
;
_chemical_formula_sum "Si O2"
_cell_formula_units_Z 14
_cell_length_a 19.461419
_cell_length_b 8.600667
_cell_length_c 8.220745
_cell_angle_alpha 71.515390
_cell_angle_beta 142.776372
_cell_angle_gamma 132.765260
_cell_volume 527.961020
_symmetry_space_group_name_H-M "P -1"
_symmetry_group_IT_number 2
_symmetry_cell_setting 'triclinic'
loop_
_space_group_symop_operation_xyz
x,y,z
-x,-y,-z
loop_
_atom_site_type_symbol
_atom_site_label
_atom_site_fract_x
_atom_site_fract_y
_atom_site_fract_z
Si Si1 0.507585 0.657110 0.597059
Si Si2 0.450974 0.160666 0.893301
Si Si3 0.729734 0.690688 0.184078
Si Si4 0.152729 0.281737 0.249522
Si Si5 0.936948 0.312325 0.694281
Si Si6 0.568806 0.113564 0.816273
Si Si7 0.087867 0.396211 0.631816
O O1 0.500000 0.500000 0.500000
O O2 0.321429 0.454408 0.398697
O O3 0.524699 0.859560 0.484725
O O4 0.683783 0.811682 0.973833
O O5 0.561501 0.182622 0.961580
O O6 0.258284 0.935276 0.548356
O O7 0.533130 0.423793 0.935541
O O8 0.481805 0.122933 0.145969
O O9 0.807954 0.734054 0.489871
O O10 0.837666 0.694694 0.260623
O O11 0.071472 0.376316 0.047749
O O12 0.000000 0.000000 0.000000
O O13 0.955233 0.525197 0.620722
O O14 0.953852 0.238499 0.575057
O O15 0.766227 0.346969 0.077273
#
# Coordination Sequence:
#
# PCOD9089293 Si02
#       7
#     2   2   2   2   2   2   2
#     4  12  21  41  70  92 128 171 211 262 322 386
#     4   9  18  35  67  94 122 162 209 261 310 384
#     4  11  23  43  65  93 131 170 221 261 313 387
#     4  12  27  43  63  91 129 176 216 268 325 375
#     4  10  19  37  67  94 128 165 206 255 327 378
#     4   9  17  34  64  97 125 164 208 250 323 379
#     4   9  18  37  67  94 125 169 206 261 314 383
#
# _framework density 26.517109999999999
#
# number of rings (size 3 to 8) (size 9 to 14) (size 15 to 20)
#    0.000    1.714    4.286    2.143    0.000    0.571 
#    0.000    5.000    6.286    0.000    0.000    0.000 
#    0.000    0.000    0.000    0.000    0.000    0.000 
#
# Total GULP energy -78187.376078 kJ/mol
# GULP energy per Si atom -5584.812577 kJ/mol
# Density = 2.645676 g / cm^3
# Si number density = 26.517110 Si / 1000 Ang^3
#
#
#
# Elastic Constant Matrix: (Units=GPa)
#
#
# Indices 1 2 3 4 5 6 
#
# 1 85.4511 -3.4889 23.4762 2.3176 23.2522 5.0452
# 2 -3.4889 48.9931 19.3412 -22.5609 9.2329 1.5798
# 3 23.4762 19.3412 165.9691 -51.4490 15.2665 0.2330
# 4 2.3176 -22.5609 -51.4490 58.3211 -4.3720 5.8523
# 5 23.2522 9.2329 15.2665 -4.3720 42.7087 -11.2851
# 6 5.0452 1.5798 0.2330 5.8523 -11.2851 19.7810
#
#
#
# Elastic Compliance Matrix: (Units=1/GPa)
#
#
# Indices 1 2 3 4 5 6 
#
# 1 0.016405 0.004431 -0.001774 -0.000275 -0.012312 -0.011459
# 2 0.004431 0.028501 0.000850 0.012103 -0.011172 -0.013371
# 3 -0.001774 0.000850 0.009083 0.008594 -0.002571 -0.003732
# 4 -0.000275 0.012103 0.008594 0.030315 -0.005968 -0.013371
# 5 -0.012312 -0.011172 -0.002571 -0.005968 0.040483 0.028924
# 6 -0.011459 -0.013371 -0.003732 -0.013371 0.028924 0.075045
#
#
# Mechanical properties :
#
#
# Convention : Reuss Voigt Hill
#
# Bulk Modulus (GPa) = 16.39229 42.11891 29.25560
# Shear Modulus (GPa) = 23.45749 41.56781 32.51265
#
# Velocity S-wave (km/s) = 2.97748 3.96357 3.50537
# Velocity P-wave (km/s) = 4.24449 6.07163 5.23834
#
# Compressibility (1/GPa) = 0.06100430
#
# Stress axis : x y z
#
# Youngs Moduli (GPa) = 60.95701 35.08647 110.09936
#
# Poissons Ratio (x) = -0.15548 0.19528
# Poissons Ratio (y) = -0.27012 -0.09361
# Poissons Ratio (z) = 0.10812 -0.02983
#
# Static dielectric constant tensor:
#      x y z
#    x 2.122400 -0.126230 -0.054050 
#    y -0.126230 2.284340 -0.035080 
#    z -0.054050 -0.035080 2.091070 
# 
# From -- ./inp_files/181938.got.cif
#   From: 2010.05.17/outbox.cif.g08.bks.cpg/sg2_91_cif.got.tgz:181938.got - 2010.06.03 11:33:40.
