data_PCOD9089071
_publ_section_title
;
Structure prediction by ZEFSAII (Michael W. Deem and Ramdas Pophale) SiO2 
 PCOD9089071
Probable space group: P -1
;
_chemical_formula_sum "Si O2"
_cell_formula_units_Z 16
_cell_length_a 11.586700
_cell_length_b 7.362894
_cell_length_c 12.297838
_cell_angle_alpha 95.214313
_cell_angle_beta 130.271892
_cell_angle_gamma 71.091115
_cell_volume 746.995124
_symmetry_space_group_name_H-M "P -1"
_symmetry_group_IT_number 2
_symmetry_cell_setting 'triclinic'
loop_
_space_group_symop_operation_xyz
x,y,z
-x,-y,-z
loop_
_atom_site_type_symbol
_atom_site_label
_atom_site_fract_x
_atom_site_fract_y
_atom_site_fract_z
Si Si1 0.181653 0.769414 0.117131
Si Si2 0.966851 0.937892 0.793225
Si Si3 0.894950 0.902832 0.303507
Si Si4 0.247933 0.784528 0.582270
Si Si5 0.369206 0.196179 0.978959
Si Si6 0.358257 0.023961 0.501771
Si Si7 0.424630 0.924914 0.188106
Si Si8 0.542353 0.480358 0.853436
O O1 0.274595 0.924921 0.169973
O O2 0.326183 0.569923 0.169115
O O3 0.093944 0.840593 0.180963
O O4 0.061549 0.806725 0.943692
O O5 0.818732 0.882020 0.653212
O O6 0.082486 0.947107 0.765104
O O7 0.076013 0.775590 0.442194
O O8 0.800747 0.030531 0.354861
O O9 0.793779 0.784304 0.181526
O O10 0.368175 0.602444 0.708057
O O11 0.339264 0.832605 0.536297
O O12 0.407795 0.392023 0.021278
O O13 0.373954 0.123393 0.102766
O O14 0.500000 0.000000 0.000000
O O15 0.417846 0.119831 0.644757
O O16 0.500000 0.000000 0.500000
O O17 0.447494 0.735103 0.117904
#
# Coordination Sequence:
#
# PCOD9089071 Si02
#       8
#     2   2   2   2   2   2   2   2
#     4   9  20  38  58  89 123 155 199 255 300 347
#     4  10  19  37  65  84 125 164 199 249 307 365
#     4  10  20  37  61  89 116 168 198 239 319 354
#     4  10  21  38  62  86 127 154 198 259 297 365
#     4  12  21  39  65  88 120 165 205 246 303 370
#     4  11  19  36  63  88 114 167 202 240 309 360
#     4  10  21  38  59  88 120 156 197 258 298 346
#     4  10  21  39  60  91 124 154 207 253 299 361
#
# _framework density 21.419149999999998
#
# number of rings (size 3 to 8) (size 9 to 14) (size 15 to 20)
#    0.750    1.000    5.000    0.000    0.000    0.500 
#    4.500    6.250    0.000    3.000    0.000    0.000 
#    0.000    0.000    0.000    0.000    0.000    0.000 
#
# Total GULP energy -89096.374462 kJ/mol
# GULP energy per Si atom -5568.523404 kJ/mol
# Density = 2.137040 g / cm^3
# Si number density = 21.419150 Si / 1000 Ang^3
#
#
#
# Elastic Constant Matrix: (Units=GPa)
#
#
# Indices 1 2 3 4 5 6 
#
# 1 73.6307 12.8036 19.3599 4.1661 0.4187 -7.8040
# 2 12.8036 63.6714 31.6177 9.7281 14.6477 -1.5580
# 3 19.3599 31.6177 159.9590 16.2908 37.4847 7.2537
# 4 4.1661 9.7281 16.2908 29.2913 -2.9764 7.1432
# 5 0.4187 14.6477 37.4847 -2.9764 32.9384 4.9631
# 6 -7.8040 -1.5580 7.2537 7.1432 4.9631 24.8527
#
#
#
# Elastic Compliance Matrix: (Units=1/GPa)
#
#
# Indices 1 2 3 4 5 6 
#
# 1 0.015098 -0.002215 -0.001995 -0.001334 0.002169 0.005135
# 2 -0.002215 0.020107 -0.000930 -0.008014 -0.009333 0.005004
# 3 -0.001995 -0.000930 0.010011 -0.006279 -0.011599 0.000515
# 4 -0.001334 -0.008014 -0.006279 0.046088 0.017270 -0.015784
# 5 0.002169 -0.009333 -0.011599 0.017270 0.051001 -0.011667
# 6 0.005135 0.005004 0.000515 -0.015784 -0.011667 0.048880
#
#
# Mechanical properties :
#
#
# Convention : Reuss Voigt Hill
#
# Bulk Modulus (GPa) = 28.62283 47.20259 37.91271
# Shear Modulus (GPa) = 23.46207 32.98179 28.22193
#
# Velocity S-wave (km/s) = 3.31324 3.92832 3.63382
# Velocity P-wave (km/s) = 5.29424 6.53154 5.94516
#
# Compressibility (1/GPa) = 0.03493715
#
# Stress axis : x y z
#
# Youngs Moduli (GPa) = 66.23249 49.73433 99.88914
#
# Poissons Ratio (x) = 0.11016 0.19925
# Poissons Ratio (y) = 0.14671 0.09287
# Poissons Ratio (z) = 0.13212 0.04624
#
# Static dielectric constant tensor:
#      x y z
#    x 1.894160 -0.060400 -0.024740 
#    y -0.060400 1.770470 0.035500 
#    z -0.024740 0.035500 1.810740 
# 
# From -- ./inp_files/419561.got.cif
#   From: 2010.05.17/outbox.cif.g08.bks.cpg/sg2_210_cif.got.tgz:419561.got - 2010.06.03 11:33:40.
