data_PCOD9089536
_publ_section_title
;
Structure prediction by ZEFSAII (Michael W. Deem and Ramdas Pophale) SiO2 
 PCOD9089536
Probable space group: P -1
;
_chemical_formula_sum "Si O2"
_cell_formula_units_Z 16
_cell_length_a 8.942552
_cell_length_b 20.988506
_cell_length_c 12.528059
_cell_angle_alpha 142.872703
_cell_angle_beta 139.285989
_cell_angle_gamma 69.019310
_cell_volume 722.287971
_symmetry_space_group_name_H-M "P -1"
_symmetry_group_IT_number 2
_symmetry_cell_setting 'triclinic'
loop_
_space_group_symop_operation_xyz
x,y,z
-x,-y,-z
loop_
_atom_site_type_symbol
_atom_site_label
_atom_site_fract_x
_atom_site_fract_y
_atom_site_fract_z
Si Si1 0.766923 0.219617 0.164215
Si Si2 0.817282 0.847980 0.281787
Si Si3 0.490446 0.630698 0.986557
Si Si4 0.234043 0.689847 0.309418
Si Si5 0.992913 0.651093 0.754073
Si Si6 0.518532 0.019012 0.161372
Si Si7 0.231087 0.343729 0.146674
Si Si8 0.099453 0.427113 0.801437
O O1 0.949385 0.272907 0.224447
O O2 0.910511 0.355694 0.495821
O O3 0.433386 0.136220 0.827121
O O4 0.734644 0.111811 0.082861
O O5 0.168230 0.949446 0.599725
O O6 0.745735 0.759080 0.228832
O O7 0.709798 0.755300 0.994539
O O8 0.281271 0.505505 0.625179
O O9 0.270765 0.657490 0.945427
O O10 0.654962 0.593810 0.098648
O O11 0.472706 0.851716 0.643956
O O12 0.121398 0.647991 0.315480
O O13 0.267219 0.584476 0.132471
O O14 0.976126 0.665827 0.067462
O O15 0.914056 0.701314 0.876753
O O16 0.500000 0.000000 0.000000
O O17 0.500000 0.500000 0.500000
#
# Coordination Sequence:
#
# PCOD9089536 Si02
#       8
#     2   2   2   2   2   2   2   2
#     4  11  23  38  64  95 131 159 210 253 316 372
#     4  10  20  36  63  93 116 167 213 255 303 366
#     4  10  19  38  58  89 129 158 209 252 318 360
#     4  10  22  34  61  94 120 159 213 255 305 352
#     4  10  23  36  58  95 127 165 200 259 318 372
#     4  11  20  41  62  90 129 169 206 258 303 374
#     4  11  18  37  61  89 128 160 203 260 311 366
#     4  11  20  38  61  95 124 160 205 267 305 365
#
# _framework density 22.151828999999999
#
# number of rings (size 3 to 8) (size 9 to 14) (size 15 to 20)
#    0.000    1.500    5.000    1.125    3.500    1.500 
#    0.000    2.500    0.000    0.750    0.000    0.000 
#    0.000    0.000    0.000    0.000    0.000    0.000 
#
# Total GULP energy -89177.710021 kJ/mol
# GULP energy per Si atom -5573.606876 kJ/mol
# Density = 2.210141 g / cm^3
# Si number density = 22.151829 Si / 1000 Ang^3
#
#
#
# Elastic Constant Matrix: (Units=GPa)
#
#
# Indices 1 2 3 4 5 6 
#
# 1 52.4150 16.3916 8.3265 -9.0719 -1.7501 22.2614
# 2 16.3916 64.7483 10.3582 7.6886 -3.2694 12.9914
# 3 8.3265 10.3582 57.8871 -2.4303 -0.1335 0.1973
# 4 -9.0719 7.6886 -2.4303 37.9628 1.8952 0.0075
# 5 -1.7501 -3.2694 -0.1335 1.8952 22.4099 -2.9608
# 6 22.2614 12.9914 0.1973 0.0075 -2.9608 25.7128
#
#
#
# Elastic Compliance Matrix: (Units=1/GPa)
#
#
# Indices 1 2 3 4 5 6 
#
# 1 0.034120 -0.003571 -0.003811 0.008754 -0.002316 -0.027976
# 2 -0.003571 0.018751 -0.003024 -0.004946 0.002048 -0.006122
# 3 -0.003811 -0.003024 0.018385 0.000882 -0.000086 0.004676
# 4 0.008754 -0.004946 0.000882 0.029656 -0.003263 -0.005471
# 5 -0.002316 0.002048 -0.000086 -0.003263 0.045842 0.006250
# 6 -0.027976 -0.006122 0.004676 -0.005471 0.006250 0.066890
#
#
# Mechanical properties :
#
#
# Convention : Reuss Voigt Hill
#
# Bulk Modulus (GPa) = 19.82386 27.24476 23.53431
# Shear Modulus (GPa) = 19.89871 26.54871 23.22371
#
# Velocity S-wave (km/s) = 3.00040 3.46568 3.24139
# Velocity P-wave (km/s) = 4.57948 5.32356 4.96548
#
# Compressibility (1/GPa) = 0.05044426
#
# Stress axis : x y z
#
# Youngs Moduli (GPa) = 29.30791 53.32983 54.39168
#
# Poissons Ratio (x) = 0.19046 0.20730
# Poissons Ratio (y) = 0.10467 0.16446
# Poissons Ratio (z) = 0.11170 0.16125
#
# Static dielectric constant tensor:
#      x y z
#    x 1.814440 -0.003640 0.020680 
#    y -0.003640 1.862880 -0.011670 
#    z 0.020680 -0.011670 1.810780 
# 
# From -- ./inp_files/405626.got.cif
#   From: 2010.05.17/outbox.cif.g08.bks.cpg/sg2_203_cif.got.tgz:405626.got - 2010.06.03 11:33:40.
