data_PCOD9089592
_publ_section_title
;
Structure prediction by ZEFSAII (Michael W. Deem and Ramdas Pophale) SiO2 
 PCOD9089592
Probable space group: P -1
;
_chemical_formula_sum "Si O2"
_cell_formula_units_Z 16
_cell_length_a 16.045145
_cell_length_b 6.660465
_cell_length_c 7.801898
_cell_angle_alpha 113.370243
_cell_angle_beta 90.834617
_cell_angle_gamma 64.780671
_cell_volume 680.339143
_symmetry_space_group_name_H-M "P -1"
_symmetry_group_IT_number 2
_symmetry_cell_setting 'triclinic'
loop_
_space_group_symop_operation_xyz
x,y,z
-x,-y,-z
loop_
_atom_site_type_symbol
_atom_site_label
_atom_site_fract_x
_atom_site_fract_y
_atom_site_fract_z
Si Si1 0.909392 0.975165 0.294398
Si Si2 0.318360 0.670758 0.110577
Si Si3 0.600376 0.013022 0.578087
Si Si4 0.061443 0.589671 0.417606
Si Si5 0.174347 0.097218 0.061895
Si Si6 0.714612 0.030884 0.304550
Si Si7 0.566368 0.482226 0.288039
Si Si8 0.428848 0.239450 0.184509
O O1 0.997391 0.767350 0.324059
O O2 0.813236 0.987244 0.372811
O O3 0.906667 0.238517 0.413114
O O4 0.903213 0.909021 0.072876
O O5 0.348366 0.836526 0.286263
O O6 0.341127 0.428602 0.136061
O O7 0.216610 0.851982 0.095774
O O8 0.388418 0.580159 0.919775
O O9 0.659247 0.916912 0.372376
O O10 0.494992 0.224780 0.608432
O O11 0.604094 0.839770 0.673121
O O12 0.140160 0.341684 0.252985
O O13 0.000000 0.500000 0.500000
O O14 0.255775 0.071468 0.921760
O O15 0.648534 0.321637 0.368646
O O16 0.493523 0.371919 0.269901
O O17 0.500000 0.000000 0.000000
#
# Coordination Sequence:
#
# PCOD9089592 Si02
#       8
#     2   2   2   2   2   2   2   2
#     4   9  23  47  71 106 139 177 235 274 354 435
#     4  10  20  38  61  93 136 183 234 292 344 404
#     4  11  20  36  63  88 140 187 239 290 341 405
#     4  11  23  45  80 106 140 179 220 284 367 429
#     4   9  22  44  72 100 150 178 225 297 345 413
#     4   9  22  41  64  95 143 180 234 289 340 408
#     4  10  19  38  59  89 135 185 232 292 343 405
#     4  11  19  33  61  95 129 186 243 287 349 399
#
# _framework density 23.517682000000001
#
# number of rings (size 3 to 8) (size 9 to 14) (size 15 to 20)
#    0.750    1.250    2.500    1.500    1.750    1.000 
#    4.500    3.750    0.000    0.000    0.000    0.000 
#    0.000    0.000    0.000    0.000    0.000    0.000 
#
# Total GULP energy -89463.333136 kJ/mol
# GULP energy per Si atom -5591.458321 kJ/mol
# Density = 2.346416 g / cm^3
# Si number density = 23.517682 Si / 1000 Ang^3
#
#
#
# Elastic Constant Matrix: (Units=GPa)
#
#
# Indices 1 2 3 4 5 6 
#
# 1 29.4492 19.6688 -5.2489 -1.7637 -3.6986 5.7604
# 2 19.6688 151.8569 50.5811 -5.9659 -9.5244 11.0196
# 3 -5.2489 50.5811 99.3198 0.1555 -15.9801 14.5815
# 4 -1.7637 -5.9659 0.1555 47.7855 0.3277 3.5548
# 5 -3.6986 -9.5244 -15.9801 0.3277 37.1495 -6.0523
# 6 5.7604 11.0196 14.5815 3.5548 -6.0523 33.9929
#
#
#
# Elastic Compliance Matrix: (Units=1/GPa)
#
#
# Indices 1 2 3 4 5 6 
#
# 1 0.042194 -0.007159 0.007684 0.001163 0.004446 -0.007455
# 2 -0.007159 0.009228 -0.005207 0.000889 -0.000551 0.000264
# 3 0.007684 -0.005207 0.014654 -0.000075 0.004917 -0.005017
# 4 0.001163 0.000889 -0.000075 0.021287 -0.000322 -0.002737
# 5 0.004446 -0.000551 0.004917 -0.000322 0.029769 0.002650
# 6 -0.007455 0.000264 -0.005017 -0.002737 0.002650 0.033506
#
#
# Mechanical properties :
#
#
# Convention : Reuss Voigt Hill
#
# Bulk Modulus (GPa) = 17.63290 45.62533 31.62912
# Shear Modulus (GPa) = 27.94777 38.16058 33.05418
#
# Velocity S-wave (km/s) = 3.45102 4.03256 3.75307
# Velocity P-wave (km/s) = 4.83667 6.41285 5.67970
#
# Compressibility (1/GPa) = 0.05671218
#
# Stress axis : x y z
#
# Youngs Moduli (GPa) = 23.70005 108.36788 68.24082
#
# Poissons Ratio (x) = 0.77579 -0.52435
# Poissons Ratio (y) = 0.16967 0.35531
# Poissons Ratio (z) = -0.18211 0.56424
#
# Static dielectric constant tensor:
#      x y z
#    x 1.941210 0.007070 0.033080 
#    y 0.007070 1.881480 0.008660 
#    z 0.033080 0.008660 1.909180 
# 
# From -- ./inp_files/350719.got.cif
#   From: 2010.05.17/outbox.cif.g08.bks.cpg/sg2_176_cif.got.tgz:350719.got - 2010.06.03 11:33:40.
