data_PCOD9089320
_publ_section_title
;
Structure prediction by ZEFSAII (Michael W. Deem and Ramdas Pophale) SiO2 
 PCOD9089320
Probable space group: P -1
;
_chemical_formula_sum "Si O2"
_cell_formula_units_Z 16
_cell_length_a 11.769180
_cell_length_b 15.596818
_cell_length_c 15.292889
_cell_angle_alpha 26.624006
_cell_angle_beta 40.037306
_cell_angle_gamma 39.396683
_cell_volume 770.330741
_symmetry_space_group_name_H-M "P -1"
_symmetry_group_IT_number 2
_symmetry_cell_setting 'triclinic'
loop_
_space_group_symop_operation_xyz
x,y,z
-x,-y,-z
loop_
_atom_site_type_symbol
_atom_site_label
_atom_site_fract_x
_atom_site_fract_y
_atom_site_fract_z
Si Si1 0.782187 0.284025 0.664904
Si Si2 0.009613 0.097692 0.998248
Si Si3 0.304383 0.303745 0.619138
Si Si4 0.911859 0.677892 0.690198
Si Si5 0.539965 0.186130 0.760046
Si Si6 0.149166 0.795460 0.570836
Si Si7 0.688050 0.368114 0.053725
Si Si8 0.640220 0.132124 0.464916
O O1 0.725981 0.467341 0.598285
O O2 0.596757 0.306404 0.696289
O O3 0.950118 0.308973 0.482589
O O4 0.860254 0.070571 0.860296
O O5 0.111137 0.263095 0.771939
O O6 0.815750 0.205464 0.060281
O O7 0.000000 0.000000 0.000000
O O8 0.382959 0.277541 0.696796
O O9 0.446324 0.152058 0.608777
O O10 0.809221 0.511389 0.885494
O O11 0.049239 0.646547 0.722459
O O12 0.763792 0.899813 0.590853
O O13 0.725910 0.140912 0.633764
O O14 0.500000 0.000000 0.000000
O O15 0.271517 0.741563 0.634357
O O16 0.000000 0.000000 0.500000
O O17 0.500000 0.500000 0.000000
O O18 0.631317 0.244481 0.277310
#
# Coordination Sequence:
#
# PCOD9089320 Si02
#       8
#     2   2   2   2   2   2   2   2
#     4  11  22  43  69  97 137 173 215 273 334 397
#     4  12  28  46  68  95 129 176 231 281 333 387
#     4  11  24  42  67 105 135 170 216 271 337 399
#     4  10  21  43  70  94 132 172 214 269 331 394
#     4  10  19  37  68 101 135 170 210 265 328 403
#     4   8  18  37  64  98 132 166 206 256 329 399
#     4  12  28  46  68  95 124 178 236 271 328 391
#     4  10  23  43  66 100 135 166 213 271 330 393
#
# _framework density 20.770298
#
# number of rings (size 3 to 8) (size 9 to 14) (size 15 to 20)
#    0.000    1.500    3.750    0.375    3.500    2.500 
#    2.250    0.000    0.000    0.000    0.000    0.000 
#    0.000    0.000    0.000    0.000    0.000    0.000 
#
# Total GULP energy -89249.690458 kJ/mol
# GULP energy per Si atom -5578.105654 kJ/mol
# Density = 2.072302 g / cm^3
# Si number density = 20.770298 Si / 1000 Ang^3
#
#
#
# Elastic Constant Matrix: (Units=GPa)
#
#
# Indices 1 2 3 4 5 6 
#
# 1 60.0287 22.4392 16.9639 8.8686 3.2607 9.9272
# 2 22.4392 80.8435 7.8854 -3.0803 8.9166 9.0002
# 3 16.9639 7.8854 49.2705 -6.8226 3.5038 7.3698
# 4 8.8686 -3.0803 -6.8226 23.8473 5.3614 -4.8446
# 5 3.2607 8.9166 3.5038 5.3614 27.4230 -0.2441
# 6 9.9272 9.0002 7.3698 -4.8446 -0.2441 24.5591
#
#
#
# Elastic Compliance Matrix: (Units=1/GPa)
#
#
# Indices 1 2 3 4 5 6 
#
# 1 0.024668 -0.005993 -0.008568 -0.014694 0.002911 -0.008073
# 2 -0.005993 0.014981 0.001129 0.005193 -0.005340 -0.002435
# 3 -0.008568 0.001129 0.025309 0.011163 -0.004786 -0.002391
# 4 -0.014694 0.005193 0.011163 0.056400 -0.012290 0.011690
# 5 0.002911 -0.005340 -0.004786 -0.012290 0.040872 0.000198
# 6 -0.008073 -0.002435 -0.002391 0.011690 0.000198 0.047899
#
#
# Mechanical properties :
#
#
# Convention : Reuss Voigt Hill
#
# Bulk Modulus (GPa) = 26.25163 31.63554 28.94359
# Shear Modulus (GPa) = 20.02458 24.68951 22.35704
#
# Velocity S-wave (km/s) = 3.10836 3.45148 3.28441
# Velocity P-wave (km/s) = 5.05460 5.58103 5.32432
#
# Compressibility (1/GPa) = 0.03809287
#
# Stress axis : x y z
#
# Youngs Moduli (GPa) = 40.53783 66.75176 39.51117
#
# Poissons Ratio (x) = 0.40007 0.33854
# Poissons Ratio (y) = 0.24296 -0.04461
# Poissons Ratio (z) = 0.34734 -0.07536
#
# Static dielectric constant tensor:
#      x y z
#    x 1.807860 0.067870 0.014940 
#    y 0.067870 1.831930 -0.027580 
#    z 0.014940 -0.027580 1.648620 
# 
# From -- ./inp_files/515732.got.cif
#   From: 2010.05.17/outbox.cif.g08.bks.cpg/sg2_258_cif.got.tgz:515732.got - 2010.06.03 11:33:40.
