data_PCOD9089524
_publ_section_title
;
Structure prediction by ZEFSAII (Michael W. Deem and Ramdas Pophale) SiO2 
 PCOD9089524
Probable space group: P -1
;
_chemical_formula_sum "Si O2"
_cell_formula_units_Z 16
_cell_length_a 14.740326
_cell_length_b 8.776673
_cell_length_c 21.293318
_cell_angle_alpha 139.034799
_cell_angle_beta 29.069351
_cell_angle_gamma 138.298078
_cell_volume 844.409015
_symmetry_space_group_name_H-M "P -1"
_symmetry_group_IT_number 2
_symmetry_cell_setting 'triclinic'
loop_
_space_group_symop_operation_xyz
x,y,z
-x,-y,-z
loop_
_atom_site_type_symbol
_atom_site_label
_atom_site_fract_x
_atom_site_fract_y
_atom_site_fract_z
Si Si1 0.673748 0.327280 0.651958
Si Si2 0.532528 0.657635 0.350229
Si Si3 0.206380 0.692573 0.922088
Si Si4 0.687572 0.999222 0.924025
Si Si5 0.510328 0.535482 0.079247
Si Si6 0.910670 0.885713 0.952998
Si Si7 0.990719 0.811114 0.640392
Si Si8 0.816898 0.185384 0.344790
O O1 0.526744 0.329756 0.684123
O O2 0.581182 0.297555 0.767866
O O3 0.835017 0.587454 0.632692
O O4 0.801438 0.142130 0.503739
O O5 0.635018 0.447164 0.236840
O O6 0.337597 0.656905 0.506615
O O7 0.690019 0.910375 0.347614
O O8 0.000000 0.500000 0.000000
O O9 0.277277 0.815146 0.983592
O O10 0.173963 0.908996 0.965607
O O11 0.619027 0.725935 0.904275
O O12 0.885650 0.023137 0.773720
O O13 0.500000 0.000000 0.000000
O O14 0.500000 0.500000 0.000000
O O15 0.737225 0.641677 0.990982
O O16 0.067365 0.822082 0.791531
O O17 0.000000 0.000000 0.000000
O O18 0.035631 0.746538 0.664751
#
# Coordination Sequence:
#
# PCOD9089524 Si02
#       8
#     2   2   2   2   2   2   2   2
#     4   9  18  31  58  83 108 145 194 237 285 338
#     4  10  20  35  62  86 114 143 201 256 284 336
#     4  12  22  38  60  92 117 150 203 254 288 336
#     4  11  22  36  62  88 117 150 201 249 293 337
#     4  11  21  39  56  84 120 159 189 234 299 368
#     4  12  24  38  60  87 123 161 193 236 301 363
#     4   9  16  33  54  86 107 141 192 246 278 334
#     4  10  19  38  58  86 113 155 192 240 299 343
#
# _framework density 18.948163000000001
#
# number of rings (size 3 to 8) (size 9 to 14) (size 15 to 20)
#    0.000    1.500    3.750    3.000    1.750    0.000 
#    0.000    0.625    2.750    1.500    0.000    0.000 
#    0.000    0.000    0.000    0.000    0.000    0.000 
#
# Total GULP energy -89068.342487 kJ/mol
# GULP energy per Si atom -5566.771405 kJ/mol
# Density = 1.890504 g / cm^3
# Si number density = 18.948163 Si / 1000 Ang^3
#
#
#
# Elastic Constant Matrix: (Units=GPa)
#
#
# Indices 1 2 3 4 5 6 
#
# 1 96.4464 8.3198 47.7666 3.9483 4.9457 24.1482
# 2 8.3198 42.0552 12.2788 1.1115 -3.4806 24.5594
# 3 47.7666 12.2788 195.1750 2.7733 -1.1672 -8.4748
# 4 3.9483 1.1115 2.7733 27.6596 -0.4406 -0.9458
# 5 4.9457 -3.4806 -1.1672 -0.4406 35.6027 3.6679
# 6 24.1482 24.5594 -8.4748 -0.9458 3.6679 28.4641
#
#
#
# Elastic Compliance Matrix: (Units=1/GPa)
#
#
# Indices 1 2 3 4 5 6 
#
# 1 0.024320 0.024968 -0.009410 -0.005036 0.003388 -0.045582
# 2 0.024968 0.082698 -0.015417 -0.008508 0.014230 -0.099242
# 3 -0.009410 -0.015417 0.009418 0.001817 -0.002388 0.024458
# 4 -0.005036 -0.008508 0.001817 0.037479 -0.001003 0.013529
# 5 0.003388 0.014230 -0.002388 -0.001003 0.030966 -0.019887
# 6 -0.045582 -0.099242 0.024458 0.013529 -0.019887 0.169724
#
#
# Mechanical properties :
#
#
# Convention : Reuss Voigt Hill
#
# Bulk Modulus (GPa) = 8.56754 52.26745 30.41749
# Shear Modulus (GPa) = 12.71519 36.03271 24.37395
#
# Velocity S-wave (km/s) = 2.59328 4.36552 3.59046
# Velocity P-wave (km/s) = 3.67398 7.28386 5.76857
#
# Compressibility (1/GPa) = 0.11671969
#
# Stress axis : x y z
#
# Youngs Moduli (GPa) = 41.11782 12.09219 106.17461
#
# Poissons Ratio (x) = -0.30192 0.99914
# Poissons Ratio (y) = -1.02665 1.63686
# Poissons Ratio (z) = 0.38693 0.18642
#
# Static dielectric constant tensor:
#      x y z
#    x 1.651020 0.003100 0.003490 
#    y 0.003100 1.647730 0.037880 
#    z 0.003490 0.037880 1.832990 
# 
# From -- ./inp_files/260313.got.cif
#   From: 2010.05.17/outbox.cif.g08.bks.cpg/sg2_131_cif.got.tgz:260313.got - 2010.06.03 11:33:40.
