data_PCOD9089287
_publ_section_title
;
Structure prediction by ZEFSAII (Michael W. Deem and Ramdas Pophale) SiO2 
 PCOD9089287
Probable space group: P -1
;
_chemical_formula_sum "Si O2"
_cell_formula_units_Z 14
_cell_length_a 18.097435
_cell_length_b 8.758753
_cell_length_c 6.864197
_cell_angle_alpha 127.891044
_cell_angle_beta 129.216563
_cell_angle_gamma 60.060839
_cell_volume 654.253615
_symmetry_space_group_name_H-M "P -1"
_symmetry_group_IT_number 2
_symmetry_cell_setting 'triclinic'
loop_
_space_group_symop_operation_xyz
x,y,z
-x,-y,-z
loop_
_atom_site_type_symbol
_atom_site_label
_atom_site_fract_x
_atom_site_fract_y
_atom_site_fract_z
Si Si1 0.540057 0.147366 0.333721
Si Si2 0.997608 0.283105 0.246707
Si Si3 0.156589 0.088770 0.627294
Si Si4 0.830365 0.340850 0.737788
Si Si5 0.307318 0.217255 0.669002
Si Si6 0.626657 0.537340 0.697350
Si Si7 0.139924 0.327598 0.182035
O O1 0.587503 0.330096 0.473723
O O2 0.446339 0.281535 0.384008
O O3 0.622550 0.984076 0.441447
O O4 0.500000 0.000000 0.000000
O O5 0.051506 0.135266 0.381640
O O6 0.064866 0.257714 0.148463
O O7 0.000000 0.500000 0.500000
O O8 0.889437 0.286704 0.994710
O O9 0.234388 0.155843 0.663147
O O10 0.188455 0.859987 0.537656
O O11 0.150431 0.200985 0.906179
O O12 0.731291 0.485376 0.735032
O O13 0.889190 0.450074 0.769596
O O14 0.239421 0.310649 0.454887
O O15 0.360407 0.374544 0.994419
#
# Coordination Sequence:
#
# PCOD9089287 Si02
#       7
#     2   2   2   2   2   2   2
#     4   9  19  36  67  96 120 161 210 253 313 376
#     4  11  23  44  64  87 129 169 208 257 306 363
#     4  11  23  40  63  91 127 167 207 255 304 367
#     4  12  22  39  63  92 127 165 212 255 308 367
#     4  10  20  40  64  92 127 165 206 252 311 367
#     4  10  19  37  67  92 122 166 206 256 313 364
#     4  11  24  41  61  94 129 166 205 256 308 362
#
# _framework density 21.398430000000001
#
# number of rings (size 3 to 8) (size 9 to 14) (size 15 to 20)
#    0.000    1.429    4.286    1.714    0.000    1.714 
#    5.143    0.714    0.000    5.143    0.000    0.000 
#    0.000    0.000    0.000    0.000    0.000    0.000 
#
# Total GULP energy -78087.733238 kJ/mol
# GULP energy per Si atom -5577.695231 kJ/mol
# Density = 2.134973 g / cm^3
# Si number density = 21.398430 Si / 1000 Ang^3
#
#
#
# Elastic Constant Matrix: (Units=GPa)
#
#
# Indices 1 2 3 4 5 6 
#
# 1 50.7359 17.4405 36.7978 5.5909 2.3816 -18.1839
# 2 17.4405 92.1324 50.0603 21.1614 -12.3363 -16.2893
# 3 36.7978 50.0603 82.1397 3.0514 -1.8234 20.8198
# 4 5.5909 21.1614 3.0514 36.8245 4.0566 14.1013
# 5 2.3816 -12.3363 -1.8234 4.0566 24.5285 1.1618
# 6 -18.1839 -16.2893 20.8198 14.1013 1.1618 24.7801
#
#
#
# Elastic Compliance Matrix: (Units=1/GPa)
#
#
# Indices 1 2 3 4 5 6 
#
# 1 0.009069 -0.015858 0.010081 0.015966 -0.009759 -0.020867
# 2 -0.015858 0.004978 0.008838 0.005664 0.004675 -0.019232
# 3 0.010081 0.008838 -0.003409 -0.016519 0.004749 0.025249
# 4 0.015966 0.005664 -0.016519 0.015261 -0.003439 0.020795
# 5 -0.009759 0.004675 0.004749 -0.003439 0.045380 -0.008249
# 6 -0.020867 -0.019232 0.025249 0.020795 -0.008249 -0.020260
#
#
# Mechanical properties :
#
#
# Convention : Reuss Voigt Hill
#
# Bulk Modulus (GPa) = 59.66105 48.17834 53.91970
# Shear Modulus (GPa) = 99.04269 25.27393 62.15831
#
# Velocity S-wave (km/s) = 6.81069 3.44046 5.39547
# Velocity P-wave (km/s) = 9.47570 6.19242 8.00422
#
# Compressibility (1/GPa) = 0.01676135
#
# Stress axis : x y z
#
# Youngs Moduli (GPa) = 110.26615 200.86814 -293.33752
#
# Poissons Ratio (x) = 3.18531 2.95719
# Poissons Ratio (y) = 1.74857 2.59252
# Poissons Ratio (z) = -1.11162 -1.77528
#
# Static dielectric constant tensor:
#      x y z
#    x 1.826430 -0.044040 0.059740 
#    y -0.044040 1.796800 -0.005310 
#    z 0.059740 -0.005310 1.770590 
# 
# From -- ./inp_files/106039.got.cif
#   From: 2010.05.17/outbox.cif.g08.bks.cpg/sg2_54_cif.got.tgz:106039.got - 2010.06.03 11:33:40.
