data_PCOD9089584
_publ_section_title
;
Structure prediction by ZEFSAII (Michael W. Deem and Ramdas Pophale) SiO2 
 PCOD9089584
Probable space group: P -1
;
_chemical_formula_sum "Si O2"
_cell_formula_units_Z 14
_cell_length_a 8.398549
_cell_length_b 16.334217
_cell_length_c 19.293229
_cell_angle_alpha 21.160085
_cell_angle_beta 56.514399
_cell_angle_gamma 44.934895
_cell_volume 610.707114
_symmetry_space_group_name_H-M "P -1"
_symmetry_group_IT_number 2
_symmetry_cell_setting 'triclinic'
loop_
_space_group_symop_operation_xyz
x,y,z
-x,-y,-z
loop_
_atom_site_type_symbol
_atom_site_label
_atom_site_fract_x
_atom_site_fract_y
_atom_site_fract_z
Si Si1 0.016552 0.324439 0.929477
Si Si2 0.555448 0.290660 0.479735
Si Si3 0.098520 0.683488 0.544295
Si Si4 0.265681 0.890118 0.798469
Si Si5 0.801337 0.669865 0.851268
Si Si6 0.553033 0.791615 0.271887
Si Si7 0.949310 0.454669 0.625355
O O1 0.928477 0.518227 0.867510
O O2 0.991982 0.520496 0.718894
O O3 0.853509 0.221587 0.040824
O O4 0.305129 0.041119 0.093727
O O5 0.739017 0.356585 0.398174
O O6 0.519766 0.208869 0.630746
O O7 0.275688 0.550542 0.315538
O O8 0.686105 0.008657 0.621307
O O9 0.296435 0.514543 0.566418
O O10 0.876482 0.025445 0.308498
O O11 0.559651 0.687395 0.896300
O O12 0.166644 0.219432 0.576680
O O13 0.000000 0.500000 0.000000
O O14 0.773971 0.811713 0.204201
O O15 0.000000 0.500000 0.500000
#
# Coordination Sequence:
#
# PCOD9089584 Si02
#       7
#     2   2   2   2   2   2   2
#     4  12  24  38  63  94 121 160 200 247 299 359
#     4  10  19  38  64  85 119 166 197 247 301 345
#     4  11  23  39  63  92 123 156 202 248 299 358
#     4  10  22  41  64  85 119 162 200 248 298 353
#     4  11  22  42  65  88 119 159 206 245 301 358
#     4  10  19  38  59  88 124 155 200 244 296 357
#     4   8  18  32  62  84 115 162 195 238 298 349
#
# _framework density 22.924244000000002
#
# number of rings (size 3 to 8) (size 9 to 14) (size 15 to 20)
#    0.000    1.714    2.857    1.286    4.000    1.143 
#    0.000    5.000    0.000    0.000    0.000    0.000 
#    0.000    0.000    0.000    0.000    0.000    0.000 
#
# Total GULP energy -78017.211264 kJ/mol
# GULP energy per Si atom -5572.657947 kJ/mol
# Density = 2.287207 g / cm^3
# Si number density = 22.924244 Si / 1000 Ang^3
#
#
#
# Elastic Constant Matrix: (Units=GPa)
#
#
# Indices 1 2 3 4 5 6 
#
# 1 105.0475 38.9998 22.8490 -8.0514 6.0540 -39.9337
# 2 38.9998 85.3923 44.4994 -9.2393 13.0844 -9.9529
# 3 22.8490 44.4994 71.4610 4.5378 -1.3089 -19.4128
# 4 -8.0514 -9.2393 4.5378 35.1392 -11.5337 -2.0605
# 5 6.0540 13.0844 -1.3089 -11.5337 21.6243 -7.4821
# 6 -39.9337 -9.9529 -19.4128 -2.0605 -7.4821 51.7742
#
#
#
# Elastic Compliance Matrix: (Units=1/GPa)
#
#
# Indices 1 2 3 4 5 6 
#
# 1 0.017469 -0.009079 0.003885 0.004729 0.008408 0.014588
# 2 -0.009079 0.025984 -0.016549 0.000465 -0.017652 -0.010745
# 3 0.003885 -0.016549 0.026593 -0.001726 0.013660 0.011691
# 4 0.004729 0.000465 -0.001726 0.037127 0.020708 0.007560
# 5 0.008408 -0.017652 0.013660 0.020708 0.073232 0.019621
# 6 0.014588 -0.010745 0.011691 0.007560 0.019621 0.036021
#
#
# Mechanical properties :
#
#
# Convention : Reuss Voigt Hill
#
# Bulk Modulus (GPa) = 37.65286 52.73302 45.19294
# Shear Modulus (GPa) = 18.60356 32.07772 25.34064
#
# Velocity S-wave (km/s) = 2.85182 3.74477 3.32837
# Velocity P-wave (km/s) = 5.22536 6.46149 5.87602
#
# Compressibility (1/GPa) = 0.02655841
#
# Stress axis : x y z
#
# Youngs Moduli (GPa) = 57.24508 38.48528 37.60414
#
# Poissons Ratio (x) = 0.34940 -0.14608
# Poissons Ratio (y) = 0.51972 0.62233
# Poissons Ratio (z) = -0.22238 0.63691
#
# Static dielectric constant tensor:
#      x y z
#    x 3.150490 0.215650 0.360490 
#    y 0.215650 1.885690 0.051380 
#    z 0.360490 0.051380 1.952720 
# 
# From -- ./inp_files/182492.got.cif
#   From: 2010.05.17/outbox.cif.g08.bks.cpg/sg2_92_cif.got.tgz:182492.got - 2010.06.03 11:33:40.
