data_PCOD9089396
_publ_section_title
;
Structure prediction by ZEFSAII (Michael W. Deem and Ramdas Pophale) SiO2 
 PCOD9089396
Probable space group: P -1
;
_chemical_formula_sum "Si O2"
_cell_formula_units_Z 14
_cell_length_a 9.584910
_cell_length_b 12.376343
_cell_length_c 8.966003
_cell_angle_alpha 73.144936
_cell_angle_beta 75.782924
_cell_angle_gamma 127.410792
_cell_volume 672.679642
_symmetry_space_group_name_H-M "P -1"
_symmetry_group_IT_number 2
_symmetry_cell_setting 'triclinic'
loop_
_space_group_symop_operation_xyz
x,y,z
-x,-y,-z
loop_
_atom_site_type_symbol
_atom_site_label
_atom_site_fract_x
_atom_site_fract_y
_atom_site_fract_z
Si Si1 0.932973 0.831118 0.090806
Si Si2 0.139408 0.559128 0.086517
Si Si3 0.286602 0.289303 0.522358
Si Si4 0.472646 0.365771 0.149580
Si Si5 0.036730 0.736951 0.542996
Si Si6 0.747221 0.160012 0.856900
Si Si7 0.004508 0.099453 0.281476
O O1 0.721839 0.697962 0.301449
O O2 0.116070 0.867711 0.111298
O O3 0.938318 0.802670 0.926798
O O4 0.000000 0.000000 0.000000
O O5 0.181600 0.695029 0.117263
O O6 0.024997 0.404366 0.285626
O O7 0.358793 0.626772 0.954065
O O8 0.000000 0.500000 0.000000
O O9 0.479688 0.381035 0.321782
O O10 0.164753 0.325525 0.466177
O O11 0.142518 0.093263 0.624859
O O12 0.232470 0.191683 0.245354
O O13 0.500000 0.500000 0.000000
O O14 0.198959 0.795981 0.349113
O O15 0.098043 0.872248 0.586581
O O16 0.500000 0.000000 0.000000
#
# Coordination Sequence:
#
# PCOD9089396 Si02
#       7
#     2   2   2   2   2   2   2
#     4   9  20  40  63  92 130 156 207 273 321 359
#     4  12  26  44  63  92 139 173 209 267 325 385
#     4   9  19  36  66  95 124 162 217 271 314 368
#     4  11  21  38  66  91 121 170 224 252 318 392
#     4  10  20  42  62  87 128 175 207 262 323 383
#     4  11  26  42  67  96 128 173 219 260 327 387
#     4  10  19  37  70  92 125 162 222 272 314 367
#
# _framework density 20.812284999999999
#
# number of rings (size 3 to 8) (size 9 to 14) (size 15 to 20)
#    0.000    1.714    2.857    3.000    8.000    0.000 
#    5.143    3.571    0.000    0.000    0.000    0.000 
#    0.000    0.000    0.000    0.000    0.000    0.000 
#
# Total GULP energy -78141.225290 kJ/mol
# GULP energy per Si atom -5581.516092 kJ/mol
# Density = 2.076492 g / cm^3
# Si number density = 20.812285 Si / 1000 Ang^3
#
#
#
# Elastic Constant Matrix: (Units=GPa)
#
#
# Indices 1 2 3 4 5 6 
#
# 1 76.1598 40.0236 52.0627 4.3614 2.2378 -24.4866
# 2 40.0236 124.9411 52.6781 13.1082 -0.0836 -14.4056
# 3 52.0627 52.6781 201.0657 38.6329 6.0106 -10.8153
# 4 4.3614 13.1082 38.6329 35.0122 -4.9857 5.1759
# 5 2.2378 -0.0836 6.0106 -4.9857 43.1923 3.9862
# 6 -24.4866 -14.4056 -10.8153 5.1759 3.9862 27.0754
#
#
#
# Elastic Compliance Matrix: (Units=1/GPa)
#
#
# Indices 1 2 3 4 5 6 
#
# 1 0.023912 -0.003805 -0.004132 -0.000038 -0.002365 0.018306
# 2 -0.003805 0.010174 -0.001103 -0.002429 -0.000096 0.002010
# 3 -0.004132 -0.001103 0.008030 -0.008321 -0.001936 0.000759
# 4 -0.000038 -0.002429 -0.008321 0.041710 0.007233 -0.013689
# 5 -0.002365 -0.000096 -0.001936 0.007233 0.025121 -0.008044
# 6 0.018306 0.002010 0.000759 -0.013689 -0.008044 0.058663
#
#
# Mechanical properties :
#
#
# Convention : Reuss Voigt Hill
#
# Bulk Modulus (GPa) = 41.60307 76.85502 59.22904
# Shear Modulus (GPa) = 25.81290 38.21614 32.01452
#
# Velocity S-wave (km/s) = 3.52557 4.28977 3.92631
# Velocity P-wave (km/s) = 6.05028 7.84501 7.00536
#
# Compressibility (1/GPa) = 0.02403669
#
# Stress axis : x y z
#
# Youngs Moduli (GPa) = 41.82059 98.28942 124.53644
#
# Poissons Ratio (x) = 0.37395 0.51460
# Poissons Ratio (y) = 0.15911 0.13732
# Poissons Ratio (z) = 0.17281 0.10838
#
# Static dielectric constant tensor:
#      x y z
#    x 1.706820 0.002460 -0.005580 
#    y 0.002460 1.840240 0.099910 
#    z -0.005580 0.099910 1.861790 
# 
# From -- ./inp_files/185822.got.cif
#   From: 2010.05.17/outbox.cif.g08.bks.cpg/sg2_93_cif.got.tgz:185822.got - 2010.06.03 11:33:40.
