data_PCOD9089613
_publ_section_title
;
Structure prediction by ZEFSAII (Michael W. Deem and Ramdas Pophale) SiO2 
 PCOD9089613
Probable space group: P -1
;
_chemical_formula_sum "Si O2"
_cell_formula_units_Z 10
_cell_length_a 9.258396
_cell_length_b 8.437229
_cell_length_c 8.710157
_cell_angle_alpha 71.609936
_cell_angle_beta 129.931100
_cell_angle_gamma 93.764483
_cell_volume 486.260342
_symmetry_space_group_name_H-M "P -1"
_symmetry_group_IT_number 2
_symmetry_cell_setting 'triclinic'
loop_
_space_group_symop_operation_xyz
x,y,z
-x,-y,-z
loop_
_atom_site_type_symbol
_atom_site_label
_atom_site_fract_x
_atom_site_fract_y
_atom_site_fract_z
Si Si1 0.672903 0.681253 0.489032
Si Si2 0.129405 0.085517 0.673263
Si Si3 0.152997 0.218964 0.105027
Si Si4 0.736384 0.124191 0.895026
Si Si5 0.961713 0.390096 0.653867
O O1 0.756761 0.800761 0.386303
O O2 0.750300 0.723097 0.695832
O O3 0.446035 0.732963 0.307472
O O4 0.766094 0.490152 0.561575
O O5 0.984350 0.201537 0.658165
O O6 0.000000 0.000000 0.500000
O O7 0.266619 0.950223 0.912505
O O8 0.260601 0.038184 0.165809
O O9 0.936767 0.189567 0.998825
O O10 0.122303 0.362205 0.906124
O O11 0.000000 0.500000 0.500000
#
# Coordination Sequence:
#
# PCOD9089613 Si02
#       5
#     2   2   2   2   2
#     4  11  20  36  61  84 111 147 187 227 277 328
#     4  10  19  38  60  80 115 151 181 226 280 326
#     4  10  20  37  58  81 117 145 182 232 279 322
#     4  10  21  35  58  88 110 145 190 228 268 334
#     4   9  21  37  58  81 113 149 182 230 282 328
#
# _framework density 20.565113
#
# number of rings (size 3 to 8) (size 9 to 14) (size 15 to 20)
#    0.000    2.000    2.000    1.800    0.000    0.800 
#    0.000    1.000    4.400    0.000    0.000    0.000 
#    0.000    0.000    0.000    0.000    0.000    0.000 
#
# Total GULP energy -55820.460013 kJ/mol
# GULP energy per Si atom -5582.046001 kJ/mol
# Density = 2.051831 g / cm^3
# Si number density = 20.565113 Si / 1000 Ang^3
#
#
#
# Elastic Constant Matrix: (Units=GPa)
#
#
# Indices 1 2 3 4 5 6 
#
# 1 57.7831 16.2145 47.0993 3.2506 -9.5577 -5.7113
# 2 16.2145 40.7815 49.6156 7.5055 5.6431 -20.8588
# 3 47.0993 49.6156 150.6498 0.6498 -9.8787 -30.1692
# 4 3.2506 7.5055 0.6498 31.6080 -5.0016 -5.5123
# 5 -9.5577 5.6431 -9.8787 -5.0016 45.9468 -11.7363
# 6 -5.7113 -20.8588 -30.1692 -5.5123 -11.7363 37.8018
#
#
#
# Elastic Compliance Matrix: (Units=1/GPa)
#
#
# Indices 1 2 3 4 5 6 
#
# 1 0.024058 -0.002428 -0.007065 -0.001764 0.002902 -0.002699
# 2 -0.002428 0.053085 -0.014549 -0.011010 -0.007971 0.013233
# 3 -0.007065 -0.014549 0.015084 0.005717 0.005591 0.005513
# 4 -0.001764 -0.011010 0.005717 0.036574 0.007716 0.005950
# 5 0.002902 -0.007971 0.005591 0.007716 0.028027 0.010329
# 6 -0.002699 0.013233 0.005513 0.005950 0.010329 0.041822
#
#
# Mechanical properties :
#
#
# Convention : Reuss Voigt Hill
#
# Bulk Modulus (GPa) = 22.65335 52.78595 37.71965
# Shear Modulus (GPa) = 19.12417 32.15699 25.64058
#
# Velocity S-wave (km/s) = 3.05279 3.95861 3.53484
# Velocity P-wave (km/s) = 4.84411 6.82771 5.91958
#
# Compressibility (1/GPa) = 0.04414358
#
# Stress axis : x y z
#
# Youngs Moduli (GPa) = 41.56571 18.83772 66.29469
#
# Poissons Ratio (x) = 0.04574 0.46834
# Poissons Ratio (y) = 0.10093 0.96453
# Poissons Ratio (z) = 0.29364 0.27407
#
# Static dielectric constant tensor:
#      x y z
#    x 1.774680 -0.009140 -0.045040 
#    y -0.009140 1.731100 -0.046150 
#    z -0.045040 -0.046150 1.729120 
# 
# From -- ./inp_files/15191.got.cif
#   From: 2010.05.17/outbox.cif.g08.bks.cpg/sg2_8_cif.got.tgz:15191.got - 2010.06.03 11:33:40.
