data_PCOD9089743
_publ_section_title
;
Structure prediction by ZEFSAII (Michael W. Deem and Ramdas Pophale) SiO2 
 PCOD9089743
Probable space group: P -1
;
_chemical_formula_sum "Si O2"
_cell_formula_units_Z 16
_cell_length_a 21.010646
_cell_length_b 21.275876
_cell_length_c 9.393481
_cell_angle_alpha 130.505374
_cell_angle_beta 37.298774
_cell_angle_gamma 159.721220
_cell_volume 782.946220
_symmetry_space_group_name_H-M "P -1"
_symmetry_group_IT_number 2
_symmetry_cell_setting 'triclinic'
loop_
_space_group_symop_operation_xyz
x,y,z
-x,-y,-z
loop_
_atom_site_type_symbol
_atom_site_label
_atom_site_fract_x
_atom_site_fract_y
_atom_site_fract_z
Si Si1 0.392537 0.987878 0.059171
Si Si2 0.430464 0.446166 0.880908
Si Si3 0.898382 0.221100 0.294361
Si Si4 0.463067 0.562085 0.731057
Si Si5 0.462124 0.650646 0.594652
Si Si6 0.171750 0.950693 0.605279
Si Si7 0.947738 0.427674 0.642438
Si Si8 0.867720 0.281975 0.144948
O O1 0.181094 0.893388 0.371715
O O2 0.292559 0.869133 0.923220
O O3 0.500000 0.000000 0.000000
O O4 0.645855 0.223485 0.915723
O O5 0.541274 0.600798 0.812385
O O6 0.530974 0.432759 0.617949
O O7 0.500000 0.500000 0.000000
O O8 0.116920 0.225328 0.108200
O O9 0.741968 0.040897 0.397893
O O10 0.978719 0.351736 0.454988
O O11 0.783294 0.180676 0.298045
O O12 0.159712 0.365513 0.989659
O O13 0.500000 0.500000 0.500000
O O14 0.570558 0.709030 0.648183
O O15 0.638462 0.839841 0.469991
O O16 0.168137 0.471430 0.865731
O O17 0.000000 0.500000 0.500000
O O18 0.121829 0.610625 0.702602
#
# Coordination Sequence:
#
# PCOD9089743 Si02
#       8
#     2   2   2   2   2   2   2   2
#     4  12  24  41  58  89 125 157 199 254 298 354
#     4  10  20  36  58  87 119 155 197 243 299 354
#     4   9  19  37  59  85 117 156 199 246 301 348
#     4   8  17  34  59  81 112 155 195 236 293 353
#     4  10  19  38  61  87 112 159 203 239 301 356
#     4  11  21  38  59  87 123 152 197 257 293 351
#     4  10  21  40  61  86 117 157 204 242 296 356
#     4  10  22  40  64  84 119 165 202 240 305 359
#
# _framework density 20.435631999999998
#
# number of rings (size 3 to 8) (size 9 to 14) (size 15 to 20)
#    0.000    2.000    2.500    1.125    0.000    2.500 
#    0.000    1.875    0.000    0.000    0.000    0.000 
#    0.000    0.000    0.000    0.000    0.000    0.000 
#
# Total GULP energy -89164.529185 kJ/mol
# GULP energy per Si atom -5572.783074 kJ/mol
# Density = 2.038912 g / cm^3
# Si number density = 20.435632 Si / 1000 Ang^3
#
#
#
# Elastic Constant Matrix: (Units=GPa)
#
#
# Indices 1 2 3 4 5 6 
#
# 1 126.9085 61.0635 18.6126 1.6222 24.9660 -16.0300
# 2 61.0635 72.2726 3.0755 5.3416 17.4224 -9.1896
# 3 18.6126 3.0755 87.1281 5.1522 -0.8621 -6.5897
# 4 1.6222 5.3416 5.1522 29.0406 -3.6743 13.6411
# 5 24.9660 17.4224 -0.8621 -3.6743 38.0912 -2.9162
# 6 -16.0300 -9.1896 -6.5897 13.6411 -2.9162 35.9476
#
#
#
# Elastic Compliance Matrix: (Units=1/GPa)
#
#
# Indices 1 2 3 4 5 6 
#
# 1 0.014773 -0.010836 -0.002555 -0.000435 -0.004586 0.003142
# 2 -0.010836 0.025079 0.002115 -0.006960 -0.004669 0.004229
# 3 -0.002555 0.002115 0.012428 -0.003850 0.000863 0.003210
# 4 -0.000435 -0.006960 -0.003850 0.046537 0.006353 -0.019823
# 5 -0.004586 -0.004669 0.000863 0.006353 0.031803 -0.002911
# 6 0.003142 0.004229 0.003210 -0.019823 -0.002911 0.038175
#
#
# Mechanical properties :
#
#
# Convention : Reuss Voigt Hill
#
# Bulk Modulus (GPa) = 33.63934 50.20137 41.92036
# Shear Modulus (GPa) = 24.84387 34.18640 29.51513
#
# Velocity S-wave (km/s) = 3.49049 4.09452 3.80451
# Velocity P-wave (km/s) = 5.72202 6.85364 6.31324
#
# Compressibility (1/GPa) = 0.02972710
#
# Stress axis : x y z
#
# Youngs Moduli (GPa) = 67.69226 39.87348 80.46625
#
# Poissons Ratio (x) = 0.43206 0.20562
# Poissons Ratio (y) = 0.73349 -0.17017
# Poissons Ratio (z) = 0.17298 -0.08432
#
# Static dielectric constant tensor:
#      x y z
#    x 1.771920 -0.024110 0.013850 
#    y -0.024110 1.719870 0.012000 
#    z 0.013850 0.012000 1.747020 
# 
# From -- ./inp_files/135279.got.cif
#   From: 2010.05.17/outbox.cif.g08.bks.cpg/sg2_68_cif.got.tgz:135279.got - 2010.06.03 11:33:40.
