data_PCOD9089216
_publ_section_title
;
Structure prediction by ZEFSAII (Michael W. Deem and Ramdas Pophale) SiO2 
 PCOD9089216
Probable space group: P -1
;
_chemical_formula_sum "Si O2"
_cell_formula_units_Z 12
_cell_length_a 8.197056
_cell_length_b 10.798764
_cell_length_c 13.235552
_cell_angle_alpha 146.154277
_cell_angle_beta 99.529333
_cell_angle_gamma 101.698310
_cell_volume 505.178239
_symmetry_space_group_name_H-M "P -1"
_symmetry_group_IT_number 2
_symmetry_cell_setting 'triclinic'
loop_
_space_group_symop_operation_xyz
x,y,z
-x,-y,-z
loop_
_atom_site_type_symbol
_atom_site_label
_atom_site_fract_x
_atom_site_fract_y
_atom_site_fract_z
Si Si1 0.969871 0.121112 0.273659
Si Si2 0.712988 0.275688 0.025391
Si Si3 0.320556 0.689621 0.603523
Si Si4 0.852064 0.858137 0.486867
Si Si5 0.751322 0.261960 0.792413
Si Si6 0.178997 0.452865 0.208859
O O1 0.203052 0.393557 0.448760
O O2 0.995519 0.045283 0.336488
O O3 0.820267 0.209173 0.321122
O O4 0.875857 0.851673 0.011608
O O5 0.655301 0.244450 0.878881
O O6 0.554618 0.960368 0.839493
O O7 0.707482 0.519183 0.233678
O O8 0.952219 0.391709 0.145041
O O9 0.299869 0.612229 0.430988
O O10 0.730610 0.985504 0.577540
O O11 0.000000 0.000000 0.500000
O O12 0.708945 0.370129 0.762053
O O13 0.000000 0.500000 0.000000
#
# Coordination Sequence:
#
# PCOD9089216 Si02
#       6
#     2   2   2   2   2   2
#     4  11  23  43  63  89 130 165 201 261 308 359
#     4  11  23  39  66  94 122 165 209 250 307 371
#     4  11  26  42  59  96 127 162 212 248 307 374
#     4  12  19  39  69  90 121 165 202 252 314 362
#     4  10  19  37  66  93 118 160 210 250 310 362
#     4  11  21  44  66  87 127 165 200 263 307 358
#
# _framework density 23.753993000000001
#
# number of rings (size 3 to 8) (size 9 to 14) (size 15 to 20)
#    0.000    1.000    8.333    0.500    0.000    3.333 
#    0.000    5.833    0.000    0.000    0.000    0.000 
#    0.000    0.000    0.000    0.000    0.000    0.000 
#
# Total GULP energy -67179.091771 kJ/mol
# GULP energy per Si atom -5598.257648 kJ/mol
# Density = 2.369993 g / cm^3
# Si number density = 23.753993 Si / 1000 Ang^3
#
#
#
# Elastic Constant Matrix: (Units=GPa)
#
#
# Indices 1 2 3 4 5 6 
#
# 1 -20.6999 48.3814 101.2034 38.6238 32.3323 16.8489
# 2 48.3814 -16.8071 -65.5826 -55.1597 -38.7837 -25.0537
# 3 101.2034 -65.5826 95.5493 -53.3760 -74.6616 -19.7166
# 4 38.6238 -55.1597 -53.3760 -6.5712 -27.0775 -23.3134
# 5 32.3323 -38.7837 -74.6616 -27.0775 25.1104 -13.9561
# 6 16.8489 -25.0537 -19.7166 -23.3134 -13.9561 7.0435
#
#
#
# Elastic Compliance Matrix: (Units=1/GPa)
#
#
# Indices 1 2 3 4 5 6 
#
# 1 0.052838 0.026485 -0.011385 0.033143 -0.001288 0.043093
# 2 0.026485 0.025150 -0.009446 0.008326 -0.007497 0.012362
# 3 -0.011385 -0.009446 0.008466 -0.012063 0.003214 -0.016227
# 4 0.033143 0.008326 -0.012063 0.038799 -0.011451 0.022298
# 5 -0.001288 -0.007497 0.003214 -0.011451 0.020351 -0.012165
# 6 0.043093 0.012362 -0.016227 0.022298 -0.012165 0.087140
#
#
# Mechanical properties :
#
#
# Convention : Reuss Voigt Hill
#
# Bulk Modulus (GPa) = 10.22914 25.11630 17.67272
# Shear Modulus (GPa) = 19.68331 3.38587 11.53459
#
# Velocity S-wave (km/s) = 2.88172 1.19519 2.20599
# Velocity P-wave (km/s) = 3.92276 3.53569 3.73424
#
# Compressibility (1/GPa) = 0.09775994
#
# Stress axis : x y z
#
# Youngs Moduli (GPa) = 18.92592 39.76218 118.12626
#
# Poissons Ratio (x) = -1.05310 1.34487
# Poissons Ratio (y) = -0.50125 1.11586
# Poissons Ratio (z) = 0.21547 0.37561
#
# Static dielectric constant tensor:
#      x y z
#    x 1.891690 0.024140 0.019350 
#    y 0.024140 1.927640 0.028680 
#    z 0.019350 0.028680 1.896200 
# 
# From -- ./inp_files/163017.got.cif
#   From: 2010.05.17/outbox.cif.g08.bks.cpg/sg2_82_cif.got.tgz:163017.got - 2010.06.03 11:33:40.
