data_PCOD9089361
_publ_section_title
;
Structure prediction by ZEFSAII (Michael W. Deem and Ramdas Pophale) SiO2 
 PCOD9089361
Probable space group: P -1
;
_chemical_formula_sum "Si O2"
_cell_formula_units_Z 14
_cell_length_a 12.129263
_cell_length_b 15.607322
_cell_length_c 8.952493
_cell_angle_alpha 133.183190
_cell_angle_beta 53.625160
_cell_angle_gamma 149.785204
_cell_volume 621.882623
_symmetry_space_group_name_H-M "P -1"
_symmetry_group_IT_number 2
_symmetry_cell_setting 'triclinic'
loop_
_space_group_symop_operation_xyz
x,y,z
-x,-y,-z
loop_
_atom_site_type_symbol
_atom_site_label
_atom_site_fract_x
_atom_site_fract_y
_atom_site_fract_z
Si Si1 0.537927 0.194048 0.679549
Si Si2 0.720566 0.575917 0.945827
Si Si3 0.401313 0.224440 0.272670
Si Si4 0.252556 0.686173 0.041723
Si Si5 0.097947 0.943729 0.913887
Si Si6 0.657613 0.004136 0.697112
Si Si7 0.891813 0.799720 0.384402
O O1 0.641569 0.390157 0.797502
O O2 0.689344 0.247037 0.753259
O O3 0.293159 0.037016 0.758631
O O4 0.505773 0.110244 0.447995
O O5 0.901174 0.723621 0.849308
O O6 0.500000 0.500000 0.000000
O O7 0.819982 0.686260 0.155680
O O8 0.321696 0.300303 0.472896
O O9 0.411457 0.144616 0.311222
O O10 0.622611 0.348051 0.151204
O O11 0.217650 0.051229 0.102000
O O12 0.333042 0.855209 0.089000
O O13 0.000000 0.500000 0.000000
O O14 0.000000 0.000000 0.000000
O O15 0.913481 0.141187 0.620704
O O16 0.000000 0.000000 0.500000
#
# Coordination Sequence:
#
# PCOD9089361 Si02
#       7
#     2   2   2   2   2   2   2
#     4  11  25  42  67  98 132 178 228 273 332 401
#     4  12  21  38  66  97 142 175 213 275 342 396
#     4  10  22  41  70  94 130 179 219 269 344 393
#     4  11  25  45  66  97 134 176 226 279 330 399
#     4  11  21  39  63  98 138 174 215 272 341 397
#     4  11  21  45  70  92 137 175 221 276 336 397
#     4  10  19  37  68  98 128 170 217 273 331 394
#
# _framework density 22.512288000000002
#
# number of rings (size 3 to 8) (size 9 to 14) (size 15 to 20)
#    0.000    1.143    4.286    4.286    0.000    0.000 
#    5.143    4.286    0.000    0.000    0.000    0.000 
#    0.000    0.000    0.000    0.000    0.000    0.000 
#
# Total GULP energy -78210.853933 kJ/mol
# GULP energy per Si atom -5586.489567 kJ/mol
# Density = 2.246105 g / cm^3
# Si number density = 22.512288 Si / 1000 Ang^3
#
#
#
# Elastic Constant Matrix: (Units=GPa)
#
#
# Indices 1 2 3 4 5 6 
#
# 1 85.3582 22.5368 4.9919 10.4594 14.7907 15.4943
# 2 22.5368 134.1486 24.1068 17.2944 3.1757 0.9906
# 3 4.9919 24.1068 65.9295 10.5699 2.0112 8.2573
# 4 10.4594 17.2944 10.5699 28.8419 -1.9291 -4.1606
# 5 14.7907 3.1757 2.0112 -1.9291 42.6178 5.9793
# 6 15.4943 0.9906 8.2573 -4.1606 5.9793 43.5823
#
#
#
# Elastic Compliance Matrix: (Units=1/GPa)
#
#
# Indices 1 2 3 4 5 6 
#
# 1 0.014559 -0.001789 0.001274 -0.005740 -0.004495 -0.005308
# 2 -0.001789 0.008666 -0.002536 -0.003541 -0.000150 0.000602
# 3 0.001274 -0.002536 0.017510 -0.006012 -0.000765 -0.004182
# 4 -0.005740 -0.003541 -0.006012 0.042298 0.003498 0.006818
# 5 -0.004495 -0.000150 -0.000765 0.003498 0.025427 -0.001408
# 6 -0.005308 0.000602 -0.004182 0.006818 -0.001408 0.026455
#
#
# Mechanical properties :
#
#
# Convention : Reuss Voigt Hill
#
# Bulk Modulus (GPa) = 28.87515 43.18969 36.03242
# Shear Modulus (GPa) = 32.77345 38.59514 35.68429
#
# Velocity S-wave (km/s) = 3.81964 4.14503 3.98565
# Velocity P-wave (km/s) = 5.68393 6.49114 6.10090
#
# Compressibility (1/GPa) = 0.03463186
#
# Stress axis : x y z
#
# Youngs Moduli (GPa) = 68.68637 115.38720 57.11120
#
# Poissons Ratio (x) = 0.20645 -0.07276
# Poissons Ratio (y) = 0.12290 0.14486
# Poissons Ratio (z) = -0.08751 0.29268
#
# Static dielectric constant tensor:
#      x y z
#    x 1.763070 0.015370 0.041390 
#    y 0.015370 1.927330 -0.108610 
#    z 0.041390 -0.108610 1.798590 
# 
# From -- ./inp_files/189586.got.cif
#   From: 2010.05.17/outbox.cif.g08.bks.cpg/sg2_95_cif.got.tgz:189586.got - 2010.06.03 11:33:40.
