data_PCOD9089836
_publ_section_title
;
Structure prediction by ZEFSAII (Michael W. Deem and Ramdas Pophale) SiO2 
 PCOD9089836
Probable space group: P -1
;
_chemical_formula_sum "Si O2"
_cell_formula_units_Z 16
_cell_length_a 19.811643
_cell_length_b 9.277669
_cell_length_c 8.228598
_cell_angle_alpha 89.419877
_cell_angle_beta 150.166423
_cell_angle_gamma 92.407736
_cell_volume 750.705687
_symmetry_space_group_name_H-M "P -1"
_symmetry_group_IT_number 2
_symmetry_cell_setting 'triclinic'
loop_
_space_group_symop_operation_xyz
x,y,z
-x,-y,-z
loop_
_atom_site_type_symbol
_atom_site_label
_atom_site_fract_x
_atom_site_fract_y
_atom_site_fract_z
Si Si1 0.336543 0.197538 0.380774
Si Si2 0.001795 0.406822 0.339456
Si Si3 0.576814 0.069363 0.316138
Si Si4 0.906321 0.136547 0.336750
Si Si5 0.931392 0.689141 0.052825
Si Si6 0.670376 0.948237 0.959394
Si Si7 0.806360 0.747630 0.462559
Si Si8 0.483451 0.329629 0.971905
O O1 0.354078 0.173199 0.228269
O O2 0.462025 0.269978 0.744232
O O3 0.306132 0.037322 0.400020
O O4 0.209111 0.288218 0.147655
O O5 0.925544 0.253425 0.230150
O O6 0.948843 0.518102 0.096270
O O7 0.000000 0.500000 0.500000
O O8 0.145881 0.362610 0.571924
O O9 0.470451 0.040387 0.242349
O O10 0.591395 0.237834 0.296565
O O11 0.500000 0.000000 0.000000
O O12 0.958736 0.219869 0.609046
O O13 0.000000 0.000000 0.500000
O O14 0.749302 0.084045 0.037345
O O15 0.913629 0.747406 0.833260
O O16 0.781342 0.896584 0.319747
O O17 0.660028 0.705986 0.236234
O O18 0.500000 0.500000 0.000000
#
# Coordination Sequence:
#
# PCOD9089836 Si02
#       8
#     2   2   2   2   2   2   2   2
#     4  10  19  38  62  83 118 155 189 240 296 338
#     4  10  20  38  57  83 122 154 190 237 295 342
#     4   9  20  39  61  83 118 155 190 243 294 340
#     4  11  20  38  60  90 118 150 199 241 279 358
#     4  10  21  37  60  85 122 160 189 236 297 339
#     4  11  20  37  63  88 117 154 194 240 293 341
#     4  10  20  37  61  82 121 160 186 241 298 343
#     4   9  20  40  61  87 114 150 201 242 289 350
#
# _framework density 21.313281
#
# number of rings (size 3 to 8) (size 9 to 14) (size 15 to 20)
#    0.000    2.000    2.500    2.250    0.000    0.500 
#   13.500    2.500    0.000    0.000    0.000    0.000 
#    0.000    0.000    0.000    0.000    0.000    0.000 
#
# Total GULP energy -89163.744391 kJ/mol
# GULP energy per Si atom -5572.734024 kJ/mol
# Density = 2.126477 g / cm^3
# Si number density = 21.313281 Si / 1000 Ang^3
#
#
#
# Elastic Constant Matrix: (Units=GPa)
#
#
# Indices 1 2 3 4 5 6 
#
# 1 78.9707 2.6560 -2.4246 6.5357 -10.4727 -8.5949
# 2 2.6560 131.4839 19.0456 -16.6855 -4.6381 7.3123
# 3 -2.4246 19.0456 44.1825 -13.2146 -11.6154 5.1578
# 4 6.5357 -16.6855 -13.2146 31.0377 -6.7428 0.8971
# 5 -10.4727 -4.6381 -11.6154 -6.7428 31.0498 -6.2963
# 6 -8.5949 7.3123 5.1578 0.8971 -6.2963 26.7897
#
#
#
# Elastic Compliance Matrix: (Units=1/GPa)
#
#
# Indices 1 2 3 4 5 6 
#
# 1 0.014351 -0.000844 0.001581 -0.001636 0.006174 0.006036
# 2 -0.000844 0.008593 -0.002088 0.004117 0.000667 -0.002196
# 3 0.001581 -0.002088 0.032683 0.015881 0.015468 -0.002112
# 4 -0.001636 0.004117 0.015881 0.044922 0.015226 -0.002632
# 5 0.006174 0.000667 0.015468 0.015226 0.045298 0.008957
# 6 0.006036 -0.002196 -0.002112 -0.002632 0.008957 0.042464
#
#
# Mechanical properties :
#
#
# Convention : Reuss Voigt Hill
#
# Bulk Modulus (GPa) = 18.89477 32.57679 25.73578
# Shear Modulus (GPa) = 23.96306 33.46613 28.71459
#
# Velocity S-wave (km/s) = 3.35673 3.96687 3.67449
# Velocity P-wave (km/s) = 4.88959 6.02490 5.48669
#
# Compressibility (1/GPa) = 0.05292471
#
# Stress axis : x y z
#
# Youngs Moduli (GPa) = 69.68142 116.37394 30.59683
#
# Poissons Ratio (x) = 0.09826 -0.04837
# Poissons Ratio (y) = 0.05884 0.06388
# Poissons Ratio (z) = -0.11015 0.24295
#
# Static dielectric constant tensor:
#      x y z
#    x 1.788700 0.005850 -0.045750 
#    y 0.005850 1.827430 -0.024210 
#    z -0.045750 -0.024210 1.862390 
# 
# From -- ./inp_files/213298.got.cif
#   From: 2010.05.17/outbox.cif.g08.bks.cpg/sg2_107_cif.got.tgz:213298.got - 2010.06.03 11:33:40.
