data_PCOD9089268
_publ_section_title
;
Structure prediction by ZEFSAII (Michael W. Deem and Ramdas Pophale) SiO2 
 PCOD9089268
Probable space group: P -1
;
_chemical_formula_sum "Si O2"
_cell_formula_units_Z 16
_cell_length_a 9.628664
_cell_length_b 16.053239
_cell_length_c 9.504758
_cell_angle_alpha 116.778090
_cell_angle_beta 147.967700
_cell_angle_gamma 69.789411
_cell_volume 693.606116
_symmetry_space_group_name_H-M "P -1"
_symmetry_group_IT_number 2
_symmetry_cell_setting 'triclinic'
loop_
_space_group_symop_operation_xyz
x,y,z
-x,-y,-z
loop_
_atom_site_type_symbol
_atom_site_label
_atom_site_fract_x
_atom_site_fract_y
_atom_site_fract_z
Si Si1 0.166954 0.873144 0.619083
Si Si2 0.589574 0.156917 0.897369
Si Si3 0.247306 0.984460 0.516118
Si Si4 0.324465 0.461616 0.183205
Si Si5 0.017533 0.105144 0.033618
Si Si6 0.376186 0.244850 0.311614
Si Si7 0.318370 0.264493 0.943810
Si Si8 0.101885 0.637382 0.065494
O O1 0.336210 0.854191 0.884167
O O2 0.331921 0.928158 0.680885
O O3 0.962833 0.946282 0.554447
O O4 0.985223 0.780951 0.350659
O O5 0.394649 0.235305 0.824290
O O6 0.845447 0.167808 0.031552
O O7 0.448985 0.055884 0.661902
O O8 0.110195 0.908738 0.238884
O O9 0.500000 0.500000 0.500000
O O10 0.433975 0.372872 0.133878
O O11 0.247191 0.544360 0.077071
O O12 0.055955 0.407149 0.969356
O O13 0.298364 0.155964 0.277133
O O14 0.000000 0.000000 0.000000
O O15 0.388189 0.232678 0.142637
O O16 0.654478 0.290765 0.634808
O O17 0.133308 0.312877 0.175333
#
# Coordination Sequence:
#
# PCOD9089268 Si02
#       8
#     2   2   2   2   2   2   2   2
#     4  10  20  38  56  91 124 165 217 281 336 390
#     4  11  24  37  63  89 132 173 226 281 343 390
#     4  10  21  39  59  84 122 169 233 271 333 390
#     4  10  19  37  67 105 138 160 220 283 345 403
#     4  12  25  44  63  94 131 187 236 281 327 401
#     4  11  24  42  66  98 136 177 227 274 339 398
#     4  10  22  37  62  97 129 169 214 279 340 400
#     4  10  21  39  64 102 134 170 215 283 338 406
#
# _framework density 23.067847
#
# number of rings (size 3 to 8) (size 9 to 14) (size 15 to 20)
#    0.000    1.500    5.000    0.750    3.500    3.000 
#    0.000    0.000    0.000    1.500    0.000    0.000 
#    0.000    0.000    0.000    0.000    0.000    0.000 
#
# Total GULP energy -89084.902432 kJ/mol
# GULP energy per Si atom -5567.806402 kJ/mol
# Density = 2.301534 g / cm^3
# Si number density = 23.067847 Si / 1000 Ang^3
#
#
#
# Elastic Constant Matrix: (Units=GPa)
#
#
# Indices 1 2 3 4 5 6 
#
# 1 104.6384 8.5240 7.4052 30.8345 17.3243 0.6788
# 2 8.5240 97.5071 28.7137 13.4703 5.7416 -8.4550
# 3 7.4052 28.7137 115.8063 20.3378 21.2863 -9.3759
# 4 30.8345 13.4703 20.3378 33.9257 -2.7635 -2.2013
# 5 17.3243 5.7416 21.2863 -2.7635 31.6910 2.2648
# 6 0.6788 -8.4550 -9.3759 -2.2013 2.2648 25.6458
#
#
#
# Elastic Compliance Matrix: (Units=1/GPa)
#
#
# Indices 1 2 3 4 5 6 
#
# 1 0.017748 0.000783 0.005215 -0.020728 -0.015245 0.001262
# 2 0.000783 0.011633 -0.001527 -0.004388 -0.002112 0.003066
# 3 0.005215 -0.001527 0.013808 -0.013208 -0.013319 0.004449
# 4 -0.020728 -0.004388 -0.013208 0.059940 0.026433 -0.002916
# 5 -0.015245 -0.002112 -0.013319 0.026433 0.052057 -0.007490
# 6 0.001262 0.003066 0.004449 -0.002916 -0.007490 0.042008
#
#
# Mechanical properties :
#
#
# Convention : Reuss Voigt Hill
#
# Bulk Modulus (GPa) = 19.18208 45.24859 32.21534
# Shear Modulus (GPa) = 24.31564 36.47308 30.39436
#
# Velocity S-wave (km/s) = 3.25020 3.98065 3.63382
# Velocity P-wave (km/s) = 4.73483 6.38635 5.62157
#
# Compressibility (1/GPa) = 0.05213199
#
# Stress axis : x y z
#
# Youngs Moduli (GPa) = 56.34540 85.95904 72.42069
#
# Poissons Ratio (x) = -0.06733 -0.37771
# Poissons Ratio (y) = -0.04414 0.11062
# Poissons Ratio (z) = -0.29387 0.13130
#
# Static dielectric constant tensor:
#      x y z
#    x 1.680460 0.098040 0.053800 
#    y 0.098040 1.892570 -0.066950 
#    z 0.053800 -0.066950 1.874980 
# 
# From -- ./inp_files/218432.got.cif
#   From: 2010.05.17/outbox.cif.g08.bks.cpg/sg2_110_cif.got.tgz:218432.got - 2010.06.03 11:33:40.
