data_PCOD9089999
_publ_section_title
;
Structure prediction by ZEFSAII (Michael W. Deem and Ramdas Pophale) SiO2 
 PCOD9089999
Probable space group: P -1
;
_chemical_formula_sum "Si O2"
_cell_formula_units_Z 16
_cell_length_a 19.337652
_cell_length_b 7.476149
_cell_length_c 10.966275
_cell_angle_alpha 115.831737
_cell_angle_beta 28.482812
_cell_angle_gamma 118.963727
_cell_volume 661.314829
_symmetry_space_group_name_H-M "P -1"
_symmetry_group_IT_number 2
_symmetry_cell_setting 'triclinic'
loop_
_space_group_symop_operation_xyz
x,y,z
-x,-y,-z
loop_
_atom_site_type_symbol
_atom_site_label
_atom_site_fract_x
_atom_site_fract_y
_atom_site_fract_z
Si Si1 0.676857 0.597880 0.270257
Si Si2 0.916812 0.057778 0.299843
Si Si3 0.934924 0.474891 0.459656
Si Si4 0.533021 0.671358 0.105174
Si Si5 0.380523 0.029188 0.415091
Si Si6 0.640643 0.393813 0.028062
Si Si7 0.157320 0.202160 0.450222
Si Si8 0.119435 0.372079 0.807445
O O1 0.500000 0.500000 0.500000
O O2 0.680204 0.839565 0.347165
O O3 0.730172 0.497006 0.038827
O O4 0.761590 0.554358 0.248304
O O5 0.983100 0.297291 0.255278
O O6 0.748571 0.012758 0.497518
O O7 0.916956 0.009429 0.431010
O O8 0.971781 0.865875 0.102304
O O9 0.947700 0.685866 0.430993
O O10 0.000000 0.500000 0.500000
O O11 0.757113 0.388051 0.738046
O O12 0.547967 0.552643 0.170290
O O13 0.423078 0.822057 0.326459
O O14 0.500000 0.500000 0.000000
O O15 0.698551 0.805758 0.853376
O O16 0.526968 0.182286 0.175443
O O17 0.202165 0.347714 0.543840
O O18 0.000000 0.500000 0.000000
#
# Coordination Sequence:
#
# PCOD9089999 Si02
#       8
#     2   2   2   2   2   2   2   2
#     4   9  20  38  61  92 120 154 201 249 307 356
#     4   9  20  38  60  89 114 151 205 246 298 354
#     4  11  23  38  58  87 121 156 198 252 300 350
#     4  11  21  32  58  91 118 151 197 244 303 354
#     4  10  19  38  63  86 119 154 198 248 303 361
#     4  10  22  36  59  87 122 159 190 251 307 352
#     4   9  21  37  57  86 116 149 206 243 289 356
#     4   9  20  40  66  83 115 165 205 244 294 363
#
# _framework density 24.194224999999999
#
# number of rings (size 3 to 8) (size 9 to 14) (size 15 to 20)
#    0.750    1.500    0.000    3.000    3.500    2.500 
#    0.000    5.625    5.500    0.000    0.000    0.000 
#    0.000    0.000    0.000    0.000    0.000    0.000 
#
# Total GULP energy -89314.321212 kJ/mol
# GULP energy per Si atom -5582.145076 kJ/mol
# Density = 2.413916 g / cm^3
# Si number density = 24.194225 Si / 1000 Ang^3
#
#
#
# Elastic Constant Matrix: (Units=GPa)
#
#
# Indices 1 2 3 4 5 6 
#
# 1 167.7857 48.6380 12.5976 20.3624 -18.2276 -0.7782
# 2 48.6380 93.0654 21.1268 21.3175 -24.6429 -6.7714
# 3 12.5976 21.1268 67.4245 11.4578 -2.3512 3.3153
# 4 20.3624 21.3175 11.4578 45.6307 -8.2075 -4.9286
# 5 -18.2276 -24.6429 -2.3512 -8.2075 36.7922 10.7654
# 6 -0.7782 -6.7714 3.3153 -4.9286 10.7654 37.4160
#
#
#
# Elastic Compliance Matrix: (Units=1/GPa)
#
#
# Indices 1 2 3 4 5 6 
#
# 1 0.007204 -0.003086 -0.000002 -0.001625 0.001443 -0.001038
# 2 -0.003086 0.016231 -0.003596 -0.003797 0.008166 0.000342
# 3 -0.000002 -0.003596 0.016513 -0.002944 -0.001396 -0.002100
# 4 -0.001625 -0.003797 -0.002944 0.025687 0.001461 0.002503
# 5 0.001443 0.008166 -0.001396 0.001461 0.036107 -0.008565
# 6 -0.001038 0.000342 -0.002100 0.002503 -0.008565 0.029747
#
#
# Mechanical properties :
#
#
# Convention : Reuss Voigt Hill
#
# Bulk Modulus (GPa) = 37.62018 54.77780 46.19899
# Shear Modulus (GPa) = 32.52772 40.36200 36.44486
#
# Velocity S-wave (km/s) = 3.67064 4.08885 3.88538
# Velocity P-wave (km/s) = 5.79205 6.70683 6.26616
#
# Compressibility (1/GPa) = 0.02658148
#
# Stress axis : x y z
#
# Youngs Moduli (GPa) = 138.81642 61.61085 60.55722
#
# Poissons Ratio (x) = 0.19010 0.00010
# Poissons Ratio (y) = 0.42833 0.21777
# Poissons Ratio (z) = 0.00022 0.22156
#
# Static dielectric constant tensor:
#      x y z
#    x 1.918750 -0.011850 0.037670 
#    y -0.011850 1.948960 -0.029370 
#    z 0.037670 -0.029370 2.113670 
# 
# From -- ./inp_files/469553.got.cif
#   From: 2010.05.17/outbox.cif.g08.bks.cpg/sg2_235_cif.got.tgz:469553.got - 2010.06.03 11:33:40.
