data_PCOD9089829
_publ_section_title
;
Structure prediction by ZEFSAII (Michael W. Deem and Ramdas Pophale) SiO2 
 PCOD9089829
Probable space group: P -1
;
_chemical_formula_sum "Si O2"
_cell_formula_units_Z 12
_cell_length_a 6.591661
_cell_length_b 7.602894
_cell_length_c 13.023510
_cell_angle_alpha 59.427204
_cell_angle_beta 121.697264
_cell_angle_gamma 109.708806
_cell_volume 475.939216
_symmetry_space_group_name_H-M "P -1"
_symmetry_group_IT_number 2
_symmetry_cell_setting 'triclinic'
loop_
_space_group_symop_operation_xyz
x,y,z
-x,-y,-z
loop_
_atom_site_type_symbol
_atom_site_label
_atom_site_fract_x
_atom_site_fract_y
_atom_site_fract_z
Si Si1 0.565290 0.732769 0.083760
Si Si2 0.251914 0.404968 0.177502
Si Si3 0.054848 0.735207 0.312365
Si Si4 0.662487 0.185212 0.437249
Si Si5 0.132331 0.636302 0.745150
Si Si6 0.756844 0.947091 0.887348
O O1 0.669562 0.521829 0.132046
O O2 0.787802 0.801123 0.198639
O O3 0.685361 0.357053 0.907231
O O4 0.562396 0.889723 0.942176
O O5 0.481613 0.359289 0.320738
O O6 0.019447 0.341615 0.201461
O O7 0.235483 0.253423 0.121555
O O8 0.132992 0.759527 0.442164
O O9 0.241909 0.868971 0.248439
O O10 0.039056 0.502393 0.337786
O O11 0.763864 0.170450 0.352436
O O12 0.500000 0.000000 0.500000
O O13 0.000000 0.000000 0.000000
#
# Coordination Sequence:
#
# PCOD9089829 Si02
#       6
#     2   2   2   2   2   2
#     4   8  20  38  60  79 118 150 186 230 285 329
#     4  11  21  37  63  86 108 155 191 229 287 332
#     4   9  19  39  58  84 118 150 184 233 285 329
#     4  11  21  39  60  82 119 151 185 233 287 340
#     4   9  22  37  58  90 111 145 194 236 275 335
#     4  10  19  38  62  80 116 157 183 231 287 334
#
# _framework density 25.213301999999999
#
# number of rings (size 3 to 8) (size 9 to 14) (size 15 to 20)
#    1.000    1.333    1.667    1.000    0.000    2.000 
#    0.000    2.500    0.000    0.000    0.000    0.000 
#    0.000    0.000    0.000    0.000    0.000    0.000 
#
# Total GULP energy -66997.795628 kJ/mol
# GULP energy per Si atom -5583.149636 kJ/mol
# Density = 2.515591 g / cm^3
# Si number density = 25.213302 Si / 1000 Ang^3
#
#
#
# Elastic Constant Matrix: (Units=GPa)
#
#
# Indices 1 2 3 4 5 6 
#
# 1 102.1236 33.3692 57.6544 -5.5934 -20.5991 23.7805
# 2 33.3692 79.8035 39.8379 -4.7327 -9.2304 36.0599
# 3 57.6544 39.8379 166.8388 -3.9364 -18.1522 21.4443
# 4 -5.5934 -4.7327 -3.9364 47.2539 24.0254 -12.1841
# 5 -20.5991 -9.2304 -18.1522 24.0254 31.9708 -22.4035
# 6 23.7805 36.0599 21.4443 -12.1841 -22.4035 34.6158
#
#
#
# Elastic Compliance Matrix: (Units=1/GPa)
#
#
# Indices 1 2 3 4 5 6 
#
# 1 0.014457 -0.004508 -0.003137 -0.003880 0.010767 0.002310
# 2 -0.004508 0.038971 -0.004593 0.009504 -0.042716 -0.058955
# 3 -0.003137 -0.004593 0.008153 -0.002179 0.006781 0.005511
# 4 -0.003880 0.009504 -0.002179 0.038999 -0.045391 -0.021535
# 5 0.010767 -0.042716 0.006781 -0.045391 0.138530 0.106580
# 6 0.002310 -0.058955 0.005511 -0.021535 0.106580 0.146701
#
#
# Mechanical properties :
#
#
# Convention : Reuss Voigt Hill
#
# Bulk Modulus (GPa) = 26.95052 67.83210 47.39131
# Shear Modulus (GPa) = 11.82998 37.29506 24.56252
#
# Velocity S-wave (km/s) = 2.16844 3.85019 3.12459
# Velocity P-wave (km/s) = 4.12089 6.83571 5.64397
#
# Compressibility (1/GPa) = 0.03710503
#
# Stress axis : x y z
#
# Youngs Moduli (GPa) = 69.16968 25.66008 122.66157
#
# Poissons Ratio (x) = 0.11568 0.38473
# Poissons Ratio (y) = 0.31182 0.56342
# Poissons Ratio (z) = 0.21695 0.11786
#
# Static dielectric constant tensor:
#      x y z
#    x 2.086730 0.040010 -0.036570 
#    y 0.040010 2.063710 -0.045740 
#    z -0.036570 -0.045740 1.985640 
# 
# From -- ./inp_files/68365.got.cif
#   From: 2010.05.17/outbox.cif.g08.bks.cpg/sg2_35_cif.got.tgz:68365.got - 2010.06.03 11:33:40.
