data_PCOD9089065
_publ_section_title
;
Structure prediction by ZEFSAII (Michael W. Deem and Ramdas Pophale) SiO2 
 PCOD9089065
Probable space group: P -1
;
_chemical_formula_sum "Si O2"
_cell_formula_units_Z 12
_cell_length_a 5.836559
_cell_length_b 13.741842
_cell_length_c 8.552438
_cell_angle_alpha 41.117945
_cell_angle_beta 87.276860
_cell_angle_gamma 98.087513
_cell_volume 434.012255
_symmetry_space_group_name_H-M "P -1"
_symmetry_group_IT_number 2
_symmetry_cell_setting 'triclinic'
loop_
_space_group_symop_operation_xyz
x,y,z
-x,-y,-z
loop_
_atom_site_type_symbol
_atom_site_label
_atom_site_fract_x
_atom_site_fract_y
_atom_site_fract_z
Si Si1 0.150018 0.849563 0.160445
Si Si2 0.282510 0.571958 0.355699
Si Si3 0.702922 0.643273 0.620322
Si Si4 0.985994 0.663887 0.865348
Si Si5 0.901920 0.075365 0.259185
Si Si6 0.580449 0.134476 0.580102
O O1 0.300458 0.745602 0.191418
O O2 0.316744 0.935386 0.191243
O O3 0.924362 0.740254 0.392578
O O4 0.057236 0.936605 0.916995
O O5 0.500000 0.500000 0.500000
O O6 0.313303 0.529102 0.224953
O O7 0.000000 0.500000 0.500000
O O8 0.490219 0.719657 0.515987
O O9 0.755672 0.672781 0.765187
O O10 0.986776 0.740072 0.941062
O O11 0.211551 0.786351 0.638212
O O12 0.000000 0.500000 0.000000
O O13 0.624626 0.983753 0.363955
O O14 0.000000 0.000000 0.500000
#
# Coordination Sequence:
#
# PCOD9089065 Si02
#       6
#     2   2   2   2   2   2
#     4  10  23  42  70 100 145 191 244 299 368 445
#     4  10  19  37  65 105 146 185 243 312 369 439
#     4  10  21  42  68 104 137 186 242 302 364 437
#     4  11  25  47  71 100 145 187 240 301 374 447
#     4  12  25  48  69 106 147 191 241 304 376 447
#     4  11  23  46  72 100 140 188 242 299 368 447
#
# _framework density 27.648989
#
# number of rings (size 3 to 8) (size 9 to 14) (size 15 to 20)
#    0.000    1.333    3.333    2.000    0.000    2.667 
#    6.000    0.000    0.000    0.000    0.000    0.000 
#    0.000    0.000    0.000    0.000    0.000    0.000 
#
# Total GULP energy -66814.919710 kJ/mol
# GULP energy per Si atom -5567.909976 kJ/mol
# Density = 2.758606 g / cm^3
# Si number density = 27.648989 Si / 1000 Ang^3
#
#
#
# Elastic Constant Matrix: (Units=GPa)
#
#
# Indices 1 2 3 4 5 6 
#
# 1 113.1095 42.0972 32.1217 -4.3544 31.1810 -2.2756
# 2 42.0972 174.4153 37.7320 0.0906 41.4112 23.5868
# 3 32.1217 37.7320 94.5162 10.8588 23.8117 20.8165
# 4 -4.3544 0.0906 10.8588 64.3098 1.7274 24.5050
# 5 31.1810 41.4112 23.8117 1.7274 51.5816 -0.5085
# 6 -2.2756 23.5868 20.8165 24.5050 -0.5085 54.7077
#
#
#
# Elastic Compliance Matrix: (Units=1/GPa)
#
#
# Indices 1 2 3 4 5 6 
#
# 1 0.011419 -0.001312 -0.002641 0.000702 -0.004637 0.001688
# 2 -0.001312 0.008043 -0.000693 0.001717 -0.005441 -0.004078
# 3 -0.002641 -0.000693 0.013997 -0.000545 -0.004339 -0.004933
# 4 0.000702 0.001717 -0.000545 0.019231 -0.002285 -0.009139
# 5 -0.004637 -0.005441 -0.004339 -0.002285 0.028688 0.005094
# 6 0.001688 -0.004078 -0.004933 -0.009139 0.005094 0.026125
#
#
# Mechanical properties :
#
#
# Convention : Reuss Voigt Hill
#
# Bulk Modulus (GPa) = 41.38238 67.32697 54.35468
# Shear Modulus (GPa) = 40.04824 52.12581 46.08702
#
# Velocity S-wave (km/s) = 3.80998 4.34668 4.08715
# Velocity P-wave (km/s) = 5.86124 7.04237 6.47878
#
# Compressibility (1/GPa) = 0.02416488
#
# Stress axis : x y z
#
# Youngs Moduli (GPa) = 87.57593 124.33717 71.44600
#
# Poissons Ratio (x) = 0.16319 0.18870
# Poissons Ratio (y) = 0.11494 0.04951
# Poissons Ratio (z) = 0.23130 0.08616
#
# Static dielectric constant tensor:
#      x y z
#    x 2.053950 0.391140 -0.350860 
#    y 0.391140 1.394330 1.170340 
#    z -0.350860 1.170340 0.965440 
# 
# From -- ./inp_files/134746.got.cif
#   From: 2010.05.17/outbox.cif.g08.bks.cpg/sg2_68_cif.got.tgz:134746.got - 2010.06.03 11:33:40.
