data_PCOD9089596
_publ_section_title
;
Structure prediction by ZEFSAII (Michael W. Deem and Ramdas Pophale) SiO2 
 PCOD9089596
Probable space group: P -1
;
_chemical_formula_sum "Si O2"
_cell_formula_units_Z 14
_cell_length_a 23.674915
_cell_length_b 14.459644
_cell_length_c 11.666749
_cell_angle_alpha 30.043510
_cell_angle_beta 30.092091
_cell_angle_gamma 22.568475
_cell_volume 720.914882
_symmetry_space_group_name_H-M "P -1"
_symmetry_group_IT_number 2
_symmetry_cell_setting 'triclinic'
loop_
_space_group_symop_operation_xyz
x,y,z
-x,-y,-z
loop_
_atom_site_type_symbol
_atom_site_label
_atom_site_fract_x
_atom_site_fract_y
_atom_site_fract_z
Si Si1 0.624827 0.856078 0.830448
Si Si2 0.479422 0.349048 0.460679
Si Si3 0.965776 0.075814 0.613902
Si Si4 0.177804 0.534869 0.916867
Si Si5 0.599949 0.573849 0.734976
Si Si6 0.520027 0.214119 0.046307
Si Si7 0.128487 0.267813 0.108974
O O1 0.622982 0.069363 0.561216
O O2 0.778628 0.589691 0.900643
O O3 0.556919 0.811291 0.894661
O O4 0.500000 0.000000 0.000000
O O5 0.325783 0.483239 0.663229
O O6 0.441758 0.307810 0.445302
O O7 0.502303 0.541525 0.203035
O O8 0.782535 0.318147 0.689354
O O9 0.059346 0.154195 0.396837
O O10 0.000000 0.000000 0.500000
O O11 0.028885 0.834315 0.837078
O O12 0.159319 0.378452 0.036051
O O13 0.500000 0.500000 0.000000
O O14 0.555766 0.739761 0.746561
O O15 0.705616 0.962846 0.994650
O O16 0.000000 0.500000 0.000000
#
# Coordination Sequence:
#
# PCOD9089596 Si02
#       7
#     2   2   2   2   2   2   2
#     4  10  22  38  58  92 124 160 211 247 291 365
#     4  10  19  38  59  90 125 156 200 250 302 355
#     4  12  21  40  62  87 125 157 198 255 305 355
#     4  11  22  38  61  90 124 156 206 254 292 359
#     4  10  22  39  62  94 123 161 197 251 317 359
#     4  11  22  39  63  93 125 161 200 255 307 358
#     4  12  22  35  61  94 119 154 205 248 307 358
#
# _framework density 19.419768000000001
#
# number of rings (size 3 to 8) (size 9 to 14) (size 15 to 20)
#    0.000    1.143    7.143    0.857    0.000    4.000 
#    0.000    0.714    0.000    4.286    0.000    0.000 
#    0.000    0.000    0.000    0.000    0.000    0.000 
#
# Total GULP energy -78175.681009 kJ/mol
# GULP energy per Si atom -5583.977215 kJ/mol
# Density = 1.937557 g / cm^3
# Si number density = 19.419768 Si / 1000 Ang^3
#
#
#
# Elastic Constant Matrix: (Units=GPa)
#
#
# Indices 1 2 3 4 5 6 
#
# 1 78.4555 48.8953 12.1269 -14.4597 12.4559 1.4316
# 2 48.8953 126.9262 47.6149 -12.8699 19.4537 -12.8905
# 3 12.1269 47.6149 55.9303 -23.6381 1.6886 -1.5767
# 4 -14.4597 -12.8699 -23.6381 42.4914 -6.3905 6.6032
# 5 12.4559 19.4537 1.6886 -6.3905 34.0399 -11.4392
# 6 1.4316 -12.8905 -1.5767 6.6032 -11.4392 32.2190
#
#
#
# Elastic Compliance Matrix: (Units=1/GPa)
#
#
# Indices 1 2 3 4 5 6 
#
# 1 0.020022 -0.010090 0.007870 0.008861 -0.002752 -0.007334
# 2 -0.010090 0.019006 -0.017606 -0.009430 -0.005678 0.007108
# 3 0.007870 -0.017606 0.039936 0.021744 0.006765 -0.007494
# 4 0.008861 -0.009430 0.021744 0.037972 0.005154 -0.009055
# 5 -0.002752 -0.005678 0.006765 0.005154 0.037806 0.010548
# 6 -0.007334 0.007108 -0.007494 -0.009055 0.010548 0.039441
#
#
# Mechanical properties :
#
#
# Convention : Reuss Voigt Hill
#
# Bulk Modulus (GPa) = 25.43779 53.17625 39.30702
# Shear Modulus (GPa) = 20.24785 31.92838 26.08811
#
# Velocity S-wave (km/s) = 3.23250 4.05917 3.66919
# Velocity P-wave (km/s) = 5.20187 7.02931 6.18347
#
# Compressibility (1/GPa) = 0.03931159
#
# Stress axis : x y z
#
# Youngs Moduli (GPa) = 49.94570 52.61408 25.04000
#
# Poissons Ratio (x) = 0.53087 -0.19707
# Poissons Ratio (y) = 0.50395 0.44087
# Poissons Ratio (z) = -0.39308 0.92635
#
# Static dielectric constant tensor:
#      x y z
#    x 1.683070 -0.000810 0.012060 
#    y -0.000810 1.696580 -0.039530 
#    z 0.012060 -0.039530 1.707710 
# 
# From -- ./inp_files/260826.got.cif
#   From: 2010.05.17/outbox.cif.g08.bks.cpg/sg2_131_cif.got.tgz:260826.got - 2010.06.03 11:33:40.
