data_PCOD9089456
_publ_section_title
;
Structure prediction by ZEFSAII (Michael W. Deem and Ramdas Pophale) SiO2 
 PCOD9089456
Probable space group: P -1
;
_chemical_formula_sum "Si O2"
_cell_formula_units_Z 16
_cell_length_a 16.010332
_cell_length_b 8.542413
_cell_length_c 8.122136
_cell_angle_alpha 128.645559
_cell_angle_beta 66.183178
_cell_angle_gamma 83.344884
_cell_volume 680.292419
_symmetry_space_group_name_H-M "P -1"
_symmetry_group_IT_number 2
_symmetry_cell_setting 'triclinic'
loop_
_space_group_symop_operation_xyz
x,y,z
-x,-y,-z
loop_
_atom_site_type_symbol
_atom_site_label
_atom_site_fract_x
_atom_site_fract_y
_atom_site_fract_z
Si Si1 0.884975 0.472808 0.905919
Si Si2 0.637561 0.675285 0.746902
Si Si3 0.084194 0.538648 0.745067
Si Si4 0.155539 0.718460 0.509945
Si Si5 0.383930 0.536968 0.677720
Si Si6 0.732990 0.999162 0.401106
Si Si7 0.711103 0.977774 0.789243
Si Si8 0.476407 0.573749 0.250796
O O1 0.881273 0.307970 0.659621
O O2 0.979854 0.519215 0.817148
O O3 0.901156 0.396541 0.035902
O O4 0.779515 0.729910 0.147371
O O5 0.727160 0.507622 0.694252
O O6 0.667955 0.565626 0.466239
O O7 0.627223 0.921418 0.904253
O O8 0.539315 0.641081 0.826135
O O9 0.087627 0.700090 0.702802
O O10 0.179724 0.272466 0.454144
O O11 0.175451 0.933839 0.643002
O O12 0.500000 0.500000 0.500000
O O13 0.427902 0.412336 0.734758
O O14 0.299780 0.805347 0.959835
O O15 0.634961 0.182952 0.487237
O O16 0.696935 0.037581 0.646352
O O17 0.500000 0.500000 0.000000
#
# Coordination Sequence:
#
# PCOD9089456 Si02
#       8
#     2   2   2   2   2   2   2   2
#     4  10  21  42  64  89 125 157 200 249 299 359
#     4   9  22  38  60  87 115 158 202 242 302 358
#     4   9  21  40  63  93 122 156 203 247 296 366
#     4  10  21  39  62  90 124 159 198 250 301 353
#     4  10  21  37  61  83 118 156 198 251 298 351
#     4  10  22  38  61  88 120 160 200 245 301 358
#     4  10  20  40  61  85 122 159 197 250 300 356
#     4  10  19  38  56  84 119 151 196 248 293 353
#
# _framework density 23.519297000000002
#
# number of rings (size 3 to 8) (size 9 to 14) (size 15 to 20)
#    0.000    2.250    1.250    0.375    0.000   11.500 
#    0.000   11.250    0.000    0.000    0.000    0.000 
#    0.000    0.000    0.000    0.000    0.000    0.000 
#
# Total GULP energy -89208.727684 kJ/mol
# GULP energy per Si atom -5575.545480 kJ/mol
# Density = 2.346577 g / cm^3
# Si number density = 23.519297 Si / 1000 Ang^3
#
#
#
# Elastic Constant Matrix: (Units=GPa)
#
#
# Indices 1 2 3 4 5 6 
#
# 1 75.6976 5.1184 13.3989 -9.4682 16.4523 -11.4530
# 2 5.1184 40.8739 2.3681 -9.2957 -0.1206 9.3735
# 3 13.3989 2.3681 52.4638 -3.2504 2.9091 -5.6253
# 4 -9.4682 -9.2957 -3.2504 33.6846 -3.9647 -3.0007
# 5 16.4523 -0.1206 2.9091 -3.9647 33.0686 -8.7528
# 6 -11.4530 9.3735 -5.6253 -3.0007 -8.7528 30.0433
#
#
#
# Elastic Compliance Matrix: (Units=1/GPa)
#
#
# Indices 1 2 3 4 5 6 
#
# 1 0.016415 -0.002255 -0.003006 0.003412 -0.006195 0.004934
# 2 -0.002255 0.028402 -0.001315 0.006183 -0.000425 -0.009474
# 3 -0.003006 -0.001315 0.020281 0.001138 0.000741 0.003391
# 4 0.003412 0.006183 0.001138 0.033183 0.003219 0.003837
# 5 -0.006195 -0.000425 0.000741 0.003219 0.035945 0.008703
# 6 0.004934 -0.009474 0.003391 0.003837 0.008703 0.041676
#
#
# Mechanical properties :
#
#
# Convention : Reuss Voigt Hill
#
# Bulk Modulus (GPa) = 19.25160 23.42290 21.33725
# Shear Modulus (GPa) = 24.22832 29.23596 26.73214
#
# Velocity S-wave (km/s) = 3.21307 3.52953 3.37501
# Velocity P-wave (km/s) = 4.68704 5.15663 4.92743
#
# Compressibility (1/GPa) = 0.05194372
#
# Stress axis : x y z
#
# Youngs Moduli (GPa) = 60.92013 35.20935 49.30719
#
# Poissons Ratio (x) = 0.07941 0.14824
# Poissons Ratio (y) = 0.13739 0.06485
# Poissons Ratio (z) = 0.18316 0.04631
#
# Static dielectric constant tensor:
#      x y z
#    x 1.779230 -0.039100 -0.041940 
#    y -0.039100 2.285180 -0.280200 
#    z -0.041940 -0.280200 2.078490 
# 
# From -- ./inp_files/297270.got.cif
#   From: 2010.05.17/outbox.cif.g08.bks.cpg/sg2_149_cif.got.tgz:297270.got - 2010.06.03 11:33:40.
