data_PCOD9089493
_publ_section_title
;
Structure prediction by ZEFSAII (Michael W. Deem and Ramdas Pophale) SiO2 
 PCOD9089493
Probable space group: P -1
;
_chemical_formula_sum "Si O2"
_cell_formula_units_Z 16
_cell_length_a 17.314738
_cell_length_b 11.122546
_cell_length_c 12.499265
_cell_angle_alpha 81.222708
_cell_angle_beta 63.810999
_cell_angle_gamma 24.782471
_cell_volume 680.559837
_symmetry_space_group_name_H-M "P -1"
_symmetry_group_IT_number 2
_symmetry_cell_setting 'triclinic'
loop_
_space_group_symop_operation_xyz
x,y,z
-x,-y,-z
loop_
_atom_site_type_symbol
_atom_site_label
_atom_site_fract_x
_atom_site_fract_y
_atom_site_fract_z
Si Si1 0.051657 0.692880 0.990379
Si Si2 0.760688 0.016474 0.481063
Si Si3 0.817940 0.102859 0.856284
Si Si4 0.433420 0.053400 0.713027
Si Si5 0.571226 0.193695 0.279164
Si Si6 0.261151 0.176602 0.597096
Si Si7 0.141756 0.894288 0.754687
Si Si8 0.870972 0.038884 0.595324
O O1 0.882731 0.803988 0.120889
O O2 0.999084 0.869345 0.082907
O O3 0.344498 0.250759 0.841256
O O4 0.943228 0.876193 0.915709
O O5 0.438850 0.434622 0.651071
O O6 0.795809 0.071798 0.360676
O O7 0.902198 0.888199 0.514060
O O8 0.892136 0.715376 0.397805
O O9 0.917665 0.931247 0.700981
O O10 0.500000 0.500000 0.000000
O O11 0.926285 0.095938 0.801169
O O12 0.202498 0.321780 0.727166
O O13 0.527059 0.793164 0.726413
O O14 0.622162 0.880635 0.546062
O O15 0.437022 0.501039 0.292399
O O16 0.527669 0.205412 0.425604
O O17 0.000000 0.000000 0.500000
#
# Coordination Sequence:
#
# PCOD9089493 Si02
#       8
#     2   2   2   2   2   2   2   2
#     4  12  21  37  62  91 122 159 207 257 301 362
#     4  11  19  38  64  92 118 158 215 258 300 360
#     4  12  25  38  54  92 134 160 195 248 321 375
#     4   9  21  35  61  93 117 159 208 263 294 345
#     4  10  19  38  57  88 122 155 205 247 299 365
#     4   9  19  36  61  90 117 150 210 266 286 350
#     4  11  21  36  62  90 122 159 207 259 306 356
#     4  12  24  38  62  90 126 169 193 252 320 376
#
# _framework density 23.510058000000001
#
# number of rings (size 3 to 8) (size 9 to 14) (size 15 to 20)
#    0.750    0.500    5.000    2.250    1.750    1.000 
#    0.000    0.000    0.000    5.250    0.000    0.000 
#    0.000    0.000    0.000    0.000    0.000    0.000 
#
# Total GULP energy -89072.636790 kJ/mol
# GULP energy per Si atom -5567.039799 kJ/mol
# Density = 2.345655 g / cm^3
# Si number density = 23.510058 Si / 1000 Ang^3
#
#
#
# Elastic Constant Matrix: (Units=GPa)
#
#
# Indices 1 2 3 4 5 6 
#
# 1 109.5767 2.9150 33.7888 2.1882 16.8556 -3.1040
# 2 2.9150 34.4330 9.2401 -12.4132 7.8694 4.0779
# 3 33.7888 9.2401 87.0554 -8.8660 28.1675 -3.7943
# 4 2.1882 -12.4132 -8.8660 28.8986 -4.7070 -2.1333
# 5 16.8556 7.8694 28.1675 -4.7070 56.3176 -7.1273
# 6 -3.1040 4.0779 -3.7943 -2.1333 -7.1273 28.4167
#
#
#
# Elastic Compliance Matrix: (Units=1/GPa)
#
#
# Indices 1 2 3 4 5 6 
#
# 1 0.010589 -0.000430 -0.003860 -0.002378 -0.001354 0.000185
# 2 -0.000430 0.035978 -0.001223 0.014109 -0.003773 -0.005261
# 3 -0.003860 -0.001223 0.015455 0.003568 -0.006033 0.000572
# 4 -0.002378 0.014109 0.003568 0.042161 0.000673 0.001526
# 5 -0.001354 -0.003773 -0.006033 0.000673 0.022429 0.005264
# 6 0.000185 -0.005261 0.000572 0.001526 0.005264 0.037477
#
#
# Mechanical properties :
#
#
# Convention : Reuss Voigt Hill
#
# Bulk Modulus (GPa) = 19.60982 35.88363 27.74673
# Shear Modulus (GPa) = 26.02609 35.06800 30.54705
#
# Velocity S-wave (km/s) = 3.33080 3.86634 3.60852
# Velocity P-wave (km/s) = 4.81159 5.93529 5.40273
#
# Compressibility (1/GPa) = 0.05099485
#
# Stress axis : x y z
#
# Youngs Moduli (GPa) = 94.43975 27.79460 64.70200
#
# Poissons Ratio (x) = 0.01196 0.24977
# Poissons Ratio (y) = 0.04063 0.07915
# Poissons Ratio (z) = 0.36456 0.03400
#
# Static dielectric constant tensor:
#      x y z
#    x 2.018870 -0.011760 0.048780 
#    y -0.011760 2.059690 0.126440 
#    z 0.048780 0.126440 1.974240 
# 
# From -- ./inp_files/463814.got.cif
#   From: 2010.05.17/outbox.cif.g08.bks.cpg/sg2_232_cif.got.tgz:463814.got - 2010.06.03 11:33:40.
