data_PCOD9089972
_publ_section_title
;
Structure prediction by ZEFSAII (Michael W. Deem and Ramdas Pophale) SiO2 
 PCOD9089972
Probable space group: P -1
;
_chemical_formula_sum "Si O2"
_cell_formula_units_Z 16
_cell_length_a 15.860237
_cell_length_b 12.017942
_cell_length_c 9.346137
_cell_angle_alpha 73.652395
_cell_angle_beta 92.249482
_cell_angle_gamma 150.215289
_cell_volume 766.573086
_symmetry_space_group_name_H-M "P -1"
_symmetry_group_IT_number 2
_symmetry_cell_setting 'triclinic'
loop_
_space_group_symop_operation_xyz
x,y,z
-x,-y,-z
loop_
_atom_site_type_symbol
_atom_site_label
_atom_site_fract_x
_atom_site_fract_y
_atom_site_fract_z
Si Si1 0.893254 0.394968 0.675703
Si Si2 0.492668 0.393931 0.326757
Si Si3 0.509252 0.679125 0.330813
Si Si4 0.162107 0.754215 0.819043
Si Si5 0.733230 0.953278 0.823869
Si Si6 0.524754 0.047562 0.155205
Si Si7 0.366399 0.578315 0.082042
Si Si8 0.173291 0.176905 0.036013
O O1 0.000000 0.500000 0.500000
O O2 0.042760 0.630193 0.711970
O O3 0.834037 0.193253 0.793407
O O4 0.690575 0.209103 0.710058
O O5 0.466844 0.496009 0.339645
O O6 0.531556 0.371346 0.483693
O O7 0.327056 0.131161 0.316446
O O8 0.656601 0.600223 0.145838
O O9 0.390866 0.618368 0.239426
O O10 0.725245 0.991030 0.219463
O O11 0.332686 0.867847 0.791910
O O12 0.000000 0.500000 0.000000
O O13 0.843490 0.973653 0.857724
O O14 0.546315 0.723839 0.991549
O O15 0.620287 0.292515 0.064446
O O16 0.500000 0.000000 0.000000
O O17 0.194163 0.288482 0.130689
O O18 0.000000 0.000000 0.000000
#
# Coordination Sequence:
#
# PCOD9089972 Si02
#       8
#     2   2   2   2   2   2   2   2
#     4  11  25  43  63  94 131 169 210 267 319 373
#     4  10  21  38  63  85 118 159 201 251 311 371
#     4  11  20  37  64  91 118 157 203 253 316 367
#     4  12  24  40  68  95 127 171 214 257 318 386
#     4  10  19  41  61  82 119 162 210 247 306 368
#     4  11  22  41  64  94 123 166 215 255 312 382
#     4  10  19  38  63  82 117 158 204 255 298 371
#     4  11  22  36  58  89 116 158 208 251 302 368
#
# _framework density 20.872114
#
# number of rings (size 3 to 8) (size 9 to 14) (size 15 to 20)
#    0.000    1.250    5.000    2.250    1.750    0.500 
#    2.250    0.625    0.000    0.000    0.000    0.000 
#    0.000    0.000    0.000    0.000    0.000    0.000 
#
# Total GULP energy -89110.099983 kJ/mol
# GULP energy per Si atom -5569.381249 kJ/mol
# Density = 2.082461 g / cm^3
# Si number density = 20.872114 Si / 1000 Ang^3
#
#
#
# Elastic Constant Matrix: (Units=GPa)
#
#
# Indices 1 2 3 4 5 6 
#
# 1 64.3511 22.8233 -11.4157 -1.9234 4.1422 11.4440
# 2 22.8233 82.1252 -12.5533 8.8576 6.1712 -4.5687
# 3 -11.4157 -12.5533 72.7261 8.4318 0.8261 12.7740
# 4 -1.9234 8.8576 8.4318 28.2132 3.7533 -2.4183
# 5 4.1422 6.1712 0.8261 3.7533 23.5862 3.5498
# 6 11.4440 -4.5687 12.7740 -2.4183 3.5498 29.5822
#
#
#
# Elastic Compliance Matrix: (Units=1/GPa)
#
#
# Indices 1 2 3 4 5 6 
#
# 1 0.020103 -0.005633 0.003821 0.001248 -0.000870 -0.010090
# 2 -0.005633 0.014932 0.001638 -0.004877 -0.002757 0.003710
# 3 0.003821 0.001638 0.016946 -0.006189 0.000666 -0.009128
# 4 0.001248 -0.004877 -0.006189 0.040166 -0.005936 0.005432
# 5 -0.000870 -0.002757 0.000666 -0.005936 0.045138 -0.006278
# 6 -0.010090 0.003710 -0.009128 0.005432 -0.006278 0.043420
#
#
# Mechanical properties :
#
#
# Convention : Reuss Voigt Hill
#
# Bulk Modulus (GPa) = 19.36764 24.10123 21.73443
# Shear Modulus (GPa) = 25.21879 30.96621 28.09250
#
# Velocity S-wave (km/s) = 3.47976 3.85595 3.67268
# Velocity P-wave (km/s) = 5.04424 5.60327 5.33109
#
# Compressibility (1/GPa) = 0.05163253
#
# Stress axis : x y z
#
# Youngs Moduli (GPa) = 49.74308 66.96987 59.01052
#
# Poissons Ratio (x) = 0.37727 -0.22546
# Poissons Ratio (y) = 0.28022 -0.09667
# Poissons Ratio (z) = -0.19005 -0.10971
#
# Static dielectric constant tensor:
#      x y z
#    x 1.813390 -0.031480 0.009620 
#    y -0.031480 1.766680 0.049360 
#    z 0.009620 0.049360 1.761680 
# 
# From -- ./inp_files/307354.got.cif
#   From: 2010.05.17/outbox.cif.g08.bks.cpg/sg2_154_cif.got.tgz:307354.got - 2010.06.03 11:33:40.
