data_PCOD9089720
_publ_section_title
;
Structure prediction by ZEFSAII (Michael W. Deem and Ramdas Pophale) SiO2 
 PCOD9089720
Probable space group: P -1
;
_chemical_formula_sum "Si O2"
_cell_formula_units_Z 14
_cell_length_a 14.091060
_cell_length_b 12.263332
_cell_length_c 8.620831
_cell_angle_alpha 111.704797
_cell_angle_beta 41.319585
_cell_angle_gamma 139.488165
_cell_volume 564.307626
_symmetry_space_group_name_H-M "P -1"
_symmetry_group_IT_number 2
_symmetry_cell_setting 'triclinic'
loop_
_space_group_symop_operation_xyz
x,y,z
-x,-y,-z
loop_
_atom_site_type_symbol
_atom_site_label
_atom_site_fract_x
_atom_site_fract_y
_atom_site_fract_z
Si Si1 0.230685 0.518695 0.846375
Si Si2 0.295152 0.964725 0.217338
Si Si3 0.441757 0.062615 0.398281
Si Si4 0.620507 0.484277 0.679019
Si Si5 0.838491 0.158728 0.991761
Si Si6 0.177711 0.066827 0.941098
Si Si7 0.539819 0.367597 0.047786
O O1 0.340816 0.718335 0.813538
O O2 0.308948 0.511830 0.580633
O O3 0.316285 0.524327 0.909741
O O4 0.957086 0.323489 0.054949
O O5 0.238255 0.939072 0.454331
O O6 0.400838 0.155616 0.126927
O O7 0.109727 0.799078 0.234533
O O8 0.500000 0.000000 0.000000
O O9 0.340934 0.071470 0.666705
O O10 0.563029 0.016197 0.254392
O O11 0.342670 0.273936 0.906161
O O12 0.631369 0.631133 0.750303
O O13 0.680834 0.462213 0.760423
O O14 0.928568 0.085793 0.880168
O O15 0.000000 0.000000 0.000000
#
# Coordination Sequence:
#
# PCOD9089720 Si02
#       7
#     2   2   2   2   2   2   2
#     4  10  21  37  62  89 120 159 212 249 302 370
#     4   9  19  37  61  85 118 159 205 251 304 360
#     4   9  21  40  63  82 122 165 197 246 318 366
#     4  10  21  38  60  86 127 167 201 245 319 369
#     4  11  20  38  61  91 122 155 203 258 304 360
#     4  11  22  38  60  92 121 155 209 257 301 364
#     4  10  19  38  61  83 124 171 199 249 311 373
#
# _framework density 24.809161
#
# number of rings (size 3 to 8) (size 9 to 14) (size 15 to 20)
#    0.000    2.000    1.429    2.143    0.000    2.286 
#    7.714    1.429    0.000    4.286    0.000    0.000 
#    0.000    0.000    0.000    0.000    0.000    0.000 
#
# Total GULP energy -77949.619388 kJ/mol
# GULP energy per Si atom -5567.829956 kJ/mol
# Density = 2.475269 g / cm^3
# Si number density = 24.809161 Si / 1000 Ang^3
#
#
#
# Elastic Constant Matrix: (Units=GPa)
#
#
# Indices 1 2 3 4 5 6 
#
# 1 206.2393 46.1779 28.1454 10.4080 22.7892 19.3510
# 2 46.1779 88.4446 7.8097 18.3965 8.1805 11.3356
# 3 28.1454 7.8097 54.8722 12.6864 21.7057 -4.5049
# 4 10.4080 18.3965 12.6864 29.6411 3.8802 0.4547
# 5 22.7892 8.1805 21.7057 3.8802 26.2875 10.2149
# 6 19.3510 11.3356 -4.5049 0.4547 10.2149 56.6735
#
#
#
# Elastic Compliance Matrix: (Units=1/GPa)
#
#
# Indices 1 2 3 4 5 6 
#
# 1 0.006094 -0.002788 -0.002119 0.000817 -0.002287 -0.001286
# 2 -0.002788 0.014775 0.002043 -0.008779 -0.002026 -0.001405
# 3 -0.002119 0.002043 0.033243 -0.011248 -0.027713 0.008043
# 4 0.000817 -0.008779 -0.011248 0.043039 0.005233 -0.000705
# 5 -0.002287 -0.002026 -0.027713 0.005233 0.067934 -0.013303
# 6 -0.001286 -0.001405 0.008043 -0.000705 -0.013303 0.021408
#
#
# Mechanical properties :
#
#
# Convention : Reuss Voigt Hill
#
# Bulk Modulus (GPa) = 20.66777 57.09135 38.87956
# Shear Modulus (GPa) = 23.99809 40.34863 32.17336
#
# Velocity S-wave (km/s) = 3.11353 4.03719 3.60506
# Velocity P-wave (km/s) = 4.61240 6.69283 5.74753
#
# Compressibility (1/GPa) = 0.04838450
#
# Stress axis : x y z
#
# Youngs Moduli (GPa) = 164.08584 67.67985 30.08122
#
# Poissons Ratio (x) = 0.18872 0.06374
# Poissons Ratio (y) = 0.45753 -0.06145
# Poissons Ratio (z) = 0.34767 -0.13826
#
# Static dielectric constant tensor:
#      x y z
#    x 2.074430 -0.025560 0.163270 
#    y -0.025560 2.112570 -0.044280 
#    z 0.163270 -0.044280 2.181050 
# 
# From -- ./inp_files/159389.got.cif
#   From: 2010.05.17/outbox.cif.g08.bks.cpg/sg2_80_cif.got.tgz:159389.got - 2010.06.03 11:33:40.
