data_PCOD9089468
_publ_section_title
;
Structure prediction by ZEFSAII (Michael W. Deem and Ramdas Pophale) SiO2 
 PCOD9089468
Probable space group: P -1
;
_chemical_formula_sum "Si O2"
_cell_formula_units_Z 16
_cell_length_a 12.157219
_cell_length_b 19.544056
_cell_length_c 5.390998
_cell_angle_alpha 110.626084
_cell_angle_beta 96.687121
_cell_angle_gamma 42.324603
_cell_volume 785.832324
_symmetry_space_group_name_H-M "P -1"
_symmetry_group_IT_number 2
_symmetry_cell_setting 'triclinic'
loop_
_space_group_symop_operation_xyz
x,y,z
-x,-y,-z
loop_
_atom_site_type_symbol
_atom_site_label
_atom_site_fract_x
_atom_site_fract_y
_atom_site_fract_z
Si Si1 0.228352 0.847867 0.782070
Si Si2 0.781466 0.059809 0.590949
Si Si3 0.423386 0.444345 0.139526
Si Si4 0.955064 0.186125 0.521892
Si Si5 0.928361 0.351004 0.470870
Si Si6 0.915308 0.573863 0.325169
Si Si7 0.735128 0.367144 0.059672
Si Si8 0.531073 0.720394 0.376878
O O1 0.155890 0.926583 0.618771
O O2 0.125139 0.824058 0.727958
O O3 0.424181 0.744733 0.618255
O O4 0.207729 0.902215 0.098146
O O5 0.582861 0.156514 0.598860
O O6 0.881349 0.935377 0.489531
O O7 0.259814 0.524216 0.369246
O O8 0.589216 0.402623 0.232020
O O9 0.356210 0.527766 0.000831
O O10 0.467765 0.344584 0.908126
O O11 0.976803 0.258352 0.535345
O O12 0.807615 0.265073 0.785787
O O13 0.893544 0.329322 0.172699
O O14 0.053023 0.355234 0.553506
O O15 0.720573 0.649114 0.379604
O O16 0.000000 0.500000 0.500000
O O17 0.000000 0.500000 0.000000
#
# Coordination Sequence:
#
# PCOD9089468 Si02
#       8
#     2   2   2   2   2   2   2   2
#     4  10  23  39  65  98 132 173 213 262 320 384
#     4  10  24  40  66  98 132 171 218 262 324 382
#     4  10  19  38  56  97 126 166 208 263 328 385
#     4  11  23  39  62  97 134 170 214 266 325 389
#     4  11  25  37  66  91 131 173 213 264 330 381
#     4  12  27  47  69  92 131 172 223 269 314 389
#     4  10  21  36  58  92 135 165 204 261 333 395
#     4  10  23  40  69  91 131 167 223 261 324 370
#
# _framework density 20.360576999999999
#
# number of rings (size 3 to 8) (size 9 to 14) (size 15 to 20)
#    0.750    0.750    2.500    1.875    8.750    1.000 
#    0.000    0.625    0.000    1.500    0.000    0.000 
#    0.000    0.000    0.000    0.000    0.000    0.000 
#
# Total GULP energy -89261.361212 kJ/mol
# GULP energy per Si atom -5578.835076 kJ/mol
# Density = 2.031423 g / cm^3
# Si number density = 20.360577 Si / 1000 Ang^3
#
#
#
# Elastic Constant Matrix: (Units=GPa)
#
#
# Indices 1 2 3 4 5 6 
#
# 1 99.2130 46.0123 30.3165 3.4342 18.8934 -11.4413
# 2 46.0123 141.6555 27.2272 10.4919 1.4323 -0.9259
# 3 30.3165 27.2272 64.6461 -12.7809 1.1933 8.5293
# 4 3.4342 10.4919 -12.7809 31.5299 -0.4556 3.1062
# 5 18.8934 1.4323 1.1933 -0.4556 27.0028 0.1211
# 6 -11.4413 -0.9259 8.5293 3.1062 0.1211 28.5092
#
#
#
# Elastic Compliance Matrix: (Units=1/GPa)
#
#
# Indices 1 2 3 4 5 6 
#
# 1 0.018464 -0.003522 -0.009557 -0.005963 -0.012459 0.010857
# 2 -0.003522 0.009037 -0.002970 -0.003815 0.002051 0.000176
# 3 -0.009557 -0.002970 0.025539 0.013759 0.006007 -0.013097
# 4 -0.005963 -0.003815 0.013759 0.040366 0.004497 -0.011050
# 5 -0.012459 0.002051 0.006007 0.004497 0.045486 -0.007414
# 6 0.010857 0.000176 -0.013097 -0.011050 -0.007414 0.044593
#
#
# Mechanical properties :
#
#
# Convention : Reuss Voigt Hill
#
# Bulk Modulus (GPa) = 47.74984 56.95852 52.35418
# Shear Modulus (GPa) = 22.46554 30.87227 26.66891
#
# Velocity S-wave (km/s) = 3.32533 3.89816 3.62308
# Velocity P-wave (km/s) = 6.18440 6.94957 6.57812
#
# Compressibility (1/GPa) = 0.02094248
#
# Stress axis : x y z
#
# Youngs Moduli (GPa) = 54.15892 110.65384 39.15617
#
# Poissons Ratio (x) = 0.38972 0.37422
# Poissons Ratio (y) = 0.19075 0.11629
# Poissons Ratio (z) = 0.51760 0.32862
#
# Static dielectric constant tensor:
#      x y z
#    x 1.714060 0.014490 -0.039200 
#    y 0.014490 1.784750 -0.023700 
#    z -0.039200 -0.023700 1.779130 
# 
# From -- ./inp_files/83462.got.cif
#   From: 2010.05.17/outbox.cif.g08.bks.cpg/sg2_42_cif.got.tgz:83462.got - 2010.06.03 11:33:40.
