data_PCOD9089161
_publ_section_title
;
Structure prediction by ZEFSAII (Michael W. Deem and Ramdas Pophale) SiO2 
 PCOD9089161
Probable space group: P -1
;
_chemical_formula_sum "Si O2"
_cell_formula_units_Z 16
_cell_length_a 11.969117
_cell_length_b 18.352816
_cell_length_c 15.241104
_cell_angle_alpha 26.518022
_cell_angle_beta 29.704271
_cell_angle_gamma 47.328091
_cell_volume 661.716527
_symmetry_space_group_name_H-M "P -1"
_symmetry_group_IT_number 2
_symmetry_cell_setting 'triclinic'
loop_
_space_group_symop_operation_xyz
x,y,z
-x,-y,-z
loop_
_atom_site_type_symbol
_atom_site_label
_atom_site_fract_x
_atom_site_fract_y
_atom_site_fract_z
Si Si1 0.221764 0.845374 0.879424
Si Si2 0.259534 0.823707 0.323179
Si Si3 0.635222 0.355735 0.853795
Si Si4 0.977162 0.667162 0.517696
Si Si5 0.835803 0.832179 0.728457
Si Si6 0.766176 0.292231 0.158939
Si Si7 0.252571 0.251683 0.580501
Si Si8 0.849335 0.542513 0.134114
O O1 0.129826 0.779458 0.915001
O O2 0.500000 0.000000 0.500000
O O3 0.283642 0.705455 0.045868
O O4 0.004810 0.864757 0.063527
O O5 0.298133 0.644076 0.511106
O O6 0.165505 0.817727 0.294467
O O7 0.034539 0.812976 0.549184
O O8 0.500000 0.000000 0.000000
O O9 0.630520 0.547323 0.669438
O O10 0.850908 0.387802 0.602361
O O11 0.387320 0.188541 0.162513
O O12 0.818294 0.724508 0.497046
O O13 0.808456 0.492978 0.880329
O O14 0.708931 0.648631 0.072334
O O15 0.000000 0.000000 0.500000
O O16 0.470404 0.186431 0.498498
O O17 0.937064 0.317837 0.098216
O O18 0.000000 0.500000 0.000000
#
# Coordination Sequence:
#
# PCOD9089161 Si02
#       8
#     2   2   2   2   2   2   2   2
#     4  11  25  41  61  99 135 161 215 275 334 389
#     4  10  21  40  63  92 128 175 222 275 331 394
#     4  11  21  41  67  93 128 171 217 276 324 398
#     4  10  19  37  65  98 125 164 219 271 321 397
#     4  11  24  41  65  94 130 177 226 272 334 390
#     4  11  21  39  71  91 128 170 215 269 333 394
#     4  11  21  40  68  96 125 171 216 265 332 406
#     4   9  21  42  64  92 129 173 222 272 326 393
#
# _framework density 24.179539999999999
#
# number of rings (size 3 to 8) (size 9 to 14) (size 15 to 20)
#    0.000    1.500    2.500    4.125    3.500    0.500 
#    2.250    9.375    2.750    0.000    0.000    0.000 
#    0.000    0.000    0.000    0.000    0.000    0.000 
#
# Total GULP energy -89444.914399 kJ/mol
# GULP energy per Si atom -5590.307150 kJ/mol
# Density = 2.412451 g / cm^3
# Si number density = 24.179540 Si / 1000 Ang^3
#
#
#
# Elastic Constant Matrix: (Units=GPa)
#
#
# Indices 1 2 3 4 5 6 
#
# 1 131.4752 23.8722 14.7918 -4.2674 -13.3169 36.8862
# 2 23.8722 47.9476 13.6466 9.1458 14.9996 12.8555
# 3 14.7918 13.6466 100.5770 14.8859 -10.7226 3.7798
# 4 -4.2674 9.1458 14.8859 36.7681 12.6617 -4.4396
# 5 -13.3169 14.9996 -10.7226 12.6617 29.9697 -2.5430
# 6 36.8862 12.8555 3.7798 -4.4396 -2.5430 37.1552
#
#
#
# Elastic Compliance Matrix: (Units=1/GPa)
#
#
# Indices 1 2 3 4 5 6 
#
# 1 0.012122 -0.005913 0.000454 -0.001307 0.008243 -0.009626
# 2 -0.005913 0.034426 -0.005971 0.000122 -0.022636 -0.006969
# 3 0.000454 -0.005971 0.012960 -0.007478 0.010999 0.000157
# 4 -0.001307 0.000122 -0.007478 0.037049 -0.018531 0.005175
# 5 0.008243 -0.022636 0.010999 -0.018531 0.060160 0.000433
# 6 -0.009626 -0.006969 0.000157 0.005175 0.000433 0.039514
#
#
# Mechanical properties :
#
#
# Convention : Reuss Voigt Hill
#
# Bulk Modulus (GPa) = 27.28722 42.73568 35.01145
# Shear Modulus (GPa) = 21.61643 35.95788 28.78715
#
# Velocity S-wave (km/s) = 2.99322 3.86050 3.45419
# Velocity P-wave (km/s) = 4.82240 6.13058 5.51541
#
# Compressibility (1/GPa) = 0.03664719
#
# Stress axis : x y z
#
# Youngs Moduli (GPa) = 82.49584 29.04799 77.16328
#
# Poissons Ratio (x) = 0.17175 -0.03500
# Poissons Ratio (y) = 0.48778 0.46072
# Poissons Ratio (z) = -0.03741 0.17344
#
# Static dielectric constant tensor:
#      x y z
#    x 2.229900 0.050360 -0.207200 
#    y 0.050360 1.946190 -0.101620 
#    z -0.207200 -0.101620 2.105000 
# 
# From -- ./inp_files/319353.got.cif
#   From: 2010.05.17/outbox.cif.g08.bks.cpg/sg2_160_cif.got.tgz:319353.got - 2010.06.03 11:33:40.
