data_PCOD9089374
_publ_section_title
;
Structure prediction by ZEFSAII (Michael W. Deem and Ramdas Pophale) SiO2 
 PCOD9089374
Probable space group: P -1
;
_chemical_formula_sum "Si O2"
_cell_formula_units_Z 16
_cell_length_a 11.487049
_cell_length_b 17.565643
_cell_length_c 9.402907
_cell_angle_alpha 63.138631
_cell_angle_beta 109.989029
_cell_angle_gamma 153.053250
_cell_volume 758.249981
_symmetry_space_group_name_H-M "P -1"
_symmetry_group_IT_number 2
_symmetry_cell_setting 'triclinic'
loop_
_space_group_symop_operation_xyz
x,y,z
-x,-y,-z
loop_
_atom_site_type_symbol
_atom_site_label
_atom_site_fract_x
_atom_site_fract_y
_atom_site_fract_z
Si Si1 0.211065 0.312853 0.465330
Si Si2 0.238612 0.793820 0.113835
Si Si3 0.320268 0.642837 0.255442
Si Si4 0.463575 0.613071 0.596127
Si Si5 0.038756 0.790095 0.272193
Si Si6 0.870895 0.993512 0.049238
Si Si7 0.406211 0.344258 0.091698
Si Si8 0.831386 0.563140 0.879141
O O1 0.500000 0.500000 0.500000
O O2 0.264352 0.252320 0.473305
O O3 0.988349 0.199918 0.581936
O O4 0.164415 0.348324 0.286167
O O5 0.266812 0.709160 0.204606
O O6 0.164782 0.786219 0.245385
O O7 0.027452 0.682770 0.993471
O O8 0.500000 0.000000 0.000000
O O9 0.317417 0.585589 0.447402
O O10 0.142402 0.494987 0.180248
O O11 0.612449 0.811963 0.175061
O O12 0.266354 0.413967 0.711003
O O13 0.518155 0.670202 0.731847
O O14 0.168325 0.948101 0.115324
O O15 0.097697 0.158844 0.111213
O O16 0.000000 0.000000 0.000000
O O17 0.500000 0.500000 0.000000
O O18 0.546453 0.387764 0.978248
#
# Coordination Sequence:
#
# PCOD9089374 Si02
#       8
#     2   2   2   2   2   2   2   2
#     4  10  19  37  69 104 132 161 221 280 345 400
#     4  12  27  47  68  94 138 186 240 276 324 407
#     4  12  26  44  66  99 140 178 226 285 336 395
#     4  11  22  40  70 103 133 175 224 280 344 406
#     4  11  21  43  67  93 130 187 217 271 339 402
#     4  12  23  39  69 104 140 170 218 289 348 400
#     4  12  21  38  70 104 134 179 224 269 353 421
#     4  12  22  43  70 100 131 183 228 273 342 414
#
# _framework density 21.101220999999999
#
# number of rings (size 3 to 8) (size 9 to 14) (size 15 to 20)
#    0.000    0.500    8.750    1.875    0.000    1.000 
#    0.000    1.875    0.000    0.000    0.000    0.000 
#    0.000    0.000    0.000    0.000    0.000    0.000 
#
# Total GULP energy -89122.938799 kJ/mol
# GULP energy per Si atom -5570.183675 kJ/mol
# Density = 2.105319 g / cm^3
# Si number density = 21.101221 Si / 1000 Ang^3
#
#
#
# Elastic Constant Matrix: (Units=GPa)
#
#
# Indices 1 2 3 4 5 6 
#
# 1 116.6820 -9.0493 26.5837 4.2313 -7.0046 -18.1574
# 2 -9.0493 51.9262 8.4857 -3.1076 2.5465 6.6980
# 3 26.5837 8.4857 127.2518 13.1110 -9.5363 -0.6541
# 4 4.2313 -3.1076 13.1110 20.0103 2.0228 -2.6927
# 5 -7.0046 2.5465 -9.5363 2.0228 36.6396 -7.0422
# 6 -18.1574 6.6980 -0.6541 -2.6927 -7.0422 23.6525
#
#
#
# Elastic Compliance Matrix: (Units=1/GPa)
#
#
# Indices 1 2 3 4 5 6 
#
# 1 0.010656 0.000900 -0.002013 0.000074 0.003141 0.008813
# 2 0.000900 0.020937 -0.002277 0.004099 -0.003215 -0.005792
# 3 -0.002013 -0.002277 0.009260 -0.006326 0.002408 -0.000648
# 4 0.000074 0.004099 -0.006326 0.055681 -0.004263 0.003791
# 5 0.003141 -0.003215 0.002408 -0.004263 0.031330 0.012231
# 6 0.008813 -0.005792 -0.000648 0.003791 0.012231 0.054740
#
#
# Mechanical properties :
#
#
# Convention : Reuss Voigt Hill
#
# Bulk Modulus (GPa) = 29.34995 38.65557 34.00276
# Shear Modulus (GPa) = 24.90757 34.04980 29.47868
#
# Velocity S-wave (km/s) = 3.43940 4.02137 3.74172
# Velocity P-wave (km/s) = 5.45087 6.31829 5.90054
#
# Compressibility (1/GPa) = 0.03407161
#
# Stress axis : x y z
#
# Youngs Moduli (GPa) = 93.84327 47.76204 107.99463
#
# Poissons Ratio (x) = -0.04297 0.21740
# Poissons Ratio (y) = -0.08442 0.24592
# Poissons Ratio (z) = 0.18891 0.10876
#
# Static dielectric constant tensor:
#      x y z
#    x 1.854860 -0.060380 -0.034470 
#    y -0.060380 1.811170 0.039390 
#    z -0.034470 0.039390 1.780350 
# 
# From -- ./inp_files/277611.got.cif
#   From: 2010.05.17/outbox.cif.g08.bks.cpg/sg2_139_cif.got.tgz:277611.got - 2010.06.03 11:33:40.
