data_PCOD9089898
_publ_section_title
;
Structure prediction by ZEFSAII (Michael W. Deem and Ramdas Pophale) SiO2 
 PCOD9089898
Probable space group: P -1
;
_chemical_formula_sum "Si O2"
_cell_formula_units_Z 14
_cell_length_a 12.027614
_cell_length_b 11.726485
_cell_length_c 17.220730
_cell_angle_alpha 150.864330
_cell_angle_beta 37.890291
_cell_angle_gamma 144.651028
_cell_volume 658.286750
_symmetry_space_group_name_H-M "P -1"
_symmetry_group_IT_number 2
_symmetry_cell_setting 'triclinic'
loop_
_space_group_symop_operation_xyz
x,y,z
-x,-y,-z
loop_
_atom_site_type_symbol
_atom_site_label
_atom_site_fract_x
_atom_site_fract_y
_atom_site_fract_z
Si Si1 0.002303 0.888713 0.018663
Si Si2 0.572325 0.905514 0.655850
Si Si3 0.988305 0.382760 0.669788
Si Si4 0.621513 0.659268 0.626357
Si Si5 0.570873 0.773071 0.169718
Si Si6 0.798185 0.301903 0.569789
Si Si7 0.150172 0.234517 0.283248
O O1 0.774167 0.819466 0.126727
O O2 0.147803 0.085221 0.117371
O O3 0.026483 0.623657 0.846110
O O4 0.000000 0.000000 0.000000
O O5 0.792672 0.130753 0.652812
O O6 0.546242 0.827713 0.714115
O O7 0.529762 0.642519 0.475612
O O8 0.419328 0.017080 0.775324
O O9 0.180159 0.327784 0.519877
O O10 0.935041 0.464979 0.663611
O O11 0.699100 0.758651 0.728462
O O12 0.418358 0.799296 0.332335
O O13 0.500000 0.500000 0.000000
O O14 0.797235 0.472633 0.598615
O O15 0.921642 0.135250 0.382038
#
# Coordination Sequence:
#
# PCOD9089898 Si02
#       7
#     2   2   2   2   2   2   2
#     4  12  21  36  62  91 122 160 194 249 319 361
#     4  10  21  38  62  89 115 163 210 240 299 357
#     4  10  19  38  62  89 114 159 204 248 298 360
#     4  10  22  40  62  84 124 161 203 250 289 369
#     4  11  20  36  61  91 119 149 203 256 293 360
#     4   9  19  35  54  86 121 154 196 246 300 348
#     4  10  21  37  56  89 124 159 196 246 314 355
#
# _framework density 21.267327999999999
#
# number of rings (size 3 to 8) (size 9 to 14) (size 15 to 20)
#    0.000    1.714    4.286    1.286    4.000    0.571 
#    5.143    0.714    0.000   10.286    0.000    0.000 
#    0.000    0.000    0.000    0.000    0.000    0.000 
#
# Total GULP energy -78089.018369 kJ/mol
# GULP energy per Si atom -5577.787026 kJ/mol
# Density = 2.121892 g / cm^3
# Si number density = 21.267328 Si / 1000 Ang^3
#
#
#
# Elastic Constant Matrix: (Units=GPa)
#
#
# Indices 1 2 3 4 5 6 
#
# 1 117.8182 17.5802 24.8477 10.9189 19.1931 -16.4357
# 2 17.5802 68.5543 21.8524 8.9737 6.7446 -0.7737
# 3 24.8477 21.8524 49.0513 7.0995 15.6424 -8.8201
# 4 10.9189 8.9737 7.0995 28.3156 4.0965 -3.1998
# 5 19.1931 6.7446 15.6424 4.0965 38.5879 3.3779
# 6 -16.4357 -0.7737 -8.8201 -3.1998 3.3779 28.9865
#
#
#
# Elastic Compliance Matrix: (Units=1/GPa)
#
#
# Indices 1 2 3 4 5 6 
#
# 1 0.010876 -0.001345 -0.002113 -0.001912 -0.004624 0.005815
# 2 -0.001345 0.017695 -0.007671 -0.003724 0.001361 -0.003194
# 3 -0.002113 -0.007671 0.030004 -0.001793 -0.010345 0.008734
# 4 -0.001912 -0.003724 -0.001793 0.038277 -0.001974 0.002726
# 5 -0.004624 0.001361 -0.010345 -0.001974 0.033240 -0.009825
# 6 0.005815 -0.003194 0.008734 0.002726 -0.009825 0.041815
#
#
# Mechanical properties :
#
#
# Convention : Reuss Voigt Hill
#
# Bulk Modulus (GPa) = 27.53588 40.44271 33.98929
# Shear Modulus (GPa) = 24.24025 30.58755 27.41390
#
# Velocity S-wave (km/s) = 3.37974 3.79653 3.59418
# Velocity P-wave (km/s) = 5.31091 6.18675 5.76548
#
# Compressibility (1/GPa) = 0.03631626
#
# Stress axis : x y z
#
# Youngs Moduli (GPa) = 91.94850 56.51465 33.32901
#
# Poissons Ratio (x) = 0.07599 0.07043
# Poissons Ratio (y) = 0.12363 0.25567
# Poissons Ratio (z) = 0.19431 0.43353
#
# Static dielectric constant tensor:
#      x y z
#    x 1.781650 0.009360 0.005190 
#    y 0.009360 1.860190 -0.042580 
#    z 0.005190 -0.042580 1.828480 
# 
# From -- ./inp_files/568298.got.cif
#   From: 2010.05.17/outbox.cif.g08.bks.cpg/sg2_285_cif.got.tgz:568298.got - 2010.06.03 11:33:40.
