data_PCOD9089267
_publ_section_title
;
Structure prediction by ZEFSAII (Michael W. Deem and Ramdas Pophale) SiO2 
 PCOD9089267
Probable space group: P -1
;
_chemical_formula_sum "Si O2"
_cell_formula_units_Z 16
_cell_length_a 7.596187
_cell_length_b 13.531113
_cell_length_c 13.392681
_cell_angle_alpha 140.260665
_cell_angle_beta 116.281690
_cell_angle_gamma 88.108042
_cell_volume 665.940301
_symmetry_space_group_name_H-M "P -1"
_symmetry_group_IT_number 2
_symmetry_cell_setting 'triclinic'
loop_
_space_group_symop_operation_xyz
x,y,z
-x,-y,-z
loop_
_atom_site_type_symbol
_atom_site_label
_atom_site_fract_x
_atom_site_fract_y
_atom_site_fract_z
Si Si1 0.121999 0.752395 0.443015
Si Si2 0.711392 0.555623 0.519916
Si Si3 0.072195 0.046375 0.167804
Si Si4 0.591445 0.069082 0.788078
Si Si5 0.171260 0.589986 0.749650
Si Si6 0.191038 0.368801 0.905122
Si Si7 0.978024 0.972904 0.283449
Si Si8 0.439585 0.230218 0.707345
O O1 0.955260 0.596746 0.359994
O O2 0.024164 0.665875 0.243468
O O3 0.397804 0.859531 0.608118
O O4 0.109091 0.933533 0.588541
O O5 0.500000 0.500000 0.500000
O O6 0.758679 0.737443 0.619391
O O7 0.698653 0.424889 0.326012
O O8 0.952026 0.604569 0.673000
O O9 0.173994 0.929672 0.143299
O O10 0.891735 0.999204 0.175048
O O11 0.000000 0.000000 0.000000
O O12 0.530279 0.122536 0.709281
O O13 0.643944 0.234677 0.003897
O O14 0.322507 0.302179 0.812580
O O15 0.111874 0.232604 0.871252
O O16 0.354018 0.579362 0.136544
O O17 0.252976 0.102524 0.478740
#
# Coordination Sequence:
#
# PCOD9089267 Si02
#       8
#     2   2   2   2   2   2   2   2
#     4  11  20  39  72 105 135 180 232 285 362 430
#     4  11  25  50  71 101 143 191 251 301 355 418
#     4  12  27  48  65  95 145 185 233 301 353 412
#     4  12  23  42  73 102 142 186 234 293 358 435
#     4  11  24  45  75 104 141 193 240 299 359 428
#     4  10  19  37  67 104 139 168 229 294 348 434
#     4  11  22  42  66  97 140 179 228 290 354 425
#     4  10  20  37  67 102 133 177 224 286 359 420
#
# _framework density 24.026178999999999
#
# number of rings (size 3 to 8) (size 9 to 14) (size 15 to 20)
#    0.000    1.000    6.250    1.500    0.000    1.500 
#    2.250    3.125    0.000    0.000    0.000    0.000 
#    0.000    0.000    0.000    0.000    0.000    0.000 
#
# Total GULP energy -89347.885910 kJ/mol
# GULP energy per Si atom -5584.242869 kJ/mol
# Density = 2.397149 g / cm^3
# Si number density = 24.026179 Si / 1000 Ang^3
#
#
#
# Elastic Constant Matrix: (Units=GPa)
#
#
# Indices 1 2 3 4 5 6 
#
# 1 89.0342 34.7375 24.8537 6.8892 -3.8857 3.4093
# 2 34.7375 132.8013 43.3311 5.2490 0.6255 19.9833
# 3 24.8537 43.3311 94.3380 7.2897 4.9345 11.7059
# 4 6.8892 5.2490 7.2897 39.2288 8.5810 7.6321
# 5 -3.8857 0.6255 4.9345 8.5810 20.3507 6.2348
# 6 3.4093 19.9833 11.7059 7.6321 6.2348 38.4613
#
#
#
# Elastic Compliance Matrix: (Units=1/GPa)
#
#
# Indices 1 2 3 4 5 6 
#
# 1 0.013307 -0.002754 -0.002355 -0.002573 0.004028 0.000826
# 2 -0.002754 0.009973 -0.003426 0.000347 0.001122 -0.004146
# 3 -0.002355 -0.003426 0.013172 -0.000682 -0.002813 -0.001428
# 4 -0.002573 0.000347 -0.000682 0.029266 -0.011549 -0.003680
# 5 0.004028 0.001122 -0.002813 -0.011549 0.057609 -0.007131
# 6 0.000826 -0.004146 -0.001428 -0.003680 -0.007131 0.030402
#
#
# Mechanical properties :
#
#
# Convention : Reuss Voigt Hill
#
# Bulk Modulus (GPa) = 51.59790 58.00201 54.79995
# Shear Modulus (GPa) = 28.20719 33.82490 31.01605
#
# Velocity S-wave (km/s) = 3.43011 3.75618 3.59685
# Velocity P-wave (km/s) = 6.09999 6.55786 6.33306
#
# Compressibility (1/GPa) = 0.01938063
#
# Stress axis : x y z
#
# Youngs Moduli (GPa) = 75.14982 100.26887 75.92081
#
# Poissons Ratio (x) = 0.27612 0.17881
# Poissons Ratio (y) = 0.20694 0.26014
# Poissons Ratio (z) = 0.17699 0.34357
#
# Static dielectric constant tensor:
#      x y z
#    x 2.343920 0.054880 0.023980 
#    y 0.054880 1.910990 -0.050190 
#    z 0.023980 -0.050190 1.930650 
# 
# From -- ./inp_files/504508.got.cif
#   From: 2010.05.17/outbox.cif.g08.bks.cpg/sg2_253_cif.got.tgz:504508.got - 2010.06.03 11:33:40.
