data_PCOD9089273
_publ_section_title
;
Structure prediction by ZEFSAII (Michael W. Deem and Ramdas Pophale) SiO2 
 PCOD9089273
Probable space group: P -1
;
_chemical_formula_sum "Si O2"
_cell_formula_units_Z 16
_cell_length_a 9.745827
_cell_length_b 17.419043
_cell_length_c 9.614747
_cell_angle_alpha 52.883945
_cell_angle_beta 105.391683
_cell_angle_gamma 145.276347
_cell_volume 638.793771
_symmetry_space_group_name_H-M "P -1"
_symmetry_group_IT_number 2
_symmetry_cell_setting 'triclinic'
loop_
_space_group_symop_operation_xyz
x,y,z
-x,-y,-z
loop_
_atom_site_type_symbol
_atom_site_label
_atom_site_fract_x
_atom_site_fract_y
_atom_site_fract_z
Si Si1 0.753230 0.414695 0.157111
Si Si2 0.245533 0.900963 0.923121
Si Si3 0.386871 0.295180 0.442325
Si Si4 0.116469 0.334109 0.646734
Si Si5 0.404991 0.827083 0.896656
Si Si6 0.661622 0.172751 0.533933
Si Si7 0.229232 0.378022 0.138972
Si Si8 0.025334 0.948498 0.195708
O O1 0.569415 0.352733 0.304611
O O2 0.662118 0.250899 0.326772
O O3 0.721290 0.481583 0.961781
O O4 0.092078 0.605088 0.044702
O O5 0.378321 0.869534 0.991236
O O6 0.015819 0.766266 0.882954
O O7 0.485726 0.106587 0.694816
O O8 0.076582 0.811501 0.115600
O O9 0.621473 0.463768 0.431568
O O10 0.212405 0.287330 0.349392
O O11 0.133906 0.092997 0.673470
O O12 0.139203 0.246856 0.667846
O O13 0.960630 0.317116 0.519586
O O14 0.511438 0.983562 0.669073
O O15 0.651242 0.893952 0.873160
O O16 0.500000 0.500000 0.000000
O O17 0.000000 0.000000 0.000000
#
# Coordination Sequence:
#
# PCOD9089273 Si02
#       8
#     2   2   2   2   2   2   2   2
#     4  10  19  37  67  88 112 158 204 248 290 354
#     4   9  17  36  62  87 113 157 191 257 294 330
#     4  11  22  39  59  90 119 168 187 244 311 349
#     4  11  20  38  60  83 126 154 193 253 299 354
#     4   8  19  39  55  83 121 150 193 251 289 339
#     4   9  20  31  61  94 115 146 204 248 301 342
#     4   9  17  38  60  86 122 150 203 245 298 350
#     4  11  26  37  55  87 128 160 196 237 308 371
#
# _framework density 25.047205000000002
#
# number of rings (size 3 to 8) (size 9 to 14) (size 15 to 20)
#    0.750    1.500    3.750    0.750    3.500    0.500 
#    0.000    6.250    0.000    3.000    0.000    0.000 
#    0.000    0.000    0.000    0.000    0.000    0.000 
#
# Total GULP energy -89077.520327 kJ/mol
# GULP energy per Si atom -5567.345020 kJ/mol
# Density = 2.499020 g / cm^3
# Si number density = 25.047205 Si / 1000 Ang^3
#
#
#
# Elastic Constant Matrix: (Units=GPa)
#
#
# Indices 1 2 3 4 5 6 
#
# 1 108.5098 48.9892 37.8612 -3.1323 -2.1239 22.6684
# 2 48.9892 62.9161 21.8972 3.7366 2.2909 22.6169
# 3 37.8612 21.8972 126.4502 16.6652 1.5611 20.7829
# 4 -3.1323 3.7366 16.6652 30.4445 6.1048 -2.2599
# 5 -2.1239 2.2909 1.5611 6.1048 52.7176 -0.9626
# 6 22.6684 22.6169 20.7829 -2.2599 -0.9626 43.1665
#
#
#
# Elastic Compliance Matrix: (Units=1/GPa)
#
#
# Indices 1 2 3 4 5 6 
#
# 1 0.015654 -0.011149 -0.003282 0.004601 0.000670 -0.000543
# 2 -0.011149 0.028113 0.000780 -0.005487 -0.001233 -0.009566
# 3 -0.003282 0.000780 0.010242 -0.006372 0.000196 -0.003946
# 4 0.004601 -0.005487 -0.006372 0.038642 -0.003762 0.005466
# 5 0.000670 -0.001233 0.000196 -0.003762 0.019487 0.000437
# 6 -0.000543 -0.009566 -0.003946 0.005466 0.000437 0.030659
#
#
# Mechanical properties :
#
#
# Convention : Reuss Voigt Hill
#
# Bulk Modulus (GPa) = 37.44194 57.26349 47.35271
# Shear Modulus (GPa) = 27.93324 37.87428 32.90376
#
# Velocity S-wave (km/s) = 3.34312 3.89281 3.62839
# Velocity P-wave (km/s) = 5.46653 6.56637 6.04153
#
# Compressibility (1/GPa) = 0.02670802
#
# Stress axis : x y z
#
# Youngs Moduli (GPa) = 63.88345 35.57093 97.64177
#
# Poissons Ratio (x) = 0.39657 0.32042
# Poissons Ratio (y) = 0.71222 -0.07620
# Poissons Ratio (z) = 0.20964 -0.02776
#
# Static dielectric constant tensor:
#      x y z
#    x 2.150370 0.008990 0.020080 
#    y 0.008990 2.174880 0.013940 
#    z 0.020080 0.013940 2.012050 
# 
# From -- ./inp_files/439122.got.cif
#   From: 2010.05.17/outbox.cif.g08.bks.cpg/sg2_220_cif.got.tgz:439122.got - 2010.06.03 11:33:40.
