data_PCOD9089734
_publ_section_title
;
Structure prediction by ZEFSAII (Michael W. Deem and Ramdas Pophale) SiO2 
 PCOD9089734
Probable space group: P -1
;
_chemical_formula_sum "Si O2"
_cell_formula_units_Z 16
_cell_length_a 8.382957
_cell_length_b 21.800284
_cell_length_c 9.381310
_cell_angle_alpha 77.455632
_cell_angle_beta 130.589842
_cell_angle_gamma 63.699553
_cell_volume 781.807925
_symmetry_space_group_name_H-M "P -1"
_symmetry_group_IT_number 2
_symmetry_cell_setting 'triclinic'
loop_
_space_group_symop_operation_xyz
x,y,z
-x,-y,-z
loop_
_atom_site_type_symbol
_atom_site_label
_atom_site_fract_x
_atom_site_fract_y
_atom_site_fract_z
Si Si1 0.751912 0.258179 0.903342
Si Si2 0.667309 0.643486 0.102744
Si Si3 0.462552 0.450095 0.607085
Si Si4 0.331473 0.981501 0.600842
Si Si5 0.555344 0.167372 0.115104
Si Si6 0.298008 0.603754 0.903740
Si Si7 0.497047 0.079340 0.575922
Si Si8 0.514998 0.805723 0.275713
O O1 0.457141 0.324046 0.821316
O O2 0.647986 0.343686 0.710520
O O3 0.723596 0.198714 0.838461
O O4 0.110599 0.178753 0.235938
O O5 0.061551 0.535306 0.362585
O O6 0.597119 0.731383 0.965717
O O7 0.445222 0.636947 0.921727
O O8 0.500000 0.500000 0.500000
O O9 0.637432 0.418317 0.878659
O O10 0.541414 0.874776 0.844144
O O11 0.274251 0.976302 0.404675
O O12 0.501092 0.009646 0.683475
O O13 0.966005 0.075338 0.415609
O O14 0.486349 0.177840 0.901207
O O15 0.900285 0.695293 0.593884
O O16 0.500000 0.500000 0.000000
O O17 0.574555 0.115277 0.714176
#
# Coordination Sequence:
#
# PCOD9089734 Si02
#       8
#     2   2   2   2   2   2   2   2
#     4  10  20  41  60  90 123 162 198 242 303 370
#     4  10  19  38  61  86 120 164 197 235 302 368
#     4  11  23  38  63  90 125 160 195 249 308 350
#     4  10  22  40  61  88 122 162 197 256 305 354
#     4  10  21  39  62  88 122 159 204 248 304 352
#     4  11  20  37  62  89 119 163 207 239 293 371
#     4  11  21  40  65  87 120 159 205 246 310 355
#     4  11  20  37  67  89 118 159 209 246 295 364
#
# _framework density 20.465385999999999
#
# number of rings (size 3 to 8) (size 9 to 14) (size 15 to 20)
#    0.000    1.500    5.000    3.750    1.750    1.000 
#    0.000    3.750    0.000    0.000    0.000    0.000 
#    0.000    0.000    0.000    0.000    0.000    0.000 
#
# Total GULP energy -89323.727310 kJ/mol
# GULP energy per Si atom -5582.732957 kJ/mol
# Density = 2.041881 g / cm^3
# Si number density = 20.465386 Si / 1000 Ang^3
#
#
#
# Elastic Constant Matrix: (Units=GPa)
#
#
# Indices 1 2 3 4 5 6 
#
# 1 72.6285 32.5216 30.5179 -12.0777 -16.5177 29.0992
# 2 32.5216 149.1598 28.7741 -0.2802 -8.7880 43.9603
# 3 30.5179 28.7741 82.8974 -15.1903 1.4041 19.5102
# 4 -12.0777 -0.2802 -15.1903 39.6588 4.0740 1.0078
# 5 -16.5177 -8.7880 1.4041 4.0740 32.9535 -17.0438
# 6 29.0992 43.9603 19.5102 1.0078 -17.0438 39.3667
#
#
#
# Elastic Compliance Matrix: (Units=1/GPa)
#
#
# Indices 1 2 3 4 5 6 
#
# 1 0.022560 -0.000065 -0.004451 0.005044 0.004309 -0.012660
# 2 -0.000065 0.010454 -0.000258 0.000728 -0.004227 -0.013346
# 3 -0.004451 -0.000258 0.017116 0.006268 -0.008277 -0.008647
# 4 0.005044 0.000728 0.006268 0.030197 -0.007259 -0.011564
# 5 0.004309 -0.004227 -0.008277 -0.007259 0.045923 0.025705
# 6 -0.012660 -0.013346 -0.008647 -0.011564 0.025705 0.065374
#
#
# Mechanical properties :
#
#
# Convention : Reuss Voigt Hill
#
# Bulk Modulus (GPa) = 24.64378 54.25698 39.45038
# Shear Modulus (GPa) = 23.28827 36.58726 29.93776
#
# Velocity S-wave (km/s) = 3.37699 4.23278 3.82887
# Velocity P-wave (km/s) = 5.22238 7.10336 6.23422
#
# Compressibility (1/GPa) = 0.04057819
#
# Stress axis : x y z
#
# Youngs Moduli (GPa) = 44.32721 95.65716 58.42626
#
# Poissons Ratio (x) = 0.00626 0.26008
# Poissons Ratio (y) = 0.00290 0.01510
# Poissons Ratio (z) = 0.19732 0.02473
#
# Static dielectric constant tensor:
#      x y z
#    x 1.760100 0.030130 0.000810 
#    y 0.030130 1.766490 -0.034460 
#    z 0.000810 -0.034460 1.730710 
# 
# From -- ./inp_files/208162.got.cif
#   From: 2010.05.17/outbox.cif.g08.bks.cpg/sg2_105_cif.got.tgz:208162.got - 2010.06.03 11:33:40.
