data_PCOD9089028
_publ_section_title
;
Structure prediction by ZEFSAII (Michael W. Deem and Ramdas Pophale) SiO2 
 PCOD9089028
Probable space group: P -1
;
_chemical_formula_sum "Si O2"
_cell_formula_units_Z 14
_cell_length_a 5.715388
_cell_length_b 19.657429
_cell_length_c 5.780747
_cell_angle_alpha 83.375331
_cell_angle_beta 73.961569
_cell_angle_gamma 63.965779
_cell_volume 560.838538
_symmetry_space_group_name_H-M "P -1"
_symmetry_group_IT_number 2
_symmetry_cell_setting 'triclinic'
loop_
_space_group_symop_operation_xyz
x,y,z
-x,-y,-z
loop_
_atom_site_type_symbol
_atom_site_label
_atom_site_fract_x
_atom_site_fract_y
_atom_site_fract_z
Si Si1 0.194314 0.735963 0.802581
Si Si2 0.357400 0.005639 0.784567
Si Si3 0.348836 0.248741 0.799889
Si Si4 0.811041 0.484644 0.358863
Si Si5 0.481969 0.380001 0.924570
Si Si6 0.209346 0.872389 0.009813
Si Si7 0.982145 0.326255 0.500652
O O1 0.123018 0.730701 0.561482
O O2 0.425505 0.651885 0.831922
O O3 0.247011 0.805187 0.849652
O O4 0.917880 0.748702 0.005625
O O5 0.500000 0.000000 0.500000
O O6 0.275701 0.935712 0.844869
O O7 0.093141 0.084761 0.833920
O O8 0.500000 0.000000 0.000000
O O9 0.413414 0.314754 0.862157
O O10 0.587476 0.168339 0.820512
O O11 0.267065 0.274916 0.550752
O O12 0.500000 0.500000 0.500000
O O13 0.740800 0.540685 0.134541
O O14 0.966599 0.394155 0.313211
O O15 0.000000 0.500000 0.500000
O O16 0.766669 0.370623 0.740167
#
# Coordination Sequence:
#
# PCOD9089028 Si02
#       7
#     2   2   2   2   2   2   2
#     4  10  22  42  60 105 136 181 242 300 373 444
#     4  11  26  55  81 113 152 193 249 304 379 468
#     4  10  20  42  61  98 137 181 231 302 364 443
#     4  10  19  37  64  94 134 195 251 310 386 441
#     4   9  20  38  60  87 139 181 243 303 364 436
#     4  10  24  48  74 109 147 191 240 309 377 460
#     4  10  21  38  65  92 138 186 243 302 369 448
#
# _framework density 24.962620000000001
#
# number of rings (size 3 to 8) (size 9 to 14) (size 15 to 20)
#    0.000    2.000    1.429    0.857    0.000    5.143 
#   33.429    0.714    0.000    0.000    0.000    0.000 
#    0.000    0.000    0.000    0.000    0.000    0.000 
#
# Total GULP energy -78197.523146 kJ/mol
# GULP energy per Si atom -5585.537368 kJ/mol
# Density = 2.490580 g / cm^3
# Si number density = 24.962620 Si / 1000 Ang^3
#
#
#
# Elastic Constant Matrix: (Units=GPa)
#
#
# Indices 1 2 3 4 5 6 
#
# 1 113.7075 47.1224 36.5777 3.2578 16.5273 -23.7909
# 2 47.1224 138.9589 40.3132 -8.7456 7.2814 -40.8913
# 3 36.5777 40.3132 88.8762 3.2695 -3.6810 -24.2563
# 4 3.2578 -8.7456 3.2695 25.7744 -6.8116 7.9143
# 5 16.5273 7.2814 -3.6810 -6.8116 55.0261 -3.6261
# 6 -23.7909 -40.8913 -24.2563 7.9143 -3.6261 64.9940
#
#
#
# Elastic Compliance Matrix: (Units=1/GPa)
#
#
# Indices 1 2 3 4 5 6 
#
# 1 0.011945 -0.002614 -0.003290 -0.003506 -0.003783 0.001716
# 2 -0.002614 0.010232 -0.002530 0.002807 -0.000115 0.004188
# 3 -0.003290 -0.002530 0.014814 -0.002722 0.002187 0.003186
# 4 -0.003506 0.002807 -0.002722 0.043707 0.005545 -0.005546
# 5 -0.003783 -0.000115 0.002187 0.005545 0.020145 -0.000192
# 6 0.001716 0.004188 0.003186 -0.005546 -0.000192 0.020503
#
#
# Mechanical properties :
#
#
# Convention : Reuss Voigt Hill
#
# Bulk Modulus (GPa) = 49.69514 65.50770 57.60142
# Shear Modulus (GPa) = 34.50146 43.66084 39.08115
#
# Velocity S-wave (km/s) = 3.72173 4.18670 3.96104
# Velocity P-wave (km/s) = 6.19834 7.04773 6.63664
#
# Compressibility (1/GPa) = 0.02012269
#
# Stress axis : x y z
#
# Youngs Moduli (GPa) = 83.71432 97.73350 67.50585
#
# Poissons Ratio (x) = 0.25545 0.22209
# Poissons Ratio (y) = 0.21881 0.17081
# Poissons Ratio (z) = 0.27542 0.24730
#
# Static dielectric constant tensor:
#      x y z
#    x 2.058730 -0.019940 -0.050780 
#    y -0.019940 1.913870 -0.022290 
#    z -0.050780 -0.022290 2.089590 
# 
# From -- ./inp_files/10277.got.cif
#   From: 2010.05.17/outbox.cif.g08.bks.cpg/sg2_6_cif.got.tgz:10277.got - 2010.06.03 11:33:40.
