data_PCOD9089303
_publ_section_title
;
Structure prediction by ZEFSAII (Michael W. Deem and Ramdas Pophale) SiO2 
 PCOD9089303
Probable space group: P -1
;
_chemical_formula_sum "Si O2"
_cell_formula_units_Z 12
_cell_length_a 11.961625
_cell_length_b 7.324355
_cell_length_c 8.887881
_cell_angle_alpha 128.962547
_cell_angle_beta 116.074317
_cell_angle_gamma 96.388359
_cell_volume 452.382390
_symmetry_space_group_name_H-M "P -1"
_symmetry_group_IT_number 2
_symmetry_cell_setting 'triclinic'
loop_
_space_group_symop_operation_xyz
x,y,z
-x,-y,-z
loop_
_atom_site_type_symbol
_atom_site_label
_atom_site_fract_x
_atom_site_fract_y
_atom_site_fract_z
Si Si1 0.823543 0.628364 0.715267
Si Si2 0.187430 0.261722 0.578580
Si Si3 0.253436 0.054030 0.934188
Si Si4 0.491064 0.098292 0.307308
Si Si5 0.029673 0.675521 0.351856
Si Si6 0.496506 0.372994 0.751746
O O1 0.851084 0.719843 0.606429
O O2 0.815328 0.846866 0.929417
O O3 0.659749 0.333597 0.478064
O O4 0.943401 0.560393 0.806546
O O5 0.362113 0.385632 0.742415
O O6 0.133111 0.410625 0.736384
O O7 0.097000 0.936839 0.412627
O O8 0.352744 0.324201 0.025374
O O9 0.372417 0.004900 0.056152
O O10 0.129176 0.804757 0.629647
O O11 0.452490 0.249069 0.491409
O O12 0.490621 0.850573 0.262183
#
# Coordination Sequence:
#
# PCOD9089303 Si02
#       6
#     2   2   2   2   2   2
#     4  11  21  43  67  89 127 168 203 260 316 363
#     4  11  22  45  62  89 133 171 199 259 319 368
#     4  11  23  41  67  99 119 161 218 260 303 373
#     4  10  19  37  67  96 121 161 212 257 312 366
#     4  11  27  41  63  95 129 165 212 253 311 377
#     4  10  19  38  69  90 126 168 201 258 321 362
#
# _framework density 26.526230999999999
#
# number of rings (size 3 to 8) (size 9 to 14) (size 15 to 20)
#    0.000    1.333    5.000    1.500    0.000    3.333 
#    0.000    3.333    0.000    0.000    0.000    0.000 
#    0.000    0.000    0.000    0.000    0.000    0.000 
#
# Total GULP energy -67440.977210 kJ/mol
# GULP energy per Si atom -5620.081434 kJ/mol
# Density = 2.646586 g / cm^3
# Si number density = 26.526231 Si / 1000 Ang^3
#
#
#
# Elastic Constant Matrix: (Units=GPa)
#
#
# Indices 1 2 3 4 5 6 
#
# 1 190.6430 42.0155 22.1443 3.9024 -5.1808 2.2033
# 2 42.0155 155.9863 21.3817 -9.5573 2.9833 8.1318
# 3 22.1443 21.3817 76.3272 1.0785 10.5449 6.5907
# 4 3.9024 -9.5573 1.0785 33.2073 5.7026 3.5712
# 5 -5.1808 2.9833 10.5449 5.7026 34.9597 -6.5297
# 6 2.2033 8.1318 6.5907 3.5712 -6.5297 47.6145
#
#
#
# Elastic Compliance Matrix: (Units=1/GPa)
#
#
# Indices 1 2 3 4 5 6 
#
# 1 0.005829 -0.001510 -0.001544 -0.001438 0.001797 0.000556
# 2 -0.001510 0.007257 -0.001364 0.002645 -0.001112 -0.001332
# 3 -0.001544 -0.001364 0.014849 0.000455 -0.005130 -0.002489
# 4 -0.001438 0.002645 0.000455 0.032570 -0.006598 -0.003796
# 5 0.001797 -0.001112 -0.005130 -0.006598 0.032671 0.005792
# 6 0.000556 -0.001332 -0.002489 -0.003796 0.005792 0.022627
#
#
# Mechanical properties :
#
#
# Convention : Reuss Voigt Hill
#
# Bulk Modulus (GPa) = 52.35700 66.00437 59.18069
# Shear Modulus (GPa) = 38.16610 45.65064 41.90837
#
# Velocity S-wave (km/s) = 3.79727 4.15295 3.97909
# Velocity P-wave (km/s) = 6.24551 6.92334 6.59314
#
# Compressibility (1/GPa) = 0.01909964
#
# Stress axis : x y z
#
# Youngs Moduli (GPa) = 171.54451 137.79480 67.34566
#
# Poissons Ratio (x) = 0.20806 0.10400
# Poissons Ratio (y) = 0.25902 0.09184
# Poissons Ratio (z) = 0.26490 0.18791
#
# Static dielectric constant tensor:
#      x y z
#    x 2.061760 -0.023350 -0.010640 
#    y -0.023350 2.025820 -0.022850 
#    z -0.010640 -0.022850 2.066890 
# 
# From -- ./inp_files/241543.got.cif
#   From: 2010.05.17/outbox.cif.g08.bks.cpg/sg2_121_cif.got.tgz:241543.got - 2010.06.03 11:33:40.
