data_PCOD9089892
_publ_section_title
;
Structure prediction by ZEFSAII (Michael W. Deem and Ramdas Pophale) SiO2 
 PCOD9089892
Probable space group: P -1
;
_chemical_formula_sum "Si O2"
_cell_formula_units_Z 16
_cell_length_a 10.835193
_cell_length_b 13.990492
_cell_length_c 8.803200
_cell_angle_alpha 71.123335
_cell_angle_beta 92.008311
_cell_angle_gamma 41.824297
_cell_volume 757.116121
_symmetry_space_group_name_H-M "P -1"
_symmetry_group_IT_number 2
_symmetry_cell_setting 'triclinic'
loop_
_space_group_symop_operation_xyz
x,y,z
-x,-y,-z
loop_
_atom_site_type_symbol
_atom_site_label
_atom_site_fract_x
_atom_site_fract_y
_atom_site_fract_z
Si Si1 0.015916 0.368114 0.065370
Si Si2 0.501617 0.223240 0.484705
Si Si3 0.740842 0.442975 0.777969
Si Si4 0.274198 0.187805 0.447677
Si Si5 0.265286 0.038430 0.113541
Si Si6 0.877463 0.153916 0.031787
Si Si7 0.147791 0.965757 0.633710
Si Si8 0.124264 0.164896 0.728790
O O1 0.083183 0.287885 0.278008
O O2 0.211763 0.189555 0.075293
O O3 0.000000 0.500000 0.000000
O O4 0.815730 0.449292 0.934437
O O5 0.448629 0.375466 0.398286
O O6 0.302855 0.289411 0.394538
O O7 0.677409 0.098310 0.429272
O O8 0.567197 0.127928 0.693522
O O9 0.931707 0.331730 0.728394
O O10 0.720738 0.336073 0.856671
O O11 0.228646 0.175989 0.617715
O O12 0.500000 0.000000 0.500000
O O13 0.060269 0.109517 0.114811
O O14 0.279165 0.024107 0.939681
O O15 0.782939 0.155948 0.167374
O O16 0.000000 0.000000 0.000000
O O17 0.048974 0.121493 0.644248
O O18 0.000000 0.000000 0.500000
#
# Coordination Sequence:
#
# PCOD9089892 Si02
#       8
#     2   2   2   2   2   2   2   2
#     4  10  19  38  62  88 127 167 198 258 315 361
#     4  12  24  40  63  97 130 160 217 266 307 377
#     4  10  24  42  62  96 129 165 211 260 317 380
#     4  12  22  39  65  95 130 163 213 262 307 381
#     4  10  21  39  61  92 124 168 209 258 313 374
#     4  10  19  41  67  83 125 169 206 257 319 374
#     4  12  22  38  70  94 119 169 214 262 320 372
#     4  10  23  42  64  91 123 172 212 249 327 380
#
# _framework density 21.132822999999998
#
# number of rings (size 3 to 8) (size 9 to 14) (size 15 to 20)
#    0.000    1.500    7.500    0.000    1.750    1.500 
#    0.000    3.750    0.000    0.000    0.000    0.000 
#    0.000    0.000    0.000    0.000    0.000    0.000 
#
# Total GULP energy -89106.951830 kJ/mol
# GULP energy per Si atom -5569.184489 kJ/mol
# Density = 2.108472 g / cm^3
# Si number density = 21.132823 Si / 1000 Ang^3
#
#
#
# Elastic Constant Matrix: (Units=GPa)
#
#
# Indices 1 2 3 4 5 6 
#
# 1 59.1657 8.1845 19.6754 13.3000 -15.3051 12.4449
# 2 8.1845 59.0366 41.4410 -4.6652 2.4055 27.6458
# 3 19.6754 41.4410 138.5308 6.0944 -15.0409 5.0139
# 4 13.3000 -4.6652 6.0944 39.0936 -0.7537 -13.1159
# 5 -15.3051 2.4055 -15.0409 -0.7537 29.9923 2.5030
# 6 12.4449 27.6458 5.0139 -13.1159 2.5030 32.5954
#
#
#
# Elastic Compliance Matrix: (Units=1/GPa)
#
#
# Indices 1 2 3 4 5 6 
#
# 1 0.030096 0.008772 -0.003597 -0.017216 0.014624 -0.026427
# 2 0.008772 0.043635 -0.012546 -0.010059 -0.002036 -0.042319
# 3 -0.003597 -0.012546 0.011475 0.001560 0.004083 0.010563
# 4 -0.017216 -0.010059 0.001560 0.040505 -0.008835 0.031841
# 5 0.014624 -0.002036 0.004083 -0.008835 0.043744 -0.011399
# 6 -0.026427 -0.042319 0.010563 0.031841 -0.011399 0.088725
#
#
# Mechanical properties :
#
#
# Convention : Reuss Voigt Hill
#
# Bulk Modulus (GPa) = 14.19177 43.92610 29.05894
# Shear Modulus (GPa) = 16.86852 32.83174 24.85013
#
# Velocity S-wave (km/s) = 2.82833 3.94584 3.43286
# Velocity P-wave (km/s) = 4.17086 6.44906 5.43076
#
# Compressibility (1/GPa) = 0.07046337
#
# Stress axis : x y z
#
# Youngs Moduli (GPa) = 33.22703 22.91760 87.14713
#
# Poissons Ratio (x) = -0.20103 0.31346
# Poissons Ratio (y) = -0.29146 1.09334
# Poissons Ratio (z) = 0.11952 0.28752
#
# Static dielectric constant tensor:
#      x y z
#    x 1.798280 0.056170 0.032240 
#    y 0.056170 1.818760 -0.039960 
#    z 0.032240 -0.039960 1.838680 
# 
# From -- ./inp_files/267122.got.cif
#   From: 2010.05.17/outbox.cif.g08.bks.cpg/sg2_134_cif.got.tgz:267122.got - 2010.06.03 11:33:40.
