data_PCOD9089384
_publ_section_title
;
Structure prediction by ZEFSAII (Michael W. Deem and Ramdas Pophale) SiO2 
 PCOD9089384
Probable space group: P -1
;
_chemical_formula_sum "Si O2"
_cell_formula_units_Z 12
_cell_length_a 11.647543
_cell_length_b 12.883943
_cell_length_c 7.433739
_cell_angle_alpha 35.376771
_cell_angle_beta 128.823282
_cell_angle_gamma 127.037703
_cell_volume 492.784712
_symmetry_space_group_name_H-M "P -1"
_symmetry_group_IT_number 2
_symmetry_cell_setting 'triclinic'
loop_
_space_group_symop_operation_xyz
x,y,z
-x,-y,-z
loop_
_atom_site_type_symbol
_atom_site_label
_atom_site_fract_x
_atom_site_fract_y
_atom_site_fract_z
Si Si1 0.169275 0.230740 0.581428
Si Si2 0.962132 0.226190 0.697143
Si Si3 0.646830 0.086626 0.409480
Si Si4 0.643947 0.378918 0.691961
Si Si5 0.617327 0.871211 0.342918
Si Si6 0.958208 0.338922 0.918706
O O1 0.079421 0.157871 0.775451
O O2 0.293041 0.409182 0.507091
O O3 0.256169 0.113469 0.705972
O O4 0.043899 0.289062 0.247562
O O5 0.986616 0.445040 0.368083
O O6 0.790287 0.148380 0.587616
O O7 0.992237 0.224887 0.940835
O O8 0.500000 0.000000 0.500000
O O9 0.676283 0.936320 0.504630
O O10 0.622961 0.262322 0.021093
O O11 0.491072 0.328658 0.498178
O O12 0.780854 0.312515 0.818443
O O13 0.500000 0.000000 0.000000
#
# Coordination Sequence:
#
# PCOD9089384 Si02
#       6
#     2   2   2   2   2   2
#     4  11  20  41  67  93 123 161 215 261 299 367
#     4  10  20  37  65  98 124 161 207 256 312 370
#     4  11  21  39  60  88 132 168 199 251 319 373
#     4  10  19  41  65  89 124 168 205 253 312 369
#     4  10  24  40  60  88 129 171 200 255 324 367
#     4  10  19  37  69  95 122 157 211 262 306 363
#
# _framework density 24.351405
#
# number of rings (size 3 to 8) (size 9 to 14) (size 15 to 20)
#    0.000    1.667    3.333    2.500    0.000    0.667 
#    6.000    1.667    0.000    0.000    0.000    0.000 
#    0.000    0.000    0.000    0.000    0.000    0.000 
#
# Total GULP energy -67221.121459 kJ/mol
# GULP energy per Si atom -5601.760122 kJ/mol
# Density = 2.429598 g / cm^3
# Si number density = 24.351405 Si / 1000 Ang^3
#
#
#
# Elastic Constant Matrix: (Units=GPa)
#
#
# Indices 1 2 3 4 5 6 
#
# 1 203.2374 68.3284 16.0385 -15.0090 7.2528 -3.8259
# 2 68.3284 135.9875 6.7520 13.3763 -11.7187 10.7742
# 3 16.0385 6.7520 33.2755 -1.1878 -4.1512 2.3624
# 4 -15.0090 13.3763 -1.1878 23.5117 -3.8525 -3.4516
# 5 7.2528 -11.7187 -4.1512 -3.8525 43.2310 -5.6407
# 6 -3.8259 10.7742 2.3624 -3.4516 -5.6407 56.9281
#
#
#
# Elastic Compliance Matrix: (Units=1/GPa)
#
#
# Indices 1 2 3 4 5 6 
#
# 1 0.007259 -0.004496 -0.002687 0.007001 -0.001850 0.001691
# 2 -0.004496 0.010930 0.000137 -0.009051 0.002575 -0.002670
# 3 -0.002687 0.000137 0.031836 0.000201 0.003409 -0.001178
# 4 0.007001 -0.009051 0.000201 0.053288 0.001869 0.005591
# 5 -0.001850 0.002575 0.003409 0.001869 0.024872 0.001825
# 6 0.001691 -0.002670 -0.001178 0.005591 0.001825 0.018754
#
#
# Mechanical properties :
#
#
# Convention : Reuss Voigt Hill
#
# Bulk Modulus (GPa) = 27.83072 61.63758 44.73415
# Shear Modulus (GPa) = 28.90044 43.49293 36.19668
#
# Velocity S-wave (km/s) = 3.44875 4.23076 3.85961
# Velocity P-wave (km/s) = 5.22609 7.01658 6.18646
#
# Compressibility (1/GPa) = 0.03593152
#
# Stress axis : x y z
#
# Youngs Moduli (GPa) = 137.76286 91.49441 31.41122
#
# Poissons Ratio (x) = 0.41135 0.08441
# Poissons Ratio (y) = 0.61937 -0.00430
# Poissons Ratio (z) = 0.37022 -0.01253
#
# Static dielectric constant tensor:
#      x y z
#    x 1.919800 -0.020130 0.002070 
#    y -0.020130 2.019540 -0.072680 
#    z 0.002070 -0.072680 1.912600 
# 
# From -- ./inp_files/266573.got.cif
#   From: 2010.05.17/outbox.cif.g08.bks.cpg/sg2_134_cif.got.tgz:266573.got - 2010.06.03 11:33:40.
