data_PCOD9089021
_publ_section_title
;
Structure prediction by ZEFSAII (Michael W. Deem and Ramdas Pophale) SiO2 
 PCOD9089021
Probable space group: P -1
;
_chemical_formula_sum "Si O2"
_cell_formula_units_Z 16
_cell_length_a 19.775864
_cell_length_b 8.642165
_cell_length_c 8.561163
_cell_angle_alpha 135.794979
_cell_angle_beta 50.333790
_cell_angle_gamma 101.126212
_cell_volume 683.219881
_symmetry_space_group_name_H-M "P -1"
_symmetry_group_IT_number 2
_symmetry_cell_setting 'triclinic'
loop_
_space_group_symop_operation_xyz
x,y,z
-x,-y,-z
loop_
_atom_site_type_symbol
_atom_site_label
_atom_site_fract_x
_atom_site_fract_y
_atom_site_fract_z
Si Si1 0.412886 0.944373 0.143290
Si Si2 0.798408 0.587259 0.254790
Si Si3 0.431331 0.446500 0.864518
Si Si4 0.219134 0.574657 0.188791
Si Si5 0.141678 0.244806 0.156956
Si Si6 0.934184 0.072097 0.805989
Si Si7 0.623226 0.137814 0.517460
Si Si8 0.911078 0.846707 0.169490
O O1 0.308327 0.159932 0.378193
O O2 0.400567 0.969032 0.367070
O O3 0.500000 0.000000 0.000000
O O4 0.433910 0.652708 0.889000
O O5 0.884615 0.669040 0.187724
O O6 0.795529 0.489801 0.013050
O O7 0.832126 0.341708 0.133764
O O8 0.336244 0.416026 0.942421
O O9 0.398832 0.586940 0.183944
O O10 0.541247 0.204348 0.550815
O O11 0.185032 0.868695 0.473473
O O12 0.150233 0.498331 0.339735
O O13 0.087807 0.246038 0.074719
O O14 0.260104 0.030501 0.817583
O O15 0.089406 0.155126 0.294267
O O16 0.998535 0.114047 0.875257
O O17 0.000000 0.000000 0.500000
#
# Coordination Sequence:
#
# PCOD9089021 Si02
#       8
#     2   2   2   2   2   2   2   2
#     4  10  19  37  64  94 126 169 210 259 329 387
#     4  11  23  43  68  91 139 174 210 271 335 391
#     4   9  18  35  65  93 127 163 212 266 312 382
#     4  11  19  42  71  90 132 169 223 268 321 395
#     4  11  24  43  69  96 126 179 221 269 332 389
#     4  12  27  44  66  99 136 166 225 282 327 389
#     4   9  18  38  61  90 127 162 220 255 319 387
#     4  11  21  47  69  94 123 181 219 271 332 388
#
# _framework density 23.418524000000001
#
# number of rings (size 3 to 8) (size 9 to 14) (size 15 to 20)
#    0.750    0.750    6.250    0.750    1.750    1.000 
#    4.500    1.875    0.000    0.000    0.000    0.000 
#    0.000    0.000    0.000    0.000    0.000    0.000 
#
# Total GULP energy -89367.288558 kJ/mol
# GULP energy per Si atom -5585.455535 kJ/mol
# Density = 2.336522 g / cm^3
# Si number density = 23.418524 Si / 1000 Ang^3
#
#
#
# Elastic Constant Matrix: (Units=GPa)
#
#
# Indices 1 2 3 4 5 6 
#
# 1 112.0405 38.0616 17.0131 0.2419 -25.8053 11.1887
# 2 38.0616 82.8868 12.4802 -9.0313 -14.8749 24.5613
# 3 17.0131 12.4802 52.5091 2.3726 -19.2154 -6.0590
# 4 0.2419 -9.0313 2.3726 34.0675 0.7018 -14.0249
# 5 -25.8053 -14.8749 -19.2154 0.7018 42.5122 11.1624
# 6 11.1887 24.5613 -6.0590 -14.0249 11.1624 36.4905
#
#
#
# Elastic Compliance Matrix: (Units=1/GPa)
#
#
# Indices 1 2 3 4 5 6 
#
# 1 0.012360 -0.002856 -0.001065 -0.003229 0.007544 -0.005593
# 2 -0.002856 0.019807 -0.002543 -0.001260 0.008238 -0.015882
# 3 -0.001065 -0.002543 0.023428 -0.001278 0.008315 0.002894
# 4 -0.003229 -0.001260 -0.001278 0.036866 -0.008410 0.018368
# 5 0.007544 0.008238 0.008315 -0.008410 0.040700 -0.022160
# 6 -0.005593 -0.015882 0.002894 0.018368 -0.022160 0.054128
#
#
# Mechanical properties :
#
#
# Convention : Reuss Voigt Hill
#
# Bulk Modulus (GPa) = 23.43747 42.50514 32.97131
# Shear Modulus (GPa) = 23.31661 34.60614 28.96137
#
# Velocity S-wave (km/s) = 3.15881 3.84829 3.52047
# Velocity P-wave (km/s) = 4.83052 6.15917 5.53486
#
# Compressibility (1/GPa) = 0.04266672
#
# Stress axis : x y z
#
# Youngs Moduli (GPa) = 80.90391 50.48842 42.68373
#
# Poissons Ratio (x) = 0.14421 0.04545
# Poissons Ratio (y) = 0.23108 0.10855
# Poissons Ratio (z) = 0.08614 0.12840
#
# Static dielectric constant tensor:
#      x y z
#    x 1.880220 -0.009190 0.000750 
#    y -0.009190 1.891200 0.043060 
#    z 0.000750 0.043060 1.929370 
# 
# From -- ./inp_files/329535.got.cif
#   From: 2010.05.17/outbox.cif.g08.bks.cpg/sg2_165_cif.got.tgz:329535.got - 2010.06.03 11:33:40.
