data_PCOD9089651
_publ_section_title
;
Structure prediction by ZEFSAII (Michael W. Deem and Ramdas Pophale) SiO2 
 PCOD9089651
Probable space group: P -1
;
_chemical_formula_sum "Si O2"
_cell_formula_units_Z 16
_cell_length_a 11.558272
_cell_length_b 6.168795
_cell_length_c 18.388210
_cell_angle_alpha 89.212326
_cell_angle_beta 150.495201
_cell_angle_gamma 82.552592
_cell_volume 618.387281
_symmetry_space_group_name_H-M "P -1"
_symmetry_group_IT_number 2
_symmetry_cell_setting 'triclinic'
loop_
_space_group_symop_operation_xyz
x,y,z
-x,-y,-z
loop_
_atom_site_type_symbol
_atom_site_label
_atom_site_fract_x
_atom_site_fract_y
_atom_site_fract_z
Si Si1 0.262458 0.397416 0.950824
Si Si2 0.492112 0.956535 0.135913
Si Si3 0.361906 0.730051 0.463115
Si Si4 0.851960 0.307304 0.976906
Si Si5 0.309229 0.979809 0.294462
Si Si6 0.181072 0.770413 0.626329
Si Si7 0.215245 0.483934 0.771001
Si Si8 0.436571 0.463345 0.644747
O O1 0.115540 0.495685 0.797398
O O2 0.329088 0.126421 0.986932
O O3 0.138093 0.512468 0.955566
O O4 0.516767 0.466593 0.082747
O O5 0.583800 0.139083 0.230289
O O6 0.337902 0.827338 0.098069
O O7 0.716351 0.767725 0.223244
O O8 0.500000 0.500000 0.500000
O O9 0.207709 0.875369 0.310869
O O10 0.297398 0.644522 0.506647
O O11 0.554486 0.857276 0.594972
O O12 0.716548 0.436935 0.830270
O O13 0.110356 0.115460 0.126518
O O14 0.505916 0.779599 0.360711
O O15 0.074347 0.678929 0.639028
O O16 0.269628 0.556338 0.622909
O O17 0.000000 0.000000 0.500000
#
# Coordination Sequence:
#
# PCOD9089651 Si02
#       8
#     2   2   2   2   2   2   2   2
#     4   9  18  33  58  85 125 156 201 257 311 367
#     4  10  19  38  60  86 131 162 211 263 312 374
#     4   9  22  44  65  92 129 165 214 255 313 388
#     4  11  22  38  64 101 128 164 210 260 328 377
#     4  10  23  42  68  92 130 168 205 265 319 385
#     4  11  24  41  61  87 126 174 218 263 320 374
#     4   9  18  36  55  85 117 160 208 259 308 369
#     4  11  22  42  62  95 130 165 214 265 316 385
#
# _framework density 25.873750999999999
#
# number of rings (size 3 to 8) (size 9 to 14) (size 15 to 20)
#    0.000    2.000    3.750    0.750    1.750    5.000 
#    0.000    3.750    0.000    0.000    0.000    0.000 
#    0.000    0.000    0.000    0.000    0.000    0.000 
#
# Total GULP energy -89306.629174 kJ/mol
# GULP energy per Si atom -5581.664323 kJ/mol
# Density = 2.581486 g / cm^3
# Si number density = 25.873751 Si / 1000 Ang^3
#
#
#
# Elastic Constant Matrix: (Units=GPa)
#
#
# Indices 1 2 3 4 5 6 
#
# 1 77.1182 37.8573 38.1424 -5.7006 -21.8425 -7.5689
# 2 37.8573 135.5090 45.7246 -11.7460 -12.8506 -7.8586
# 3 38.1424 45.7246 121.4203 -13.5578 -13.5013 -3.6179
# 4 -5.7006 -11.7460 -13.5578 41.4230 1.9066 -7.5552
# 5 -21.8425 -12.8506 -13.5013 1.9066 38.9988 -6.8983
# 6 -7.5689 -7.8586 -3.6179 -7.5552 -6.8983 20.1650
#
#
#
# Elastic Compliance Matrix: (Units=1/GPa)
#
#
# Indices 1 2 3 4 5 6 
#
# 1 0.020389 -0.002608 -0.003615 0.002315 0.011079 0.010645
# 2 -0.002608 0.009380 -0.002211 0.002164 0.001390 0.003567
# 3 -0.003615 -0.002211 0.010617 0.002478 0.000968 0.000946
# 4 0.002315 0.002164 0.002478 0.028275 0.003982 0.014113
# 5 0.011079 0.001390 0.000968 0.003982 0.035734 0.018590
# 6 0.010645 0.003567 0.000946 0.014113 0.018590 0.066793
#
#
# Mechanical properties :
#
#
# Convention : Reuss Voigt Hill
#
# Bulk Modulus (GPa) = 42.51979 64.16624 53.34302
# Shear Modulus (GPa) = 25.52379 34.27223 29.89801
#
# Velocity S-wave (km/s) = 3.14423 3.64345 3.40300
# Velocity P-wave (km/s) = 5.44525 6.52328 6.00849
#
# Compressibility (1/GPa) = 0.02351846
#
# Stress axis : x y z
#
# Youngs Moduli (GPa) = 49.04586 106.60628 94.19099
#
# Poissons Ratio (x) = 0.27798 0.34054
# Poissons Ratio (y) = 0.12789 0.20824
# Poissons Ratio (z) = 0.17732 0.23569
#
# Static dielectric constant tensor:
#      x y z
#    x 2.133000 0.074660 -0.056630 
#    y 0.074660 1.984410 -0.017250 
#    z -0.056630 -0.017250 2.303730 
# 
# From -- ./inp_files/596737.got.cif
#   From: 2010.05.17/outbox.cif.g08.bks.cpg/sg2_299_cif.got.tgz:596737.got - 2010.06.03 11:33:40.
