data_PCOD9089894
_publ_section_title
;
Structure prediction by ZEFSAII (Michael W. Deem and Ramdas Pophale) SiO2 
 PCOD9089894
Probable space group: P -1
;
_chemical_formula_sum "Si O2"
_cell_formula_units_Z 16
_cell_length_a 7.630263
_cell_length_b 9.026274
_cell_length_c 25.784312
_cell_angle_alpha 30.970739
_cell_angle_beta 47.020644
_cell_angle_gamma 51.260363
_cell_volume 664.546302
_symmetry_space_group_name_H-M "P -1"
_symmetry_group_IT_number 2
_symmetry_cell_setting 'triclinic'
loop_
_space_group_symop_operation_xyz
x,y,z
-x,-y,-z
loop_
_atom_site_type_symbol
_atom_site_label
_atom_site_fract_x
_atom_site_fract_y
_atom_site_fract_z
Si Si1 0.479462 0.563384 0.046048
Si Si2 0.745047 0.300216 0.508134
Si Si3 0.902396 0.195087 0.619389
Si Si4 0.292806 0.296254 0.310331
Si Si5 0.130260 0.763288 0.272897
Si Si6 0.980596 0.398537 0.246163
Si Si7 0.770681 0.826849 0.086588
Si Si8 0.210126 0.662674 0.856300
O O1 0.236032 0.438895 0.153773
O O2 0.708754 0.433738 0.072914
O O3 0.500000 0.500000 0.000000
O O4 0.436768 0.910124 0.959149
O O5 0.500000 0.500000 0.500000
O O6 0.765915 0.166440 0.602079
O O7 0.942333 0.517177 0.391165
O O8 0.742168 0.007150 0.563304
O O9 0.000000 0.500000 0.500000
O O10 0.778569 0.189964 0.701365
O O11 0.094195 0.911338 0.664012
O O12 0.061228 0.396087 0.290268
O O13 0.544628 0.238399 0.246940
O O14 0.320172 0.581877 0.252533
O O15 0.994517 0.065542 0.189072
O O16 0.779356 0.637839 0.194227
O O17 0.828197 0.611834 0.090536
O O18 0.000000 0.000000 0.000000
#
# Coordination Sequence:
#
# PCOD9089894 Si02
#       8
#     2   2   2   2   2   2   2   2
#     4  10  23  39  62  91 121 159 214 264 314 378
#     4  10  19  38  62  88 130 168 201 254 309 364
#     4   9  19  35  61  88 125 161 199 251 305 370
#     4  10  22  37  61  92 123 164 210 251 310 375
#     4  11  21  37  63  91 124 166 211 249 310 378
#     4   9  19  39  60  84 123 161 199 260 315 364
#     4  10  21  41  62  83 121 161 205 260 325 365
#     4  11  22  41  63  89 127 163 206 265 320 370
#
# _framework density 24.076577
#
# number of rings (size 3 to 8) (size 9 to 14) (size 15 to 20)
#    0.000    2.000    2.500    0.750    1.750    1.000 
#    0.000    4.375    0.000    0.000    0.000    0.000 
#    0.000    0.000    0.000    0.000    0.000    0.000 
#
# Total GULP energy -89287.931863 kJ/mol
# GULP energy per Si atom -5580.495741 kJ/mol
# Density = 2.402178 g / cm^3
# Si number density = 24.076577 Si / 1000 Ang^3
#
#
#
# Elastic Constant Matrix: (Units=GPa)
#
#
# Indices 1 2 3 4 5 6 
#
# 1 76.9347 16.6615 30.4329 -10.8083 14.4833 3.3048
# 2 16.6615 88.1143 40.8968 -27.9793 12.5048 1.2687
# 3 30.4329 40.8968 118.0830 -40.7715 9.2180 -0.0811
# 4 -10.8083 -27.9793 -40.7715 47.1594 0.7706 -2.3612
# 5 14.4833 12.5048 9.2180 0.7706 52.3236 -8.7130
# 6 3.3048 1.2687 -0.0811 -2.3612 -8.7130 37.6172
#
#
#
# Elastic Compliance Matrix: (Units=1/GPa)
#
#
# Indices 1 2 3 4 5 6 
#
# 1 0.015319 -0.000719 -0.003352 0.000138 -0.003848 -0.002211
# 2 -0.000719 0.015262 -0.002530 0.006716 -0.003232 -0.000784
# 3 -0.003352 -0.002530 0.013560 0.009508 -0.000862 0.000806
# 4 0.000138 0.006716 0.009508 0.033553 -0.003639 0.001045
# 5 -0.003848 -0.003232 -0.000862 -0.003639 0.022041 0.005322
# 6 -0.002211 -0.000784 0.000806 0.001045 0.005322 0.028104
#
#
# Mechanical properties :
#
#
# Convention : Reuss Voigt Hill
#
# Bulk Modulus (GPa) = 32.32266 51.01273 41.66770
# Shear Modulus (GPa) = 33.03537 40.42944 36.73241
#
# Velocity S-wave (km/s) = 3.70820 4.10225 3.91019
# Velocity P-wave (km/s) = 5.63812 6.60845 6.14248
#
# Compressibility (1/GPa) = 0.03093804
#
# Stress axis : x y z
#
# Youngs Moduli (GPa) = 65.27988 65.52406 73.74870
#
# Poissons Ratio (x) = 0.04710 0.24724
# Poissons Ratio (y) = 0.04692 0.18656
# Poissons Ratio (z) = 0.21885 0.16575
#
# Static dielectric constant tensor:
#      x y z
#    x 1.938560 0.051230 -0.034800 
#    y 0.051230 2.146950 -0.063960 
#    z -0.034800 -0.063960 2.008480 
# 
# From -- ./inp_files/179473.got.cif
#   From: 2010.05.17/outbox.cif.g08.bks.cpg/sg2_90_cif.got.tgz:179473.got - 2010.06.03 11:33:40.
