data_PCOD9089953
_publ_section_title
;
Structure prediction by ZEFSAII (Michael W. Deem and Ramdas Pophale) SiO2 
 PCOD9089953
Probable space group: P -1
;
_chemical_formula_sum "Si O2"
_cell_formula_units_Z 12
_cell_length_a 9.104448
_cell_length_b 9.002237
_cell_length_c 7.319840
_cell_angle_alpha 97.677518
_cell_angle_beta 70.807210
_cell_angle_gamma 114.679988
_cell_volume 514.830648
_symmetry_space_group_name_H-M "P -1"
_symmetry_group_IT_number 2
_symmetry_cell_setting 'triclinic'
loop_
_space_group_symop_operation_xyz
x,y,z
-x,-y,-z
loop_
_atom_site_type_symbol
_atom_site_label
_atom_site_fract_x
_atom_site_fract_y
_atom_site_fract_z
Si Si1 0.716179 0.872022 0.106611
Si Si2 0.191121 0.558159 0.781902
Si Si3 0.637900 0.319911 0.896767
Si Si4 0.037178 0.675073 0.414414
Si Si5 0.014982 0.785995 0.828615
Si Si6 0.465757 0.631616 0.416485
O O1 0.023787 0.784813 0.604016
O O2 0.840799 0.793873 0.963708
O O3 0.548575 0.825042 0.041660
O O4 0.831457 0.059735 0.123770
O O5 0.046680 0.629962 0.863443
O O6 0.327896 0.669993 0.594734
O O7 0.296250 0.586652 0.928065
O O8 0.105787 0.380190 0.694040
O O9 0.781565 0.263952 0.749239
O O10 0.368691 0.212971 0.681701
O O11 0.614655 0.432337 0.761051
O O12 0.000000 0.500000 0.500000
O O13 0.500000 0.500000 0.500000
#
# Coordination Sequence:
#
# PCOD9089953 Si02
#       6
#     2   2   2   2   2   2
#     4   9  22  42  65  98 129 180 215 271 329 385
#     4  11  23  40  66  98 131 176 215 270 329 386
#     4  10  22  41  62  98 129 172 220 264 332 383
#     4  10  19  38  62  96 128 172 215 263 321 385
#     4  10  20  42  69  92 138 171 224 265 324 401
#     4  10  23  42  63  98 131 171 218 271 328 385
#
# _framework density 23.308637000000001
#
# number of rings (size 3 to 8) (size 9 to 14) (size 15 to 20)
#    1.000    1.000    3.333    0.500    0.000    9.333 
#    0.000    0.000    0.000    5.000    0.000    1.167 
#    0.000    0.000    0.000    0.000    0.000    0.000 
#
# Total GULP energy -67002.122815 kJ/mol
# GULP energy per Si atom -5583.510235 kJ/mol
# Density = 2.325559 g / cm^3
# Si number density = 23.308637 Si / 1000 Ang^3
#
#
#
# Elastic Constant Matrix: (Units=GPa)
#
#
# Indices 1 2 3 4 5 6 
#
# 1 118.3965 36.7065 86.7644 -2.2706 17.1454 38.0896
# 2 36.7065 62.4581 31.6436 0.3624 -6.7252 31.5432
# 3 86.7644 31.6436 118.9533 1.8642 8.6380 30.7154
# 4 -2.2706 0.3624 1.8642 29.5504 9.8683 -4.1246
# 5 17.1454 -6.7252 8.6380 9.8683 61.1848 -9.9779
# 6 38.0896 31.5432 30.7154 -4.1246 -9.9779 42.6968
#
#
#
# Elastic Compliance Matrix: (Units=1/GPa)
#
#
# Indices 1 2 3 4 5 6 
#
# 1 0.023608 -0.002332 -0.013222 0.003587 -0.007412 -0.011211
# 2 -0.002332 0.026565 -0.001113 -0.003279 0.001536 -0.016702
# 3 -0.013222 -0.001113 0.018451 -0.002690 0.001312 -0.000609
# 4 0.003587 -0.003279 -0.002690 0.036918 -0.006414 0.003225
# 5 -0.007412 0.001536 0.001312 -0.006414 0.020873 0.008792
# 6 -0.011211 -0.016702 -0.000609 0.003225 0.008792 0.048565
#
#
# Mechanical properties :
#
#
# Convention : Reuss Voigt Hill
#
# Bulk Modulus (GPa) = 28.33787 67.78189 48.05988
# Shear Modulus (GPa) = 22.71930 36.33261 29.52596
#
# Velocity S-wave (km/s) = 3.12543 3.95240 3.56299
# Velocity P-wave (km/s) = 5.02081 7.06908 6.13108
#
# Compressibility (1/GPa) = 0.03528847
#
# Stress axis : x y z
#
# Youngs Moduli (GPa) = 42.35890 37.64412 54.19753
#
# Poissons Ratio (x) = 0.08780 0.71661
# Poissons Ratio (y) = 0.09879 0.06032
# Poissons Ratio (z) = 0.56008 0.04190
#
# Static dielectric constant tensor:
#      x y z
#    x 1.957370 -0.009170 -0.006450 
#    y -0.009170 1.880030 -0.047670 
#    z -0.006450 -0.047670 1.947870 
# 
# From -- ./inp_files/189668.got.cif
#   From: 2010.05.17/outbox.cif.g08.bks.cpg/sg2_95_cif.got.tgz:189668.got - 2010.06.03 11:33:40.
