data_PCOD9089827
_publ_section_title
;
Structure prediction by ZEFSAII (Michael W. Deem and Ramdas Pophale) SiO2 
 PCOD9089827
Probable space group: P -1
;
_chemical_formula_sum "Si O2"
_cell_formula_units_Z 16
_cell_length_a 14.891119
_cell_length_b 6.442168
_cell_length_c 23.747671
_cell_angle_alpha 84.675865
_cell_angle_beta 26.581134
_cell_angle_gamma 64.953151
_cell_volume 654.917603
_symmetry_space_group_name_H-M "P -1"
_symmetry_group_IT_number 2
_symmetry_cell_setting 'triclinic'
loop_
_space_group_symop_operation_xyz
x,y,z
-x,-y,-z
loop_
_atom_site_type_symbol
_atom_site_label
_atom_site_fract_x
_atom_site_fract_y
_atom_site_fract_z
Si Si1 0.898067 0.720145 0.431971
Si Si2 0.475266 0.512060 0.778543
Si Si3 0.853595 0.851916 0.574891
Si Si4 0.827964 0.780102 0.853745
Si Si5 0.725529 0.219920 0.436834
Si Si6 0.617605 0.206598 0.058707
Si Si7 0.576193 0.271466 0.316466
Si Si8 0.082529 0.153202 0.762969
O O1 0.265103 0.416528 0.242731
O O2 0.777940 0.934775 0.549251
O O3 0.723055 0.640525 0.526367
O O4 0.852518 0.908865 0.401287
O O5 0.356605 0.745183 0.891750
O O6 0.325100 0.707466 0.799138
O O7 0.837228 0.285327 0.571757
O O8 0.542301 0.213260 0.765497
O O9 0.000000 0.500000 0.500000
O O10 0.011082 0.812520 0.716375
O O11 0.032519 0.412787 0.755995
O O12 0.500000 0.000000 0.000000
O O13 0.795419 0.884358 0.934107
O O14 0.486636 0.492577 0.610448
O O15 0.676037 0.176168 0.401797
O O16 0.746502 0.304892 0.949802
O O17 0.803539 0.942087 0.233885
#
# Coordination Sequence:
#
# PCOD9089827 Si02
#       8
#     2   2   2   2   2   2   2   2
#     4  11  22  38  68 100 126 165 222 266 329 380
#     4  10  22  39  64  96 131 169 217 263 327 390
#     4  10  19  38  61  97 130 165 209 269 316 378
#     4  11  23  45  67  94 131 175 224 271 322 385
#     4  11  23  41  65  94 127 174 216 275 321 390
#     4  10  24  42  66  94 129 176 218 268 320 388
#     4  12  24  41  66  98 133 171 212 274 331 388
#     4  11  26  44  62  94 134 175 221 265 329 390
#
# _framework density 24.430557
#
# number of rings (size 3 to 8) (size 9 to 14) (size 15 to 20)
#    0.000    1.250    2.500    3.375    0.000    8.500 
#    0.000    0.625    0.000    0.000    0.000    0.000 
#    0.000    0.000    0.000    0.000    0.000    0.000 
#
# Total GULP energy -89099.136522 kJ/mol
# GULP energy per Si atom -5568.696033 kJ/mol
# Density = 2.437495 g / cm^3
# Si number density = 24.430557 Si / 1000 Ang^3
#
#
#
# Elastic Constant Matrix: (Units=GPa)
#
#
# Indices 1 2 3 4 5 6 
#
# 1 139.5476 45.9628 39.8602 21.7750 28.3495 -5.6248
# 2 45.9628 113.5325 17.3151 2.9955 15.9054 -6.0685
# 3 39.8602 17.3151 61.9096 -5.9952 9.1170 8.5505
# 4 21.7750 2.9955 -5.9952 23.8391 15.2793 3.8341
# 5 28.3495 15.9054 9.1170 15.2793 46.7755 2.4899
# 6 -5.6248 -6.0685 8.5505 3.8341 2.4899 36.6262
#
#
#
# Elastic Compliance Matrix: (Units=1/GPa)
#
#
# Indices 1 2 3 4 5 6 
#
# 1 0.013919 -0.003285 -0.010224 -0.015395 -0.000597 0.005632
# 2 -0.003285 0.010530 -0.000312 0.003075 -0.002596 0.001168
# 3 -0.010224 -0.000312 0.027013 0.021180 -0.005361 -0.009781
# 4 -0.015395 0.003075 0.021180 0.075866 -0.019912 -0.013388
# 5 -0.000597 -0.002596 -0.005361 -0.019912 0.030132 0.000766
# 6 0.005632 0.001168 -0.009781 -0.013388 0.000766 0.031994
#
#
# Mechanical properties :
#
#
# Convention : Reuss Voigt Hill
#
# Bulk Modulus (GPa) = 41.97668 57.91843 49.94756
# Shear Modulus (GPa) = 22.21880 35.57161 28.89520
#
# Velocity S-wave (km/s) = 3.01901 3.81993 3.44284
# Velocity P-wave (km/s) = 5.41958 6.57379 6.02439
#
# Compressibility (1/GPa) = 0.02382275
#
# Stress axis : x y z
#
# Youngs Moduli (GPa) = 71.84559 94.96405 37.01857
#
# Poissons Ratio (x) = 0.31194 0.37846
# Poissons Ratio (y) = 0.23600 0.01153
# Poissons Ratio (z) = 0.73452 0.02958
#
# Static dielectric constant tensor:
#      x y z
#    x 2.032260 -0.002040 0.043190 
#    y -0.002040 2.104090 -0.000750 
#    z 0.043190 -0.000750 1.966930 
# 
# From -- ./inp_files/611247.got.cif
#   From: 2010.05.17/outbox.cif.g08.bks.cpg/sg2_306_cif.got.tgz:611247.got - 2010.06.03 11:33:40.
