data_PCOD9089542
_publ_section_title
;
Structure prediction by ZEFSAII (Michael W. Deem and Ramdas Pophale) SiO2 
 PCOD9089542
Probable space group: P -1
;
_chemical_formula_sum "Si O2"
_cell_formula_units_Z 14
_cell_length_a 10.044255
_cell_length_b 9.409210
_cell_length_c 10.298967
_cell_angle_alpha 138.784472
_cell_angle_beta 111.465312
_cell_angle_gamma 74.550464
_cell_volume 596.781700
_symmetry_space_group_name_H-M "P -1"
_symmetry_group_IT_number 2
_symmetry_cell_setting 'triclinic'
loop_
_space_group_symop_operation_xyz
x,y,z
-x,-y,-z
loop_
_atom_site_type_symbol
_atom_site_label
_atom_site_fract_x
_atom_site_fract_y
_atom_site_fract_z
Si Si1 0.551099 0.598467 0.726598
Si Si2 0.962898 0.130329 0.744990
Si Si3 0.181429 0.260099 0.427309
Si Si4 0.859898 0.795817 0.909389
Si Si5 0.499639 0.142452 0.470589
Si Si6 0.214150 0.875993 0.559296
Si Si7 0.749814 0.264002 0.241766
O O1 0.500000 0.500000 0.500000
O O2 0.548173 0.391313 0.677063
O O3 0.423376 0.751047 0.832040
O O4 0.708826 0.693501 0.832394
O O5 0.012343 0.249032 0.975050
O O6 0.112296 0.075338 0.690879
O O7 0.892969 0.901768 0.610258
O O8 0.855272 0.223844 0.664854
O O9 0.336411 0.159259 0.379290
O O10 0.207356 0.506917 0.648143
O O11 0.103445 0.268260 0.267260
O O12 0.824925 0.051524 0.072165
O O13 0.500000 0.000000 0.500000
O O14 0.621992 0.056346 0.360127
O O15 0.210714 0.730054 0.585932
#
# Coordination Sequence:
#
# PCOD9089542 Si02
#       7
#     2   2   2   2   2   2   2
#     4  11  19  37  63  90 119 160 208 258 304 363
#     4  10  23  36  61  88 134 164 198 249 308 373
#     4  11  21  41  64  95 121 161 208 254 304 362
#     4  11  21  37  63  92 125 160 206 253 304 366
#     4  11  20  36  67  87 116 163 208 254 307 356
#     4  10  19  38  58  91 119 168 199 241 311 357
#     4  10  21  37  67  91 122 161 207 257 298 359
#
# _framework density 23.459163
#
# number of rings (size 3 to 8) (size 9 to 14) (size 15 to 20)
#    0.000    1.429    5.714    0.857    0.000    3.429 
#    0.000    4.286    9.429    5.143    0.000    0.000 
#    0.000    0.000    0.000    0.000    0.000    0.000 
#
# Total GULP energy -78210.051224 kJ/mol
# GULP energy per Si atom -5586.432230 kJ/mol
# Density = 2.340577 g / cm^3
# Si number density = 23.459163 Si / 1000 Ang^3
#
#
#
# Elastic Constant Matrix: (Units=GPa)
#
#
# Indices 1 2 3 4 5 6 
#
# 1 99.6475 -1.8250 2.2738 14.9161 21.5180 -7.5270
# 2 -1.8250 88.6219 15.6157 4.8448 20.9595 6.1099
# 3 2.2738 15.6157 57.3233 4.1808 22.5381 7.2698
# 4 14.9161 4.8448 4.1808 29.7911 2.1466 13.1667
# 5 21.5180 20.9595 22.5381 2.1466 34.7346 5.1934
# 6 -7.5270 6.1099 7.2698 13.1667 5.1934 38.9876
#
#
#
# Elastic Compliance Matrix: (Units=1/GPa)
#
#
# Indices 1 2 3 4 5 6 
#
# 1 0.015303 0.003099 0.004088 -0.010936 -0.014421 0.007321
# 2 0.003099 0.013885 0.000337 -0.003519 -0.010439 0.000939
# 3 0.004088 0.000337 0.024799 -0.004254 -0.018567 0.000022
# 4 -0.010936 -0.003519 -0.004254 0.047488 0.011465 -0.018331
# 5 -0.014421 -0.010439 -0.018567 0.011465 0.056725 -0.009114
# 6 0.007321 0.000939 0.000022 -0.018331 -0.009114 0.034316
#
#
# Mechanical properties :
#
#
# Convention : Reuss Voigt Hill
#
# Bulk Modulus (GPa) = 14.48565 30.85795 22.67180
# Shear Modulus (GPa) = 24.94023 36.00456 30.47239
#
# Velocity S-wave (km/s) = 3.26411 3.92187 3.60801
# Velocity P-wave (km/s) = 4.51599 5.80436 5.20023
#
# Compressibility (1/GPa) = 0.06903383
#
# Stress axis : x y z
#
# Youngs Moduli (GPa) = 65.34661 72.02011 40.32482
#
# Poissons Ratio (x) = -0.22316 -0.16486
# Poissons Ratio (y) = -0.20248 -0.01358
# Poissons Ratio (z) = -0.26715 -0.02425
#
# Static dielectric constant tensor:
#      x y z
#    x 1.925790 -0.009300 -0.008040 
#    y -0.009300 1.901390 -0.016800 
#    z -0.008040 -0.016800 1.955540 
# 
# From -- ./inp_files/390139.got.cif
#   From: 2010.05.17/outbox.cif.g08.bks.cpg/sg2_196_cif.got.tgz:390139.got - 2010.06.03 11:33:40.
