data_PCOD9089741
_publ_section_title
;
Structure prediction by ZEFSAII (Michael W. Deem and Ramdas Pophale) SiO2 
 PCOD9089741
Probable space group: P -1
;
_chemical_formula_sum "Si O2"
_cell_formula_units_Z 14
_cell_length_a 7.888268
_cell_length_b 16.658416
_cell_length_c 12.361390
_cell_angle_alpha 24.829574
_cell_angle_beta 65.351614
_cell_angle_gamma 69.575579
_cell_volume 618.094605
_symmetry_space_group_name_H-M "P -1"
_symmetry_group_IT_number 2
_symmetry_cell_setting 'triclinic'
loop_
_space_group_symop_operation_xyz
x,y,z
-x,-y,-z
loop_
_atom_site_type_symbol
_atom_site_label
_atom_site_fract_x
_atom_site_fract_y
_atom_site_fract_z
Si Si1 0.626644 0.973925 0.392487
Si Si2 0.705396 0.157484 0.486104
Si Si3 0.836435 0.472087 0.427732
Si Si4 0.613698 0.615482 0.712352
Si Si5 0.294823 0.896409 0.201736
Si Si6 0.856959 0.268820 0.089223
Si Si7 0.837499 0.742280 0.287487
O O1 0.500000 0.000000 0.500000
O O2 0.473336 0.992371 0.315363
O O3 0.683320 0.760714 0.612584
O O4 0.804751 0.118361 0.190813
O O5 0.606166 0.359150 0.267658
O O6 0.762894 0.115642 0.642285
O O7 0.846597 0.172964 0.328161
O O8 0.708937 0.313954 0.591410
O O9 0.763068 0.619940 0.352397
O O10 0.959306 0.601163 0.150538
O O11 0.973435 0.344754 0.617004
O O12 0.688067 0.409893 0.957368
O O13 0.698434 0.701400 0.474102
O O14 0.500000 0.000000 0.000000
O O15 0.153710 0.034469 0.014679
#
# Coordination Sequence:
#
# PCOD9089741 Si02
#       7
#     2   2   2   2   2   2   2
#     4   8  17  32  54  87 116 150 195 238 291 352
#     4   9  20  36  58  92 120 154 196 247 306 350
#     4  10  25  40  63  91 116 167 205 242 302 360
#     4   9  18  34  61  90 113 158 197 248 294 339
#     4  12  23  42  60  89 127 157 200 253 307 355
#     4  10  19  38  61  86 125 154 204 245 291 365
#     4  10  22  43  63  87 120 159 209 248 290 364
#
# _framework density 22.650255000000001
#
# number of rings (size 3 to 8) (size 9 to 14) (size 15 to 20)
#    0.857    1.429    1.429    0.857    0.000   10.286 
#    2.571    0.714    0.000    0.000    0.000    0.000 
#    0.000    0.000    0.000    0.000    0.000    0.000 
#
# Total GULP energy -78045.124231 kJ/mol
# GULP energy per Si atom -5574.651731 kJ/mol
# Density = 2.259870 g / cm^3
# Si number density = 22.650255 Si / 1000 Ang^3
#
#
#
# Elastic Constant Matrix: (Units=GPa)
#
#
# Indices 1 2 3 4 5 6 
#
# 1 31.1001 21.2137 21.6527 4.4590 -7.9919 1.9876
# 2 21.2137 125.5417 52.1753 0.1052 -1.5645 11.1751
# 3 21.6527 52.1753 105.9264 -0.4224 -14.8635 13.0906
# 4 4.4590 0.1052 -0.4224 44.0085 12.9173 2.7513
# 5 -7.9919 -1.5645 -14.8635 12.9173 30.4500 -6.3822
# 6 1.9876 11.1751 13.0906 2.7513 -6.3822 30.3345
#
#
#
# Elastic Compliance Matrix: (Units=1/GPa)
#
#
# Indices 1 2 3 4 5 6 
#
# 1 0.043859 -0.005625 -0.004940 -0.008775 0.013577 0.004983
# 2 -0.005625 0.011005 -0.004553 0.002028 -0.004595 -0.002872
# 3 -0.004940 -0.004553 0.013719 -0.000593 0.004820 -0.002852
# 4 -0.008775 0.002028 -0.000593 0.028621 -0.015855 -0.005848
# 5 0.013577 -0.004595 0.004820 -0.015855 0.047370 0.010128
# 6 0.004983 -0.002872 -0.002852 -0.005848 0.010128 0.037589
#
#
# Mechanical properties :
#
#
# Convention : Reuss Voigt Hill
#
# Bulk Modulus (GPa) = 26.07734 50.29465 38.18599
# Shear Modulus (GPa) = 22.20435 32.12702 27.16568
#
# Velocity S-wave (km/s) = 3.13439 3.77024 3.46693
# Velocity P-wave (km/s) = 4.96359 6.41920 5.73774
#
# Compressibility (1/GPa) = 0.03834747
#
# Stress axis : x y z
#
# Youngs Moduli (GPa) = 22.80015 90.87055 72.89055
#
# Poissons Ratio (x) = 0.51115 0.36011
# Poissons Ratio (y) = 0.12825 0.33183
# Poissons Ratio (z) = 0.11264 0.41369
#
# Static dielectric constant tensor:
#      x y z
#    x 1.906160 -0.013920 -0.010010 
#    y -0.013920 1.861470 -0.002300 
#    z -0.010010 -0.002300 1.863200 
# 
# From -- ./inp_files/398089.got.cif
#   From: 2010.05.17/outbox.cif.g08.bks.cpg/sg2_200_cif.got.tgz:398089.got - 2010.06.03 11:33:40.
