data_PCOD9089763
_publ_section_title
;
Structure prediction by ZEFSAII (Michael W. Deem and Ramdas Pophale) SiO2 
 PCOD9089763
Probable space group: P -1
;
_chemical_formula_sum "Si O2"
_cell_formula_units_Z 14
_cell_length_a 12.439863
_cell_length_b 11.445873
_cell_length_c 13.348112
_cell_angle_alpha 73.039509
_cell_angle_beta 33.866013
_cell_angle_gamma 49.561435
_cell_volume 655.451080
_symmetry_space_group_name_H-M "P -1"
_symmetry_group_IT_number 2
_symmetry_cell_setting 'triclinic'
loop_
_space_group_symop_operation_xyz
x,y,z
-x,-y,-z
loop_
_atom_site_type_symbol
_atom_site_label
_atom_site_fract_x
_atom_site_fract_y
_atom_site_fract_z
Si Si1 0.087480 0.082911 0.853405
Si Si2 0.579368 0.606249 0.918944
Si Si3 0.500929 0.084911 0.600999
Si Si4 0.430742 0.439912 0.275631
Si Si5 0.737342 0.677396 0.088783
Si Si6 0.904045 0.540067 0.309555
Si Si7 0.754176 0.209159 0.679344
O O1 0.367694 0.013968 0.706719
O O2 0.194346 0.033852 0.665937
O O3 0.779290 0.306924 0.042502
O O4 0.000000 0.000000 0.000000
O O5 0.591594 0.635664 0.786107
O O6 0.885465 0.491951 0.766286
O O7 0.500000 0.500000 0.000000
O O8 0.338499 0.779422 0.138118
O O9 0.265489 0.282463 0.673356
O O10 0.466964 0.137464 0.730168
O O11 0.338823 0.416874 0.452410
O O12 0.210343 0.661998 0.379401
O O13 0.902376 0.640947 0.868563
O O14 0.523205 0.677544 0.209648
O O15 0.000000 0.500000 0.000000
O O16 0.000000 0.000000 0.500000
#
# Coordination Sequence:
#
# PCOD9089763 Si02
#       7
#     2   2   2   2   2   2   2
#     4  11  22  39  61  94 123 160 209 255 300 370
#     4   9  19  36  61  84 118 162 204 247 311 361
#     4  10  21  39  61  88 129 159 201 255 307 362
#     4  11  21  38  61  92 122 158 210 255 306 366
#     4   9  19  39  61  84 119 169 198 246 321 361
#     4  10  19  38  61  88 124 158 200 260 304 365
#     4  10  22  40  60  86 122 162 210 253 307 374
#
# _framework density 21.359335999999999
#
# number of rings (size 3 to 8) (size 9 to 14) (size 15 to 20)
#    0.000    2.000    1.429    3.857    2.000    0.000 
#    5.143    5.000    0.000    0.000    0.000    0.000 
#    0.000    0.000    0.000    0.000    0.000    0.000 
#
# Total GULP energy -77976.180923 kJ/mol
# GULP energy per Si atom -5569.727209 kJ/mol
# Density = 2.131072 g / cm^3
# Si number density = 21.359336 Si / 1000 Ang^3
#
#
#
# Elastic Constant Matrix: (Units=GPa)
#
#
# Indices 1 2 3 4 5 6 
#
# 1 109.8968 12.1180 44.7962 3.7541 25.5108 17.2071
# 2 12.1180 63.1432 40.7193 9.9929 16.4026 8.2872
# 3 44.7962 40.7193 152.1901 4.8692 32.5587 16.0163
# 4 3.7541 9.9929 4.8692 34.6582 0.3338 8.3198
# 5 25.5108 16.4026 32.5587 0.3338 37.3985 12.8714
# 6 17.2071 8.2872 16.0163 8.3198 12.8714 26.3524
#
#
#
# Elastic Compliance Matrix: (Units=1/GPa)
#
#
# Indices 1 2 3 4 5 6 
#
# 1 0.011717 0.001081 -0.002201 -0.000248 -0.005152 -0.004059
# 2 0.001081 0.020927 -0.004466 -0.005489 -0.006012 0.000097
# 3 -0.002201 -0.004466 0.009446 0.000447 -0.004473 -0.000856
# 4 -0.000248 -0.005489 0.000447 0.033164 0.005936 -0.011754
# 5 -0.005152 -0.006012 -0.004473 0.005936 0.041630 -0.014235
# 6 -0.004059 0.000097 -0.000856 -0.011754 -0.014235 0.051751
#
#
# Mechanical properties :
#
#
# Convention : Reuss Voigt Hill
#
# Bulk Modulus (GPa) = 32.34278 57.83300 45.08789
# Shear Modulus (GPa) = 26.30007 34.85493 30.57750
#
# Velocity S-wave (km/s) = 3.51282 4.04398 3.78772
# Velocity P-wave (km/s) = 5.62390 6.99572 6.34698
#
# Compressibility (1/GPa) = 0.03091880
#
# Stress axis : x y z
#
# Youngs Moduli (GPa) = 85.34454 47.78496 105.86408
#
# Poissons Ratio (x) = -0.05164 0.23299
# Poissons Ratio (y) = -0.09223 0.47275
# Poissons Ratio (z) = 0.18783 0.21339
#
# Static dielectric constant tensor:
#      x y z
#    x 1.822180 0.000770 0.014490 
#    y 0.000770 1.824940 0.019720 
#    z 0.014490 0.019720 1.848030 
# 
# From -- ./inp_files/517919.got.cif
#   From: 2010.05.17/outbox.cif.g08.bks.cpg/sg2_259_cif.got.tgz:517919.got - 2010.06.03 11:33:40.
