data_PCOD9089397
_publ_section_title
;
Structure prediction by ZEFSAII (Michael W. Deem and Ramdas Pophale) SiO2 
 PCOD9089397
Probable space group: P -1
;
_chemical_formula_sum "Si O2"
_cell_formula_units_Z 16
_cell_length_a 7.137387
_cell_length_b 11.481473
_cell_length_c 12.088395
_cell_angle_alpha 132.887625
_cell_angle_beta 99.255289
_cell_angle_gamma 72.132252
_cell_volume 689.169737
_symmetry_space_group_name_H-M "P -1"
_symmetry_group_IT_number 2
_symmetry_cell_setting 'triclinic'
loop_
_space_group_symop_operation_xyz
x,y,z
-x,-y,-z
loop_
_atom_site_type_symbol
_atom_site_label
_atom_site_fract_x
_atom_site_fract_y
_atom_site_fract_z
Si Si1 0.128269 0.201291 0.158884
Si Si2 0.224892 0.474290 0.230732
Si Si3 0.742465 0.420175 0.345230
Si Si4 0.857061 0.605561 0.147640
Si Si5 0.407207 0.711358 0.547098
Si Si6 0.861767 0.083343 0.871106
Si Si7 0.426450 0.581045 0.917555
Si Si8 0.881664 0.973827 0.360688
O O1 0.267315 0.293019 0.169446
O O2 0.974696 0.343740 0.306988
O O3 0.211022 0.053082 0.155650
O O4 0.010732 0.137440 0.007049
O O5 0.294367 0.595599 0.396775
O O6 0.345931 0.463910 0.121900
O O7 0.993664 0.546670 0.231210
O O8 0.636754 0.608833 0.493270
O O9 0.663608 0.300456 0.342332
O O10 0.662558 0.406720 0.206902
O O11 0.837957 0.796436 0.248834
O O12 0.654923 0.556268 0.117575
O O13 0.000000 0.500000 0.000000
O O14 0.322274 0.886318 0.593519
O O15 0.980244 0.023062 0.730959
O O16 0.681689 0.241406 0.928340
O O17 0.000000 0.000000 0.500000
#
# Coordination Sequence:
#
# PCOD9089397 Si02
#       8
#     2   2   2   2   2   2   2   2
#     4  10  19  37  70  94 124 169 216 279 333 386
#     4  11  22  40  65  94 124 173 221 267 334 394
#     4   9  18  38  63  92 124 161 210 271 333 377
#     4  12  23  43  66  91 127 181 219 262 326 384
#     4  10  21  37  63  96 130 165 212 273 326 394
#     4  10  20  39  63  96 129 167 217 273 332 379
#     4  10  22  41  67  94 128 165 226 277 319 396
#     4  12  23  39  64  97 136 176 221 264 323 402
#
# _framework density 23.216339999999999
#
# number of rings (size 3 to 8) (size 9 to 14) (size 15 to 20)
#    0.000    1.500    6.250    0.000    0.000    1.500 
#    2.250    2.500    5.500    0.000    0.000    0.000 
#    0.000    0.000    0.000    0.000    0.000    0.000 
#
# Total GULP energy -89395.678286 kJ/mol
# GULP energy per Si atom -5587.229893 kJ/mol
# Density = 2.316350 g / cm^3
# Si number density = 23.216340 Si / 1000 Ang^3
#
#
#
# Elastic Constant Matrix: (Units=GPa)
#
#
# Indices 1 2 3 4 5 6 
#
# 1 92.8558 33.4643 17.9108 3.4482 4.8038 11.7815
# 2 33.4643 158.3981 45.5403 17.2903 12.2375 19.1422
# 3 17.9108 45.5403 72.5960 -1.1431 -5.3721 15.7541
# 4 3.4482 17.2903 -1.1431 40.8344 15.8635 1.5504
# 5 4.8038 12.2375 -5.3721 15.8635 17.7501 3.7061
# 6 11.7815 19.1422 15.7541 1.5504 3.7061 41.9374
#
#
#
# Elastic Compliance Matrix: (Units=1/GPa)
#
#
# Indices 1 2 3 4 5 6 
#
# 1 0.012063 -0.001699 -0.001751 0.000914 -0.003082 -0.001717
# 2 -0.001699 0.008973 -0.005446 -0.001511 -0.005815 -0.001003
# 3 -0.001751 -0.005446 0.019756 -0.001833 0.013000 -0.005524
# 4 0.000914 -0.001511 -0.001833 0.038337 -0.034599 0.002762
# 5 -0.003082 -0.005815 0.013000 -0.034599 0.097860 -0.008733
# 6 -0.001717 -0.001003 -0.005524 0.002762 -0.008733 0.027530
#
#
# Mechanical properties :
#
#
# Convention : Reuss Voigt Hill
#
# Bulk Modulus (GPa) = 43.48200 57.52007 50.50104
# Shear Modulus (GPa) = 21.74111 35.23335 28.48723
#
# Velocity S-wave (km/s) = 3.06348 3.89988 3.50670
# Velocity P-wave (km/s) = 5.59311 6.71626 6.18026
#
# Compressibility (1/GPa) = 0.02299802
#
# Stress axis : x y z
#
# Youngs Moduli (GPa) = 82.89897 111.43925 50.61873
#
# Poissons Ratio (x) = 0.18936 0.08865
# Poissons Ratio (y) = 0.14086 0.27569
# Poissons Ratio (z) = 0.14518 0.60695
#
# Static dielectric constant tensor:
#      x y z
#    x 1.920020 -0.035510 -0.024100 
#    y -0.035510 1.898750 0.020700 
#    z -0.024100 0.020700 1.729380 
# 
# From -- ./inp_files/391396.got.cif
#   From: 2010.05.17/outbox.cif.g08.bks.cpg/sg2_196_cif.got.tgz:391396.got - 2010.06.03 11:33:40.
