data_PCOD9089671
_publ_section_title
;
Structure prediction by ZEFSAII (Michael W. Deem and Ramdas Pophale) SiO2 
 PCOD9089671
Probable space group: P -1
;
_chemical_formula_sum "Si O2"
_cell_formula_units_Z 14
_cell_length_a 9.470763
_cell_length_b 11.809533
_cell_length_c 11.362079
_cell_angle_alpha 132.591880
_cell_angle_beta 42.033928
_cell_angle_gamma 132.744427
_cell_volume 585.099464
_symmetry_space_group_name_H-M "P -1"
_symmetry_group_IT_number 2
_symmetry_cell_setting 'triclinic'
loop_
_space_group_symop_operation_xyz
x,y,z
-x,-y,-z
loop_
_atom_site_type_symbol
_atom_site_label
_atom_site_fract_x
_atom_site_fract_y
_atom_site_fract_z
Si Si1 0.529026 0.351036 0.122665
Si Si2 0.184298 0.307228 0.530438
Si Si3 0.107871 0.176653 0.120604
Si Si4 0.126911 0.631034 0.725533
Si Si5 0.730902 0.149678 0.986205
Si Si6 0.433756 0.308045 0.624094
Si Si7 0.097635 0.976639 0.629875
O O1 0.367743 0.327495 0.324277
O O2 0.366350 0.233839 0.043323
O O3 0.727718 0.289834 0.995646
O O4 0.608218 0.543368 0.177142
O O5 0.095621 0.457858 0.682315
O O6 0.315901 0.307629 0.569375
O O7 0.973966 0.139369 0.520665
O O8 0.074933 0.320577 0.165783
O O9 0.963217 0.146166 0.308859
O O10 0.000000 0.000000 0.000000
O O11 0.253969 0.772715 0.839964
O O12 0.300551 0.641297 0.520424
O O13 0.929587 0.079350 0.806055
O O14 0.500000 0.000000 0.000000
O O15 0.335131 0.121367 0.596871
#
# Coordination Sequence:
#
# PCOD9089671 Si02
#       7
#     2   2   2   2   2   2   2
#     4  10  20  36  63  88 117 154 206 238 290 352
#     4  10  19  38  60  89 116 155 199 241 289 356
#     4  11  22  40  60  88 118 160 202 241 284 363
#     4  11  21  38  67  80 119 160 201 234 297 352
#     4  12  18  37  63  90 108 160 204 243 281 348
#     4  11  21  38  59  94 122 150 191 259 297 343
#     4  11  24  35  62  91 126 147 198 250 302 340
#
# _framework density 23.927557
#
# number of rings (size 3 to 8) (size 9 to 14) (size 15 to 20)
#    0.000    1.143    7.143    1.286    0.000    6.286 
#    0.000    0.714    0.000    0.000    0.000    0.000 
#    0.000    0.000    0.000    0.000    0.000    0.000 
#
# Total GULP energy -78287.695580 kJ/mol
# GULP energy per Si atom -5591.978256 kJ/mol
# Density = 2.387310 g / cm^3
# Si number density = 23.927557 Si / 1000 Ang^3
#
#
#
# Elastic Constant Matrix: (Units=GPa)
#
#
# Indices 1 2 3 4 5 6 
#
# 1 84.0039 -10.8379 9.3881 9.1270 -1.5195 -15.9215
# 2 -10.8379 80.9372 5.6675 13.5950 6.5181 -0.5509
# 3 9.3881 5.6675 48.9936 25.1692 -2.0687 -11.4225
# 4 9.1270 13.5950 25.1692 39.1029 1.3116 4.0096
# 5 -1.5195 6.5181 -2.0687 1.3116 26.9470 15.3818
# 6 -15.9215 -0.5509 -11.4225 4.0096 15.3818 29.4726
#
#
#
# Elastic Compliance Matrix: (Units=1/GPa)
#
#
# Indices 1 2 3 4 5 6 
#
# 1 0.015919 0.004235 0.004945 -0.009766 -0.008657 0.016442
# 2 0.004235 0.014989 0.004465 -0.009816 -0.008236 0.009932
# 3 0.004945 0.004465 0.042243 -0.032580 -0.013417 0.030561
# 4 -0.009766 -0.009816 -0.032580 0.055181 0.016018 -0.033953
# 5 -0.008657 -0.008236 -0.013417 0.016018 0.062348 -0.044750
# 6 0.016442 0.009932 0.030561 -0.033953 -0.044750 0.082816
#
#
# Mechanical properties :
#
#
# Convention : Reuss Voigt Hill
#
# Bulk Modulus (GPa) = 9.95614 24.70777 17.33195
# Shear Modulus (GPa) = 17.87715 33.08562 25.48138
#
# Velocity S-wave (km/s) = 2.73635 3.72256 3.26688
# Velocity P-wave (km/s) = 3.76210 5.36890 4.63565
#
# Compressibility (1/GPa) = 0.10044053
#
# Stress axis : x y z
#
# Youngs Moduli (GPa) = 62.81898 66.71397 23.67270
#
# Poissons Ratio (x) = -0.28253 -0.11705
# Poissons Ratio (y) = -0.26603 -0.10570
# Poissons Ratio (z) = -0.31062 -0.29790
#
# Static dielectric constant tensor:
#      x y z
#    x 1.908640 0.003450 0.017320 
#    y 0.003450 1.998590 -0.037520 
#    z 0.017320 -0.037520 1.959060 
# 
# From -- ./inp_files/157334.got.cif
#   From: 2010.05.17/outbox.cif.g08.bks.cpg/sg2_79_cif.got.tgz:157334.got - 2010.06.03 11:33:40.
