data_PCOD9089289
_publ_section_title
;
Structure prediction by ZEFSAII (Michael W. Deem and Ramdas Pophale) SiO2 
 PCOD9089289
Probable space group: P -1
;
_chemical_formula_sum "Si O2"
_cell_formula_units_Z 16
_cell_length_a 9.393475
_cell_length_b 29.093827
_cell_length_c 5.089412
_cell_angle_alpha 74.456979
_cell_angle_beta 105.055769
_cell_angle_gamma 149.679314
_cell_volume 675.341704
_symmetry_space_group_name_H-M "P -1"
_symmetry_group_IT_number 2
_symmetry_cell_setting 'triclinic'
loop_
_space_group_symop_operation_xyz
x,y,z
-x,-y,-z
loop_
_atom_site_type_symbol
_atom_site_label
_atom_site_fract_x
_atom_site_fract_y
_atom_site_fract_z
Si Si1 0.813133 0.493252 0.831083
Si Si2 0.298014 0.437168 0.250197
Si Si3 0.387711 0.199452 0.212509
Si Si4 0.313958 0.237335 0.643864
Si Si5 0.679544 0.088048 0.606474
Si Si6 0.539900 0.615954 0.674627
Si Si7 0.772190 0.984721 0.222570
Si Si8 0.478364 0.124337 0.234364
O O1 0.910830 0.574946 0.812661
O O2 0.725896 0.466982 0.523680
O O3 0.541467 0.411955 0.016578
O O4 0.000000 0.500000 0.000000
O O5 0.500000 0.500000 0.500000
O O6 0.233608 0.362910 0.321003
O O7 0.500000 0.500000 0.000000
O O8 0.376737 0.217285 0.471879
O O9 0.568784 0.201881 0.243186
O O10 0.460698 0.260203 0.944343
O O11 0.068877 0.092094 0.158341
O O12 0.390025 0.310511 0.466756
O O13 0.985158 0.151125 0.691688
O O14 0.490560 0.050621 0.823263
O O15 0.699127 0.142653 0.362547
O O16 0.500000 0.000000 0.500000
O O17 0.663969 0.918463 0.052017
O O18 0.238455 0.041516 0.454143
#
# Coordination Sequence:
#
# PCOD9089289 Si02
#       8
#     2   2   2   2   2   2   2   2
#     4  10  19  37  67  94 115 147 190 239 275 342
#     4   8  16  32  59  84 117 145 182 221 269 339
#     4  12  22  38  57  82 112 159 198 247 306 352
#     4  12  25  37  59  81 124 162 192 244 299 350
#     4  10  22  38  58  84 111 152 209 252 293 339
#     4  10  21  39  55  91 122 155 189 226 294 353
#     4  10  20  35  60  81 106 140 212 261 299 336
#     4  10  22  36  58  79 108 140 202 268 303 340
#
# _framework density 23.691713
#
# number of rings (size 3 to 8) (size 9 to 14) (size 15 to 20)
#    0.750    1.000    1.250    4.125    1.750    1.000 
#    0.000    2.500    0.000    0.000    0.000    0.000 
#    0.000    0.000    0.000    0.000    0.000    0.000 
#
# Total GULP energy -89268.710432 kJ/mol
# GULP energy per Si atom -5579.294402 kJ/mol
# Density = 2.363779 g / cm^3
# Si number density = 23.691713 Si / 1000 Ang^3
#
#
#
# Elastic Constant Matrix: (Units=GPa)
#
#
# Indices 1 2 3 4 5 6 
#
# 1 140.6145 24.3571 21.6824 11.5172 9.7726 -29.7551
# 2 24.3571 42.3477 -1.5995 -6.9796 6.2055 -17.5441
# 3 21.6824 -1.5995 86.5322 -2.7677 -1.9418 1.3847
# 4 11.5172 -6.9796 -2.7677 25.5136 -12.2647 13.9126
# 5 9.7726 6.2055 -1.9418 -12.2647 44.0299 -4.5347
# 6 -29.7551 -17.5441 1.3847 13.9126 -4.5347 30.4405
#
#
#
# Elastic Compliance Matrix: (Units=1/GPa)
#
#
# Indices 1 2 3 4 5 6 
#
# 1 0.016978 -0.002077 -0.005810 -0.027804 -0.008688 0.027077
# 2 -0.002077 0.031773 0.000795 -0.000122 -0.002374 0.015948
# 3 -0.005810 0.000795 0.013680 0.012162 0.004057 -0.010798
# 4 -0.027804 -0.000122 0.012162 0.106200 0.028888 -0.072036
# 5 -0.008688 -0.002374 0.004057 0.028888 0.031286 -0.018588
# 6 0.027077 0.015948 -0.010798 -0.072036 -0.018588 0.099156
#
#
# Mechanical properties :
#
#
# Convention : Reuss Voigt Hill
#
# Bulk Modulus (GPa) = 20.72617 39.81938 30.27278
# Shear Modulus (GPa) = 15.18192 35.00043 25.09117
#
# Velocity S-wave (km/s) = 2.53417 3.84777 3.25787
# Velocity P-wave (km/s) = 4.16293 6.04849 5.19202
#
# Compressibility (1/GPa) = 0.04824817
#
# Stress axis : x y z
#
# Youngs Moduli (GPa) = 58.89964 31.47290 73.10071
#
# Poissons Ratio (x) = 0.06536 0.42472
# Poissons Ratio (y) = 0.12231 -0.05814
# Poissons Ratio (z) = 0.34221 -0.02503
#
# Static dielectric constant tensor:
#      x y z
#    x 1.717990 -0.091960 0.022510 
#    y -0.091960 1.876760 -0.057770 
#    z 0.022510 -0.057770 1.851700 
# 
# From -- ./inp_files/56370.got.cif
#   From: 2010.05.17/outbox.cif.g08.bks.cpg/sg2_29_cif.got.tgz:56370.got - 2010.06.03 11:33:40.
