data_PCOD9089064
_publ_section_title
;
Structure prediction by ZEFSAII (Michael W. Deem and Ramdas Pophale) SiO2 
 PCOD9089064
Probable space group: P -1
;
_chemical_formula_sum "Si O2"
_cell_formula_units_Z 15
_cell_length_a 11.852940
_cell_length_b 14.235189
_cell_length_c 10.332985
_cell_angle_alpha 129.507142
_cell_angle_beta 142.330883
_cell_angle_gamma 33.007598
_cell_volume 578.395817
_symmetry_space_group_name_H-M "P -1"
_symmetry_group_IT_number 2
_symmetry_cell_setting 'triclinic'
loop_
_space_group_symop_operation_xyz
x,y,z
-x,-y,-z
loop_
_atom_site_type_symbol
_atom_site_label
_atom_site_fract_x
_atom_site_fract_y
_atom_site_fract_z
Si Si1 0.751833 0.950225 0.945605
Si Si2 0.500000 0.500000 0.000000
Si Si3 0.735361 0.925315 0.469503
Si Si4 0.738101 0.540684 0.791358
Si Si5 0.899534 0.434324 0.116897
Si Si6 0.272958 0.941778 0.695368
Si Si7 0.295826 0.799249 0.205218
Si Si8 0.190585 0.552990 0.497517
O O1 0.006384 0.904898 0.089245
O O2 0.694118 0.011407 0.094650
O O3 0.851586 0.764811 0.867049
O O4 0.490313 0.071991 0.728641
O O5 0.243828 0.557216 0.885259
O O6 0.655999 0.288985 0.963469
O O7 0.022667 0.733337 0.574845
O O8 0.724035 0.974175 0.352402
O O9 0.673549 0.072296 0.628448
O O10 0.500561 0.736735 0.707519
O O11 0.773423 0.432286 0.608989
O O12 0.710563 0.510507 0.886637
O O13 0.000000 0.500000 0.000000
O O14 0.009457 0.517471 0.308453
O O15 0.000000 0.000000 0.500000
O O16 0.532730 0.610307 0.327438
#
# Coordination Sequence:
#
# PCOD9089064 Si02
#       8
#     2   1   2   2   2   2   2   2
#     4  11  21  40  67  96 141 185 223 288 346 414
#     4  10  26  46  74  94 142 194 236 300 342 414
#     4  12  23  43  70 103 147 182 228 291 360 421
#     4  10  19  37  65 103 142 172 229 284 345 430
#     4  10  21  42  69 100 138 188 237 284 354 412
#     4  12  22  37  63 103 149 183 222 285 356 428
#     4  11  24  49  68 104 137 184 245 283 357 416
#     4  11  22  43  73 110 140 178 234 293 356 430
#
# _framework density 25.933796999999998
#
# number of rings (size 3 to 8) (size 9 to 14) (size 15 to 20)
#    0.000    1.067    4.000    3.600    0.000    2.667 
#    4.800    6.000    2.933    0.000    0.000    0.000 
#    0.000    0.000    0.000    0.000    0.000    0.000 
#
# Total GULP energy -83788.260669 kJ/mol
# GULP energy per Si atom -5585.884045 kJ/mol
# Density = 2.587477 g / cm^3
# Si number density = 25.933797 Si / 1000 Ang^3
#
#
#
# Elastic Constant Matrix: (Units=GPa)
#
#
# Indices 1 2 3 4 5 6 
#
# 1 59.9168 33.2767 29.9912 -40.6619 25.3577 15.8111
# 2 33.2767 155.9924 58.4942 14.8705 -17.6184 -27.4938
# 3 29.9912 58.4942 151.2397 -14.9168 11.2470 -0.8762
# 4 -40.6619 14.8705 -14.9168 10.0002 15.2098 25.1835
# 5 25.3577 -17.6184 11.2470 15.2098 24.9997 -12.7198
# 6 15.8111 -27.4938 -0.8762 25.1835 -12.7198 -3.5097
#
#
#
# Elastic Compliance Matrix: (Units=1/GPa)
#
#
# Indices 1 2 3 4 5 6 
#
# 1 0.011113 0.001863 -0.003141 -0.002478 0.000830 0.015466
# 2 0.001863 0.005810 -0.002148 0.004259 -0.000874 -0.002859
# 3 -0.003141 -0.002148 0.008112 -0.000322 -0.000923 0.001688
# 4 -0.002478 0.004259 -0.000322 0.013692 0.008686 0.022319
# 5 0.000830 -0.000874 -0.000923 0.008686 0.024926 -0.017193
# 6 0.015466 -0.002859 0.001688 0.022319 -0.017193 0.029180
#
#
# Mechanical properties :
#
#
# Convention : Reuss Voigt Hill
#
# Bulk Modulus (GPa) = 54.99459 67.85258 61.42358
# Shear Modulus (GPa) = 47.28306 22.65715 34.97010
#
# Velocity S-wave (km/s) = 4.27455 2.95897 3.67609
# Velocity P-wave (km/s) = 6.75383 6.15586 6.46176
#
# Compressibility (1/GPa) = 0.01818361
#
# Stress axis : x y z
#
# Youngs Moduli (GPa) = 89.98363 172.11350 123.26942
#
# Poissons Ratio (x) = -0.32063 0.38717
# Poissons Ratio (y) = -0.16763 0.26479
# Poissons Ratio (z) = 0.28262 0.36971
#
# Static dielectric constant tensor:
#      x y z
#    x 2.087540 -0.057290 -0.040900 
#    y -0.057290 2.047570 0.110110 
#    z -0.040900 0.110110 1.997000 
# 
# From -- ./inp_files/433269.got.cif
#   From: 2010.05.17/outbox.cif.g08.bks.cpg/sg2_217_cif.got.tgz:433269.got - 2010.06.03 11:33:40.
