data_PCOD9089821
_publ_section_title
;
Structure prediction by ZEFSAII (Michael W. Deem and Ramdas Pophale) SiO2 
 PCOD9089821
Probable space group: P -1
;
_chemical_formula_sum "Si O2"
_cell_formula_units_Z 15
_cell_length_a 8.631192
_cell_length_b 10.418608
_cell_length_c 8.985521
_cell_angle_alpha 118.542880
_cell_angle_beta 122.237403
_cell_angle_gamma 72.602375
_cell_volume 599.334806
_symmetry_space_group_name_H-M "P -1"
_symmetry_group_IT_number 2
_symmetry_cell_setting 'triclinic'
loop_
_space_group_symop_operation_xyz
x,y,z
-x,-y,-z
loop_
_atom_site_type_symbol
_atom_site_label
_atom_site_fract_x
_atom_site_fract_y
_atom_site_fract_z
Si Si1 0.367368 0.898646 0.467426
Si Si2 0.450550 0.321682 0.119514
Si Si3 0.000000 0.000000 0.500000
Si Si4 0.147431 0.737357 0.573199
Si Si5 0.658544 0.235137 0.924507
Si Si6 0.041634 0.314272 0.271844
Si Si7 0.841774 0.466545 0.783642
Si Si8 0.323219 0.100395 0.152327
O O1 0.331377 0.782869 0.256386
O O2 0.499377 0.844573 0.638645
O O3 0.189619 0.987913 0.487647
O O4 0.500000 0.000000 0.500000
O O5 0.655508 0.311102 0.286367
O O6 0.344085 0.469138 0.201351
O O7 0.340109 0.184704 0.050369
O O8 0.478644 0.311628 0.950947
O O9 0.111714 0.911223 0.643290
O O10 0.987450 0.678936 0.563114
O O11 0.130306 0.692360 0.365351
O O12 0.669986 0.074442 0.922855
O O13 0.837119 0.317038 0.104619
O O14 0.143954 0.438412 0.308392
O O15 0.146222 0.165405 0.186249
O O16 0.000000 0.500000 0.000000
#
# Coordination Sequence:
#
# PCOD9089821 Si02
#       8
#     2   2   1   2   2   2   2   2
#     4  10  22  39  61  99 139 175 222 273 343 400
#     4  10  22  42  65  93 130 178 224 267 342 406
#     4  12  24  40  76 104 138 174 228 284 348 404
#     4  11  23  45  68  98 133 178 228 274 345 411
#     4  10  21  38  62  97 134 168 220 278 335 402
#     4  10  23  42  66  95 132 180 227 276 348 402
#     4  11  26  44  67  96 133 178 231 283 335 406
#     4  10  19  38  61  95 133 173 217 269 338 408
#
# _framework density 25.027744999999999
#
# number of rings (size 3 to 8) (size 9 to 14) (size 15 to 20)
#    0.000    1.600    1.333    3.200    1.867    4.267 
#    9.600    2.667    0.000    0.000    0.000    0.000 
#    0.000    0.000    0.000    0.000    0.000    0.000 
#
# Total GULP energy -83582.202455 kJ/mol
# GULP energy per Si atom -5572.146830 kJ/mol
# Density = 2.497078 g / cm^3
# Si number density = 25.027745 Si / 1000 Ang^3
#
#
#
# Elastic Constant Matrix: (Units=GPa)
#
#
# Indices 1 2 3 4 5 6 
#
# 1 153.5528 25.5050 26.2098 3.3925 -57.0962 -29.4262
# 2 25.5050 38.9829 -15.6155 -12.2389 -0.4579 -2.1407
# 3 26.2098 -15.6155 62.8338 -7.0929 -24.5282 -2.5845
# 4 3.3925 -12.2389 -7.0929 22.9695 -0.6489 8.7054
# 5 -57.0962 -0.4579 -24.5282 -0.6489 48.6286 3.9412
# 6 -29.4262 -2.1407 -2.5845 8.7054 3.9412 33.8249
#
#
#
# Elastic Compliance Matrix: (Units=1/GPa)
#
#
# Indices 1 2 3 4 5 6 
#
# 1 0.033551 -0.040228 -0.016912 -0.043493 0.027199 0.033374
# 2 -0.040228 0.090104 0.037755 0.081979 -0.022611 -0.044874
# 3 -0.016912 0.037755 0.036698 0.041712 0.001218 -0.020397
# 4 -0.043493 0.081979 0.041712 0.128587 -0.022684 -0.059913
# 5 0.027199 -0.022611 0.001218 -0.022684 0.050795 0.022243
# 6 0.033374 -0.044874 -0.020397 -0.059913 0.022243 0.067028
#
#
# Mechanical properties :
#
#
# Convention : Reuss Voigt Hill
#
# Bulk Modulus (GPa) = 8.22499 36.39648 22.31073
# Shear Modulus (GPa) = 10.28678 35.70261 22.99470
#
# Velocity S-wave (km/s) = 2.02955 3.78103 3.03441
# Velocity P-wave (km/s) = 2.96405 5.79962 4.60550
#
# Compressibility (1/GPa) = 0.12158075
#
# Stress axis : x y z
#
# Youngs Moduli (GPa) = 29.80523 11.09835 27.24973
#
# Poissons Ratio (x) = 0.44647 0.46085
# Poissons Ratio (y) = 1.19902 -1.02881
# Poissons Ratio (z) = 0.50407 -0.41902
#
# Static dielectric constant tensor:
#      x y z
#    x 2.007180 0.072020 -0.023340 
#    y 0.072020 1.981310 0.112770 
#    z -0.023340 0.112770 2.104370 
# 
# From -- ./inp_files/190271.got.cif
#   From: 2010.05.17/outbox.cif.g08.bks.cpg/sg2_96_cif.got.tgz:190271.got - 2010.06.03 11:33:40.
