data_PCOD9089449
_publ_section_title
;
Structure prediction by ZEFSAII (Michael W. Deem and Ramdas Pophale) SiO2 
 PCOD9089449
Probable space group: P -1
;
_chemical_formula_sum "Si O2"
_cell_formula_units_Z 16
_cell_length_a 11.763756
_cell_length_b 18.604909
_cell_length_c 12.727802
_cell_angle_alpha 37.035874
_cell_angle_beta 114.222515
_cell_angle_gamma 141.461206
_cell_volume 858.530598
_symmetry_space_group_name_H-M "P -1"
_symmetry_group_IT_number 2
_symmetry_cell_setting 'triclinic'
loop_
_space_group_symop_operation_xyz
x,y,z
-x,-y,-z
loop_
_atom_site_type_symbol
_atom_site_label
_atom_site_fract_x
_atom_site_fract_y
_atom_site_fract_z
Si Si1 0.833378 0.930847 0.790089
Si Si2 0.711534 0.809208 0.297925
Si Si3 0.309958 0.452301 0.832612
Si Si4 0.628803 0.179940 0.924331
Si Si5 0.782642 0.904913 0.558013
Si Si6 0.234900 0.480561 0.548853
Si Si7 0.752416 0.988525 0.901906
Si Si8 0.130595 0.857175 0.868434
O O1 0.777164 0.919822 0.662784
O O2 0.733251 0.932892 0.840056
O O3 0.748254 0.728201 0.013919
O O4 0.102239 0.137859 0.661198
O O5 0.452891 0.575926 0.488130
O O6 0.764415 0.968395 0.206625
O O7 0.749759 0.876742 0.113596
O O8 0.560606 0.661546 0.721147
O O9 0.259393 0.502525 0.658861
O O10 0.133113 0.339360 0.988212
O O11 0.795378 0.218521 0.994910
O O12 0.448735 0.088605 0.044315
O O13 0.736867 0.374743 0.673760
O O14 0.500000 0.000000 0.000000
O O15 0.795326 0.033603 0.342622
O O16 0.000000 0.000000 0.500000
O O17 0.993685 0.238436 0.716133
#
# Coordination Sequence:
#
# PCOD9089449 Si02
#       8
#     2   2   2   2   2   2   2   2
#     4  11  23  39  59  86 129 155 187 250 289 355
#     4  10  19  38  55  90 121 149 190 241 295 349
#     4  11  21  37  62  93 114 152 199 239 301 341
#     4  11  21  40  58  85 123 153 199 247 284 350
#     4  12  22  41  62  91 117 152 203 239 291 347
#     4  11  20  35  61  91 116 157 192 237 307 346
#     4  11  23  39  56  91 125 154 193 237 305 352
#     4  11  21  38  60  87 118 152 197 252 281 338
#
# _framework density 18.636493999999999
#
# number of rings (size 3 to 8) (size 9 to 14) (size 15 to 20)
#    0.000    1.000    8.750    0.750    0.000    3.500 
#    6.750    0.625    0.000    1.500    0.000    0.000 
#    0.000    0.000    0.000    0.000    0.000    0.000 
#
# Total GULP energy -89341.809016 kJ/mol
# GULP energy per Si atom -5583.863064 kJ/mol
# Density = 1.859408 g / cm^3
# Si number density = 18.636494 Si / 1000 Ang^3
#
#
#
# Elastic Constant Matrix: (Units=GPa)
#
#
# Indices 1 2 3 4 5 6 
#
# 1 75.6288 32.0463 23.5020 6.2327 -8.9708 -7.8916
# 2 32.0463 74.4188 28.4942 13.0951 -9.9133 -7.4537
# 3 23.5020 28.4942 96.0959 6.5633 -17.5831 -1.5338
# 4 6.2327 13.0951 6.5633 38.6758 6.9615 -14.6811
# 5 -8.9708 -9.9133 -17.5831 6.9615 18.9414 6.9186
# 6 -7.8916 -7.4537 -1.5338 -14.6811 6.9186 24.3690
#
#
#
# Elastic Compliance Matrix: (Units=1/GPa)
#
#
# Indices 1 2 3 4 5 6 
#
# 1 0.016917 -0.006104 -0.002109 0.000873 0.001201 0.003664
# 2 -0.006104 0.019229 -0.001785 -0.008771 0.010358 -0.004432
# 3 -0.002109 -0.001785 0.015787 -0.010188 0.020969 -0.012326
# 4 0.000873 -0.008771 -0.010188 0.057117 -0.051416 0.045966
# 5 0.001201 0.010358 0.020969 -0.051416 0.119022 -0.059890
# 6 0.003664 -0.004432 -0.012326 0.045966 -0.059890 0.084786
#
#
# Mechanical properties :
#
#
# Convention : Reuss Voigt Hill
#
# Bulk Modulus (GPa) = 31.31202 46.02538 38.66870
# Shear Modulus (GPa) = 14.55603 27.20400 20.88002
#
# Velocity S-wave (km/s) = 2.79776 3.82477 3.35084
# Velocity P-wave (km/s) = 5.22250 6.65245 5.98037
#
# Compressibility (1/GPa) = 0.03193662
#
# Stress axis : x y z
#
# Youngs Moduli (GPa) = 59.11184 52.00536 63.34239
#
# Poissons Ratio (x) = 0.31745 0.13358
# Poissons Ratio (y) = 0.36083 0.11308
# Poissons Ratio (z) = 0.12466 0.09284
#
# Static dielectric constant tensor:
#      x y z
#    x 1.658160 0.000240 -0.000830 
#    y 0.000240 1.649520 0.000600 
#    z -0.000830 0.000600 1.667950 
# 
# From -- ./inp_files/437245.got.cif
#   From: 2010.05.17/outbox.cif.g08.bks.cpg/sg2_219_cif.got.tgz:437245.got - 2010.06.03 11:33:40.
