data_PCOD9089704
_publ_section_title
;
Structure prediction by ZEFSAII (Michael W. Deem and Ramdas Pophale) SiO2 
 PCOD9089704
Probable space group: P -1
;
_chemical_formula_sum "Si O2"
_cell_formula_units_Z 14
_cell_length_a 8.575478
_cell_length_b 16.262316
_cell_length_c 9.286738
_cell_angle_alpha 74.666620
_cell_angle_beta 59.856401
_cell_angle_gamma 39.317523
_cell_volume 691.198996
_symmetry_space_group_name_H-M "P -1"
_symmetry_group_IT_number 2
_symmetry_cell_setting 'triclinic'
loop_
_space_group_symop_operation_xyz
x,y,z
-x,-y,-z
loop_
_atom_site_type_symbol
_atom_site_label
_atom_site_fract_x
_atom_site_fract_y
_atom_site_fract_z
Si Si1 0.624490 0.628919 0.457245
Si Si2 0.252700 0.806319 0.786593
Si Si3 0.108432 0.545280 0.847134
Si Si4 0.691714 0.786966 0.697457
Si Si5 0.818547 0.343680 0.990221
Si Si6 0.680996 0.956598 0.073639
Si Si7 0.059234 0.611501 0.358289
O O1 0.326430 0.762120 0.605040
O O2 0.642962 0.577191 0.318360
O O3 0.836339 0.632807 0.364994
O O4 0.764094 0.513288 0.560456
O O5 0.455354 0.806335 0.745466
O O6 0.925305 0.934508 0.919180
O O7 0.330671 0.691170 0.888881
O O8 0.875924 0.673413 0.789544
O O9 0.000000 0.500000 0.000000
O O10 0.186085 0.588071 0.908666
O O11 0.526783 0.927798 0.768154
O O12 0.888692 0.732114 0.493676
O O13 0.757423 0.406450 0.835802
O O14 0.142836 0.190689 0.895073
O O15 0.500000 0.000000 0.000000
#
# Coordination Sequence:
#
# PCOD9089704 Si02
#       7
#     2   2   2   2   2   2   2
#     4   9  18  34  54  79 116 145 179 219 275 332
#     4   9  21  34  57  83 107 147 184 229 271 315
#     4  11  20  34  60  83 111 150 179 219 280 330
#     4  10  19  38  61  78 109 149 184 220 276 328
#     4  10  21  34  55  87 108 143 185 226 270 319
#     4  10  20  38  58  79 111 145 187 226 273 327
#     4   9  18  33  55  83 108 147 180 221 272 329
#
# _framework density 20.254659
#
# number of rings (size 3 to 8) (size 9 to 14) (size 15 to 20)
#    0.857    1.429    2.857    1.286    0.000    1.714 
#    0.000    0.000    0.000    4.286    0.000    0.000 
#    0.000    0.000    0.000    0.000    0.000    0.000 
#
# Total GULP energy -78036.156661 kJ/mol
# GULP energy per Si atom -5574.011190 kJ/mol
# Density = 2.020856 g / cm^3
# Si number density = 20.254659 Si / 1000 Ang^3
#
#
#
# Elastic Constant Matrix: (Units=GPa)
#
#
# Indices 1 2 3 4 5 6 
#
# 1 50.1600 4.5282 20.4955 7.7603 17.5918 6.7308
# 2 4.5282 45.2646 5.3175 19.0588 23.3092 10.2993
# 3 20.4955 5.3175 114.2904 19.6385 17.6493 16.3280
# 4 7.7603 19.0588 19.6385 41.3344 9.4937 3.2630
# 5 17.5918 23.3092 17.6493 9.4937 27.5177 7.7795
# 6 6.7308 10.2993 16.3280 3.2630 7.7795 30.1534
#
#
#
# Elastic Compliance Matrix: (Units=1/GPa)
#
#
# Indices 1 2 3 4 5 6 
#
# 1 0.030196 0.015208 -0.000123 -0.005643 -0.029100 -0.003750
# 2 0.015208 0.058962 0.008131 -0.020461 -0.054527 -0.011654
# 3 -0.000123 0.008131 0.011980 -0.006525 -0.010602 -0.005795
# 4 -0.005643 -0.020461 -0.006525 0.034696 0.011741 0.004998
# 5 -0.029100 -0.054527 -0.010602 0.011741 0.103030 0.003009
# 6 -0.003750 -0.011654 -0.005795 0.004998 0.003009 0.039802
#
#
# Mechanical properties :
#
#
# Convention : Reuss Voigt Hill
#
# Bulk Modulus (GPa) = 6.77656 30.04416 18.41036
# Shear Modulus (GPa) = 17.76679 31.75936 24.76308
#
# Velocity S-wave (km/s) = 2.96492 3.96410 3.50034
# Velocity P-wave (km/s) = 3.88252 5.98477 5.04438
#
# Compressibility (1/GPa) = 0.14756747
#
# Stress axis : x y z
#
# Youngs Moduli (GPa) = 33.11744 16.96015 83.47331
#
# Poissons Ratio (x) = -0.25793 0.01031
# Poissons Ratio (y) = -0.50365 -0.67870
# Poissons Ratio (z) = 0.00409 -0.13790
#
# Static dielectric constant tensor:
#      x y z
#    x 1.701890 -0.018320 -0.027690 
#    y -0.018320 1.796300 0.054570 
#    z -0.027690 0.054570 1.749580 
# 
# From -- ./inp_files/196480.got.cif
#   From: 2010.05.17/outbox.cif.g08.bks.cpg/sg2_99_cif.got.tgz:196480.got - 2010.06.03 11:33:40.
