data_PCOD9089448
_publ_section_title
;
Structure prediction by ZEFSAII (Michael W. Deem and Ramdas Pophale) SiO2 
 PCOD9089448
Probable space group: P -1
;
_chemical_formula_sum "Si O2"
_cell_formula_units_Z 14
_cell_length_a 10.760835
_cell_length_b 7.876183
_cell_length_c 9.592860
_cell_angle_alpha 134.255769
_cell_angle_beta 104.170906
_cell_angle_gamma 71.278830
_cell_volume 551.252613
_symmetry_space_group_name_H-M "P -1"
_symmetry_group_IT_number 2
_symmetry_cell_setting 'triclinic'
loop_
_space_group_symop_operation_xyz
x,y,z
-x,-y,-z
loop_
_atom_site_type_symbol
_atom_site_label
_atom_site_fract_x
_atom_site_fract_y
_atom_site_fract_z
Si Si1 0.604073 0.697872 0.082966
Si Si2 0.366584 0.538247 0.316757
Si Si3 0.927022 0.217570 0.699711
Si Si4 0.980949 0.301443 0.067096
Si Si5 0.721035 0.925044 0.004933
Si Si6 0.556624 0.867395 0.585559
Si Si7 0.264422 0.548418 0.743478
O O1 0.644224 0.735365 0.799527
O O2 0.675660 0.561932 0.156730
O O3 0.472168 0.895032 0.190419
O O4 0.580831 0.506043 0.852605
O O5 0.219303 0.691347 0.347468
O O6 0.457131 0.695521 0.501622
O O7 0.297218 0.161887 0.891182
O O8 0.002696 0.432754 0.820599
O O9 0.925022 0.184526 0.848442
O O10 0.000000 0.000000 0.500000
O O11 0.887711 0.348089 0.202325
O O12 0.128879 0.155094 0.048551
O O13 0.683407 0.215030 0.155088
O O14 0.692802 0.679170 0.480019
O O15 0.500000 0.000000 0.500000
#
# Coordination Sequence:
#
# PCOD9089448 Si02
#       7
#     2   2   2   2   2   2   2
#     4   9  20  41  59  85 117 152 201 237 291 341
#     4   9  20  39  57  88 116 152 200 241 288 350
#     4  10  20  32  65  87 113 160 196 238 298 344
#     4  10  19  38  55  89 122 149 194 244 292 350
#     4   9  21  38  64  84 118 159 193 245 291 347
#     4  10  23  35  63  88 118 156 200 242 287 354
#     4  11  20  37  62  88 118 163 189 237 305 341
#
# _framework density 25.396708
#
# number of rings (size 3 to 8) (size 9 to 14) (size 15 to 20)
#    0.857    1.429    1.429    1.286    6.000    3.429 
#    0.000    0.000    9.429    2.571    0.000    0.000 
#    0.000    0.000    0.000    0.000    0.000    0.000 
#
# Total GULP energy -78210.487200 kJ/mol
# GULP energy per Si atom -5586.463371 kJ/mol
# Density = 2.533890 g / cm^3
# Si number density = 25.396708 Si / 1000 Ang^3
#
#
#
# Elastic Constant Matrix: (Units=GPa)
#
#
# Indices 1 2 3 4 5 6 
#
# 1 97.0309 24.1166 26.7585 7.5861 -25.3199 19.4582
# 2 24.1166 99.6928 21.7712 30.4626 1.1912 14.2489
# 3 26.7585 21.7712 154.7871 20.8427 -38.8308 3.2857
# 4 7.5861 30.4626 20.8427 37.7115 -5.1011 0.3122
# 5 -25.3199 1.1912 -38.8308 -5.1011 40.3741 2.7094
# 6 19.4582 14.2489 3.2857 0.3122 2.7094 23.7821
#
#
#
# Elastic Compliance Matrix: (Units=1/GPa)
#
#
# Indices 1 2 3 4 5 6 
#
# 1 0.016586 -0.002340 0.000822 -0.000142 0.012160 -0.013665
# 2 -0.002340 0.015456 -0.001018 -0.011934 -0.003968 -0.006596
# 3 0.000822 -0.001018 0.009247 -0.003191 0.009193 -0.002346
# 4 -0.000142 -0.011934 -0.003191 0.038099 0.001536 0.007032
# 5 0.012160 -0.003968 0.009193 0.001536 0.042466 -0.013700
# 6 -0.013665 -0.006596 -0.002346 0.007032 -0.013700 0.058973
#
#
# Mechanical properties :
#
#
# Convention : Reuss Voigt Hill
#
# Bulk Modulus (GPa) = 27.61226 55.20037 41.40632
# Shear Modulus (GPa) = 25.25604 38.96452 32.11028
#
# Velocity S-wave (km/s) = 3.15693 3.92118 3.55963
# Velocity P-wave (km/s) = 4.91775 6.50256 5.76487
#
# Compressibility (1/GPa) = 0.03621580
#
# Stress axis : x y z
#
# Youngs Moduli (GPa) = 60.29359 64.69984 108.13857
#
# Poissons Ratio (x) = 0.15143 -0.08885
# Poissons Ratio (y) = 0.14111 0.11006
# Poissons Ratio (z) = -0.04954 0.06585
#
# Static dielectric constant tensor:
#      x y z
#    x 2.043310 -0.013040 0.010740 
#    y -0.013040 2.126390 -0.105360 
#    z 0.010740 -0.105360 2.022430 
# 
# From -- ./inp_files/415924.got.cif
#   From: 2010.05.17/outbox.cif.g08.bks.cpg/sg2_208_cif.got.tgz:415924.got - 2010.06.03 11:33:40.
