data_PCOD9089318
_publ_section_title
;
Structure prediction by ZEFSAII (Michael W. Deem and Ramdas Pophale) SiO2 
 PCOD9089318
Probable space group: P -1
;
_chemical_formula_sum "Si O2"
_cell_formula_units_Z 16
_cell_length_a 19.601244
_cell_length_b 9.983099
_cell_length_c 8.511319
_cell_angle_alpha 33.087873
_cell_angle_beta 46.148448
_cell_angle_gamma 40.384935
_cell_volume 582.051926
_symmetry_space_group_name_H-M "P -1"
_symmetry_group_IT_number 2
_symmetry_cell_setting 'triclinic'
loop_
_space_group_symop_operation_xyz
x,y,z
-x,-y,-z
loop_
_atom_site_type_symbol
_atom_site_label
_atom_site_fract_x
_atom_site_fract_y
_atom_site_fract_z
Si Si1 0.584450 0.160814 0.659939
Si Si2 0.072834 0.788055 0.456361
Si Si3 0.588349 0.742413 0.883607
Si Si4 0.760567 0.133699 0.098544
Si Si5 0.582727 0.182870 0.137385
Si Si6 0.186088 0.428767 0.902638
Si Si7 0.129275 0.013456 0.595397
Si Si8 0.374620 0.522422 0.487891
O O1 0.828294 0.811287 0.753031
O O2 0.500364 0.322067 0.498247
O O3 0.649024 0.312741 0.470836
O O4 0.503311 0.201433 0.890784
O O5 0.161545 0.858373 0.169238
O O6 0.127417 0.510293 0.747023
O O7 0.000000 0.000000 0.500000
O O8 0.997736 0.802047 0.417318
O O9 0.674877 0.448280 0.972976
O O10 0.503701 0.894421 0.730136
O O11 0.650451 0.867254 0.767658
O O12 0.677964 0.025485 0.265352
O O13 0.830936 0.004932 0.270072
O O14 0.500000 0.500000 0.000000
O O15 0.647659 0.251169 0.829718
O O16 0.150510 0.710624 0.788111
O O17 0.307851 0.358148 0.738919
#
# Coordination Sequence:
#
# PCOD9089318 Si02
#       8
#     2   2   2   2   2   2   2   2
#     4   9  19  36  63 104 150 192 261 311 374 444
#     4  10  23  48  78 113 150 203 260 323 394 470
#     4   9  19  37  67 108 151 201 254 313 374 460
#     4  11  21  44  74 111 159 203 252 322 398 456
#     4   9  19  37  64  99 151 199 251 304 375 455
#     4  11  24  47  77 113 152 202 260 315 397 467
#     4  11  26  46  78 114 154 193 260 331 389 461
#     4  10  19  37  67  99 147 206 249 315 372 464
#
# _framework density 27.488955000000001
#
# number of rings (size 3 to 8) (size 9 to 14) (size 15 to 20)
#    0.000    2.000    1.250    1.500    0.000    5.000 
#    0.000   11.875    2.750    0.000    0.000    0.000 
#    0.000    0.000    0.000    0.000    0.000    0.000 
#
# Total GULP energy -89277.339045 kJ/mol
# GULP energy per Si atom -5579.833690 kJ/mol
# Density = 2.742639 g / cm^3
# Si number density = 27.488955 Si / 1000 Ang^3
#
#
#
# Elastic Constant Matrix: (Units=GPa)
#
#
# Indices 1 2 3 4 5 6 
#
# 1 161.4471 62.0328 28.5522 -14.8285 12.1240 -31.0402
# 2 62.0328 103.2484 50.4088 -0.2744 9.0670 -25.8741
# 3 28.5522 50.4088 152.3792 -6.4606 37.7924 -16.4159
# 4 -14.8285 -0.2744 -6.4606 54.7203 -14.3377 9.3893
# 5 12.1240 9.0670 37.7924 -14.3377 48.3175 -16.9960
# 6 -31.0402 -25.8741 -16.4159 9.3893 -16.9960 66.4233
#
#
#
# Elastic Compliance Matrix: (Units=1/GPa)
#
#
# Indices 1 2 3 4 5 6 
#
# 1 0.008533 -0.004797 0.000339 0.001937 -0.000278 0.001858
# 2 -0.004797 0.015445 -0.004547 -0.001685 0.002613 0.003558
# 3 0.000339 -0.004547 0.009688 -0.000532 -0.007325 -0.001017
# 4 0.001937 -0.001685 -0.000532 0.020487 0.005877 -0.001275
# 5 -0.000278 0.002613 -0.007325 0.005877 0.029816 0.005876
# 6 0.001858 0.003558 -0.001017 -0.001275 0.005876 0.018741
#
#
# Mechanical properties :
#
#
# Convention : Reuss Voigt Hill
#
# Bulk Modulus (GPa) = 63.87164 77.67360 70.77262
# Shear Modulus (GPa) = 39.70174 52.29760 45.99967
#
# Velocity S-wave (km/s) = 3.80449 4.36649 4.09514
# Velocity P-wave (km/s) = 6.52569 7.33071 6.93988
#
# Compressibility (1/GPa) = 0.01565640
#
# Stress axis : x y z
#
# Youngs Moduli (GPa) = 117.18889 64.74497 103.22375
#
# Poissons Ratio (x) = 0.31061 -0.03503
# Poissons Ratio (y) = 0.56220 0.46934
# Poissons Ratio (z) = -0.03977 0.29438
#
# Static dielectric constant tensor:
#      x y z
#    x 2.290540 0.035770 -0.075490 
#    y 0.035770 2.247000 -0.062180 
#    z -0.075490 -0.062180 2.374500 
# 
# From -- ./inp_files/354734.got.cif
#   From: 2010.05.17/outbox.cif.g08.bks.cpg/sg2_178_cif.got.tgz:354734.got - 2010.06.03 11:33:40.
