data_PCOD9089663
_publ_section_title
;
Structure prediction by ZEFSAII (Michael W. Deem and Ramdas Pophale) SiO2 
 PCOD9089663
Probable space group: P -1
;
_chemical_formula_sum "Si O2"
_cell_formula_units_Z 16
_cell_length_a 26.026705
_cell_length_b 14.988016
_cell_length_c 11.603526
_cell_angle_alpha 36.427370
_cell_angle_beta 150.402917
_cell_angle_gamma 162.844499
_cell_volume 648.649650
_symmetry_space_group_name_H-M "P -1"
_symmetry_group_IT_number 2
_symmetry_cell_setting 'triclinic'
loop_
_space_group_symop_operation_xyz
x,y,z
-x,-y,-z
loop_
_atom_site_type_symbol
_atom_site_label
_atom_site_fract_x
_atom_site_fract_y
_atom_site_fract_z
Si Si1 0.818684 0.144983 0.526077
Si Si2 0.954579 0.120088 0.269236
Si Si3 0.348112 0.883952 0.959710
Si Si4 0.247322 0.585604 0.545674
Si Si5 0.415201 0.050772 0.522856
Si Si6 0.874963 0.675632 0.842775
Si Si7 0.866035 0.989095 0.582633
Si Si8 0.369858 0.142995 0.917927
O O1 0.634061 0.983017 0.249842
O O2 0.000000 0.500000 0.500000
O O3 0.869035 0.057677 0.645344
O O4 0.730533 0.025233 0.606924
O O5 0.149708 0.450094 0.369430
O O6 0.949557 0.134339 0.108516
O O7 0.752415 0.931917 0.137876
O O8 0.000000 0.000000 0.500000
O O9 0.269817 0.874058 0.931519
O O10 0.560488 0.068264 0.222866
O O11 0.184592 0.543372 0.971097
O O12 0.052057 0.304683 0.543695
O O13 0.332599 0.862308 0.445129
O O14 0.415729 0.664100 0.817597
O O15 0.653585 0.414416 0.608116
O O16 0.905691 0.863521 0.778717
O O17 0.650792 0.761938 0.326314
#
# Coordination Sequence:
#
# PCOD9089663 Si02
#       8
#     2   2   2   2   2   2   2   2
#     4  11  19  35  65  87 111 163 198 228 300 368
#     4  11  21  37  62  86 122 159 193 243 298 347
#     4   8  20  37  57  83 118 146 194 244 289 345
#     4  10  19  38  60  88 114 156 202 238 281 367
#     4   9  20  37  60  84 115 150 200 241 293 339
#     4  10  21  40  56  87 125 147 191 264 292 321
#     4  10  20  38  62  85 123 151 197 245 290 353
#     4   9  19  37  60  85 110 163 198 228 295 359
#
# _framework density 24.666627999999999
#
# number of rings (size 3 to 8) (size 9 to 14) (size 15 to 20)
#    0.750    1.500    3.750    0.375    0.000    2.000 
#    0.000    3.125    0.000    0.000    0.000    0.000 
#    0.000    0.000    0.000    0.000    0.000    0.000 
#
# Total GULP energy -89217.206483 kJ/mol
# GULP energy per Si atom -5576.075405 kJ/mol
# Density = 2.461049 g / cm^3
# Si number density = 24.666628 Si / 1000 Ang^3
#
#
#
# Elastic Constant Matrix: (Units=GPa)
#
#
# Indices 1 2 3 4 5 6 
#
# 1 161.9934 24.7411 52.4950 -18.2367 41.1832 -27.3512
# 2 24.7411 39.7007 -3.9760 -12.5145 8.7312 -19.9914
# 3 52.4950 -3.9760 81.1087 0.7529 2.2182 -1.6296
# 4 -18.2367 -12.5145 0.7529 27.9205 0.7003 9.5338
# 5 41.1832 8.7312 2.2182 0.7003 41.8286 -6.1129
# 6 -27.3512 -19.9914 -1.6296 9.5338 -6.1129 35.7759
#
#
#
# Elastic Compliance Matrix: (Units=1/GPa)
#
#
# Indices 1 2 3 4 5 6 
#
# 1 0.014264 -0.002149 -0.008956 0.007108 -0.012469 0.005272
# 2 -0.002149 0.039807 0.003702 0.010544 -0.004043 0.017269
# 3 -0.008956 0.003702 0.018125 -0.004298 0.006918 -0.001626
# 4 0.007108 0.010544 -0.004298 0.046590 -0.010193 -0.003027
# 5 -0.012469 -0.004043 0.006918 -0.010193 0.036461 -0.002530
# 6 0.005272 0.017269 -0.001626 -0.003027 -0.002530 0.041932
#
#
# Mechanical properties :
#
#
# Convention : Reuss Voigt Hill
#
# Bulk Modulus (GPa) = 17.42478 47.70255 32.56366
# Shear Modulus (GPa) = 21.63425 35.07452 28.35438
#
# Velocity S-wave (km/s) = 2.96474 3.77496 3.39411
# Velocity P-wave (km/s) = 4.33579 6.19526 5.34698
#
# Compressibility (1/GPa) = 0.05738953
#
# Stress axis : x y z
#
# Youngs Moduli (GPa) = 70.10833 25.12125 55.17198
#
# Poissons Ratio (x) = 0.05398 0.49412
# Poissons Ratio (y) = 0.15065 -0.20423
# Poissons Ratio (z) = 0.62790 -0.09299
#
# Static dielectric constant tensor:
#      x y z
#    x 1.972630 -0.031630 -0.003030 
#    y -0.031630 1.946910 0.036700 
#    z -0.003030 0.036700 2.077960 
# 
# From -- ./inp_files/544165.got.cif
#   From: 2010.05.17/outbox.cif.g08.bks.cpg/sg2_273_cif.got.tgz:544165.got - 2010.06.03 11:33:40.
