data_PCOD9089669
_publ_section_title
;
Structure prediction by ZEFSAII (Michael W. Deem and Ramdas Pophale) SiO2 
 PCOD9089669
Probable space group: P -1
;
_chemical_formula_sum "Si O2"
_cell_formula_units_Z 14
_cell_length_a 8.416573
_cell_length_b 15.847731
_cell_length_c 15.840695
_cell_angle_alpha 19.481965
_cell_angle_beta 109.551813
_cell_angle_gamma 109.500267
_cell_volume 662.909759
_symmetry_space_group_name_H-M "P -1"
_symmetry_group_IT_number 2
_symmetry_cell_setting 'triclinic'
loop_
_space_group_symop_operation_xyz
x,y,z
-x,-y,-z
loop_
_atom_site_type_symbol
_atom_site_label
_atom_site_fract_x
_atom_site_fract_y
_atom_site_fract_z
Si Si1 0.285913 0.329907 0.323964
Si Si2 0.311345 0.964760 0.962458
Si Si3 0.327078 0.605985 0.601951
Si Si4 0.184615 0.135793 0.131052
Si Si5 0.387632 0.240917 0.240027
Si Si6 0.692783 0.499144 0.500843
Si Si7 0.815792 0.133319 0.139753
O O1 0.479584 0.362294 0.360680
O O2 0.286657 0.276640 0.274850
O O3 0.200700 0.091569 0.583636
O O4 0.202809 0.592540 0.081824
O O5 0.325143 0.915878 0.911554
O O6 0.226144 0.225259 0.721481
O O7 0.226240 0.723825 0.222738
O O8 0.500000 0.000000 0.000000
O O9 0.316387 0.552619 0.550819
O O10 0.242584 0.868393 0.359580
O O11 0.239975 0.367110 0.861237
O O12 0.275130 0.189257 0.186605
O O13 0.987287 0.125045 0.125763
O O14 0.500000 0.000000 0.500000
O O15 0.500000 0.500000 0.000000
O O16 0.500000 0.500000 0.500000
#
# Coordination Sequence:
#
# PCOD9089669 Si02
#       7
#     2   2   2   2   2   2   2
#     4  12  23  41  72  97 127 180 234 264 320 408
#     4  10  19  38  60  88 130 166 210 273 313 378
#     4  12  23  43  71  98 129 185 225 263 339 400
#     4  12  26  45  65  99 144 170 213 288 337 396
#     4  12  23  45  68 100 132 172 226 271 329 394
#     4  10  20  36  62  94 122 161 222 279 303 373
#     4  12  26  42  66 104 136 173 222 280 339 376
#
# _framework density 21.119012000000001
#
# number of rings (size 3 to 8) (size 9 to 14) (size 15 to 20)
#    0.000    0.571    2.857    7.714    0.000    1.143 
#    0.000    4.286    0.000    0.000    0.000    0.000 
#    0.000    0.000    0.000    0.000    0.000    0.000 
#
# Total GULP energy -78350.706365 kJ/mol
# GULP energy per Si atom -5596.479026 kJ/mol
# Density = 2.107094 g / cm^3
# Si number density = 21.119012 Si / 1000 Ang^3
#
#
#
# Elastic Constant Matrix: (Units=GPa)
#
#
# Indices 1 2 3 4 5 6 
#
# 1 65.9226 6.2930 38.4241 -8.1830 -6.9720 -21.7441
# 2 6.2930 180.6078 74.1500 5.5279 0.6420 -34.1019
# 3 38.4241 74.1500 227.9068 -20.8536 -18.9312 -28.3122
# 4 -8.1830 5.5279 -20.8536 38.4809 -22.1711 5.2406
# 5 -6.9720 0.6420 -18.9312 -22.1711 17.5410 4.0989
# 6 -21.7441 -34.1019 -28.3122 5.2406 4.0989 29.4718
#
#
#
# Elastic Compliance Matrix: (Units=1/GPa)
#
#
# Indices 1 2 3 4 5 6 
#
# 1 0.022055 0.005435 -0.004595 -0.008343 -0.011912 0.021287
# 2 0.005435 0.001693 0.005401 0.032371 0.049180 -0.001439
# 3 -0.004595 0.005401 -0.002827 -0.037314 -0.055631 0.014516
# 4 -0.008343 0.032371 -0.037314 -0.155843 -0.255469 0.058697
# 5 -0.011912 0.049180 -0.055631 -0.255469 -0.353322 0.089242
# 6 0.021287 -0.001439 0.014516 0.058697 0.089242 0.039067
#
#
# Mechanical properties :
#
#
# Convention : Reuss Voigt Hill
#
# Bulk Modulus (GPa) = 29.93716 79.13015 54.53366
# Shear Modulus (GPa) = -11.09816 40.80340 14.85262
#
# Velocity S-wave (km/s) = -2.29488 4.40030 2.65482
# Velocity P-wave (km/s) = 2.68035 7.96033 5.93932
#
# Compressibility (1/GPa) = 0.03340330
#
# Stress axis : x y z
#
# Youngs Moduli (GPa) = 45.34187 590.79311 -353.75593
#
# Poissons Ratio (x) = -3.21107 -1.62558
# Poissons Ratio (y) = -0.24644 1.91078
# Poissons Ratio (z) = 0.20836 -3.19112
#
# Static dielectric constant tensor:
#      x y z
#    x 1.773620 0.059910 0.008890 
#    y 0.059910 1.754670 0.012260 
#    z 0.008890 0.012260 1.657790 
# 
# From -- ./inp_files/98029.got.cif
#   From: 2010.05.17/outbox.cif.g08.bks.cpg/sg2_50_cif.got.tgz:98029.got - 2010.06.03 11:33:40.
