data_PCOD9089225
_publ_section_title
;
Structure prediction by ZEFSAII (Michael W. Deem and Ramdas Pophale) SiO2 
 PCOD9089225
Probable space group: P -1
;
_chemical_formula_sum "Si O2"
_cell_formula_units_Z 16
_cell_length_a 9.401845
_cell_length_b 15.219680
_cell_length_c 9.146519
_cell_angle_alpha 85.605321
_cell_angle_beta 87.505630
_cell_angle_gamma 141.607236
_cell_volume 799.022495
_symmetry_space_group_name_H-M "P -1"
_symmetry_group_IT_number 2
_symmetry_cell_setting 'triclinic'
loop_
_space_group_symop_operation_xyz
x,y,z
-x,-y,-z
loop_
_atom_site_type_symbol
_atom_site_label
_atom_site_fract_x
_atom_site_fract_y
_atom_site_fract_z
Si Si1 0.749192 0.301923 0.635179
Si Si2 0.029237 0.408876 0.326983
Si Si3 0.021421 0.949660 0.861891
Si Si4 0.499974 0.535596 0.329615
Si Si5 0.766049 0.342740 0.098293
Si Si6 0.420148 0.314532 0.251037
Si Si7 0.509138 0.909867 0.083321
Si Si8 0.298172 0.197580 0.598448
O O1 0.896579 0.333647 0.494381
O O2 0.663047 0.184145 0.760346
O O3 0.525719 0.246648 0.594461
O O4 0.892813 0.449795 0.690084
O O5 0.860405 0.315663 0.210121
O O6 0.251969 0.455970 0.308496
O O7 0.781569 0.786510 0.848382
O O8 0.234580 0.989489 0.885049
O O9 0.094277 0.042666 0.703175
O O10 0.000000 0.000000 0.000000
O O11 0.500000 0.500000 0.500000
O O12 0.537339 0.467890 0.239677
O O13 0.670035 0.701975 0.310009
O O14 0.615796 0.340227 0.194958
O O15 0.591924 0.213705 0.006583
O O16 0.000000 0.500000 0.000000
O O17 0.305844 0.234251 0.425330
O O18 0.500000 0.000000 0.000000
#
# Coordination Sequence:
#
# PCOD9089225 Si02
#       8
#     2   2   2   2   2   2   2   2
#     4   9  18  37  67  88 120 164 207 254 311 373
#     4  10  19  37  66  94 119 162 209 257 313 373
#     4  11  23  43  63  85 129 176 207 246 317 386
#     4   9  21  37  62  98 127 149 207 271 311 359
#     4  12  24  42  67  93 123 166 215 261 320 379
#     4  11  22  42  63  96 127 163 210 263 314 376
#     4  11  25  44  60  91 131 167 211 261 314 376
#     4   9  19  40  65  92 121 165 211 253 310 376
#
# _framework density 20.024467000000001
#
# number of rings (size 3 to 8) (size 9 to 14) (size 15 to 20)
#    0.000    1.750    3.750    0.375    3.500    0.000 
#    6.750    1.875    0.000    0.000    0.000    0.000 
#    0.000    0.000    0.000    0.000    0.000    0.000 
#
# Total GULP energy -89258.574195 kJ/mol
# GULP energy per Si atom -5578.660887 kJ/mol
# Density = 1.997889 g / cm^3
# Si number density = 20.024467 Si / 1000 Ang^3
#
#
#
# Elastic Constant Matrix: (Units=GPa)
#
#
# Indices 1 2 3 4 5 6 
#
# 1 65.0927 35.0052 30.1617 -2.4044 10.2645 -4.5047
# 2 35.0052 78.4894 19.7430 10.0577 3.8607 1.0166
# 3 30.1617 19.7430 77.4053 -1.0150 4.0317 -2.3192
# 4 -2.4044 10.0577 -1.0150 34.1343 -0.0996 7.9957
# 5 10.2645 3.8607 4.0317 -0.0996 27.8389 3.5123
# 6 -4.5047 1.0166 -2.3192 7.9957 3.5123 28.9354
#
#
#
# Elastic Compliance Matrix: (Units=1/GPa)
#
#
# Indices 1 2 3 4 5 6 
#
# 1 0.025311 -0.009704 -0.006843 0.003562 -0.007443 0.003652
# 2 -0.009704 0.018009 -0.000979 -0.005835 0.001298 -0.000767
# 3 -0.006843 -0.000979 0.015824 0.000249 0.000352 0.000126
# 4 0.003562 -0.005835 0.000249 0.033265 0.000650 -0.008492
# 5 -0.007443 0.001298 0.000352 0.000650 0.039208 -0.006115
# 6 0.003652 -0.000767 0.000126 -0.008492 -0.006115 0.038254
#
#
# Mechanical properties :
#
#
# Convention : Reuss Voigt Hill
#
# Bulk Modulus (GPa) = 41.51178 43.42302 42.46740
# Shear Modulus (GPa) = 23.47928 27.25355 25.36642
#
# Velocity S-wave (km/s) = 3.42794 3.69319 3.56303
# Velocity P-wave (km/s) = 6.03682 6.31809 6.17906
#
# Compressibility (1/GPa) = 0.02408955
#
# Stress axis : x y z
#
# Youngs Moduli (GPa) = 39.50928 55.52884 63.19506
#
# Poissons Ratio (x) = 0.53887 0.43247
# Poissons Ratio (y) = 0.38341 0.06187
# Poissons Ratio (z) = 0.27038 0.05436
#
# Static dielectric constant tensor:
#      x y z
#    x 1.667230 0.005300 0.020160 
#    y 0.005300 1.695900 -0.004150 
#    z 0.020160 -0.004150 1.718470 
# 
# From -- ./inp_files/206968.got.cif
#   From: 2010.05.17/outbox.cif.g08.bks.cpg/sg2_104_cif.got.tgz:206968.got - 2010.06.03 11:33:40.
