data_PCOD9089101
_publ_section_title
;
Structure prediction by ZEFSAII (Michael W. Deem and Ramdas Pophale) SiO2 
 PCOD9089101
Probable space group: P -1
;
_chemical_formula_sum "Si O2"
_cell_formula_units_Z 14
_cell_length_a 8.098948
_cell_length_b 7.907646
_cell_length_c 17.509685
_cell_angle_alpha 103.145177
_cell_angle_beta 30.852554
_cell_angle_gamma 93.233389
_cell_volume 537.934993
_symmetry_space_group_name_H-M "P -1"
_symmetry_group_IT_number 2
_symmetry_cell_setting 'triclinic'
loop_
_space_group_symop_operation_xyz
x,y,z
-x,-y,-z
loop_
_atom_site_type_symbol
_atom_site_label
_atom_site_fract_x
_atom_site_fract_y
_atom_site_fract_z
Si Si1 0.272027 0.263941 0.729417
Si Si2 0.332236 0.710297 0.574934
Si Si3 0.625146 0.170311 0.985944
Si Si4 0.389292 0.920070 0.270012
Si Si5 0.203447 0.231107 0.477121
Si Si6 0.296039 0.369785 0.992079
Si Si7 0.720501 0.590363 0.753732
O O1 0.510087 0.240616 0.559918
O O2 0.465572 0.187613 0.721227
O O3 0.000442 0.156017 0.809487
O O4 0.059392 0.475986 0.848921
O O5 0.500000 0.500000 0.500000
O O6 0.469038 0.788077 0.603094
O O7 0.955634 0.707441 0.708521
O O8 0.415575 0.321957 0.025373
O O9 0.613052 0.239941 0.086059
O O10 0.500000 0.000000 0.000000
O O11 0.647486 0.823332 0.092253
O O12 0.027984 0.879913 0.401071
O O13 0.313016 0.132089 0.342715
O O14 0.977632 0.440799 0.583876
O O15 0.557310 0.450944 0.849988
#
# Coordination Sequence:
#
# PCOD9089101 Si02
#       7
#     2   2   2   2   2   2   2
#     4  11  22  39  67  94 119 166 209 253 307 364
#     4  10  19  37  65  91 116 158 208 252 299 355
#     4  11  23  40  66  95 121 156 213 262 303 362
#     4  10  21  37  61  93 125 164 206 246 305 379
#     4   9  19  37  59  85 130 158 197 247 311 351
#     4  10  20  43  67  86 128 166 198 253 318 361
#     4   9  19  39  65  90 119 160 203 253 305 359
#
# _framework density 26.025447
#
# number of rings (size 3 to 8) (size 9 to 14) (size 15 to 20)
#    0.000    2.000    0.000    6.429    2.000    0.571 
#    7.714    7.143    6.286    0.000    0.000    0.000 
#    0.000    0.000    0.000    0.000    0.000    0.000 
#
# Total GULP energy -78000.760486 kJ/mol
# GULP energy per Si atom -5571.482892 kJ/mol
# Density = 2.596621 g / cm^3
# Si number density = 26.025447 Si / 1000 Ang^3
#
#
#
# Elastic Constant Matrix: (Units=GPa)
#
#
# Indices 1 2 3 4 5 6 
#
# 1 45.2179 9.2439 2.5057 -1.4338 7.4576 3.2721
# 2 9.2439 98.8773 30.2106 27.7532 7.0681 21.9907
# 3 2.5057 30.2106 84.4186 9.0147 15.3090 5.4120
# 4 -1.4338 27.7532 9.0147 59.3271 6.7211 5.6543
# 5 7.4576 7.0681 15.3090 6.7211 36.9542 8.7213
# 6 3.2721 21.9907 5.4120 5.6543 8.7213 42.8541
#
#
#
# Elastic Compliance Matrix: (Units=1/GPa)
#
#
# Indices 1 2 3 4 5 6 
#
# 1 0.023535 -0.002841 0.000979 0.002300 -0.005094 0.000270
# 2 -0.002841 0.014688 -0.004535 -0.005891 0.002230 -0.006424
# 3 0.000979 -0.004535 0.014327 0.000469 -0.005715 0.001545
# 4 0.002300 -0.005891 0.000469 0.019895 -0.003349 0.000845
# 5 -0.005094 0.002230 -0.005715 -0.003349 0.032083 -0.006121
# 6 0.000270 -0.006424 0.001545 0.000845 -0.006121 0.027550
#
#
# Mechanical properties :
#
#
# Convention : Reuss Voigt Hill
#
# Bulk Modulus (GPa) = 25.15423 34.71490 29.93457
# Shear Modulus (GPa) = 31.62058 40.26398 35.94228
#
# Velocity S-wave (km/s) = 3.48945 3.93759 3.72027
# Velocity P-wave (km/s) = 5.09129 5.83443 5.47548
#
# Compressibility (1/GPa) = 0.03975475
#
# Stress axis : x y z
#
# Youngs Moduli (GPa) = 42.48956 68.08452 69.79759
#
# Poissons Ratio (x) = 0.19343 -0.06833
# Poissons Ratio (y) = 0.12072 0.31657
# Poissons Ratio (z) = -0.04159 0.30880
#
# Static dielectric constant tensor:
#      x y z
#    x 2.081810 0.078120 -0.019420 
#    y 0.078120 2.078500 0.152670 
#    z -0.019420 0.152670 1.971790 
# 
# From -- ./inp_files/554474.got.cif
#   From: 2010.05.17/outbox.cif.g08.bks.cpg/sg2_278_cif.got.tgz:554474.got - 2010.06.03 11:33:40.
