data_PCOD9089694
_publ_section_title
;
Structure prediction by ZEFSAII (Michael W. Deem and Ramdas Pophale) SiO2 
 PCOD9089694
Probable space group: P -1
;
_chemical_formula_sum "Si O2"
_cell_formula_units_Z 10
_cell_length_a 6.386454
_cell_length_b 12.058956
_cell_length_c 9.802509
_cell_angle_alpha 144.747557
_cell_angle_beta 66.808177
_cell_angle_gamma 105.715300
_cell_volume 398.684287
_symmetry_space_group_name_H-M "P -1"
_symmetry_group_IT_number 2
_symmetry_cell_setting 'triclinic'
loop_
_space_group_symop_operation_xyz
x,y,z
-x,-y,-z
loop_
_atom_site_type_symbol
_atom_site_label
_atom_site_fract_x
_atom_site_fract_y
_atom_site_fract_z
Si Si1 0.614578 0.562414 0.172987
Si Si2 0.436847 0.284672 0.273918
Si Si3 0.884960 0.995143 0.873864
Si Si4 0.988148 0.731318 0.105820
Si Si5 0.193798 0.469601 0.304831
O O1 0.386353 0.617069 0.377593
O O2 0.780882 0.377768 0.999328
O O3 0.500000 0.500000 0.000000
O O4 0.782149 0.726143 0.261576
O O5 0.500000 0.500000 0.500000
O O6 0.351564 0.285768 0.139972
O O7 0.222422 0.206669 0.327869
O O8 0.663088 0.147343 0.097575
O O9 0.003593 0.071760 0.784743
O O10 0.000000 0.000000 0.000000
O O11 0.924671 0.584468 0.856082
O O12 0.000000 0.500000 0.500000
#
# Coordination Sequence:
#
# PCOD9089694 Si02
#       5
#     2   2   2   2   2
#     4   9  20  35  59  91 125 167 223 265 320 395
#     4  11  24  37  58  97 134 167 212 275 331 390
#     4  11  22  39  64  94 129 170 223 273 330 397
#     4  10  19  38  60  91 125 170 218 269 324 392
#     4  11  21  34  60  94 129 167 210 266 329 389
#
# _framework density 25.082502000000002
#
# number of rings (size 3 to 8) (size 9 to 14) (size 15 to 20)
#    0.000    1.600    4.000    1.200    0.000    0.000 
#    0.000    0.000    0.000    2.400    0.000    0.000 
#    0.000    0.000    0.000    0.000    0.000    0.000 
#
# Total GULP energy -55782.623184 kJ/mol
# GULP energy per Si atom -5578.262318 kJ/mol
# Density = 2.502541 g / cm^3
# Si number density = 25.082502 Si / 1000 Ang^3
#
#
#
# Elastic Constant Matrix: (Units=GPa)
#
#
# Indices 1 2 3 4 5 6 
#
# 1 170.5325 85.5183 24.9763 4.7602 -14.7542 -10.6802
# 2 85.5183 194.0933 22.4271 5.3501 -2.5182 37.0568
# 3 24.9763 22.4271 49.3480 8.4869 1.3599 6.7294
# 4 4.7602 5.3501 8.4869 49.2962 7.8516 -5.4333
# 5 -14.7542 -2.5182 1.3599 7.8516 27.5780 7.2677
# 6 -10.6802 37.0568 6.7294 -5.4333 7.2677 98.1359
#
#
#
# Elastic Compliance Matrix: (Units=1/GPa)
#
#
# Indices 1 2 3 4 5 6 
#
# 1 0.008755 -0.003891 -0.003042 -0.000271 0.003944 0.002324
# 2 -0.003891 0.007606 -0.000934 -0.000595 -0.000318 -0.003241
# 3 -0.003042 -0.000934 0.023101 -0.003540 -0.001408 -0.001654
# 4 -0.000271 -0.000595 -0.003540 0.022336 -0.006961 0.002190
# 5 0.003944 -0.000318 -0.001408 -0.006961 0.041127 -0.002786
# 6 0.002324 -0.003241 -0.001654 0.002190 -0.002786 0.012108
#
#
# Mechanical properties :
#
#
# Convention : Reuss Voigt Hill
#
# Bulk Modulus (GPa) = 42.14329 75.53524 58.83926
# Shear Modulus (GPa) = 36.05538 53.73881 44.89710
#
# Velocity S-wave (km/s) = 3.79551 4.63372 4.23540
# Velocity P-wave (km/s) = 6.00385 7.66867 6.88675
#
# Compressibility (1/GPa) = 0.02372857
#
# Stress axis : x y z
#
# Youngs Moduli (GPa) = 114.22018 131.48358 43.28743
#
# Poissons Ratio (x) = 0.51161 0.13166
# Poissons Ratio (y) = 0.44443 0.04043
# Poissons Ratio (z) = 0.34742 0.12281
#
# Static dielectric constant tensor:
#      x y z
#    x 2.019520 0.052140 0.004530 
#    y 0.052140 2.201070 -0.000520 
#    z 0.004530 -0.000520 1.988210 
# 
# From -- ./inp_files/365495.got.cif
#   From: 2010.05.17/outbox.cif.g08.bks.cpg/sg2_183_cif.got.tgz:365495.got - 2010.06.03 11:33:40.
