data_PCOD9089279
_publ_section_title
;
Structure prediction by ZEFSAII (Michael W. Deem and Ramdas Pophale) SiO2 
 PCOD9089279
Probable space group: P -1
;
_chemical_formula_sum "Si O2"
_cell_formula_units_Z 16
_cell_length_a 11.201643
_cell_length_b 10.733234
_cell_length_c 18.084931
_cell_angle_alpha 24.332082
_cell_angle_beta 105.727058
_cell_angle_gamma 94.252833
_cell_volume 776.168629
_symmetry_space_group_name_H-M "P -1"
_symmetry_group_IT_number 2
_symmetry_cell_setting 'triclinic'
loop_
_space_group_symop_operation_xyz
x,y,z
-x,-y,-z
loop_
_atom_site_type_symbol
_atom_site_label
_atom_site_fract_x
_atom_site_fract_y
_atom_site_fract_z
Si Si1 0.636113 0.511361 0.048414
Si Si2 0.326943 0.389555 0.700512
Si Si3 0.886191 0.410076 0.067187
Si Si4 0.084808 0.885586 0.477821
Si Si5 0.161801 0.156528 0.484570
Si Si6 0.147882 0.847601 0.071131
Si Si7 0.124332 0.150601 0.737972
Si Si8 0.617455 0.978239 0.932068
O O1 0.727461 0.628503 0.945205
O O2 0.730170 0.115908 0.295970
O O3 0.500000 0.500000 0.000000
O O4 0.611695 0.747455 0.988678
O O5 0.194946 0.738434 0.510002
O O6 0.261893 0.207102 0.734259
O O7 0.474261 0.318430 0.730190
O O8 0.362460 0.223311 0.878110
O O9 0.877272 0.122952 0.170564
O O10 0.966135 0.251715 0.241952
O O11 0.000000 0.500000 0.000000
O O12 0.991344 0.691468 0.585527
O O13 0.157097 0.929065 0.538677
O O14 0.197592 0.446335 0.302301
O O15 0.252392 0.938044 0.088249
O O16 0.127490 0.998151 0.903202
O O17 0.000000 0.000000 0.000000
O O18 0.000000 0.500000 0.500000
#
# Coordination Sequence:
#
# PCOD9089279 Si02
#       8
#     2   2   2   2   2   2   2   2
#     4  11  24  44  67  92 133 181 219 267 334 399
#     4  10  19  39  64  90 125 170 216 260 325 394
#     4  11  24  39  63  96 130 167 218 274 333 382
#     4  10  19  37  67  90 122 173 213 268 318 393
#     4  10  21  39  66  94 125 167 227 259 324 390
#     4  11  25  40  67  98 130 166 219 277 321 386
#     4  11  22  39  63  95 130 167 210 267 332 385
#     4  10  22  40  64  91 125 172 219 266 322 396
#
# _framework density 20.614077000000002
#
# number of rings (size 3 to 8) (size 9 to 14) (size 15 to 20)
#    0.000    1.500    2.500    3.000    7.000    0.000 
#    2.250    1.250    0.000    0.000    0.000    0.000 
#    0.000    0.000    0.000    0.000    0.000    0.000 
#
# Total GULP energy -89077.483752 kJ/mol
# GULP energy per Si atom -5567.342735 kJ/mol
# Density = 2.056716 g / cm^3
# Si number density = 20.614077 Si / 1000 Ang^3
#
#
#
# Elastic Constant Matrix: (Units=GPa)
#
#
# Indices 1 2 3 4 5 6 
#
# 1 156.4136 55.6034 37.7490 1.7095 20.2486 22.7672
# 2 55.6034 112.6585 23.2776 -3.4069 9.8910 24.3941
# 3 37.7490 23.2776 61.2632 2.0313 4.1726 7.8609
# 4 1.7095 -3.4069 2.0313 26.1198 -4.5993 6.0673
# 5 20.2486 9.8910 4.1726 -4.5993 32.0736 2.1083
# 6 22.7672 24.3941 7.8609 6.0673 2.1083 26.0837
#
#
#
# Elastic Compliance Matrix: (Units=1/GPa)
#
#
# Indices 1 2 3 4 5 6 
#
# 1 0.009460 -0.002557 -0.004001 -0.000451 -0.004452 -0.004195
# 2 -0.002557 0.012988 -0.002136 0.004248 -0.000834 -0.010192
# 3 -0.004001 -0.002136 0.019635 -0.001438 0.000432 -0.000128
# 4 -0.000451 0.004248 -0.001438 0.043271 0.006268 -0.013718
# 5 -0.004452 -0.000834 0.000432 0.006268 0.035073 0.000243
# 6 -0.004195 -0.010192 -0.000128 -0.013718 0.000243 0.054742
#
#
# Mechanical properties :
#
#
# Convention : Reuss Voigt Hill
#
# Bulk Modulus (GPa) = 40.49307 62.62172 51.55740
# Shear Modulus (GPa) = 24.90204 31.10245 28.00225
#
# Velocity S-wave (km/s) = 3.47942 3.88854 3.68965
# Velocity P-wave (km/s) = 5.98564 7.11372 6.57392
#
# Compressibility (1/GPa) = 0.02469558
#
# Stress axis : x y z
#
# Youngs Moduli (GPa) = 105.71199 76.99297 50.93073
#
# Poissons Ratio (x) = 0.19683 0.20377
# Poissons Ratio (y) = 0.27025 0.10878
# Poissons Ratio (z) = 0.42295 0.16445
#
# Static dielectric constant tensor:
#      x y z
#    x 1.814090 -0.029390 -0.008440 
#    y -0.029390 1.735920 -0.005990 
#    z -0.008440 -0.005990 1.846940 
# 
# From -- ./inp_files/595032.got.cif
#   From: 2010.05.17/outbox.cif.g08.bks.cpg/sg2_298_cif.got.tgz:595032.got - 2010.06.03 11:33:40.
