data_PCOD9089662
_publ_section_title
;
Structure prediction by ZEFSAII (Michael W. Deem and Ramdas Pophale) SiO2 
 PCOD9089662
Probable space group: P -1
;
_chemical_formula_sum "Si O2"
_cell_formula_units_Z 16
_cell_length_a 17.312185
_cell_length_b 10.317080
_cell_length_c 24.265793
_cell_angle_alpha 146.070822
_cell_angle_beta 162.071089
_cell_angle_gamma 40.815681
_cell_volume 731.169009
_symmetry_space_group_name_H-M "P -1"
_symmetry_group_IT_number 2
_symmetry_cell_setting 'triclinic'
loop_
_space_group_symop_operation_xyz
x,y,z
-x,-y,-z
loop_
_atom_site_type_symbol
_atom_site_label
_atom_site_fract_x
_atom_site_fract_y
_atom_site_fract_z
Si Si1 0.131625 0.960011 0.915949
Si Si2 0.000842 0.375250 0.186692
Si Si3 0.591673 0.786251 0.442009
Si Si4 0.916709 0.723336 0.333483
Si Si5 0.263012 0.490050 0.205311
Si Si6 0.467599 0.319479 0.752049
Si Si7 0.679023 0.399434 0.150125
Si Si8 0.477409 0.149458 0.413197
O O1 0.265495 0.855598 0.918523
O O2 0.112667 0.796550 0.899841
O O3 0.850383 0.946639 0.695187
O O4 0.267534 0.216716 0.117267
O O5 0.227903 0.262986 0.274657
O O6 0.078540 0.622808 0.359961
O O7 0.772887 0.390941 0.995254
O O8 0.476201 0.617386 0.352651
O O9 0.621633 0.639157 0.355607
O O10 0.423438 0.964027 0.363136
O O11 0.893640 0.572281 0.320725
O O12 0.620873 0.642276 0.085077
O O13 0.000000 0.000000 0.500000
O O14 0.307133 0.636608 0.343535
O O15 0.000000 0.500000 0.000000
O O16 0.325283 0.467378 0.748343
O O17 0.429455 0.030212 0.630058
#
# Coordination Sequence:
#
# PCOD9089662 Si02
#       8
#     2   2   2   2   2   2   2   2
#     4  11  22  36  64  88 114 152 202 244 278 344
#     4  10  19  38  60  88 113 152 192 241 292 339
#     4  10  22  39  59  85 117 158 191 237 301 334
#     4   9  19  35  60  84 115 155 195 242 283 339
#     4  12  21  37  61  88 115 152 201 243 283 348
#     4   9  21  39  60  81 124 158 184 238 302 344
#     4   9  20  38  56  85 118 153 196 235 289 343
#     4  10  20  36  59  84 114 154 190 235 296 341
#
# _framework density 21.882766
#
# number of rings (size 3 to 8) (size 9 to 14) (size 15 to 20)
#    0.750    1.250    2.500    2.250    1.750    0.500 
#    0.000    6.250    0.000    0.000    0.000    0.000 
#    0.000    0.000    0.000    0.000    0.000    0.000 
#
# Total GULP energy -89077.196457 kJ/mol
# GULP energy per Si atom -5567.324779 kJ/mol
# Density = 2.183296 g / cm^3
# Si number density = 21.882766 Si / 1000 Ang^3
#
#
#
# Elastic Constant Matrix: (Units=GPa)
#
#
# Indices 1 2 3 4 5 6 
#
# 1 40.2577 -3.9678 9.8543 8.4091 -18.2256 -16.0428
# 2 -3.9678 45.7333 7.7626 24.3420 -0.4892 -13.5834
# 3 9.8543 7.7626 75.4371 22.6589 -15.3165 -0.8674
# 4 8.4091 24.3420 22.6589 43.2802 -8.7719 -9.9793
# 5 -18.2256 -0.4892 -15.3165 -8.7719 25.5481 7.4676
# 6 -16.0428 -13.5834 -0.8674 -9.9793 7.4676 34.8832
#
#
#
# Elastic Compliance Matrix: (Units=1/GPa)
#
#
# Indices 1 2 3 4 5 6 
#
# 1 0.047218 0.014132 0.000053 -0.007421 0.025712 0.019593
# 2 0.014132 0.039176 0.000639 -0.021649 -0.000822 0.015753
# 3 0.000053 0.000639 0.017477 -0.008601 0.008626 -0.003600
# 4 -0.007421 -0.021649 -0.008601 0.041776 0.003743 -0.000907
# 5 0.025712 -0.000822 0.008626 0.003743 0.064205 -0.000954
# 6 0.019593 0.015753 -0.003600 -0.000907 -0.000954 0.043667
#
#
# Mechanical properties :
#
#
# Convention : Reuss Voigt Hill
#
# Bulk Modulus (GPa) = 7.48951 20.96961 14.22956
# Shear Modulus (GPa) = 18.63042 30.59423 24.61233
#
# Velocity S-wave (km/s) = 2.92100 3.74317 3.35735
# Velocity P-wave (km/s) = 3.84789 5.31839 4.64174
#
# Compressibility (1/GPa) = 0.13352005
#
# Stress axis : x y z
#
# Youngs Moduli (GPa) = 21.17821 25.52554 57.21773
#
# Poissons Ratio (x) = -0.36073 -0.00301
# Poissons Ratio (y) = -0.29929 -0.03658
# Poissons Ratio (z) = -0.00111 -0.01632
#
# Static dielectric constant tensor:
#      x y z
#    x 1.877630 -0.045170 -0.002000 
#    y -0.045170 1.906740 -0.008520 
#    z -0.002000 -0.008520 1.833160 
# 
# From -- ./inp_files/620381.got.cif
#   From: 2010.05.17/outbox.cif.g08.bks.cpg/sg2_311_cif.got.tgz:620381.got - 2010.06.03 11:33:40.
