data_PCOD9089407
_publ_section_title
;
Structure prediction by ZEFSAII (Michael W. Deem and Ramdas Pophale) SiO2 
 PCOD9089407
Probable space group: P -1
;
_chemical_formula_sum "Si O2"
_cell_formula_units_Z 14
_cell_length_a 12.585357
_cell_length_b 8.808510
_cell_length_c 17.020675
_cell_angle_alpha 21.971394
_cell_angle_beta 53.862382
_cell_angle_gamma 54.750409
_cell_volume 567.276116
_symmetry_space_group_name_H-M "P -1"
_symmetry_group_IT_number 2
_symmetry_cell_setting 'triclinic'
loop_
_space_group_symop_operation_xyz
x,y,z
-x,-y,-z
loop_
_atom_site_type_symbol
_atom_site_label
_atom_site_fract_x
_atom_site_fract_y
_atom_site_fract_z
Si Si1 0.834910 0.462368 0.232643
Si Si2 0.482671 0.697911 0.081261
Si Si3 0.922157 0.613019 0.742610
Si Si4 0.960325 0.031011 0.248255
Si Si5 0.800786 0.334252 0.766726
Si Si6 0.744374 0.263603 0.106717
Si Si7 0.391948 0.277443 0.698243
O O1 0.888076 0.077094 0.341926
O O2 0.713340 0.389326 0.375523
O O3 0.953028 0.627590 0.152195
O O4 0.781453 0.849266 0.018454
O O5 0.350879 0.475670 0.265715
O O6 0.619721 0.425626 0.136260
O O7 0.500000 0.000000 0.000000
O O8 0.455553 0.955481 0.888873
O O9 0.861524 0.462068 0.761561
O O10 0.810954 0.613386 0.859606
O O11 0.000000 0.000000 0.500000
O O12 0.855431 0.020280 0.229128
O O13 0.090874 0.721120 0.324228
O O14 0.000000 0.500000 0.000000
O O15 0.691251 0.969430 0.206706
O O16 0.500000 0.500000 0.500000
#
# Coordination Sequence:
#
# PCOD9089407 Si02
#       7
#     2   2   2   2   2   2   2
#     4  10  20  40  65  91 124 162 212 260 310 374
#     4  11  24  41  67  92 132 171 208 258 325 374
#     4  12  24  36  63  95 127 160 213 260 312 372
#     4  10  19  37  71  89 119 166 213 251 319 370
#     4  10  20  40  62  91 120 168 208 257 312 375
#     4  12  22  42  67  92 125 169 208 263 318 371
#     4  11  25  42  68  94 126 168 220 258 310 380
#
# _framework density 24.679338999999999
#
# number of rings (size 3 to 8) (size 9 to 14) (size 15 to 20)
#    0.000    1.143    5.714    4.286    2.000    0.000 
#    0.000    5.000    0.000    0.000    0.000    0.000 
#    0.000    0.000    0.000    0.000    0.000    0.000 
#
# Total GULP energy -78237.576950 kJ/mol
# GULP energy per Si atom -5588.398354 kJ/mol
# Density = 2.462317 g / cm^3
# Si number density = 24.679339 Si / 1000 Ang^3
#
#
#
# Elastic Constant Matrix: (Units=GPa)
#
#
# Indices 1 2 3 4 5 6 
#
# 1 125.3164 24.4042 28.4659 10.1090 -19.8556 14.5807
# 2 24.4042 164.9751 53.2120 34.4675 -21.5820 -14.1468
# 3 28.4659 53.2120 76.0157 32.2786 -23.1140 -7.6709
# 4 10.1090 34.4675 32.2786 57.7500 -6.8666 -14.6906
# 5 -19.8556 -21.5820 -23.1140 -6.8666 39.3573 6.0656
# 6 14.5807 -14.1468 -7.6709 -14.6906 6.0656 50.5082
#
#
#
# Elastic Compliance Matrix: (Units=1/GPa)
#
#
# Indices 1 2 3 4 5 6 
#
# 1 0.009694 -0.000380 -0.002288 -0.000736 0.003815 -0.003925
# 2 -0.000380 0.008156 -0.004203 -0.002042 0.001301 0.001006
# 3 -0.002288 -0.004203 0.023561 -0.009394 0.008852 -0.000734
# 4 -0.000736 -0.002042 -0.009394 0.024995 -0.003558 0.005911
# 5 0.003815 0.001301 0.008852 -0.003558 0.033307 -0.004427
# 6 -0.003925 0.001006 -0.000734 0.005911 -0.004427 0.023353
#
#
# Mechanical properties :
#
#
# Convention : Reuss Voigt Hill
#
# Bulk Modulus (GPa) = 36.14026 64.27458 50.20742
# Shear Modulus (GPa) = 34.23952 46.87145 40.55548
#
# Velocity S-wave (km/s) = 3.72879 4.36273 4.05816
# Velocity P-wave (km/s) = 5.76318 7.17484 6.50740
#
# Compressibility (1/GPa) = 0.02766997
#
# Stress axis : x y z
#
# Youngs Moduli (GPa) = 103.15757 122.60164 42.44350
#
# Poissons Ratio (x) = 0.04655 0.09709
# Poissons Ratio (y) = 0.03917 0.17840
# Poissons Ratio (z) = 0.23598 0.51533
#
# Static dielectric constant tensor:
#      x y z
#    x 1.962590 -0.035740 0.053010 
#    y -0.035740 2.002130 0.053630 
#    z 0.053010 0.053630 2.158870 
# 
# From -- ./inp_files/156922.got.cif
#   From: 2010.05.17/outbox.cif.g08.bks.cpg/sg2_79_cif.got.tgz:156922.got - 2010.06.03 11:33:40.
