data_PCOD9089252
_publ_section_title
;
Structure prediction by ZEFSAII (Michael W. Deem and Ramdas Pophale) SiO2 
 PCOD9089252
Probable space group: P -1
;
_chemical_formula_sum "Si O2"
_cell_formula_units_Z 16
_cell_length_a 17.415027
_cell_length_b 5.778367
_cell_length_c 8.860558
_cell_angle_alpha 83.409106
_cell_angle_beta 135.338023
_cell_angle_gamma 95.938253
_cell_volume 622.309073
_symmetry_space_group_name_H-M "P -1"
_symmetry_group_IT_number 2
_symmetry_cell_setting 'triclinic'
loop_
_space_group_symop_operation_xyz
x,y,z
-x,-y,-z
loop_
_atom_site_type_symbol
_atom_site_label
_atom_site_fract_x
_atom_site_fract_y
_atom_site_fract_z
Si Si1 0.053935 0.074000 0.307858
Si Si2 0.713599 0.408159 0.350890
Si Si3 0.233364 0.272046 0.321620
Si Si4 0.027273 0.544716 0.359968
Si Si5 0.722134 0.411425 0.892053
Si Si6 0.405590 0.914154 0.489081
Si Si7 0.411657 0.320603 0.085772
Si Si8 0.759437 0.062570 0.216243
O O1 0.133375 0.126641 0.270823
O O2 0.990732 0.314241 0.227442
O O3 0.001493 0.811304 0.250835
O O4 0.131812 0.054119 0.566618
O O5 0.728917 0.521355 0.527027
O O6 0.840305 0.451923 0.470647
O O7 0.622903 0.546726 0.122818
O O8 0.701324 0.148806 0.282712
O O9 0.212068 0.388612 0.121047
O O10 0.337503 0.115879 0.451703
O O11 0.000000 0.500000 0.500000
O O12 0.677170 0.233334 0.718875
O O13 0.619665 0.522230 0.827070
O O14 0.780941 0.274433 0.116135
O O15 0.467800 0.768454 0.714900
O O16 0.500000 0.000000 0.500000
O O17 0.324683 0.105498 0.976213
#
# Coordination Sequence:
#
# PCOD9089252 Si02
#       8
#     2   2   2   2   2   2   2   2
#     4  10  22  39  63  96 132 157 204 254 316 378
#     4   9  22  37  59  87 123 151 199 250 317 367
#     4  11  23  38  59  88 124 162 206 266 311 352
#     4  10  19  37  66  98 126 157 196 254 313 383
#     4  11  23  36  60  83 116 166 216 259 306 357
#     4  12  24  36  56  83 121 161 224 257 304 355
#     4  11  20  40  55  79 117 163 208 259 296 368
#     4  10  19  39  61  80 121 165 203 251 306 377
#
# _framework density 25.710699000000002
#
# number of rings (size 3 to 8) (size 9 to 14) (size 15 to 20)
#    0.000    1.500    5.000    0.750    5.250    0.500 
#    0.000    1.250    0.000    0.000    0.000   54.250 
#    0.000    0.000    0.000    0.000    0.000    0.000 
#
# Total GULP energy -89419.808328 kJ/mol
# GULP energy per Si atom -5588.738021 kJ/mol
# Density = 2.565218 g / cm^3
# Si number density = 25.710699 Si / 1000 Ang^3
#
#
#
# Elastic Constant Matrix: (Units=GPa)
#
#
# Indices 1 2 3 4 5 6 
#
# 1 121.5939 30.8957 8.5740 -3.2161 -27.8244 1.5601
# 2 30.8957 114.4061 20.5547 -12.7889 -14.5687 0.6693
# 3 8.5740 20.5547 76.8030 -4.3656 -7.6667 8.8996
# 4 -3.2161 -12.7889 -4.3656 36.4384 9.3356 -13.6634
# 5 -27.8244 -14.5687 -7.6667 9.3356 46.8438 -5.3003
# 6 1.5601 0.6693 8.8996 -13.6634 -5.3003 44.4328
#
#
#
# Elastic Compliance Matrix: (Units=1/GPa)
#
#
# Indices 1 2 3 4 5 6 
#
# 1 0.010000 -0.002132 -0.000063 -0.001306 0.005521 -0.000049
# 2 -0.002132 0.010253 -0.002391 0.003456 0.001022 0.001584
# 3 -0.000063 -0.002391 0.014092 -0.000541 0.001317 -0.002794
# 4 -0.001306 0.003456 -0.000541 0.033513 -0.005363 0.009768
# 5 0.005521 0.001022 0.001317 -0.005363 0.026345 0.001020
# 6 -0.000049 0.001584 -0.002794 0.009768 0.001020 0.026169
#
#
# Mechanical properties :
#
#
# Convention : Reuss Voigt Hill
#
# Bulk Modulus (GPa) = 39.72610 48.09463 43.91037
# Shear Modulus (GPa) = 36.24914 42.39491 39.32202
#
# Velocity S-wave (km/s) = 3.75892 4.06510 3.91500
# Velocity P-wave (km/s) = 5.85867 6.38592 6.12797
#
# Compressibility (1/GPa) = 0.02517237
#
# Stress axis : x y z
#
# Youngs Moduli (GPa) = 100.00330 97.52984 70.96362
#
# Poissons Ratio (x) = 0.20791 0.00449
# Poissons Ratio (y) = 0.21318 0.16969
# Poissons Ratio (z) = 0.00632 0.23321
#
# Static dielectric constant tensor:
#      x y z
#    x 2.082240 0.058660 -0.049750 
#    y 0.058660 2.114700 -0.030620 
#    z -0.049750 -0.030620 1.964900 
# 
# From -- ./inp_files/322666.got.cif
#   From: 2010.05.17/outbox.cif.g08.bks.cpg/sg2_162_cif.got.tgz:322666.got - 2010.06.03 11:33:40.
