data_PCOD9089893
_publ_section_title
;
Structure prediction by ZEFSAII (Michael W. Deem and Ramdas Pophale) SiO2 
 PCOD9089893
Probable space group: P -1
;
_chemical_formula_sum "Si O2"
_cell_formula_units_Z 16
_cell_length_a 10.887725
_cell_length_b 11.445104
_cell_length_c 13.346085
_cell_angle_alpha 37.280530
_cell_angle_beta 126.881484
_cell_angle_gamma 140.459461
_cell_volume 640.914561
_symmetry_space_group_name_H-M "P -1"
_symmetry_group_IT_number 2
_symmetry_cell_setting 'triclinic'
loop_
_space_group_symop_operation_xyz
x,y,z
-x,-y,-z
loop_
_atom_site_type_symbol
_atom_site_label
_atom_site_fract_x
_atom_site_fract_y
_atom_site_fract_z
Si Si1 0.573950 0.055134 0.720543
Si Si2 0.199925 0.576788 0.915101
Si Si3 0.047793 0.459910 0.438869
Si Si4 0.011690 0.225169 0.256032
Si Si5 0.260477 0.209396 0.721512
Si Si6 0.614245 0.698564 0.587297
Si Si7 0.971173 0.893464 0.950140
Si Si8 0.697301 0.970593 0.634970
O O1 0.797742 0.267280 0.715349
O O2 0.464385 0.175251 0.594343
O O3 0.427484 0.795105 0.877884
O O4 0.583388 0.998635 0.645922
O O5 0.069579 0.670401 0.784296
O O6 0.130841 0.418491 0.091113
O O7 0.140381 0.392176 0.920975
O O8 0.172899 0.358952 0.573265
O O9 0.000000 0.500000 0.500000
O O10 0.835848 0.219771 0.468533
O O11 0.165455 0.190865 0.396515
O O12 0.833824 0.984315 0.280228
O O13 0.486584 0.416182 0.690588
O O14 0.176957 0.047158 0.890764
O O15 0.589623 0.746800 0.658465
O O16 0.839598 0.941110 0.788807
O O17 0.000000 0.000000 0.000000
#
# Coordination Sequence:
#
# PCOD9089893 Si02
#       8
#     2   2   2   2   2   2   2   2
#     4  10  22  34  59  98 123 157 214 253 310 376
#     4  10  22  42  61  88 125 166 208 264 310 357
#     4   8  15  33  54  80 122 155 194 243 301 361
#     4  10  21  44  67  79 127 175 209 258 304 364
#     4   9  19  36  59  89 114 163 216 241 306 372
#     4  11  20  38  66  89 121 173 208 247 311 383
#     4  10  21  39  60  90 128 161 202 265 315 367
#     4  10  19  38  62  88 128 169 197 257 319 370
#
# _framework density 24.964326
#
# number of rings (size 3 to 8) (size 9 to 14) (size 15 to 20)
#    0.000    2.250    3.750    0.375    1.750    2.000 
#    6.750    9.375    0.000    0.000    0.000    0.000 
#    0.000    0.000    0.000    0.000    0.000    0.000 
#
# Total GULP energy -89453.730420 kJ/mol
# GULP energy per Si atom -5590.858151 kJ/mol
# Density = 2.490751 g / cm^3
# Si number density = 24.964326 Si / 1000 Ang^3
#
#
#
# Elastic Constant Matrix: (Units=GPa)
#
#
# Indices 1 2 3 4 5 6 
#
# 1 119.1241 44.4970 41.1334 -15.9983 2.9333 0.0437
# 2 44.4970 151.8334 58.2846 -40.7975 -12.3751 8.6586
# 3 41.1334 58.2846 82.0795 -25.4279 -9.0232 -11.5401
# 4 -15.9983 -40.7975 -25.4279 43.0375 -0.4787 -0.4490
# 5 2.9333 -12.3751 -9.0232 -0.4787 40.3171 -5.2467
# 6 0.0437 8.6586 -11.5401 -0.4490 -5.2467 38.0749
#
#
#
# Elastic Compliance Matrix: (Units=1/GPa)
#
#
# Indices 1 2 3 4 5 6 
#
# 1 0.010645 -0.001452 -0.004907 -0.000363 -0.002521 -0.001521
# 2 -0.001452 0.011392 -0.005542 0.006965 0.001935 -0.003920
# 3 -0.004907 -0.005542 0.022272 0.006226 0.004854 0.008759
# 4 -0.000363 0.006965 0.006226 0.033441 0.004120 0.001266
# 5 -0.002521 0.001935 0.004854 0.004120 0.027347 0.004851
# 6 -0.001521 -0.003920 0.008759 0.001266 0.004851 0.030495
#
#
# Mechanical properties :
#
#
# Convention : Reuss Voigt Hill
#
# Bulk Modulus (GPa) = 48.76507 71.20746 59.98627
# Shear Modulus (GPa) = 30.07848 38.22737 34.15292
#
# Velocity S-wave (km/s) = 3.47487 3.91740 3.70275
# Velocity P-wave (km/s) = 5.97294 7.00336 6.50857
#
# Compressibility (1/GPa) = 0.02050648
#
# Stress axis : x y z
#
# Youngs Moduli (GPa) = 93.93784 87.77945 44.89956
#
# Poissons Ratio (x) = 0.12749 0.22031
# Poissons Ratio (y) = 0.13643 0.24885
# Poissons Ratio (z) = 0.46093 0.48651
#
# Static dielectric constant tensor:
#      x y z
#    x 1.969200 0.059320 0.000360 
#    y 0.059320 1.992080 0.015020 
#    z 0.000360 0.015020 2.089810 
# 
# From -- ./inp_files/519552.got.cif
#   From: 2010.05.17/outbox.cif.g08.bks.cpg/sg2_260_cif.got.tgz:519552.got - 2010.06.03 11:33:40.
