data_PCOD9089882
_publ_section_title
;
Structure prediction by ZEFSAII (Michael W. Deem and Ramdas Pophale) SiO2 
 PCOD9089882
Probable space group: P -1
;
_chemical_formula_sum "Si O2"
_cell_formula_units_Z 15
_cell_length_a 7.905883
_cell_length_b 7.308803
_cell_length_c 12.418641
_cell_angle_alpha 109.484677
_cell_angle_beta 64.447170
_cell_angle_gamma 82.490846
_cell_volume 577.641697
_symmetry_space_group_name_H-M "P -1"
_symmetry_group_IT_number 2
_symmetry_cell_setting 'triclinic'
loop_
_space_group_symop_operation_xyz
x,y,z
-x,-y,-z
loop_
_atom_site_type_symbol
_atom_site_label
_atom_site_fract_x
_atom_site_fract_y
_atom_site_fract_z
Si Si1 0.771373 0.533073 0.831598
Si Si2 0.261429 0.235219 0.892863
Si Si3 0.500000 0.500000 0.500000
Si Si4 0.880135 0.627824 0.459252
Si Si5 0.202215 0.006162 0.574416
Si Si6 0.577490 0.676669 0.335126
Si Si7 0.423981 0.870894 0.907207
Si Si8 0.094965 0.834643 0.141025
O O1 0.594758 0.653006 0.825060
O O2 0.757764 0.326460 0.849903
O O3 0.978857 0.473174 0.700761
O O4 0.776704 0.667616 0.960591
O O5 0.386554 0.335372 0.802488
O O6 0.057964 0.260010 0.892704
O O7 0.384446 0.996853 0.832555
O O8 0.660164 0.613801 0.518352
O O9 0.624920 0.463555 0.341684
O O10 0.867661 0.866688 0.492151
O O11 0.000000 0.500000 0.500000
O O12 0.317195 0.154307 0.625334
O O13 0.039793 0.998053 0.705302
O O14 0.356321 0.782358 0.466762
O O15 0.216715 0.879725 0.018795
O O16 0.500000 0.000000 0.000000
#
# Coordination Sequence:
#
# PCOD9089882 Si02
#       8
#     2   2   1   2   2   2   2   2
#     4  10  22  41  60  88 129 159 201 265 307 376
#     4  10  21  38  61  91 122 161 210 257 310 379
#     4  10  22  42  64  94 122 164 206 262 306 380
#     4  10  22  42  63  91 126 161 212 254 317 370
#     4   8  18  36  61  86 121 157 201 264 300 371
#     4   9  18  37  61  90 122 158 207 255 316 362
#     4  10  22  38  56  87 129 160 198 257 312 368
#     4  10  19  38  62  88 117 166 212 249 317 368
#
# _framework density 25.967654
#
# number of rings (size 3 to 8) (size 9 to 14) (size 15 to 20)
#    0.000    2.400    0.000    2.000    1.867    2.133 
#   14.400    0.667    0.000    0.000    0.000    0.000 
#    0.000    0.000    0.000    0.000    0.000    0.000 
#
# Total GULP energy -83548.938636 kJ/mol
# GULP energy per Si atom -5569.929242 kJ/mol
# Density = 2.590855 g / cm^3
# Si number density = 25.967654 Si / 1000 Ang^3
#
#
#
# Elastic Constant Matrix: (Units=GPa)
#
#
# Indices 1 2 3 4 5 6 
#
# 1 70.6942 11.5378 3.4757 -5.1529 -3.2186 -1.1407
# 2 11.5378 20.7897 -11.5306 -7.2118 -5.5746 9.5247
# 3 3.4757 -11.5306 100.6781 -19.8745 -10.7409 18.8778
# 4 -5.1529 -7.2118 -19.8745 46.6097 -2.5747 -3.8842
# 5 -3.2186 -5.5746 -10.7409 -2.5747 36.8904 -11.0790
# 6 -1.1407 9.5247 18.8778 -3.8842 -11.0790 30.6309
#
#
#
# Elastic Compliance Matrix: (Units=1/GPa)
#
#
# Indices 1 2 3 4 5 6 
#
# 1 0.016990 -0.016090 -0.004282 -0.001756 0.000112 0.008092
# 2 -0.016090 0.099514 0.024854 0.021410 0.010216 -0.040451
# 3 -0.004282 0.024854 0.018480 0.010142 0.004563 -0.016340
# 4 -0.001756 0.021410 0.010142 0.028620 0.005863 -0.007224
# 5 0.000112 0.010216 0.004563 0.005863 0.032337 0.006455
# 6 0.008092 -0.040451 -0.016340 -0.007224 0.006455 0.057015
#
#
# Mechanical properties :
#
#
# Convention : Reuss Voigt Hill
#
# Bulk Modulus (GPa) = 6.94697 22.12531 14.53614
# Shear Modulus (GPa) = 17.12478 35.40480 26.26479
#
# Velocity S-wave (km/s) = 2.57079 3.69646 3.18377
# Velocity P-wave (km/s) = 3.39013 5.17274 4.37323
#
# Compressibility (1/GPa) = 0.14394769
#
# Stress axis : x y z
#
# Youngs Moduli (GPa) = 58.85943 10.04884 54.11286
#
# Poissons Ratio (x) = 0.16169 0.23168
# Poissons Ratio (y) = 0.94706 -1.34491
# Poissons Ratio (z) = 0.25201 -0.24975
#
# Static dielectric constant tensor:
#      x y z
#    x 2.143510 -0.036040 0.076560 
#    y -0.036040 1.290010 0.330440 
#    z 0.076560 0.330440 1.964690 
# 
# From -- ./inp_files/281696.got.cif
#   From: 2010.05.17/outbox.cif.g08.bks.cpg/sg2_141_cif.got.tgz:281696.got - 2010.06.03 11:33:40.
