data_PCOD9089707
_publ_section_title
;
Structure prediction by ZEFSAII (Michael W. Deem and Ramdas Pophale) SiO2 
 PCOD9089707
Probable space group: P -1
;
_chemical_formula_sum "Si O2"
_cell_formula_units_Z 16
_cell_length_a 26.909639
_cell_length_b 15.136982
_cell_length_c 6.269251
_cell_angle_alpha 99.015840
_cell_angle_beta 83.224368
_cell_angle_gamma 162.051442
_cell_volume 773.152249
_symmetry_space_group_name_H-M "P -1"
_symmetry_group_IT_number 2
_symmetry_cell_setting 'triclinic'
loop_
_space_group_symop_operation_xyz
x,y,z
-x,-y,-z
loop_
_atom_site_type_symbol
_atom_site_label
_atom_site_fract_x
_atom_site_fract_y
_atom_site_fract_z
Si Si1 0.878638 0.320798 0.182517
Si Si2 0.748612 0.241577 0.921338
Si Si3 0.822412 0.801772 0.892068
Si Si4 0.619879 0.404411 0.212833
Si Si5 0.048886 0.719796 0.625818
Si Si6 0.150714 0.068046 0.472768
Si Si7 0.900056 0.742007 0.713739
Si Si8 0.690465 0.334434 0.029683
O O1 0.837396 0.158048 0.261424
O O2 0.970508 0.535982 0.394078
O O3 0.753410 0.171455 0.068114
O O4 0.000000 0.500000 0.000000
O O5 0.898517 0.488096 0.772926
O O6 0.571206 0.933898 0.784374
O O7 0.762686 0.362475 0.072887
O O8 0.826878 0.896387 0.779167
O O9 0.863020 0.783261 0.722981
O O10 0.657902 0.503864 0.990910
O O11 0.961832 0.037158 0.089528
O O12 0.705186 0.622274 0.400892
O O13 0.714883 0.469881 0.191719
O O14 0.140999 0.961817 0.575450
O O15 0.977592 0.821709 0.510873
O O16 0.745283 0.438844 0.795518
O O17 0.500000 0.000000 0.000000
#
# Coordination Sequence:
#
# PCOD9089707 Si02
#       8
#     2   2   2   2   2   2   2   2
#     4   9  21  39  61  83 110 140 186 244 291 338
#     4  10  19  38  61  80 114 156 190 229 281 329
#     4   9  19  31  50  75 112 155 184 219 271 318
#     4   9  21  36  53  84 123 155 185 227 268 336
#     4  10  21  37  60  90 107 138 193 243 285 335
#     4  11  20  33  56  83 116 146 187 236 280 329
#     4   9  17  32  48  76 110 148 192 223 256 327
#     4   9  17  32  53  79 117 154 185 221 265 322
#
# _framework density 20.694500999999999
#
# number of rings (size 3 to 8) (size 9 to 14) (size 15 to 20)
#    0.000    2.500    1.250    1.125    1.750    2.000 
#    0.000    0.625    0.000   14.250    0.000    0.000 
#    0.000    0.000    0.000    0.000    0.000    0.000 
#
# Total GULP energy -89146.764501 kJ/mol
# GULP energy per Si atom -5571.672781 kJ/mol
# Density = 2.064740 g / cm^3
# Si number density = 20.694501 Si / 1000 Ang^3
#
#
#
# Elastic Constant Matrix: (Units=GPa)
#
#
# Indices 1 2 3 4 5 6 
#
# 1 126.3090 34.3734 36.4054 -2.4815 20.4869 -17.1957
# 2 34.3734 82.4071 13.5523 -3.5672 6.3502 -18.3682
# 3 36.4054 13.5523 46.8906 3.1045 5.4486 -6.2079
# 4 -2.4815 -3.5672 3.1045 19.7874 -8.2496 2.7998
# 5 20.4869 6.3502 5.4486 -8.2496 29.3934 -6.4634
# 6 -17.1957 -18.3682 -6.2079 2.7998 -6.4634 25.5826
#
#
#
# Elastic Compliance Matrix: (Units=1/GPa)
#
#
# Indices 1 2 3 4 5 6 
#
# 1 0.012214 -0.002762 -0.007540 -0.000733 -0.006077 0.002941
# 2 -0.002762 0.015524 -0.001432 0.001970 0.001386 0.009077
# 3 -0.007540 -0.001432 0.028305 -0.006308 -0.001197 0.001160
# 4 -0.000733 0.001970 -0.006308 0.059400 0.017325 -0.002733
# 5 -0.006077 0.001386 -0.001197 0.017325 0.044345 0.005927
# 6 0.002941 0.009077 0.001160 -0.002733 0.005927 0.049661
#
#
# Mechanical properties :
#
#
# Convention : Reuss Voigt Hill
#
# Bulk Modulus (GPa) = 30.69967 47.14097 38.92032
# Shear Modulus (GPa) = 20.51064 26.37105 23.44085
#
# Velocity S-wave (km/s) = 3.15161 3.57361 3.36923
# Velocity P-wave (km/s) = 5.30193 6.31320 5.82954
#
# Compressibility (1/GPa) = 0.03257364
#
# Stress axis : x y z
#
# Youngs Moduli (GPa) = 81.87391 64.41545 35.33005
#
# Poissons Ratio (x) = 0.17794 0.26640
# Poissons Ratio (y) = 0.22617 0.05059
# Poissons Ratio (z) = 0.61735 0.09224
#
# Static dielectric constant tensor:
#      x y z
#    x 1.809200 -0.032740 0.001640 
#    y -0.032740 1.753780 -0.003240 
#    z 0.001640 -0.003240 1.781240 
# 
# From -- ./inp_files/94489.got.cif
#   From: 2010.05.17/outbox.cif.g08.bks.cpg/sg2_48_cif.got.tgz:94489.got - 2010.06.03 11:33:40.
