data_PCOD9089026
_publ_section_title
;
Structure prediction by ZEFSAII (Michael W. Deem and Ramdas Pophale) SiO2 
 PCOD9089026
Probable space group: P -1
;
_chemical_formula_sum "Si O2"
_cell_formula_units_Z 16
_cell_length_a 19.295949
_cell_length_b 9.083697
_cell_length_c 26.187188
_cell_angle_alpha 28.381679
_cell_angle_beta 20.065540
_cell_angle_gamma 38.492962
_cell_volume 721.190404
_symmetry_space_group_name_H-M "P -1"
_symmetry_group_IT_number 2
_symmetry_cell_setting 'triclinic'
loop_
_space_group_symop_operation_xyz
x,y,z
-x,-y,-z
loop_
_atom_site_type_symbol
_atom_site_label
_atom_site_fract_x
_atom_site_fract_y
_atom_site_fract_z
Si Si1 0.249388 0.844645 0.226329
Si Si2 0.372315 0.223802 0.322011
Si Si3 0.873873 0.310335 0.531359
Si Si4 0.469315 0.318994 0.492634
Si Si5 0.474729 0.387679 0.349949
Si Si6 0.776939 0.602130 0.990103
Si Si7 0.681698 0.718565 0.773745
Si Si8 0.792534 0.496806 0.301205
O O1 0.222425 0.464760 0.356494
O O2 0.179877 0.891238 0.317492
O O3 0.500000 0.000000 0.000000
O O4 0.160091 0.043226 0.186242
O O5 0.585618 0.389369 0.153593
O O6 0.405028 0.221934 0.239409
O O7 0.282075 0.870740 0.514365
O O8 0.734059 0.560001 0.547563
O O9 0.123146 0.440144 0.316490
O O10 0.785388 0.059133 0.624255
O O11 0.468493 0.448224 0.396288
O O12 0.651076 0.522061 0.342190
O O13 0.261286 0.301644 0.675420
O O14 0.509745 0.971386 0.562305
O O15 0.676838 0.607680 0.113552
O O16 0.970686 0.450893 0.896638
O O17 0.500000 0.500000 0.000000
#
# Coordination Sequence:
#
# PCOD9089026 Si02
#       8
#     2   2   2   2   2   2   2   2
#     4  10  19  37  64  94 129 164 208 247 311 390
#     4  11  22  42  63  97 129 165 208 261 309 388
#     4  11  22  43  63  91 134 171 200 264 315 378
#     4  10  24  44  67  91 126 168 222 276 325 365
#     4  11  22  44  67  94 129 168 217 275 319 373
#     4  11  23  39  70  96 129 168 217 257 324 389
#     4  11  25  38  62  96 136 167 206 246 319 394
#     4  11  23  44  68  92 126 173 215 269 328 377
#
# _framework density 22.185542000000002
#
# number of rings (size 3 to 8) (size 9 to 14) (size 15 to 20)
#    0.000    1.250    3.750    3.000    0.000    7.000 
#    0.000    0.000    0.000    0.000    0.000    0.000 
#    0.000    0.000    0.000    0.000    0.000    0.000 
#
# Total GULP energy -89454.788751 kJ/mol
# GULP energy per Si atom -5590.924297 kJ/mol
# Density = 2.213505 g / cm^3
# Si number density = 22.185542 Si / 1000 Ang^3
#
#
#
# Elastic Constant Matrix: (Units=GPa)
#
#
# Indices 1 2 3 4 5 6 
#
# 1 138.2454 23.7177 44.4749 17.4396 30.5648 12.6312
# 2 23.7177 103.2509 30.3416 22.1537 2.2155 -7.9123
# 3 44.4749 30.3416 108.4403 28.3656 13.3429 -10.1653
# 4 17.4396 22.1537 28.3656 44.5757 2.1298 -5.2099
# 5 30.5648 2.2155 13.3429 2.1298 31.0363 6.3054
# 6 12.6312 -7.9123 -10.1653 -5.2099 6.3054 39.1087
#
#
#
# Elastic Compliance Matrix: (Units=1/GPa)
#
#
# Indices 1 2 3 4 5 6 
#
# 1 0.010789 -0.001342 -0.002871 -0.001714 -0.008494 -0.003361
# 2 -0.001342 0.011418 -0.001584 -0.004007 0.001135 0.001615
# 3 -0.002871 -0.001584 0.013094 -0.005841 -0.003044 0.003723
# 4 -0.001714 -0.004007 -0.005841 0.028912 0.002150 0.001730
# 5 -0.008494 0.001135 -0.003044 0.002150 0.042559 -0.004394
# 6 -0.003361 0.001615 0.003723 0.001730 -0.004394 0.028888
#
#
# Mechanical properties :
#
#
# Convention : Reuss Voigt Hill
#
# Bulk Modulus (GPa) = 42.18364 60.77833 51.48098
# Shear Modulus (GPa) = 32.22551 39.70431 35.96491
#
# Velocity S-wave (km/s) = 3.81536 4.23501 4.03065
# Velocity P-wave (km/s) = 6.20198 7.16720 6.70199
#
# Compressibility (1/GPa) = 0.02370587
#
# Stress axis : x y z
#
# Youngs Moduli (GPa) = 92.68976 87.57953 76.37170
#
# Poissons Ratio (x) = 0.11755 0.21925
# Poissons Ratio (y) = 0.12441 0.12101
# Poissons Ratio (z) = 0.26609 0.13877
#
# Static dielectric constant tensor:
#      x y z
#    x 1.814660 -0.004460 -0.020480 
#    y -0.004460 1.917340 0.033080 
#    z -0.020480 0.033080 1.873460 
# 
# From -- ./inp_files/620681.got.cif
#   From: 2010.05.17/outbox.cif.g08.bks.cpg/sg2_311_cif.got.tgz:620681.got - 2010.06.03 11:33:40.
