data_PCOD9089328
_publ_section_title
;
Structure prediction by ZEFSAII (Michael W. Deem and Ramdas Pophale) SiO2 
 PCOD9089328
Probable space group: P -1
;
_chemical_formula_sum "Si O2"
_cell_formula_units_Z 16
_cell_length_a 11.648502
_cell_length_b 8.917181
_cell_length_c 18.112617
_cell_angle_alpha 111.923483
_cell_angle_beta 139.865731
_cell_angle_gamma 97.958673
_cell_volume 793.454134
_symmetry_space_group_name_H-M "P -1"
_symmetry_group_IT_number 2
_symmetry_cell_setting 'triclinic'
loop_
_space_group_symop_operation_xyz
x,y,z
-x,-y,-z
loop_
_atom_site_type_symbol
_atom_site_label
_atom_site_fract_x
_atom_site_fract_y
_atom_site_fract_z
Si Si1 0.001520 0.002830 0.413807
Si Si2 0.409558 0.049328 0.877268
Si Si3 0.886502 0.725391 0.059346
Si Si4 0.754351 0.558810 0.128709
Si Si5 0.301555 0.498276 0.366735
Si Si6 0.238070 0.982910 0.944588
Si Si7 0.534463 0.967650 0.596054
Si Si8 0.552579 0.341756 0.702533
O O1 0.273663 0.232156 0.559791
O O2 0.000000 0.000000 0.500000
O O3 0.778545 0.978821 0.274370
O O4 0.947085 0.789187 0.313719
O O5 0.265398 0.952441 0.866394
O O6 0.661103 0.322174 0.061983
O O7 0.518538 0.947355 0.887237
O O8 0.838977 0.614581 0.095549
O O9 0.768882 0.828538 0.021122
O O10 0.753694 0.541166 0.895423
O O11 0.187552 0.927522 0.236182
O O12 0.500000 0.500000 0.000000
O O13 0.500000 0.500000 0.500000
O O14 0.337428 0.695895 0.460310
O O15 0.365957 0.568426 0.324883
O O16 0.021790 0.249883 0.192845
O O17 0.500000 0.000000 0.500000
O O18 0.527693 0.132880 0.665228
#
# Coordination Sequence:
#
# PCOD9089328 Si02
#       8
#     2   2   2   2   2   2   2   2
#     4  11  22  41  66  98 127 163 220 274 325 375
#     4  10  23  41  66  97 123 174 222 266 323 390
#     4  12  22  43  65  95 133 167 217 270 330 387
#     4  10  19  37  68  89 119 170 217 268 314 372
#     4  11  22  43  66  92 130 177 210 264 328 391
#     4  11  23  40  69  92 134 170 218 258 331 392
#     4  10  23  41  65  94 123 167 217 266 322 381
#     4  11  25  40  65  99 128 167 219 273 321 383
#
# _framework density 20.164995999999999
#
# number of rings (size 3 to 8) (size 9 to 14) (size 15 to 20)
#    0.000    1.250    3.750    4.125    5.250    0.500 
#    2.250    0.625    0.000    0.000    0.000    0.000 
#    0.000    0.000    0.000    0.000    0.000    0.000 
#
# Total GULP energy -89348.422948 kJ/mol
# GULP energy per Si atom -5584.276434 kJ/mol
# Density = 2.011910 g / cm^3
# Si number density = 20.164996 Si / 1000 Ang^3
#
#
#
# Elastic Constant Matrix: (Units=GPa)
#
#
# Indices 1 2 3 4 5 6 
#
# 1 81.3072 38.9009 40.6388 -4.7911 -2.2206 7.4780
# 2 38.9009 99.9220 23.9289 -3.4460 -6.5300 -2.1867
# 3 40.6388 23.9289 89.1081 -5.4826 -11.7506 7.9084
# 4 -4.7911 -3.4460 -5.4826 32.5486 -1.4144 11.9253
# 5 -2.2206 -6.5300 -11.7506 -1.4144 32.4267 -0.1523
# 6 7.4780 -2.1867 7.9084 11.9253 -0.1523 45.6569
#
#
#
# Elastic Compliance Matrix: (Units=1/GPa)
#
#
# Indices 1 2 3 4 5 6 
#
# 1 0.018872 -0.005817 -0.007006 0.001850 -0.002350 -0.002647
# 2 -0.005817 0.012581 -0.000638 -0.000179 0.001904 0.001719
# 3 -0.007006 -0.000638 0.015627 0.002581 0.005157 -0.002247
# 4 0.001850 -0.000179 0.002581 0.035160 0.002513 -0.009934
# 5 -0.002350 0.001904 0.005157 0.002513 0.033035 -0.000963
# 6 -0.002647 0.001719 -0.002247 -0.009934 -0.000963 0.025399
#
#
# Mechanical properties :
#
#
# Convention : Reuss Voigt Hill
#
# Bulk Modulus (GPa) = 49.60726 53.03052 51.31889
# Shear Modulus (GPa) = 28.68359 33.25102 30.96730
#
# Velocity S-wave (km/s) = 3.77562 4.06513 3.92305
# Velocity P-wave (km/s) = 6.60766 6.95623 6.78418
#
# Compressibility (1/GPa) = 0.02015834
#
# Stress axis : x y z
#
# Youngs Moduli (GPa) = 52.98818 79.48391 63.99217
#
# Poissons Ratio (x) = 0.46237 0.44832
# Poissons Ratio (y) = 0.30824 0.04083
# Poissons Ratio (z) = 0.37123 0.05071
#
# Static dielectric constant tensor:
#      x y z
#    x 1.714620 -0.039660 0.011380 
#    y -0.039660 1.761540 0.008090 
#    z 0.011380 0.008090 1.743320 
# 
# From -- ./inp_files/182579.got.cif
#   From: 2010.05.17/outbox.cif.g08.bks.cpg/sg2_92_cif.got.tgz:182579.got - 2010.06.03 11:33:40.
