data_PCOD9089068
_publ_section_title
;
Structure prediction by ZEFSAII (Michael W. Deem and Ramdas Pophale) SiO2 
 PCOD9089068
Probable space group: P -1
;
_chemical_formula_sum "Si O2"
_cell_formula_units_Z 16
_cell_length_a 10.898676
_cell_length_b 13.814431
_cell_length_c 11.169322
_cell_angle_alpha 110.767638
_cell_angle_beta 34.161958
_cell_angle_gamma 121.923820
_cell_volume 789.237313
_symmetry_space_group_name_H-M "P -1"
_symmetry_group_IT_number 2
_symmetry_cell_setting 'triclinic'
loop_
_space_group_symop_operation_xyz
x,y,z
-x,-y,-z
loop_
_atom_site_type_symbol
_atom_site_label
_atom_site_fract_x
_atom_site_fract_y
_atom_site_fract_z
Si Si1 0.779109 0.017158 0.627530
Si Si2 0.196938 0.570644 0.192499
Si Si3 0.904975 0.914761 0.820922
Si Si4 0.759357 0.123058 0.041427
Si Si5 0.267312 0.878339 0.662145
Si Si6 0.136595 0.660463 0.520001
Si Si7 0.302746 0.314355 0.249506
Si Si8 0.976227 0.253979 0.697338
O O1 0.854723 0.034387 0.435848
O O2 0.799574 0.135793 0.717912
O O3 0.000000 0.000000 0.500000
O O4 0.509386 0.916802 0.815657
O O5 0.983384 0.444000 0.335152
O O6 0.270256 0.627833 0.291363
O O7 0.106522 0.647571 0.219822
O O8 0.438710 0.579882 0.938766
O O9 0.717038 0.801659 0.850492
O O10 0.012838 0.883777 0.838078
O O11 0.807684 0.009523 0.955455
O O12 0.954126 0.217268 0.836984
O O13 0.748717 0.156162 0.201300
O O14 0.280684 0.780923 0.523201
O O15 0.500000 0.000000 0.500000
O O16 0.910844 0.666078 0.633901
O O17 0.230301 0.291131 0.437052
#
# Coordination Sequence:
#
# PCOD9089068 Si02
#       8
#     2   2   2   2   2   2   2   2
#     4  11  21  35  55  87 122 153 197 251 293 351
#     4  10  19  37  65  83 116 152 194 259 299 334
#     4  10  21  36  56  86 117 159 201 238 297 357
#     4  12  23  36  58  82 127 165 190 242 303 354
#     4  11  23  41  59  86 125 161 200 241 292 369
#     4   9  21  39  58  91 112 151 206 243 295 352
#     4   9  19  33  59  85 117 145 196 256 296 340
#     4  10  22  32  53  91 113 149 202 234 297 354
#
# _framework density 20.272736999999999
#
# number of rings (size 3 to 8) (size 9 to 14) (size 15 to 20)
#    0.000    1.750    2.500    2.625    5.250    0.000 
#    0.000    0.625    0.000    0.750    0.000    0.000 
#    0.000    0.000    0.000    0.000    0.000    0.000 
#
# Total GULP energy -89316.290694 kJ/mol
# GULP energy per Si atom -5582.268168 kJ/mol
# Density = 2.022660 g / cm^3
# Si number density = 20.272737 Si / 1000 Ang^3
#
#
#
# Elastic Constant Matrix: (Units=GPa)
#
#
# Indices 1 2 3 4 5 6 
#
# 1 76.0066 21.2631 22.9492 -7.8599 10.3016 -8.3940
# 2 21.2631 69.7755 12.1458 -5.1956 6.9425 -5.9773
# 3 22.9492 12.1458 81.4968 -20.9478 17.5463 6.4729
# 4 -7.8599 -5.1956 -20.9478 23.7901 -7.5076 5.6467
# 5 10.3016 6.9425 17.5463 -7.5076 25.1916 0.5030
# 6 -8.3940 -5.9773 6.4729 5.6467 0.5030 21.1505
#
#
#
# Elastic Compliance Matrix: (Units=1/GPa)
#
#
# Indices 1 2 3 4 5 6 
#
# 1 0.016592 -0.003417 -0.004608 -0.002242 -0.003456 0.007710
# 2 -0.003417 0.016131 -0.001356 -0.000426 -0.002307 0.003786
# 3 -0.004608 -0.001356 0.020729 0.017405 -0.006733 -0.013042
# 4 -0.002242 -0.000426 0.017405 0.064956 0.008747 -0.023887
# 5 -0.003456 -0.002307 -0.006733 0.008747 0.049110 -0.003466
# 6 0.007710 0.003786 -0.013042 -0.023887 -0.003466 0.061861
#
#
# Mechanical properties :
#
#
# Convention : Reuss Voigt Hill
#
# Bulk Modulus (GPa) = 28.82482 37.77724 33.30103
# Shear Modulus (GPa) = 19.25273 25.42117 22.33695
#
# Velocity S-wave (km/s) = 3.08504 3.54497 3.32297
# Velocity P-wave (km/s) = 5.19031 5.95237 5.58436
#
# Compressibility (1/GPa) = 0.03469232
#
# Stress axis : x y z
#
# Youngs Moduli (GPa) = 60.27055 61.99263 48.24109
#
# Poissons Ratio (x) = 0.21181 0.22228
# Poissons Ratio (y) = 0.20592 0.06539
# Poissons Ratio (z) = 0.27771 0.08403
#
# Static dielectric constant tensor:
#      x y z
#    x 1.775170 -0.029890 0.012800 
#    y -0.029890 1.729400 0.003570 
#    z 0.012800 0.003570 1.745390 
# 
# From -- ./inp_files/433048.got.cif
#   From: 2010.05.17/outbox.cif.g08.bks.cpg/sg2_217_cif.got.tgz:433048.got - 2010.06.03 11:33:40.
