data_PCOD9089566
_publ_section_title
;
Structure prediction by ZEFSAII (Michael W. Deem and Ramdas Pophale) SiO2 
 PCOD9089566
Probable space group: P -1
;
_chemical_formula_sum "Si O2"
_cell_formula_units_Z 16
_cell_length_a 7.795118
_cell_length_b 14.489793
_cell_length_c 7.213953
_cell_angle_alpha 86.576308
_cell_angle_beta 129.011056
_cell_angle_gamma 100.305760
_cell_volume 621.423013
_symmetry_space_group_name_H-M "P -1"
_symmetry_group_IT_number 2
_symmetry_cell_setting 'triclinic'
loop_
_space_group_symop_operation_xyz
x,y,z
-x,-y,-z
loop_
_atom_site_type_symbol
_atom_site_label
_atom_site_fract_x
_atom_site_fract_y
_atom_site_fract_z
Si Si1 0.968056 0.187803 0.539823
Si Si2 0.801057 0.056455 0.887526
Si Si3 0.340525 0.988300 0.607370
Si Si4 0.624639 0.524421 0.276882
Si Si5 0.736857 0.361036 0.884375
Si Si6 0.864789 0.368708 0.402147
Si Si7 0.925517 0.753549 0.989334
Si Si8 0.656903 0.792771 0.486192
O O1 0.144548 0.230238 0.501863
O O2 0.854256 0.082825 0.415851
O O3 0.796404 0.259640 0.421206
O O4 0.088191 0.205037 0.819129
O O5 0.692298 0.064270 0.608659
O O6 0.590489 0.996359 0.857188
O O7 0.909087 0.159586 0.011021
O O8 0.000000 0.000000 0.000000
O O9 0.317740 0.095242 0.540919
O O10 0.438239 0.565285 0.266815
O O11 0.716050 0.430429 0.408710
O O12 0.867723 0.591666 0.394767
O O13 0.500000 0.500000 0.000000
O O14 0.569759 0.263452 0.744376
O O15 0.815754 0.375942 0.149157
O O16 0.963832 0.340389 0.935795
O O17 0.699620 0.754256 0.722527
#
# Coordination Sequence:
#
# PCOD9089566 Si02
#       8
#     2   2   2   2   2   2   2   2
#     4  11  24  41  62 100 131 167 220 274 318 378
#     4  10  19  38  59  86 123 175 221 263 313 369
#     4  10  22  37  60  91 129 175 223 260 315 378
#     4   9  19  37  72  94 122 171 206 259 337 395
#     4  11  20  40  66  93 125 175 213 257 327 387
#     4  10  20  41  64  99 129 158 215 270 322 395
#     4  11  23  39  63  90 131 174 216 269 316 372
#     4  12  22  43  62  90 136 176 219 261 315 383
#
# _framework density 25.747357999999998
#
# number of rings (size 3 to 8) (size 9 to 14) (size 15 to 20)
#    0.000    1.500    5.000    0.375    0.000    0.000 
#    6.750    1.875    0.000   10.500    0.000    0.000 
#    0.000    0.000    0.000    0.000    0.000    0.000 
#
# Total GULP energy -89237.253823 kJ/mol
# GULP energy per Si atom -5577.328364 kJ/mol
# Density = 2.568876 g / cm^3
# Si number density = 25.747358 Si / 1000 Ang^3
#
#
#
# Elastic Constant Matrix: (Units=GPa)
#
#
# Indices 1 2 3 4 5 6 
#
# 1 54.8427 12.8897 37.9126 -3.0024 11.0151 -18.1643
# 2 12.8897 122.3378 25.5162 -14.2517 16.1773 -44.4094
# 3 37.9126 25.5162 133.5017 13.5188 17.8754 -4.9358
# 4 -3.0024 -14.2517 13.5188 34.4455 -13.5632 8.3178
# 5 11.0151 16.1773 17.8754 -13.5632 33.2671 -8.0607
# 6 -18.1643 -44.4094 -4.9358 8.3178 -8.0607 37.7949
#
#
#
# Elastic Compliance Matrix: (Units=1/GPa)
#
#
# Indices 1 2 3 4 5 6 
#
# 1 0.030223 0.006633 -0.009167 0.003327 -0.002120 0.019938
# 2 0.006633 0.016668 -0.004482 0.003623 -0.001301 0.021113
# 3 -0.009167 -0.004482 0.012405 -0.008310 -0.006693 -0.007650
# 4 0.003327 0.003623 -0.008310 0.041425 0.018388 -0.000424
# 5 -0.002120 -0.001301 -0.006693 0.018388 0.042894 0.001680
# 6 0.019938 0.021113 -0.007650 -0.000424 0.001680 0.060301
#
#
# Mechanical properties :
#
#
# Convention : Reuss Voigt Hill
#
# Bulk Modulus (GPa) = 22.09156 51.47987 36.78572
# Shear Modulus (GPa) = 21.45587 36.72576 29.09081
#
# Velocity S-wave (km/s) = 2.88987 3.78085 3.36498
# Velocity P-wave (km/s) = 4.44228 6.25280 5.42362
#
# Compressibility (1/GPa) = 0.04526616
#
# Stress axis : x y z
#
# Youngs Moduli (GPa) = 33.08692 59.99444 80.61196
#
# Poissons Ratio (x) = -0.39794 0.73895
# Poissons Ratio (y) = -0.21947 0.36127
# Poissons Ratio (z) = 0.30330 0.26887
#
# Static dielectric constant tensor:
#      x y z
#    x 2.195120 -0.001970 0.065220 
#    y -0.001970 2.176510 -0.094710 
#    z 0.065220 -0.094710 2.066400 
# 
# From -- ./inp_files/207462.got.cif
#   From: 2010.05.17/outbox.cif.g08.bks.cpg/sg2_104_cif.got.tgz:207462.got - 2010.06.03 11:33:40.
