data_PCOD9089612
_publ_section_title
;
Structure prediction by ZEFSAII (Michael W. Deem and Ramdas Pophale) SiO2 
 PCOD9089612
Probable space group: P -1
;
_chemical_formula_sum "Si O2"
_cell_formula_units_Z 12
_cell_length_a 8.828653
_cell_length_b 13.431275
_cell_length_c 11.348883
_cell_angle_alpha 64.420354
_cell_angle_beta 42.867577
_cell_angle_gamma 102.546322
_cell_volume 407.568197
_symmetry_space_group_name_H-M "P -1"
_symmetry_group_IT_number 2
_symmetry_cell_setting 'triclinic'
loop_
_space_group_symop_operation_xyz
x,y,z
-x,-y,-z
loop_
_atom_site_type_symbol
_atom_site_label
_atom_site_fract_x
_atom_site_fract_y
_atom_site_fract_z
Si Si1 0.668887 0.177881 0.681451
Si Si2 0.309299 0.006475 0.742459
Si Si3 0.913244 0.430143 0.876289
Si Si4 0.081320 0.180622 0.170339
Si Si5 0.728638 0.501732 0.130478
Si Si6 0.369494 0.082670 0.166477
O O1 0.241617 0.991656 0.927814
O O2 0.949543 0.402599 0.362656
O O3 0.858567 0.136288 0.569478
O O4 0.572454 0.148977 0.886949
O O5 0.913661 0.850469 0.954929
O O6 0.748372 0.276506 0.947411
O O7 0.734610 0.266830 0.331766
O O8 0.556490 0.334868 0.222396
O O9 0.245858 0.509273 0.738537
O O10 0.567433 0.002205 0.571820
O O11 0.389892 0.423633 0.875880
O O12 0.147316 0.107411 0.256625
#
# Coordination Sequence:
#
# PCOD9089612 Si02
#       6
#     2   2   2   2   2   2
#     4  10  22  40  54  84 117 155 185 222 287 342
#     4   8  17  37  58  80 113 143 191 228 282 329
#     4  10  19  38  60  79 115 153 183 235 281 331
#     4   9  18  35  59  89 109 145 192 237 277 330
#     4   8  17  35  58  82 108 150 187 231 282 325
#     4  11  23  35  59  85 118 149 187 230 281 335
#
# _framework density 29.442924999999999
#
# number of rings (size 3 to 8) (size 9 to 14) (size 15 to 20)
#    1.000    1.667    0.000    1.500    0.000    2.000 
#    0.000    4.167    0.000    0.000    0.000    0.000 
#    0.000    0.000    0.000    0.000    0.000    0.000 
#
# Total GULP energy -66917.679754 kJ/mol
# GULP energy per Si atom -5576.473313 kJ/mol
# Density = 2.937591 g / cm^3
# Si number density = 29.442925 Si / 1000 Ang^3
#
#
#
# Elastic Constant Matrix: (Units=GPa)
#
#
# Indices 1 2 3 4 5 6 
#
# 1 133.2053 17.6603 53.6102 -16.4919 48.0868 -10.1521
# 2 17.6603 155.1765 38.7357 -11.1192 24.3349 -7.4717
# 3 53.6102 38.7357 65.4366 -10.2430 24.6001 -7.9098
# 4 -16.4919 -11.1192 -10.2430 35.6512 -9.0940 19.5619
# 5 48.0868 24.3349 24.6001 -9.0940 56.9833 -1.8876
# 6 -10.1521 -7.4717 -7.9098 19.5619 -1.8876 65.3233
#
#
#
# Elastic Compliance Matrix: (Units=1/GPa)
#
#
# Indices 1 2 3 4 5 6 
#
# 1 0.014508 0.002283 -0.009558 0.002207 -0.008725 0.000445
# 2 0.002283 0.008066 -0.005359 0.001200 -0.002859 0.000186
# 3 -0.009558 -0.005359 0.026945 0.000892 -0.001107 0.000865
# 4 0.002207 0.001200 0.000892 0.035910 0.002637 -0.010089
# 5 -0.008725 -0.002859 -0.001107 0.002637 0.026971 -0.001827
# 6 0.000445 0.000186 0.000865 -0.010089 -0.001827 0.018472
#
#
# Mechanical properties :
#
#
# Convention : Reuss Voigt Hill
#
# Bulk Modulus (GPa) = 41.23751 63.75898 52.49825
# Shear Modulus (GPa) = 30.44615 47.84569 39.14592
#
# Velocity S-wave (km/s) = 3.21919 4.03554 3.65026
# Velocity P-wave (km/s) = 5.27768 6.58910 5.96951
#
# Compressibility (1/GPa) = 0.02424977
#
# Stress axis : x y z
#
# Youngs Moduli (GPa) = 68.92701 123.98221 37.11214
#
# Poissons Ratio (x) = -0.28300 0.35472
# Poissons Ratio (y) = -0.15733 0.19889
# Poissons Ratio (z) = 0.65880 0.66445
#
# Static dielectric constant tensor:
#      x y z
#    x 2.468540 -0.011890 -0.106170 
#    y -0.011890 2.484460 0.021180 
#    z -0.106170 0.021180 2.448290 
# 
# From -- ./inp_files/245781.got.cif
#   From: 2010.05.17/outbox.cif.g08.bks.cpg/sg2_123_cif.got.tgz:245781.got - 2010.06.03 11:33:40.
