data_PCOD9089269
_publ_section_title
;
Structure prediction by ZEFSAII (Michael W. Deem and Ramdas Pophale) SiO2 
 PCOD9089269
Probable space group: P -1
;
_chemical_formula_sum "Si O2"
_cell_formula_units_Z 14
_cell_length_a 15.183952
_cell_length_b 7.412152
_cell_length_c 8.542440
_cell_angle_alpha 74.398835
_cell_angle_beta 50.844543
_cell_angle_gamma 51.787830
_cell_volume 573.977019
_symmetry_space_group_name_H-M "P -1"
_symmetry_group_IT_number 2
_symmetry_cell_setting 'triclinic'
loop_
_space_group_symop_operation_xyz
x,y,z
-x,-y,-z
loop_
_atom_site_type_symbol
_atom_site_label
_atom_site_fract_x
_atom_site_fract_y
_atom_site_fract_z
Si Si1 0.801274 0.376836 0.343331
Si Si2 0.155423 0.540434 0.251590
Si Si3 0.573528 0.883701 0.780882
Si Si4 0.471539 0.446428 0.216510
Si Si5 0.987827 0.613430 0.707593
Si Si6 0.248192 0.160724 0.662037
Si Si7 0.250742 0.768762 0.884954
O O1 0.690197 0.381918 0.581445
O O2 0.954517 0.280717 0.266614
O O3 0.732171 0.652435 0.329151
O O4 0.803569 0.261614 0.209344
O O5 0.283492 0.364630 0.265384
O O6 0.019756 0.664486 0.488006
O O7 0.150788 0.376251 0.166744
O O8 0.175069 0.722142 0.112899
O O9 0.492052 0.809502 0.788849
O O10 0.629709 0.984700 0.573411
O O11 0.500000 0.000000 0.000000
O O12 0.581698 0.425248 0.220324
O O13 0.500000 0.500000 0.000000
O O14 0.099135 0.338710 0.697199
O O15 0.232419 0.008329 0.833889
#
# Coordination Sequence:
#
# PCOD9089269 Si02
#       7
#     2   2   2   2   2   2   2
#     4   9  21  39  57  84 127 158 187 249 299 346
#     4  10  19  37  67  85 111 170 195 237 306 344
#     4  10  21  38  60  86 124 154 199 246 294 352
#     4  11  21  38  56  86 119 155 202 236 295 361
#     4   8  18  43  63  77 123 160 199 241 292 354
#     4   8  21  40  55  92 120 152 196 248 290 353
#     4  12  22  33  65  90 119 155 199 242 306 348
#
# _framework density 24.391221000000002
#
# number of rings (size 3 to 8) (size 9 to 14) (size 15 to 20)
#    0.857    1.429    2.857    0.429    2.000    5.714 
#    0.000    0.000    3.143    2.571    0.000    0.000 
#    0.000    0.000    0.000    0.000    0.000    0.000 
#
# Total GULP energy -78015.289157 kJ/mol
# GULP energy per Si atom -5572.520654 kJ/mol
# Density = 2.433571 g / cm^3
# Si number density = 24.391221 Si / 1000 Ang^3
#
#
#
# Elastic Constant Matrix: (Units=GPa)
#
#
# Indices 1 2 3 4 5 6 
#
# 1 143.0213 1.7664 -0.2038 -10.6413 -5.6746 13.3000
# 2 1.7664 22.3813 17.8423 -12.8239 -14.4617 3.5943
# 3 -0.2038 17.8423 116.7926 -34.5378 -15.7366 -8.9318
# 4 -10.6413 -12.8239 -34.5378 33.3491 10.2063 1.3969
# 5 -5.6746 -14.4617 -15.7366 10.2063 19.8681 -5.6570
# 6 13.3000 3.5943 -8.9318 1.3969 -5.6570 19.6102
#
#
#
# Elastic Compliance Matrix: (Units=1/GPa)
#
#
# Indices 1 2 3 4 5 6 
#
# 1 0.007817 0.002879 0.000471 0.004001 0.001052 -0.005596
# 2 0.002879 0.093784 -0.001664 0.017942 0.057222 -0.004671
# 3 0.000471 -0.001664 0.013510 0.011458 0.005724 0.006974
# 4 0.004001 0.017942 0.011458 0.051815 -0.005026 -0.005924
# 5 0.001052 0.057222 0.005724 -0.005026 0.105738 0.022266
# 6 -0.005596 -0.004671 0.006974 -0.005924 0.022266 0.065667
#
#
# Mechanical properties :
#
#
# Convention : Reuss Voigt Hill
#
# Bulk Modulus (GPa) = 8.43998 35.66722 22.05360
# Shear Modulus (GPa) = 13.35281 32.08483 22.71882
#
# Velocity S-wave (km/s) = 2.34229 3.63081 3.05525
# Velocity P-wave (km/s) = 3.28373 5.67731 4.63760
#
# Compressibility (1/GPa) = 0.11848367
#
# Stress axis : x y z
#
# Youngs Moduli (GPa) = 127.92666 10.66285 74.01816
#
# Poissons Ratio (x) = -0.03070 -0.03486
# Poissons Ratio (y) = -0.36831 0.12313
# Poissons Ratio (z) = -0.06024 0.01774
#
# Static dielectric constant tensor:
#      x y z
#    x 1.933680 0.033440 -0.029740 
#    y 0.033440 1.978720 0.062370 
#    z -0.029740 0.062370 2.040210 
# 
# From -- ./inp_files/294721.got.cif
#   From: 2010.05.17/outbox.cif.g08.bks.cpg/sg2_148_cif.got.tgz:294721.got - 2010.06.03 11:33:40.
