data_PCOD9089485
_publ_section_title
;
Structure prediction by ZEFSAII (Michael W. Deem and Ramdas Pophale) SiO2 
 PCOD9089485
Probable space group: P -1
;
_chemical_formula_sum "Si O2"
_cell_formula_units_Z 14
_cell_length_a 17.612586
_cell_length_b 6.912802
_cell_length_c 7.072260
_cell_angle_alpha 118.566293
_cell_angle_beta 130.911961
_cell_angle_gamma 52.123199
_cell_volume 509.439195
_symmetry_space_group_name_H-M "P -1"
_symmetry_group_IT_number 2
_symmetry_cell_setting 'triclinic'
loop_
_space_group_symop_operation_xyz
x,y,z
-x,-y,-z
loop_
_atom_site_type_symbol
_atom_site_label
_atom_site_fract_x
_atom_site_fract_y
_atom_site_fract_z
Si Si1 0.297019 0.062589 0.650544
Si Si2 0.398794 0.852194 0.357713
Si Si3 0.932418 0.899777 0.662077
Si Si4 0.173505 0.069305 0.912522
Si Si5 0.842388 0.414525 0.260101
Si Si6 0.871197 0.430136 0.764677
Si Si7 0.635837 0.454472 0.519771
O O1 0.174844 0.085271 0.391940
O O2 0.260596 0.316899 0.821568
O O3 0.370480 0.043999 0.576307
O O4 0.357497 0.783353 0.699401
O O5 0.525724 0.709326 0.429023
O O6 0.376387 0.639580 0.333217
O O7 0.306487 0.986484 0.111066
O O8 0.878518 0.920242 0.372893
O O9 0.048925 0.652875 0.724775
O O10 0.948563 0.146761 0.822472
O O11 0.169389 0.833837 0.890290
O O12 0.111431 0.340071 0.028450
O O13 0.867470 0.426891 0.529446
O O14 0.749816 0.468641 0.665600
#
# Coordination Sequence:
#
# PCOD9089485 Si02
#       7
#     2   2   2   2   2   2   2
#     4   9  18  41  59  80 116 153 184 239 289 328
#     4   9  18  39  63  85 109 153 194 231 289 340
#     4  10  23  38  59  84 119 153 189 237 287 329
#     4  11  22  36  60  88 115 150 198 229 278 353
#     4  11  22  38  58  85 122 151 187 239 287 331
#     4  10  19  38  57  84 118 149 185 238 281 336
#     4   8  18  36  67  81 111 155 186 234 298 327
#
# _framework density 27.481199
#
# number of rings (size 3 to 8) (size 9 to 14) (size 15 to 20)
#    0.857    1.429    1.429    2.143    0.000    4.000 
#    0.000    7.857    0.000    0.000    0.000    0.000 
#    0.000    0.000    0.000    0.000    0.000    0.000 
#
# Total GULP energy -78226.382790 kJ/mol
# GULP energy per Si atom -5587.598771 kJ/mol
# Density = 2.741865 g / cm^3
# Si number density = 27.481199 Si / 1000 Ang^3
#
#
#
# Elastic Constant Matrix: (Units=GPa)
#
#
# Indices 1 2 3 4 5 6 
#
# 1 81.8290 58.8725 17.4233 21.2707 3.2367 -16.8539
# 2 58.8725 245.2989 50.0490 36.7932 5.7525 -30.2692
# 3 17.4233 50.0490 88.7540 39.4802 -14.9152 -0.3618
# 4 21.2707 36.7932 39.4802 55.0436 8.9229 6.8596
# 5 3.2367 5.7525 -14.9152 8.9229 30.2848 6.2909
# 6 -16.8539 -30.2692 -0.3618 6.8596 6.2909 69.6047
#
#
#
# Elastic Compliance Matrix: (Units=1/GPa)
#
#
# Indices 1 2 3 4 5 6 
#
# 1 0.016136 -0.002856 0.000880 -0.005383 0.000176 0.003184
# 2 -0.002856 0.005735 -0.002821 -0.000569 -0.002434 0.002064
# 3 0.000880 -0.002821 0.023802 -0.018311 0.017702 -0.000685
# 4 -0.005383 -0.000569 -0.018311 0.037221 -0.018546 -0.003638
# 5 0.000176 -0.002434 0.017702 -0.018546 0.048366 -0.003468
# 6 0.003184 0.002064 -0.000685 -0.003638 -0.003468 0.016704
#
#
# Mechanical properties :
#
#
# Convention : Reuss Voigt Hill
#
# Bulk Modulus (GPa) = 27.71688 74.28572 51.00130
# Shear Modulus (GPa) = 29.48387 50.28909 39.88648
#
# Velocity S-wave (km/s) = 3.27903 4.28243 3.81387
# Velocity P-wave (km/s) = 4.94406 7.17930 6.16385
#
# Compressibility (1/GPa) = 0.03607910
#
# Stress axis : x y z
#
# Youngs Moduli (GPa) = 61.97247 174.37579 42.01293
#
# Poissons Ratio (x) = 0.49802 -0.03696
# Poissons Ratio (y) = 0.17700 0.11851
# Poissons Ratio (z) = -0.05452 0.49187
#
# Static dielectric constant tensor:
#      x y z
#    x 2.189340 0.015830 0.009380 
#    y 0.015830 2.136560 -0.001200 
#    z 0.009380 -0.001200 2.196150 
# 
# From -- ./inp_files/342261.got.cif
#   From: 2010.05.17/outbox.cif.g08.bks.cpg/sg2_172_cif.got.tgz:342261.got - 2010.06.03 11:33:40.
