data_PCOD9089560
_publ_section_title
;
Structure prediction by ZEFSAII (Michael W. Deem and Ramdas Pophale) SiO2 
 PCOD9089560
Probable space group: P -1
;
_chemical_formula_sum "Si O2"
_cell_formula_units_Z 16
_cell_length_a 5.045472
_cell_length_b 22.974289
_cell_length_c 5.495642
_cell_angle_alpha 110.541530
_cell_angle_beta 82.385975
_cell_angle_gamma 106.442349
_cell_volume 571.744109
_symmetry_space_group_name_H-M "P -1"
_symmetry_group_IT_number 2
_symmetry_cell_setting 'triclinic'
loop_
_space_group_symop_operation_xyz
x,y,z
-x,-y,-z
loop_
_atom_site_type_symbol
_atom_site_label
_atom_site_fract_x
_atom_site_fract_y
_atom_site_fract_z
Si Si1 0.627711 0.453635 0.586892
Si Si2 0.492531 0.776971 0.043544
Si Si3 0.026524 0.694635 0.308712
Si Si4 0.733703 0.800867 0.548034
Si Si5 0.237312 0.336011 0.291519
Si Si6 0.840933 0.082053 0.221422
Si Si7 0.251434 0.014371 0.303423
Si Si8 0.049639 0.426141 0.104389
O O1 0.500000 0.500000 0.500000
O O2 0.389639 0.389094 0.552404
O O3 0.853424 0.434135 0.361075
O O4 0.771663 0.501139 0.856723
O O5 0.542681 0.808861 0.815381
O O6 0.627044 0.718063 0.890258
O O7 0.206557 0.742290 0.159447
O O8 0.652019 0.819291 0.314081
O O9 0.762260 0.727637 0.405244
O O10 0.061706 0.695284 0.599958
O O11 0.095158 0.624944 0.150315
O O12 0.038332 0.842998 0.645144
O O13 0.231266 0.380550 0.125406
O O14 0.569010 0.051565 0.373099
O O15 0.119809 0.058083 0.201463
O O16 0.743198 0.052186 0.927290
O O17 0.000000 0.000000 0.500000
#
# Coordination Sequence:
#
# PCOD9089560 Si02
#       8
#     2   2   2   2   2   2   2   2
#     4   9  19  36  60  85 120 159 217 274 341 416
#     4  11  25  44  66  97 136 178 230 283 346 408
#     4  11  24  39  65  93 126 176 220 282 347 415
#     4  11  27  44  68 103 136 184 231 284 340 416
#     4  10  21  39  60  89 124 164 218 278 343 416
#     4  10  24  43  69 108 145 189 247 289 357 422
#     4  10  22  45  72 107 146 194 235 300 353 416
#     4  10  19  38  59  85 121 163 213 274 346 412
#
# _framework density 27.984548
#
# number of rings (size 3 to 8) (size 9 to 14) (size 15 to 20)
#    0.000    1.750    2.500    0.375    5.250    0.500 
#    0.000    5.625    0.000    0.000    0.000    0.000 
#    0.000    0.000    0.000    0.000    0.000    0.000 
#
# Total GULP energy -89175.090868 kJ/mol
# GULP energy per Si atom -5573.443179 kJ/mol
# Density = 2.792085 g / cm^3
# Si number density = 27.984548 Si / 1000 Ang^3
#
#
#
# Elastic Constant Matrix: (Units=GPa)
#
#
# Indices 1 2 3 4 5 6 
#
# 1 85.1103 9.6394 37.4730 0.4390 -9.0593 14.4244
# 2 9.6394 93.0417 54.7589 9.3172 -6.8548 27.6048
# 3 37.4730 54.7589 158.1902 -20.0521 -22.0125 19.0657
# 4 0.4390 9.3172 -20.0521 47.4106 8.5061 -15.0968
# 5 -9.0593 -6.8548 -22.0125 8.5061 44.5377 -3.0750
# 6 14.4244 27.6048 19.0657 -15.0968 -3.0750 38.2954
#
#
#
# Elastic Compliance Matrix: (Units=1/GPa)
#
#
# Indices 1 2 3 4 5 6 
#
# 1 0.014999 0.004535 -0.004541 -0.006162 0.002065 -0.008921
# 2 0.004535 0.022268 -0.008023 -0.014258 0.001779 -0.019244
# 3 -0.004541 -0.008023 0.010783 0.007470 0.002106 0.005239
# 4 -0.006162 -0.014258 0.007470 0.035101 -0.004919 0.022323
# 5 0.002065 0.001779 0.002106 -0.004919 0.024917 -0.003047
# 6 -0.008921 -0.019244 0.005239 0.022323 -0.003047 0.049291
#
#
# Mechanical properties :
#
#
# Convention : Reuss Voigt Hill
#
# Bulk Modulus (GPa) = 31.25905 60.00941 45.63423
# Shear Modulus (GPa) = 27.16172 41.68013 34.42093
#
# Velocity S-wave (km/s) = 3.11882 3.86346 3.51094
# Velocity P-wave (km/s) = 4.91566 6.43367 5.72520
#
# Compressibility (1/GPa) = 0.03199074
#
# Stress axis : x y z
#
# Youngs Moduli (GPa) = 66.67205 44.90675 92.73848
#
# Poissons Ratio (x) = -0.20364 0.42115
# Poissons Ratio (y) = -0.30234 0.74405
# Poissons Ratio (z) = 0.30278 0.36029
#
# Static dielectric constant tensor:
#      x y z
#    x 2.505690 0.367220 0.376630 
#    y 0.367220 3.135500 0.377010 
#    z 0.376630 0.377010 2.468810 
# 
# From -- ./inp_files/13558.got.cif
#   From: 2010.05.17/outbox.cif.g08.bks.cpg/sg2_7_cif.got.tgz:13558.got - 2010.06.03 11:33:40.
