data_PCOD9089296
_publ_section_title
;
Structure prediction by ZEFSAII (Michael W. Deem and Ramdas Pophale) SiO2 
 PCOD9089296
Probable space group: P -1
;
_chemical_formula_sum "Si O2"
_cell_formula_units_Z 16
_cell_length_a 19.477052
_cell_length_b 8.152794
_cell_length_c 14.140653
_cell_angle_alpha 117.527255
_cell_angle_beta 157.939574
_cell_angle_gamma 60.815436
_cell_volume 735.927841
_symmetry_space_group_name_H-M "P -1"
_symmetry_group_IT_number 2
_symmetry_cell_setting 'triclinic'
loop_
_space_group_symop_operation_xyz
x,y,z
-x,-y,-z
loop_
_atom_site_type_symbol
_atom_site_label
_atom_site_fract_x
_atom_site_fract_y
_atom_site_fract_z
Si Si1 0.896522 0.732266 0.259707
Si Si2 0.354626 0.888322 0.000245
Si Si3 0.053210 0.698131 0.638054
Si Si4 0.539019 0.552267 0.780763
Si Si5 0.731740 0.260739 0.354327
Si Si6 0.641624 0.139481 0.721831
Si Si7 0.038408 0.011810 0.266829
Si Si8 0.342103 0.885475 0.482482
O O1 0.947792 0.814326 0.447234
O O2 0.095177 0.651307 0.444339
O O3 0.788208 0.914315 0.116714
O O4 0.748977 0.597036 0.055883
O O5 0.262694 0.730639 0.895497
O O6 0.357541 0.828166 0.875831
O O7 0.539276 0.948889 0.295417
O O8 0.000000 0.500000 0.500000
O O9 0.965205 0.778968 0.644150
O O10 0.428765 0.610146 0.754174
O O11 0.554717 0.338896 0.710138
O O12 0.433223 0.700645 0.608615
O O13 0.843016 0.118336 0.536815
O O14 0.677964 0.169044 0.665663
O O15 0.500000 0.000000 0.500000
O O16 0.820367 0.025361 0.974229
O O17 0.140888 0.959353 0.287120
#
# Coordination Sequence:
#
# PCOD9089296 Si02
#       8
#     2   2   2   2   2   2   2   2
#     4  10  19  37  67  94 135 164 214 268 316 397
#     4  10  19  39  68  94 132 170 216 263 322 392
#     4  11  20  34  58  95 135 173 199 256 334 387
#     4  10  24  42  70  97 126 170 223 277 318 390
#     4  10  20  40  70 105 125 167 223 263 330 389
#     4  12  26  47  64  89 135 175 213 271 337 384
#     4  11  22  41  66  95 130 168 219 269 330 384
#     4  10  24  43  70  92 123 175 227 271 310 390
#
# _framework density 21.741263
#
# number of rings (size 3 to 8) (size 9 to 14) (size 15 to 20)
#    0.000    1.500    2.500    3.000    3.500    1.500 
#    9.000    1.875    0.000    0.000    0.000    0.000 
#    0.000    0.000    0.000    0.000    0.000    0.000 
#
# Total GULP energy -89157.079341 kJ/mol
# GULP energy per Si atom -5572.317459 kJ/mol
# Density = 2.169178 g / cm^3
# Si number density = 21.741263 Si / 1000 Ang^3
#
#
#
# Elastic Constant Matrix: (Units=GPa)
#
#
# Indices 1 2 3 4 5 6 
#
# 1 124.2828 57.1983 21.3816 3.4099 -10.3769 -34.4291
# 2 57.1983 123.7255 62.8613 16.3961 15.7765 -23.8811
# 3 21.3816 62.8613 90.8668 4.4457 0.0751 -11.3448
# 4 3.4099 16.3961 4.4457 33.7297 5.3269 1.4182
# 5 -10.3769 15.7765 0.0751 5.3269 41.7452 4.8664
# 6 -34.4291 -23.8811 -11.3448 1.4182 4.8664 32.1038
#
#
#
# Elastic Compliance Matrix: (Units=1/GPa)
#
#
# Indices 1 2 3 4 5 6 
#
# 1 0.013661 -0.006072 0.002255 0.000136 0.004475 0.010246
# 2 -0.006072 0.019582 -0.011085 -0.006302 -0.008755 0.005742
# 3 0.002255 -0.011085 0.018008 0.002090 0.004478 -0.000235
# 4 0.000136 -0.006302 0.002090 0.032822 -0.001185 -0.005074
# 5 0.004475 -0.008755 0.004478 -0.001185 0.029041 -0.004481
# 6 0.010246 0.005742 -0.000235 -0.005074 -0.004481 0.047229
#
#
# Mechanical properties :
#
#
# Convention : Reuss Voigt Hill
#
# Bulk Modulus (GPa) = 46.62851 69.08417 57.85634
# Shear Modulus (GPa) = 25.34255 34.67800 30.01027
#
# Velocity S-wave (km/s) = 3.41786 3.99812 3.71932
# Velocity P-wave (km/s) = 6.08845 7.29094 6.71666
#
# Compressibility (1/GPa) = 0.02144611
#
# Stress axis : x y z
#
# Youngs Moduli (GPa) = 73.20042 51.06859 55.53143
#
# Poissons Ratio (x) = 0.31010 -0.12523
# Poissons Ratio (y) = 0.44448 0.61557
# Poissons Ratio (z) = -0.16507 0.56610
#
# Static dielectric constant tensor:
#      x y z
#    x 1.944870 0.084320 -0.050620 
#    y 0.084320 1.809200 -0.057070 
#    z -0.050620 -0.057070 1.848610 
# 
# From -- ./inp_files/405593.got.cif
#   From: 2010.05.17/outbox.cif.g08.bks.cpg/sg2_203_cif.got.tgz:405593.got - 2010.06.03 11:33:40.
