data_PCOD9089521
_publ_section_title
;
Structure prediction by ZEFSAII (Michael W. Deem and Ramdas Pophale) SiO2 
 PCOD9089521
Probable space group: P -1
;
_chemical_formula_sum "Si O2"
_cell_formula_units_Z 14
_cell_length_a 9.557598
_cell_length_b 7.625307
_cell_length_c 11.121865
_cell_angle_alpha 59.494645
_cell_angle_beta 102.629934
_cell_angle_gamma 70.784295
_cell_volume 580.626928
_symmetry_space_group_name_H-M "P -1"
_symmetry_group_IT_number 2
_symmetry_cell_setting 'triclinic'
loop_
_space_group_symop_operation_xyz
x,y,z
-x,-y,-z
loop_
_atom_site_type_symbol
_atom_site_label
_atom_site_fract_x
_atom_site_fract_y
_atom_site_fract_z
Si Si1 0.268030 0.329619 0.369539
Si Si2 0.954114 0.756724 0.257731
Si Si3 0.006098 0.817429 0.907527
Si Si4 0.889747 0.118495 0.552998
Si Si5 0.725083 0.735045 0.866554
Si Si6 0.389811 0.120147 0.733606
Si Si7 0.514792 0.501331 0.358760
O O1 0.309824 0.175548 0.310575
O O2 0.332328 0.197417 0.556010
O O3 0.357187 0.480405 0.303010
O O4 0.070185 0.519939 0.285599
O O5 0.769774 0.825594 0.237034
O O6 0.059149 0.719108 0.415906
O O7 0.954013 0.980527 0.118135
O O8 0.843213 0.815847 0.924971
O O9 0.162647 0.549854 0.024145
O O10 0.948571 0.902468 0.730497
O O11 0.693125 0.273093 0.434074
O O12 0.000000 0.000000 0.500000
O O13 0.545217 0.848440 0.855351
O O14 0.469044 0.272687 0.743887
O O15 0.500000 0.500000 0.500000
#
# Coordination Sequence:
#
# PCOD9089521 Si02
#       7
#     2   2   2   2   2   2   2
#     4  11  22  36  61  91 112 153 195 236 285 339
#     4  10  22  38  57  87 120 146 187 244 290 332
#     4   9  22  42  56  84 116 156 189 240 283 338
#     4  10  21  36  64  85 114 150 190 239 291 338
#     4  11  23  37  63  82 116 156 198 230 279 351
#     4  11  21  36  59  89 120 150 185 242 291 333
#     4  10  19  38  58  85 121 146 186 244 283 333
#
# _framework density 24.111867
#
# number of rings (size 3 to 8) (size 9 to 14) (size 15 to 20)
#    0.857    0.857    2.857    3.429    4.000    1.143 
#    0.000    0.000    0.000    5.143    0.000    0.000 
#    0.000    0.000    0.000    0.000    0.000    0.000 
#
# Total GULP energy -78168.042208 kJ/mol
# GULP energy per Si atom -5583.431586 kJ/mol
# Density = 2.405699 g / cm^3
# Si number density = 24.111867 Si / 1000 Ang^3
#
#
#
# Elastic Constant Matrix: (Units=GPa)
#
#
# Indices 1 2 3 4 5 6 
#
# 1 137.4963 35.2764 15.8841 -16.3602 26.8601 -24.1658
# 2 35.2764 68.2925 10.7527 -7.4891 14.2231 -21.3595
# 3 15.8841 10.7527 59.5184 -25.1639 16.8396 -13.5457
# 4 -16.3602 -7.4891 -25.1639 32.6377 -9.4643 18.1494
# 5 26.8601 14.2231 16.8396 -9.4643 26.1748 -14.8989
# 6 -24.1658 -21.3595 -13.5457 18.1494 -14.8989 56.2328
#
#
#
# Elastic Compliance Matrix: (Units=1/GPa)
#
#
# Indices 1 2 3 4 5 6 
#
# 1 0.009926 -0.003253 0.001542 0.002872 -0.008200 0.000302
# 2 -0.003253 0.018680 -0.001164 -0.002220 -0.003974 0.005080
# 3 0.001542 -0.001164 0.028215 0.020009 -0.013599 -0.003044
# 4 0.002872 -0.002220 0.020009 0.053301 -0.002552 -0.012668
# 5 -0.008200 -0.003974 -0.013599 -0.002552 0.061640 0.008846
# 6 0.000302 0.005080 -0.003044 -0.012668 0.008846 0.025542
#
#
# Mechanical properties :
#
#
# Convention : Reuss Voigt Hill
#
# Bulk Modulus (GPa) = 19.58120 43.23706 31.40913
# Shear Modulus (GPa) = 22.71913 36.56865 29.64389
#
# Velocity S-wave (km/s) = 3.07292 3.89861 3.51013
# Velocity P-wave (km/s) = 4.55292 6.18355 5.42980
#
# Compressibility (1/GPa) = 0.05106940
#
# Stress axis : x y z
#
# Youngs Moduli (GPa) = 100.74499 53.53400 35.44224
#
# Poissons Ratio (x) = 0.17414 -0.05464
# Poissons Ratio (y) = 0.32771 0.04127
# Poissons Ratio (z) = -0.15531 0.06234
#
# Static dielectric constant tensor:
#      x y z
#    x 1.958290 0.114540 -0.007370 
#    y 0.114540 1.969940 0.012610 
#    z -0.007370 0.012610 1.954720 
# 
# From -- ./inp_files/494395.got.cif
#   From: 2010.05.17/outbox.cif.g08.bks.cpg/sg2_248_cif.got.tgz:494395.got - 2010.06.03 11:33:40.
