data_PCOD9089975
_publ_section_title
;
Structure prediction by ZEFSAII (Michael W. Deem and Ramdas Pophale) SiO2 
 PCOD9089975
Probable space group: P -1
;
_chemical_formula_sum "Si O2"
_cell_formula_units_Z 12
_cell_length_a 8.425579
_cell_length_b 6.943852
_cell_length_c 11.013572
_cell_angle_alpha 82.336317
_cell_angle_beta 61.088616
_cell_angle_gamma 56.724643
_cell_volume 463.850378
_symmetry_space_group_name_H-M "P -1"
_symmetry_group_IT_number 2
_symmetry_cell_setting 'triclinic'
loop_
_space_group_symop_operation_xyz
x,y,z
-x,-y,-z
loop_
_atom_site_type_symbol
_atom_site_label
_atom_site_fract_x
_atom_site_fract_y
_atom_site_fract_z
Si Si1 0.260703 0.833693 0.409778
Si Si2 0.327789 0.902418 0.650224
Si Si3 0.088667 0.762110 0.908836
Si Si4 0.756118 0.596059 0.626388
Si Si5 0.849357 0.361375 0.851815
Si Si6 0.684442 0.031797 0.879503
O O1 0.349889 0.831483 0.508682
O O2 0.290585 0.591793 0.388227
O O3 0.326256 0.929566 0.264089
O O4 0.000000 0.000000 0.500000
O O5 0.557901 0.838057 0.622997
O O6 0.103579 0.162013 0.733353
O O7 0.277840 0.739574 0.761412
O O8 0.153761 0.583099 0.009413
O O9 0.907864 0.813903 0.873592
O O10 0.000000 0.000000 0.000000
O O11 0.760127 0.571557 0.772435
O O12 0.000000 0.500000 0.500000
O O13 0.707576 0.246245 0.897155
O O14 0.500000 0.000000 0.000000
#
# Coordination Sequence:
#
# PCOD9089975 Si02
#       6
#     2   2   2   2   2   2
#     4  11  19  41  62  84 122 159 194 244 299 353
#     4  10  19  38  63  83 117 164 191 244 303 345
#     4   8  16  34  56  81 117 155 191 232 301 352
#     4  11  24  38  58  91 119 151 206 248 289 354
#     4   9  20  40  58  82 124 154 195 240 302 353
#     4   9  17  31  58  88 109 146 199 239 284 345
#
# _framework density 25.870408999999999
#
# number of rings (size 3 to 8) (size 9 to 14) (size 15 to 20)
#    0.000    2.667    5.000    0.500    0.000    2.667 
#    9.000    0.000    0.000   17.000    0.000    0.000 
#    0.000    0.000    0.000    0.000    0.000    0.000 
#
# Total GULP energy -67092.962657 kJ/mol
# GULP energy per Si atom -5591.080221 kJ/mol
# Density = 2.581153 g / cm^3
# Si number density = 25.870409 Si / 1000 Ang^3
#
#
#
# Elastic Constant Matrix: (Units=GPa)
#
#
# Indices 1 2 3 4 5 6 
#
# 1 168.1190 58.3575 103.6856 -10.9250 13.7571 -29.5705
# 2 58.3575 91.6491 52.9665 -13.1437 -0.9841 -7.1696
# 3 103.6856 52.9665 207.4841 -40.7030 9.8157 -11.4571
# 4 -10.9250 -13.1437 -40.7030 44.1424 -20.9636 -6.6805
# 5 13.7571 -0.9841 9.8157 -20.9636 70.6581 -8.0008
# 6 -29.5705 -7.1696 -11.4571 -6.6805 -8.0008 37.9365
#
#
#
# Elastic Compliance Matrix: (Units=1/GPa)
#
#
# Indices 1 2 3 4 5 6 
#
# 1 0.011377 -0.004516 -0.004692 -0.002860 -0.001828 0.005709
# 2 -0.004516 0.014875 -0.000949 0.003535 0.002279 0.000108
# 3 -0.004692 -0.000949 0.008880 0.007823 0.002062 0.000658
# 4 -0.002860 0.003535 0.007823 0.037248 0.011683 0.009825
# 5 -0.001828 0.002279 0.002062 0.011683 0.018349 0.005556
# 6 0.005709 0.000108 0.000658 0.009825 0.005556 0.033931
#
#
# Mechanical properties :
#
#
# Convention : Reuss Voigt Hill
#
# Bulk Modulus (GPa) = 67.48199 99.69685 83.58942
# Shear Modulus (GPa) = 33.35256 47.36358 40.35807
#
# Velocity S-wave (km/s) = 3.59446 4.28343 3.95398
# Velocity P-wave (km/s) = 6.58545 7.94257 7.29563
#
# Compressibility (1/GPa) = 0.01481877
#
# Stress axis : x y z
#
# Youngs Moduli (GPa) = 87.89336 67.22661 112.61129
#
# Poissons Ratio (x) = 0.30360 0.52837
# Poissons Ratio (y) = 0.39693 0.10685
# Poissons Ratio (z) = 0.41240 0.06379
#
# Static dielectric constant tensor:
#      x y z
#    x 2.097970 0.043190 0.050270 
#    y 0.043190 2.162830 0.028850 
#    z 0.050270 0.028850 2.040830 
# 
# From -- ./inp_files/381860.got.cif
#   From: 2010.05.17/outbox.cif.g08.bks.cpg/sg2_191_cif.got.tgz:381860.got - 2010.06.03 11:33:40.
