data_PCOD9089768
_publ_section_title
;
Structure prediction by ZEFSAII (Michael W. Deem and Ramdas Pophale) SiO2 
 PCOD9089768
Probable space group: P -1
;
_chemical_formula_sum "Si O2"
_cell_formula_units_Z 16
_cell_length_a 9.873340
_cell_length_b 17.822972
_cell_length_c 9.989025
_cell_angle_alpha 147.134929
_cell_angle_beta 119.366444
_cell_angle_gamma 63.627263
_cell_volume 829.372581
_symmetry_space_group_name_H-M "P -1"
_symmetry_group_IT_number 2
_symmetry_cell_setting 'triclinic'
loop_
_space_group_symop_operation_xyz
x,y,z
-x,-y,-z
loop_
_atom_site_type_symbol
_atom_site_label
_atom_site_fract_x
_atom_site_fract_y
_atom_site_fract_z
Si Si1 0.026859 0.882429 0.446803
Si Si2 0.632628 0.101389 0.867559
Si Si3 0.193232 0.600267 0.015971
Si Si4 0.900639 0.422709 0.634489
Si Si5 0.310259 0.162032 0.688719
Si Si6 0.716956 0.396710 0.242942
Si Si7 0.627726 0.530583 0.865659
Si Si8 0.108293 0.899108 0.807536
O O1 0.088148 0.936907 0.699585
O O2 0.859232 0.825018 0.310299
O O3 0.141943 0.758052 0.263358
O O4 0.000000 0.000000 0.500000
O O5 0.446256 0.124347 0.806381
O O6 0.680111 0.962314 0.599889
O O7 0.695168 0.234434 0.020864
O O8 0.717103 0.096965 0.044469
O O9 0.223247 0.586178 0.852192
O O10 0.052231 0.507410 0.851705
O O11 0.341062 0.549485 0.100883
O O12 0.833290 0.443241 0.482718
O O13 0.760549 0.472138 0.739998
O O14 0.937802 0.259390 0.435117
O O15 0.348438 0.306876 0.859093
O O16 0.545480 0.475424 0.285707
O O17 0.000000 0.000000 0.000000
#
# Coordination Sequence:
#
# PCOD9089768 Si02
#       8
#     2   2   2   2   2   2   2   2
#     4  12  24  39  61  86 122 157 197 248 306 350
#     4   9  20  37  63  86 118 154 206 240 290 358
#     4  12  23  39  59  93 122 153 199 249 297 354
#     4  11  22  40  63  89 118 156 203 247 287 358
#     4  10  19  38  61  89 114 160 199 242 292 360
#     4  10  23  39  60  88 126 157 191 247 307 344
#     4  11  21  39  64  87 117 161 200 242 292 357
#     4  11  22  39  63  88 117 156 204 247 293 354
#
# _framework density 19.291692000000001
#
# number of rings (size 3 to 8) (size 9 to 14) (size 15 to 20)
#    0.000    1.250    3.750    3.000    1.750    0.000 
#    0.000    0.625    0.000    0.000    0.000    0.000 
#    0.000    0.000    0.000    0.000    0.000    0.000 
#
# Total GULP energy -89409.578350 kJ/mol
# GULP energy per Si atom -5588.098647 kJ/mol
# Density = 1.924778 g / cm^3
# Si number density = 19.291692 Si / 1000 Ang^3
#
#
#
# Elastic Constant Matrix: (Units=GPa)
#
#
# Indices 1 2 3 4 5 6 
#
# 1 46.0592 15.7582 1.6364 -5.1616 -11.9840 -6.2930
# 2 15.7582 144.1946 38.5536 -17.7906 -7.6440 -7.6975
# 3 1.6364 38.5536 68.1974 0.2320 -9.7056 -7.1736
# 4 -5.1616 -17.7906 0.2320 37.1912 -2.9439 -10.4053
# 5 -11.9840 -7.6440 -9.7056 -2.9439 29.3559 -5.2227
# 6 -6.2930 -7.6975 -7.1736 -10.4053 -5.2227 23.7140
#
#
#
# Elastic Compliance Matrix: (Units=1/GPa)
#
#
# Indices 1 2 3 4 5 6 
#
# 1 0.029840 -0.001436 0.004253 0.009443 0.017124 0.016653
# 2 -0.001436 0.009302 -0.004593 0.005531 0.001588 0.004025
# 3 0.004253 -0.004593 0.019162 0.001108 0.008367 0.007763
# 4 0.009443 0.005531 0.001108 0.038872 0.013966 0.024768
# 5 0.017124 0.001588 0.008367 0.013966 0.050037 0.024739
# 6 0.016653 0.004025 0.007763 0.024768 0.024739 0.066560
#
#
# Mechanical properties :
#
#
# Convention : Reuss Voigt Hill
#
# Bulk Modulus (GPa) = 18.26511 41.14972 29.70741
# Shear Modulus (GPa) = 21.22456 31.55243 26.38849
#
# Velocity S-wave (km/s) = 3.32051 4.04857 3.70248
# Velocity P-wave (km/s) = 4.91828 6.57504 5.80606
#
# Compressibility (1/GPa) = 0.05474920
#
# Stress axis : x y z
#
# Youngs Moduli (GPa) = 33.51164 107.50865 52.18767
#
# Poissons Ratio (x) = 0.15442 -0.22193
# Poissons Ratio (y) = 0.04813 0.23972
# Poissons Ratio (z) = -0.14251 0.49383
#
# Static dielectric constant tensor:
#      x y z
#    x 1.660910 -0.024660 0.006820 
#    y -0.024660 1.675460 -0.004110 
#    z 0.006820 -0.004110 1.665710 
# 
# From -- ./inp_files/205526.got.cif
#   From: 2010.05.17/outbox.cif.g08.bks.cpg/sg2_103_cif.got.tgz:205526.got - 2010.06.03 11:33:40.
