data_PCOD9089200
_publ_section_title
;
Structure prediction by ZEFSAII (Michael W. Deem and Ramdas Pophale) SiO2 
 PCOD9089200
Probable space group: P -1
;
_chemical_formula_sum "Si O2"
_cell_formula_units_Z 12
_cell_length_a 16.424816
_cell_length_b 12.126797
_cell_length_c 9.009795
_cell_angle_alpha 143.415028
_cell_angle_beta 135.319573
_cell_angle_gamma 34.201303
_cell_volume 595.293125
_symmetry_space_group_name_H-M "P -1"
_symmetry_group_IT_number 2
_symmetry_cell_setting 'triclinic'
loop_
_space_group_symop_operation_xyz
x,y,z
-x,-y,-z
loop_
_atom_site_type_symbol
_atom_site_label
_atom_site_fract_x
_atom_site_fract_y
_atom_site_fract_z
Si Si1 0.565100 0.667380 0.888155
Si Si2 0.920040 0.082443 0.328744
Si Si3 0.392657 0.481259 0.555089
Si Si4 0.433517 0.980600 0.541800
Si Si5 0.854626 0.909330 0.813708
Si Si6 0.146703 0.762789 0.045984
O O1 0.446462 0.639191 0.768648
O O2 0.575586 0.641395 0.696668
O O3 0.717949 0.449304 0.920891
O O4 0.541914 0.895095 0.162796
O O5 0.779326 0.350859 0.448169
O O6 0.000000 0.000000 0.500000
O O7 0.050789 0.985817 0.274945
O O8 0.856638 0.949455 0.036115
O O9 0.486822 0.284766 0.589390
O O10 0.500000 0.000000 0.500000
O O11 0.262885 0.113750 0.427920
O O12 0.810945 0.149773 0.941488
O O13 0.027393 0.724673 0.802813
#
# Coordination Sequence:
#
# PCOD9089200 Si02
#       6
#     2   2   2   2   2   2
#     4  11  23  41  67  89 126 171 211 254 320 365
#     4  10  19  37  66  91 118 161 213 252 315 368
#     4  11  23  42  65  90 131 167 209 262 306 381
#     4  12  26  38  62  99 130 165 210 259 313 374
#     4   9  20  38  61  91 124 160 210 252 311 370
#     4   9  19  39  65  91 116 169 204 257 310 366
#
# _framework density 20.158137
#
# number of rings (size 3 to 8) (size 9 to 14) (size 15 to 20)
#    1.000    0.667    3.333    1.500    2.333    2.000 
#    0.000    0.000    0.000    6.000    0.000    0.000 
#    0.000    0.000    0.000    0.000    0.000    0.000 
#
# Total GULP energy -66804.026016 kJ/mol
# GULP energy per Si atom -5567.002168 kJ/mol
# Density = 2.011226 g / cm^3
# Si number density = 20.158137 Si / 1000 Ang^3
#
#
#
# Elastic Constant Matrix: (Units=GPa)
#
#
# Indices 1 2 3 4 5 6 
#
# 1 50.9768 25.6286 9.5057 2.9823 6.0458 -6.3753
# 2 25.6286 91.1858 0.5266 -17.2423 -0.0067 -2.0701
# 3 9.5057 0.5266 79.3342 -11.7111 7.6447 -1.3024
# 4 2.9823 -17.2423 -11.7111 26.2864 -5.1939 -4.1710
# 5 6.0458 -0.0067 7.6447 -5.1939 19.1592 -4.5071
# 6 -6.3753 -2.0701 -1.3024 -4.1710 -4.5071 28.4141
#
#
#
# Elastic Compliance Matrix: (Units=1/GPa)
#
#
# Indices 1 2 3 4 5 6 
#
# 1 0.027847 -0.010343 -0.004251 -0.013631 -0.010402 0.001649
# 2 -0.010343 0.016768 0.002739 0.015109 0.006820 0.002326
# 3 -0.004251 0.002739 0.014555 0.008512 -0.001957 0.000852
# 4 -0.013631 0.015109 0.008512 0.058686 0.019193 0.010092
# 5 -0.010402 0.006820 -0.001957 0.019193 0.064063 0.011052
# 6 0.001649 0.002326 0.000852 0.010092 0.011052 0.039007
#
#
# Mechanical properties :
#
#
# Convention : Reuss Voigt Hill
#
# Bulk Modulus (GPa) = 28.19942 32.53539 30.36741
# Shear Modulus (GPa) = 19.49669 27.16100 23.32885
#
# Velocity S-wave (km/s) = 3.11334 3.67467 3.40559
# Velocity P-wave (km/s) = 5.19069 5.84632 5.52823
#
# Compressibility (1/GPa) = 0.03546172
#
# Stress axis : x y z
#
# Youngs Moduli (GPa) = 35.91113 59.63728 68.70412
#
# Poissons Ratio (x) = 0.61681 0.29203
# Poissons Ratio (y) = 0.37142 -0.18821
# Poissons Ratio (z) = 0.15264 -0.16337
#
# Static dielectric constant tensor:
#      x y z
#    x 1.730150 -0.015130 -0.007590 
#    y -0.015130 1.701660 -0.019970 
#    z -0.007590 -0.019970 1.773120 
# 
# From -- ./inp_files/57450.got.cif
#   From: 2010.05.17/outbox.cif.g08.bks.cpg/sg2_29_cif.got.tgz:57450.got - 2010.06.03 11:33:40.
