data_PCOD9089207
_publ_section_title
;
Structure prediction by ZEFSAII (Michael W. Deem and Ramdas Pophale) SiO2 
 PCOD9089207
Probable space group: P -1
;
_chemical_formula_sum "Si O2"
_cell_formula_units_Z 16
_cell_length_a 11.123161
_cell_length_b 20.320081
_cell_length_c 16.364768
_cell_angle_alpha 163.300365
_cell_angle_beta 138.136621
_cell_angle_gamma 40.419443
_cell_volume 686.745894
_symmetry_space_group_name_H-M "P -1"
_symmetry_group_IT_number 2
_symmetry_cell_setting 'triclinic'
loop_
_space_group_symop_operation_xyz
x,y,z
-x,-y,-z
loop_
_atom_site_type_symbol
_atom_site_label
_atom_site_fract_x
_atom_site_fract_y
_atom_site_fract_z
Si Si1 0.432774 0.581346 0.296193
Si Si2 0.973639 0.041228 0.786121
Si Si3 0.855913 0.653503 0.171691
Si Si4 0.445250 0.759838 0.897856
Si Si5 0.316644 0.287436 0.541353
Si Si6 0.041389 0.829705 0.741406
Si Si7 0.599873 0.115170 0.615489
Si Si8 0.350385 0.063924 0.926065
O O1 0.466187 0.414280 0.192648
O O2 0.622555 0.561135 0.319208
O O3 0.359985 0.838768 0.604053
O O4 0.284624 0.509831 0.074781
O O5 0.998369 0.005412 0.851714
O O6 0.144658 0.119486 0.925709
O O7 0.965320 0.772487 0.434271
O O8 0.771530 0.195205 0.838273
O O9 0.715896 0.896784 0.358617
O O10 0.000000 0.500000 0.000000
O O11 0.257672 0.698602 0.697148
O O12 0.376894 0.021940 0.215405
O O13 0.584041 0.759703 0.892825
O O14 0.447621 0.276281 0.673368
O O15 0.105415 0.328771 0.512367
O O16 0.000000 0.000000 0.000000
O O17 0.500000 0.000000 0.500000
O O18 0.500000 0.000000 0.000000
#
# Coordination Sequence:
#
# PCOD9089207 Si02
#       8
#     2   2   2   2   2   2   2   2
#     4  11  22  40  63  91 132 166 218 268 325 396
#     4  10  20  37  64  93 131 161 220 269 322 390
#     4  10  20  39  64  93 132 171 212 279 327 383
#     4  10  21  38  63  90 124 173 209 269 324 382
#     4  10  20  38  64  93 121 172 215 262 325 393
#     4  10  20  37  63  91 128 172 219 264 322 389
#     4  10  19  37  66  91 129 170 214 266 334 382
#     4  11  22  39  62  93 129 169 217 266 329 387
#
# _framework density 23.298280999999999
#
# number of rings (size 3 to 8) (size 9 to 14) (size 15 to 20)
#    0.750    1.000    5.000    0.000    0.000    1.000 
#    2.250    5.000    2.750    0.000    0.000    0.000 
#    0.000    0.000    0.000    0.000    0.000    0.000 
#
# Total GULP energy -89292.719971 kJ/mol
# GULP energy per Si atom -5580.794998 kJ/mol
# Density = 2.324525 g / cm^3
# Si number density = 23.298281 Si / 1000 Ang^3
#
#
#
# Elastic Constant Matrix: (Units=GPa)
#
#
# Indices 1 2 3 4 5 6 
#
# 1 181.3167 78.8445 52.0149 -13.3127 46.7442 2.2416
# 2 78.8445 101.0865 18.8817 -29.0652 16.9875 2.3727
# 3 52.0149 18.8817 59.4114 -10.5734 -1.3305 -11.7902
# 4 -13.3127 -29.0652 -10.5734 30.4489 -9.4981 9.0531
# 5 46.7442 16.9875 -1.3305 -9.4981 53.1961 -5.7417
# 6 2.2416 2.3727 -11.7902 9.0531 -5.7417 42.1252
#
#
#
# Elastic Compliance Matrix: (Units=1/GPa)
#
#
# Indices 1 2 3 4 5 6 
#
# 1 0.018581 -0.012606 -0.015712 -0.012997 -0.015446 -0.003988
# 2 -0.012606 0.023708 0.007211 0.022698 0.007469 -0.002506
# 3 -0.015712 0.007211 0.032836 0.013699 0.015723 0.008819
# 4 -0.012997 0.022698 0.013699 0.060402 0.014462 -0.007763
# 5 -0.015446 0.007469 0.015723 0.014462 0.033639 0.006279
# 6 -0.003988 -0.002506 0.008819 -0.007763 0.006279 0.029085
#
#
# Mechanical properties :
#
#
# Convention : Reuss Voigt Hill
#
# Bulk Modulus (GPa) = 30.38431 71.25520 50.81976
# Shear Modulus (GPa) = 19.88581 37.95894 28.92237
#
# Velocity S-wave (km/s) = 2.92469 4.04079 3.52717
# Velocity P-wave (km/s) = 4.94721 7.24023 6.20064
#
# Compressibility (1/GPa) = 0.03291172
#
# Stress axis : x y z
#
# Youngs Moduli (GPa) = 53.81746 42.18032 30.45405
#
# Poissons Ratio (x) = 0.53172 0.47850
# Poissons Ratio (y) = 0.67841 -0.21961
# Poissons Ratio (z) = 0.84560 -0.30417
#
# Static dielectric constant tensor:
#      x y z
#    x 1.854750 -0.045580 0.001910 
#    y -0.045580 1.875320 -0.025790 
#    z 0.001910 -0.025790 2.004950 
# 
# From -- ./inp_files/570623.got.cif
#   From: 2010.05.17/outbox.cif.g08.bks.cpg/sg2_286_cif.got.tgz:570623.got - 2010.06.03 11:33:40.
