data_PCOD9089885
_publ_section_title
;
Structure prediction by ZEFSAII (Michael W. Deem and Ramdas Pophale) SiO2 
 PCOD9089885
Probable space group: P -1
;
_chemical_formula_sum "Si O2"
_cell_formula_units_Z 16
_cell_length_a 18.795165
_cell_length_b 19.927238
_cell_length_c 8.421098
_cell_angle_alpha 123.965391
_cell_angle_beta 46.476087
_cell_angle_gamma 160.154053
_cell_volume 723.792883
_symmetry_space_group_name_H-M "P -1"
_symmetry_group_IT_number 2
_symmetry_cell_setting 'triclinic'
loop_
_space_group_symop_operation_xyz
x,y,z
-x,-y,-z
loop_
_atom_site_type_symbol
_atom_site_label
_atom_site_fract_x
_atom_site_fract_y
_atom_site_fract_z
Si Si1 0.632200 0.550394 0.725447
Si Si2 0.092967 0.963301 0.351691
Si Si3 0.605187 0.007733 0.240291
Si Si4 0.985938 0.587818 0.991831
Si Si5 0.293255 0.279722 0.596022
Si Si6 0.824266 0.404791 0.505443
Si Si7 0.554688 0.902053 0.867518
Si Si8 0.988832 0.305090 0.572400
O O1 0.402298 0.348163 0.693783
O O2 0.795361 0.598379 0.600601
O O3 0.842192 0.764729 0.589819
O O4 0.500000 0.500000 0.000000
O O5 0.980238 0.887305 0.247432
O O6 0.261902 0.169730 0.411471
O O7 0.248891 0.002199 0.204038
O O8 0.470074 0.827721 0.291597
O O9 0.500000 0.000000 0.500000
O O10 0.492098 0.923861 0.122020
O O11 0.905638 0.257733 0.083935
O O12 0.134221 0.621053 0.746519
O O13 0.690862 0.338996 0.104385
O O14 0.030920 0.653118 0.185767
O O15 0.500000 0.500000 0.500000
O O16 0.921660 0.568698 0.538098
O O17 0.000000 0.500000 0.500000
O O18 0.709508 0.049310 0.669955
#
# Coordination Sequence:
#
# PCOD9089885 Si02
#       8
#     2   2   2   2   2   2   2   2
#     4  10  21  40  62  86 128 162 204 264 314 369
#     4   9  19  36  63  90 117 156 212 253 304 376
#     4   9  20  37  58  86 124 158 199 250 304 362
#     4  10  20  39  65  85 121 169 202 254 310 372
#     4   9  18  37  61  88 116 155 198 256 312 364
#     4  11  21  41  60  91 130 160 197 265 313 364
#     4  10  19  38  62  88 119 164 210 249 297 374
#     4  10  23  40  60  92 120 164 216 251 309 385
#
# _framework density 22.105771000000001
#
# number of rings (size 3 to 8) (size 9 to 14) (size 15 to 20)
#    0.000    2.250    1.250    1.125    0.000    2.000 
#   13.500    5.000    0.000    0.000    0.000    0.000 
#    0.000    0.000    0.000    0.000    0.000    0.000 
#
# Total GULP energy -89186.678560 kJ/mol
# GULP energy per Si atom -5574.167410 kJ/mol
# Density = 2.205546 g / cm^3
# Si number density = 22.105771 Si / 1000 Ang^3
#
#
#
# Elastic Constant Matrix: (Units=GPa)
#
#
# Indices 1 2 3 4 5 6 
#
# 1 99.1896 49.3129 22.2963 -20.3326 5.6291 -25.1420
# 2 49.3129 166.5090 39.8816 -32.3119 6.9230 -9.9377
# 3 22.2963 39.8816 68.0389 -24.3799 11.8191 -5.5389
# 4 -20.3326 -32.3119 -24.3799 38.9189 -2.8876 9.1955
# 5 5.6291 6.9230 11.8191 -2.8876 8.6849 -0.4661
# 6 -25.1420 -9.9377 -5.5389 9.1955 -0.4661 38.1497
#
#
#
# Elastic Compliance Matrix: (Units=1/GPa)
#
#
# Indices 1 2 3 4 5 6 
#
# 1 0.014535 -0.002995 -0.000613 0.002451 -0.004952 0.008058
# 2 -0.002995 0.008186 -0.002516 0.003935 0.000086 -0.001154
# 3 -0.000613 -0.002516 0.025376 0.011502 -0.028333 -0.000493
# 4 0.002451 0.003935 0.011502 0.038023 -0.008002 -0.004952
# 5 -0.004952 0.000086 -0.028333 -0.008002 0.153990 -0.003545
# 6 0.008058 -0.001154 -0.000493 -0.004952 -0.003545 0.032301
#
#
# Mechanical properties :
#
#
# Convention : Reuss Voigt Hill
#
# Bulk Modulus (GPa) = 27.89466 61.85769 44.87617
# Shear Modulus (GPa) = 16.85720 31.96715 24.41218
#
# Velocity S-wave (km/s) = 2.76446 3.80689 3.32676
# Velocity P-wave (km/s) = 4.77868 6.88234 5.92462
#
# Compressibility (1/GPa) = 0.03584916
#
# Stress axis : x y z
#
# Youngs Moduli (GPa) = 68.80126 122.15236 39.40743
#
# Poissons Ratio (x) = 0.36588 0.02415
# Poissons Ratio (y) = 0.20608 0.09915
# Poissons Ratio (z) = 0.04216 0.30733
#
# Static dielectric constant tensor:
#      x y z
#    x 1.882520 -0.011560 0.007590 
#    y -0.011560 1.665540 -0.123680 
#    z 0.007590 -0.123680 1.800410 
# 
# From -- ./inp_files/349267.got.cif
#   From: 2010.05.17/outbox.cif.g08.bks.cpg/sg2_175_cif.got.tgz:349267.got - 2010.06.03 11:33:40.
