data_PCOD9089681
_publ_section_title
;
Structure prediction by ZEFSAII (Michael W. Deem and Ramdas Pophale) SiO2 
 PCOD9089681
Probable space group: P -1
;
_chemical_formula_sum "Si O2"
_cell_formula_units_Z 14
_cell_length_a 13.088810
_cell_length_b 8.570202
_cell_length_c 8.245030
_cell_angle_alpha 49.616819
_cell_angle_beta 53.047064
_cell_angle_gamma 58.169899
_cell_volume 548.350508
_symmetry_space_group_name_H-M "P -1"
_symmetry_group_IT_number 2
_symmetry_cell_setting 'triclinic'
loop_
_space_group_symop_operation_xyz
x,y,z
-x,-y,-z
loop_
_atom_site_type_symbol
_atom_site_label
_atom_site_fract_x
_atom_site_fract_y
_atom_site_fract_z
Si Si1 0.646899 0.572294 0.280483
Si Si2 0.589168 0.606348 0.956025
Si Si3 0.383598 0.995827 0.846960
Si Si4 0.181344 0.782448 0.009091
Si Si5 0.769808 0.121140 0.613994
Si Si6 0.087118 0.523354 0.053561
Si Si7 0.986744 0.799274 0.463375
O O1 0.689083 0.338292 0.467732
O O2 0.563494 0.576790 0.192363
O O3 0.776796 0.618134 0.042118
O O4 0.607094 0.761687 0.317992
O O5 0.731726 0.457592 0.881500
O O6 0.500000 0.500000 0.000000
O O7 0.531670 0.850683 0.802889
O O8 0.283757 0.929475 0.853448
O O9 0.319210 0.942295 0.115061
O O10 0.121101 0.743968 0.917743
O O11 0.055490 0.834617 0.208187
O O12 0.900286 0.167154 0.542249
O O13 0.840683 0.935923 0.549576
O O14 0.023983 0.436546 0.326104
O O15 0.000000 0.500000 0.000000
#
# Coordination Sequence:
#
# PCOD9089681 Si02
#       7
#     2   2   2   2   2   2   2
#     4  11  21  37  64  93 117 163 209 248 308 367
#     4   9  20  40  63  86 124 161 208 257 306 358
#     4  10  20  40  65  88 121 164 204 260 311 356
#     4   9  21  37  63  89 122 166 200 252 312 362
#     4  10  21  35  62  95 123 158 209 251 303 372
#     4  11  20  36  62  90 125 163 206 249 307 377
#     4  10  19  38  60  89 132 163 197 253 312 363
#
# _framework density 25.531115
#
# number of rings (size 3 to 8) (size 9 to 14) (size 15 to 20)
#    0.000    2.000    2.857    0.857    0.000    0.571 
#    0.000    7.857    0.000    7.714    0.000    0.000 
#    0.000    0.000    0.000    0.000    0.000    0.000 
#
# Total GULP energy -78041.188447 kJ/mol
# GULP energy per Si atom -5574.370603 kJ/mol
# Density = 2.547301 g / cm^3
# Si number density = 25.531115 Si / 1000 Ang^3
#
#
#
# Elastic Constant Matrix: (Units=GPa)
#
#
# Indices 1 2 3 4 5 6 
#
# 1 128.7577 60.0716 29.1447 0.2434 10.8169 20.5772
# 2 60.0716 146.8002 17.2919 -8.3420 2.8594 -0.1414
# 3 29.1447 17.2919 63.6999 -11.2210 -6.7928 -2.7362
# 4 0.2434 -8.3420 -11.2210 28.3930 -6.7805 -8.7422
# 5 10.8169 2.8594 -6.7928 -6.7805 28.2258 18.0778
# 6 20.5772 -0.1414 -2.7362 -8.7422 18.0778 42.3865
#
#
#
# Elastic Compliance Matrix: (Units=1/GPa)
#
#
# Indices 1 2 3 4 5 6 
#
# 1 0.012833 -0.004828 -0.006426 -0.006922 -0.003381 -0.006647
# 2 -0.004828 0.008942 0.000601 0.003891 -0.000049 0.003236
# 3 -0.006426 0.000601 0.021575 0.011780 0.008223 0.003437
# 4 -0.006922 0.003891 0.011780 0.046401 0.010268 0.009325
# 5 -0.003381 -0.000049 0.008223 0.010268 0.052869 -0.018259
# 6 -0.006647 0.003236 0.003437 0.009325 -0.018259 0.036762
#
#
# Mechanical properties :
#
#
# Convention : Reuss Voigt Hill
#
# Bulk Modulus (GPa) = 45.36582 61.36382 53.36482
# Shear Modulus (GPa) = 24.03399 35.31768 29.67583
#
# Velocity S-wave (km/s) = 3.07149 3.72333 3.41301
# Velocity P-wave (km/s) = 5.51236 6.52468 6.03977
#
# Compressibility (1/GPa) = 0.02204303
#
# Stress axis : x y z
#
# Youngs Moduli (GPa) = 77.92301 111.82984 46.34913
#
# Poissons Ratio (x) = 0.53995 0.29786
# Poissons Ratio (y) = 0.37624 -0.02785
# Poissons Ratio (z) = 0.50076 -0.06720
#
# Static dielectric constant tensor:
#      x y z
#    x 2.058040 0.008410 0.010330 
#    y 0.008410 2.088040 0.023580 
#    z 0.010330 0.023580 1.955840 
# 
# From -- ./inp_files/293911.got.cif
#   From: 2010.05.17/outbox.cif.g08.bks.cpg/sg2_147_cif.got.tgz:293911.got - 2010.06.03 11:33:40.
