data_PCOD9089742
_publ_section_title
;
Structure prediction by ZEFSAII (Michael W. Deem and Ramdas Pophale) SiO2 
 PCOD9089742
Probable space group: P -1
;
_chemical_formula_sum "Si O2"
_cell_formula_units_Z 14
_cell_length_a 22.135796
_cell_length_b 7.677088
_cell_length_c 7.166300
_cell_angle_alpha 55.386594
_cell_angle_beta 62.074003
_cell_angle_gamma 37.383839
_cell_volume 608.183679
_symmetry_space_group_name_H-M "P -1"
_symmetry_group_IT_number 2
_symmetry_cell_setting 'triclinic'
loop_
_space_group_symop_operation_xyz
x,y,z
-x,-y,-z
loop_
_atom_site_type_symbol
_atom_site_label
_atom_site_fract_x
_atom_site_fract_y
_atom_site_fract_z
Si Si1 0.186792 0.806140 0.675675
Si Si2 0.400857 0.385349 0.544587
Si Si3 0.496788 0.543968 0.199032
Si Si4 0.338901 0.536294 0.115293
Si Si5 0.013782 0.206411 0.941615
Si Si6 0.330610 0.219465 0.014363
Si Si7 0.124534 0.093351 0.210427
O O1 0.410906 0.156293 0.798146
O O2 0.105360 0.085702 0.757915
O O3 0.143171 0.898429 0.477372
O O4 0.228431 0.486919 0.886809
O O5 0.492531 0.340190 0.449560
O O6 0.384376 0.385808 0.346125
O O7 0.290063 0.703729 0.578918
O O8 0.385301 0.881676 0.182608
O O9 0.500000 0.500000 0.000000
O O10 0.589090 0.493511 0.110084
O O11 0.317104 0.373915 0.131474
O O12 0.233724 0.887786 0.089724
O O13 0.055063 0.130270 0.139124
O O14 0.924883 0.577660 0.844561
O O15 0.000000 0.000000 0.000000
#
# Coordination Sequence:
#
# PCOD9089742 Si02
#       7
#     2   2   2   2   2   2   2
#     4   9  20  39  62  88 125 160 199 260 312 367
#     4   8  20  38  59  85 124 157 201 252 301 358
#     4  10  21  36  61  91 122 167 207 249 297 373
#     4  10  19  38  61  86 126 161 206 250 308 361
#     4  11  23  39  70  90 118 164 208 258 324 377
#     4  10  20  38  62  84 126 162 206 243 311 364
#     4  10  21  43  62  90 128 159 203 267 312 368
#
# _framework density 23.019361
#
# number of rings (size 3 to 8) (size 9 to 14) (size 15 to 20)
#    0.857    1.429    1.429    0.857    0.000    6.857 
#    0.000    2.857   15.714    0.000    0.000    0.000 
#    0.000    0.000    0.000    0.000    0.000    0.000 
#
# Total GULP energy -77967.469800 kJ/mol
# GULP energy per Si atom -5569.104986 kJ/mol
# Density = 2.296697 g / cm^3
# Si number density = 23.019361 Si / 1000 Ang^3
#
#
#
# Elastic Constant Matrix: (Units=GPa)
#
#
# Indices 1 2 3 4 5 6 
#
# 1 72.8498 28.6260 23.7894 -8.4972 17.0146 12.9395
# 2 28.6260 162.1960 17.0155 11.4602 -3.5736 4.8241
# 3 23.7894 17.0155 68.3898 7.6361 8.4326 -2.0259
# 4 -8.4972 11.4602 7.6361 30.5563 -6.0382 2.3838
# 5 17.0146 -3.5736 8.4326 -6.0382 32.4672 -1.6783
# 6 12.9395 4.8241 -2.0259 2.3838 -1.6783 19.9188
#
#
#
# Elastic Compliance Matrix: (Units=1/GPa)
#
#
# Indices 1 2 3 4 5 6 
#
# 1 0.024533 -0.003878 -0.007889 0.009589 -0.010373 -0.017822
# 2 -0.003878 0.007127 -0.000303 -0.003318 0.002349 0.001357
# 3 -0.007889 -0.000303 0.018762 -0.007740 -0.001804 0.007880
# 4 0.009589 -0.003318 -0.007740 0.040104 0.003525 -0.010715
# 5 -0.010373 0.002349 -0.001804 0.003525 0.038072 0.008772
# 6 -0.017822 0.001357 0.007880 -0.010715 0.008772 0.064275
#
#
# Mechanical properties :
#
#
# Convention : Reuss Voigt Hill
#
# Bulk Modulus (GPa) = 38.04848 49.14416 43.59632
# Shear Modulus (GPa) = 22.14592 32.18878 27.16735
#
# Velocity S-wave (km/s) = 3.10507 3.74349 3.43912
# Velocity P-wave (km/s) = 5.42403 6.33090 5.89493
#
# Compressibility (1/GPa) = 0.02628226
#
# Stress axis : x y z
#
# Youngs Moduli (GPa) = 40.76062 140.30226 53.30020
#
# Poissons Ratio (x) = 0.54414 0.42046
# Poissons Ratio (y) = 0.15808 0.01616
# Poissons Ratio (z) = 0.32154 0.04255
#
# Static dielectric constant tensor:
#      x y z
#    x 1.993280 -0.051160 -0.013220 
#    y -0.051160 1.904400 -0.008110 
#    z -0.013220 -0.008110 1.877270 
# 
# From -- ./inp_files/356211.got.cif
#   From: 2010.05.17/outbox.cif.g08.bks.cpg/sg2_179_cif.got.tgz:356211.got - 2010.06.03 11:33:40.
