data_PCOD9089334
_publ_section_title
;
Structure prediction by ZEFSAII (Michael W. Deem and Ramdas Pophale) SiO2 
 PCOD9089334
Probable space group: P -1
;
_chemical_formula_sum "Si O2"
_cell_formula_units_Z 16
_cell_length_a 12.466333
_cell_length_b 13.542385
_cell_length_c 8.316941
_cell_angle_alpha 57.384386
_cell_angle_beta 32.071789
_cell_angle_gamma 70.470302
_cell_volume 603.988540
_symmetry_space_group_name_H-M "P -1"
_symmetry_group_IT_number 2
_symmetry_cell_setting 'triclinic'
loop_
_space_group_symop_operation_xyz
x,y,z
-x,-y,-z
loop_
_atom_site_type_symbol
_atom_site_label
_atom_site_fract_x
_atom_site_fract_y
_atom_site_fract_z
Si Si1 0.497594 0.405950 0.948841
Si Si2 0.281386 0.915955 0.203268
Si Si3 0.265776 0.774752 0.683164
Si Si4 0.369257 0.218780 0.537851
Si Si5 0.291457 0.401699 0.911386
Si Si6 0.153081 0.133335 0.352094
Si Si7 0.105944 0.404155 0.826191
Si Si8 0.272924 0.017926 0.602361
O O1 0.303882 0.416283 0.073681
O O2 0.727016 0.465834 0.532359
O O3 0.500000 0.500000 0.000000
O O4 0.464471 0.280394 0.193684
O O5 0.302539 0.837918 0.403669
O O6 0.074165 0.854317 0.419559
O O7 0.226207 0.036297 0.235855
O O8 0.492234 0.950709 0.801402
O O9 0.456064 0.762961 0.563169
O O10 0.184634 0.873282 0.807091
O O11 0.109482 0.641870 0.957817
O O12 0.210125 0.293617 0.737891
O O13 0.282065 0.078503 0.713763
O O14 0.500000 0.500000 0.500000
O O15 0.108220 0.402580 0.018979
O O16 0.312965 0.264268 0.003813
O O17 0.153828 0.086624 0.572816
#
# Coordination Sequence:
#
# PCOD9089334 Si02
#       8
#     2   2   2   2   2   2   2   2
#     4   9  20  42  64  90 120 164 201 248 315 365
#     4  10  23  38  64  93 123 158 207 256 299 369
#     4  11  23  38  59  95 122 160 207 253 296 370
#     4  11  24  39  63  86 130 170 196 252 311 359
#     4  10  19  37  68  92 115 155 211 257 302 361
#     4  10  19  38  66  88 118 160 202 249 313 347
#     4  10  23  40  66  90 121 160 212 257 295 367
#     4  11  24  40  60  92 129 163 205 250 308 366
#
# _framework density 26.490568
#
# number of rings (size 3 to 8) (size 9 to 14) (size 15 to 20)
#    0.000    1.750    2.500    1.875    3.500    2.000 
#    0.000    0.000    2.750    9.000    0.000    0.000 
#    0.000    0.000    0.000    0.000    0.000    0.000 
#
# Total GULP energy -89461.755232 kJ/mol
# GULP energy per Si atom -5591.359702 kJ/mol
# Density = 2.643027 g / cm^3
# Si number density = 26.490568 Si / 1000 Ang^3
#
#
#
# Elastic Constant Matrix: (Units=GPa)
#
#
# Indices 1 2 3 4 5 6 
#
# 1 203.1918 21.4261 36.3915 6.1787 -27.0375 21.5594
# 2 21.4261 66.4459 25.7912 1.6343 -12.5047 22.9019
# 3 36.3915 25.7912 71.2196 -7.0040 -20.4869 -1.5773
# 4 6.1787 1.6343 -7.0040 49.2189 -1.5722 -4.7584
# 5 -27.0375 -12.5047 -20.4869 -1.5722 39.8156 -7.6325
# 6 21.5594 22.9019 -1.5773 -4.7584 -7.6325 41.8311
#
#
#
# Elastic Compliance Matrix: (Units=1/GPa)
#
#
# Indices 1 2 3 4 5 6 
#
# 1 0.006070 0.000858 -0.003032 -0.001493 0.002102 -0.003499
# 2 0.000858 0.023420 -0.009520 -0.003586 0.000216 -0.013991
# 3 -0.003032 -0.009520 0.022174 0.005061 0.008425 0.009724
# 4 -0.001493 -0.003586 0.005061 0.021991 0.002459 0.005874
# 5 0.002102 0.000216 0.008425 0.002459 0.032048 0.005243
# 6 -0.003499 -0.013991 0.009724 0.005874 0.005243 0.035361
#
#
# Mechanical properties :
#
#
# Convention : Reuss Voigt Hill
#
# Bulk Modulus (GPa) = 35.36581 56.45276 45.90929
# Shear Modulus (GPa) = 28.75588 43.32301 36.03945
#
# Velocity S-wave (km/s) = 3.29829 4.04841 3.69245
# Velocity P-wave (km/s) = 5.28056 6.57340 5.96213
#
# Compressibility (1/GPa) = 0.02827590
#
# Stress axis : x y z
#
# Youngs Moduli (GPa) = 164.73399 42.69922 45.09685
#
# Poissons Ratio (x) = -0.03662 0.13674
# Poissons Ratio (y) = -0.14130 0.42931
# Poissons Ratio (z) = 0.49951 0.40649
#
# Static dielectric constant tensor:
#      x y z
#    x 2.102210 -0.028250 0.022400 
#    y -0.028250 2.147070 -0.059750 
#    z 0.022400 -0.059750 2.255470 
# 
# From -- ./inp_files/272064.got.cif
#   From: 2010.05.17/outbox.cif.g08.bks.cpg/sg2_137_cif.got.tgz:272064.got - 2010.06.03 11:33:40.
