data_PCOD9089325
_publ_section_title
;
Structure prediction by ZEFSAII (Michael W. Deem and Ramdas Pophale) SiO2 
 PCOD9089325
Probable space group: P -1
;
_chemical_formula_sum "Si O2"
_cell_formula_units_Z 12
_cell_length_a 10.787093
_cell_length_b 7.595774
_cell_length_c 8.615399
_cell_angle_alpha 70.573297
_cell_angle_beta 75.257085
_cell_angle_gamma 126.304081
_cell_volume 431.613813
_symmetry_space_group_name_H-M "P -1"
_symmetry_group_IT_number 2
_symmetry_cell_setting 'triclinic'
loop_
_space_group_symop_operation_xyz
x,y,z
-x,-y,-z
loop_
_atom_site_type_symbol
_atom_site_label
_atom_site_fract_x
_atom_site_fract_y
_atom_site_fract_z
Si Si1 0.377725 0.188781 0.694230
Si Si2 0.943066 0.256264 0.277766
Si Si3 0.665455 0.595720 0.107179
Si Si4 0.725111 0.388951 0.426378
Si Si5 0.281262 0.735484 0.200232
Si Si6 0.760442 0.926694 0.720429
O O1 0.500000 0.500000 0.500000
O O2 0.380438 0.247477 0.854297
O O3 0.494381 0.142858 0.597437
O O4 0.160210 0.926287 0.789391
O O5 0.831050 0.322514 0.350898
O O6 0.162177 0.547714 0.141917
O O7 0.879507 0.044909 0.492569
O O8 0.755127 0.573699 0.225268
O O9 0.462187 0.301430 0.197523
O O10 0.790878 0.783958 0.864304
O O11 0.763301 0.452037 0.583050
O O12 0.201886 0.842488 0.266043
O O13 0.500000 0.000000 0.000000
#
# Coordination Sequence:
#
# PCOD9089325 Si02
#       6
#     2   2   2   2   2   2
#     4  10  19  37  68 104 137 171 216 275 340 400
#     4  11  22  42  72 100 134 176 230 276 332 404
#     4  10  21  38  70 102 139 180 208 271 346 406
#     4  10  20  39  71 103 131 178 223 274 338 402
#     4  11  25  44  68  96 135 184 230 282 329 389
#     4  10  20  40  69  99 138 172 222 270 342 399
#
# _framework density 27.802631000000002
#
# number of rings (size 3 to 8) (size 9 to 14) (size 15 to 20)
#    0.000    1.667    3.333    3.500    2.333    0.000 
#    0.000   10.000   18.333    0.000    0.000    0.000 
#    0.000    0.000    0.000    0.000    0.000    0.000 
#
# Total GULP energy -67040.702879 kJ/mol
# GULP energy per Si atom -5586.725240 kJ/mol
# Density = 2.773935 g / cm^3
# Si number density = 27.802631 Si / 1000 Ang^3
#
#
#
# Elastic Constant Matrix: (Units=GPa)
#
#
# Indices 1 2 3 4 5 6 
#
# 1 107.0191 30.6945 38.6645 -4.2829 11.5132 -5.1496
# 2 30.6945 164.1247 -6.5393 -18.4343 -6.8847 11.9206
# 3 38.6645 -6.5393 128.2810 -1.3881 22.4215 8.8231
# 4 -4.2829 -18.4343 -1.3881 27.6837 14.6331 -15.1723
# 5 11.5132 -6.8847 22.4215 14.6331 53.3324 3.9664
# 6 -5.1496 11.9206 8.8231 -15.1723 3.9664 35.8169
#
#
#
# Elastic Compliance Matrix: (Units=1/GPa)
#
#
# Indices 1 2 3 4 5 6 
#
# 1 0.012171 -0.002417 -0.003573 0.005089 -0.003276 0.005953
# 2 -0.002417 0.007106 0.001222 0.003557 0.000062 -0.001514
# 3 -0.003573 0.001222 0.009688 0.001120 -0.003267 -0.002471
# 4 0.005089 0.003557 0.001120 0.067502 -0.021884 0.030290
# 5 -0.003276 0.000062 -0.003267 -0.021884 0.027738 -0.012028
# 6 0.005953 -0.001514 -0.002471 0.030290 -0.012028 0.044051
#
#
# Mechanical properties :
#
#
# Convention : Reuss Voigt Hill
#
# Bulk Modulus (GPa) = 51.46952 58.34047 54.90500
# Shear Modulus (GPa) = 27.13457 45.80694 36.47076
#
# Velocity S-wave (km/s) = 3.12744 4.06344 3.62577
# Velocity P-wave (km/s) = 5.62084 6.56085 6.10895
#
# Compressibility (1/GPa) = 0.01942897
#
# Stress axis : x y z
#
# Youngs Moduli (GPa) = 82.16397 140.73323 103.22245
#
# Poissons Ratio (x) = 0.34012 0.36884
# Poissons Ratio (y) = 0.19857 -0.12618
# Poissons Ratio (z) = 0.29360 -0.17204
#
# Static dielectric constant tensor:
#      x y z
#    x 2.340030 0.051570 0.050870 
#    y 0.051570 2.153380 0.000990 
#    z 0.050870 0.000990 2.233870 
# 
# From -- ./inp_files/243045.got.cif
#   From: 2010.05.17/outbox.cif.g08.bks.cpg/sg2_122_cif.got.tgz:243045.got - 2010.06.03 11:33:40.
