data_PCOD9089133
_publ_section_title
;
Structure prediction by ZEFSAII (Michael W. Deem and Ramdas Pophale) SiO2 
 PCOD9089133
Probable space group: P -1
;
_chemical_formula_sum "Si O2"
_cell_formula_units_Z 16
_cell_length_a 27.467365
_cell_length_b 11.847510
_cell_length_c 10.930041
_cell_angle_alpha 38.522021
_cell_angle_beta 155.868836
_cell_angle_gamma 154.611539
_cell_volume 605.212176
_symmetry_space_group_name_H-M "P -1"
_symmetry_group_IT_number 2
_symmetry_cell_setting 'triclinic'
loop_
_space_group_symop_operation_xyz
x,y,z
-x,-y,-z
loop_
_atom_site_type_symbol
_atom_site_label
_atom_site_fract_x
_atom_site_fract_y
_atom_site_fract_z
Si Si1 0.679279 0.287315 0.386512
Si Si2 0.367877 0.715103 0.252694
Si Si3 0.199090 0.568617 0.731721
Si Si4 0.570751 0.736752 0.046232
Si Si5 0.055762 0.858982 0.788963
Si Si6 0.803340 0.852182 0.669015
Si Si7 0.711326 0.755647 0.785571
Si Si8 0.178261 0.739332 0.952848
O O1 0.704239 0.274371 0.310153
O O2 0.871787 0.548310 0.665401
O O3 0.567939 0.347435 0.100736
O O4 0.568719 0.013544 0.441247
O O5 0.284075 0.707616 0.941137
O O6 0.240354 0.606381 0.171033
O O7 0.345454 0.475127 0.390098
O O8 0.004321 0.434767 0.393281
O O9 0.204719 0.353169 0.925015
O O10 0.755096 0.896549 0.398206
O O11 0.631298 0.966340 0.904486
O O12 0.500000 0.500000 0.000000
O O13 0.131165 0.817247 0.891160
O O14 0.000000 0.000000 0.500000
O O15 0.201162 0.043933 0.070582
O O16 0.775289 0.930745 0.661538
O O17 0.000000 0.000000 0.000000
O O18 0.500000 0.500000 0.500000
#
# Coordination Sequence:
#
# PCOD9089133 Si02
#       8
#     2   2   2   2   2   2   2   2
#     4  10  21  37  67 104 128 182 224 279 332 399
#     4  10  22  41  62 104 142 171 220 282 346 395
#     4  10  19  37  65  94 136 178 226 270 327 404
#     4  11  23  38  69  98 128 176 231 270 330 409
#     4  11  21  40  73 100 135 173 237 277 325 410
#     4  11  26  44  68 100 138 177 224 285 337 392
#     4  11  23  40  67 103 135 171 225 290 335 383
#     4  10  21  38  68 103 128 180 224 278 329 402
#
# _framework density 26.437009
#
# number of rings (size 3 to 8) (size 9 to 14) (size 15 to 20)
#    0.000    1.500    2.500    3.750    3.500    1.000 
#    0.000    7.500    0.000    3.750    0.000    0.000 
#    0.000    0.000    0.000    0.000    0.000    0.000 
#
# Total GULP energy -89404.901017 kJ/mol
# GULP energy per Si atom -5587.806314 kJ/mol
# Density = 2.637684 g / cm^3
# Si number density = 26.437009 Si / 1000 Ang^3
#
#
#
# Elastic Constant Matrix: (Units=GPa)
#
#
# Indices 1 2 3 4 5 6 
#
# 1 159.4941 20.1436 51.2387 14.0084 12.9737 -10.2823
# 2 20.1436 79.5266 20.9291 17.7775 7.5018 3.3358
# 3 51.2387 20.9291 125.5532 23.1049 6.0760 -15.7342
# 4 14.0084 17.7775 23.1049 46.8715 -1.4810 3.5670
# 5 12.9737 7.5018 6.0760 -1.4810 48.5438 5.2543
# 6 -10.2823 3.3358 -15.7342 3.5670 5.2543 36.0907
#
#
#
# Elastic Compliance Matrix: (Units=1/GPa)
#
#
# Indices 1 2 3 4 5 6 
#
# 1 0.007496 -0.000962 -0.002479 -0.000820 -0.001729 0.001476
# 2 -0.000962 0.014386 -0.001276 -0.004485 -0.001786 -0.001457
# 3 -0.002479 -0.001276 0.010636 -0.004406 -0.001109 0.004646
# 4 -0.000820 -0.004485 -0.004406 0.025899 0.002763 -0.004702
# 5 -0.001729 -0.001786 -0.001109 0.002763 0.022026 -0.004291
# 6 0.001476 -0.001457 0.004646 -0.004702 -0.004291 0.031378
#
#
# Mechanical properties :
#
#
# Convention : Reuss Voigt Hill
#
# Bulk Modulus (GPa) = 43.32066 61.02183 52.17124
# Shear Modulus (GPa) = 38.77525 44.45202 41.61363
#
# Velocity S-wave (km/s) = 3.83391 4.10497 3.97176
# Velocity P-wave (km/s) = 6.00170 6.75277 6.38828
#
# Compressibility (1/GPa) = 0.02308368
#
# Stress axis : x y z
#
# Youngs Moduli (GPa) = 133.41215 69.51155 94.02095
#
# Poissons Ratio (x) = 0.06684 0.23308
# Poissons Ratio (y) = 0.12829 0.12001
# Poissons Ratio (z) = 0.33072 0.08872
#
# Static dielectric constant tensor:
#      x y z
#    x -4.397240 2.830890 -0.576000 
#    y 2.830890 0.946850 0.152140 
#    z -0.576000 0.152140 2.037140 
# 
# From -- ./inp_files/476640.got.cif
#   From: 2010.05.17/outbox.cif.g08.bks.cpg/sg2_239_cif.got.tgz:476640.got - 2010.06.03 11:33:40.
