data_PCOD9089114
_publ_section_title
;
Structure prediction by ZEFSAII (Michael W. Deem and Ramdas Pophale) SiO2 
 PCOD9089114
Probable space group: P -1
;
_chemical_formula_sum "Si O2"
_cell_formula_units_Z 16
_cell_length_a 23.846989
_cell_length_b 7.541614
_cell_length_c 5.578561
_cell_angle_alpha 118.111274
_cell_angle_beta 54.235001
_cell_angle_gamma 133.454541
_cell_volume 586.863178
_symmetry_space_group_name_H-M "P -1"
_symmetry_group_IT_number 2
_symmetry_cell_setting 'triclinic'
loop_
_space_group_symop_operation_xyz
x,y,z
-x,-y,-z
loop_
_atom_site_type_symbol
_atom_site_label
_atom_site_fract_x
_atom_site_fract_y
_atom_site_fract_z
Si Si1 0.605733 0.903075 0.948399
Si Si2 0.065424 0.802763 0.718444
Si Si3 0.196982 0.388549 0.658574
Si Si4 0.215686 0.153614 0.073698
Si Si5 0.790556 0.217982 0.794478
Si Si6 0.483139 0.233599 0.410513
Si Si7 0.976079 0.191215 0.702834
Si Si8 0.644818 0.538266 0.452627
O O1 0.553500 0.890991 0.836738
O O2 0.603050 0.652410 0.772824
O O3 0.704094 0.129418 0.821546
O O4 0.575914 0.897611 0.291755
O O5 0.129767 0.720985 0.519084
O O6 0.020360 0.724166 0.520967
O O7 0.123910 0.106346 0.742654
O O8 0.994719 0.688905 0.030932
O O9 0.202422 0.356637 0.340672
O O10 0.292672 0.488677 0.562343
O O11 0.183955 0.574054 0.942519
O O12 0.233168 0.026065 0.159096
O O13 0.123671 0.946848 0.079126
O O14 0.289626 0.257995 0.769817
O O15 0.500000 0.500000 0.500000
O O16 0.573629 0.306964 0.328411
O O17 0.000000 0.000000 0.500000
#
# Coordination Sequence:
#
# PCOD9089114 Si02
#       8
#     2   2   2   2   2   2   2   2
#     4  11  20  37  55  87 113 154 196 247 299 352
#     4  10  21  40  61  90 123 157 197 241 286 356
#     4  10  21  37  60  89 113 156 204 246 289 342
#     4  10  21  39  61  86 119 153 198 243 288 355
#     4  10  20  39  62  84 120 155 202 244 295 347
#     4  10  22  31  59  82 112 157 195 241 306 351
#     4  10  19  37  65  92 120 158 193 236 296 347
#     4  11  19  38  58  84 116 151 205 243 293 357
#
# _framework density 27.263594000000001
#
# number of rings (size 3 to 8) (size 9 to 14) (size 15 to 20)
#    0.000    2.000    3.750    3.375    1.750    1.000 
#    9.000    1.250    0.000   24.750    0.000    0.000 
#    0.000    0.000    0.000    0.000    0.000    0.000 
#
# Total GULP energy -89455.500394 kJ/mol
# GULP energy per Si atom -5590.968775 kJ/mol
# Density = 2.720154 g / cm^3
# Si number density = 27.263594 Si / 1000 Ang^3
#
#
#
# Elastic Constant Matrix: (Units=GPa)
#
#
# Indices 1 2 3 4 5 6 
#
# 1 109.0849 32.3160 16.1168 4.6968 2.7153 25.7471
# 2 32.3160 101.0116 35.7158 15.3938 0.8386 11.6948
# 3 16.1168 35.7158 128.0145 11.9975 13.5759 -9.4736
# 4 4.6968 15.3938 11.9975 37.7639 0.6602 6.2332
# 5 2.7153 0.8386 13.5759 0.6602 39.8594 0.4609
# 6 25.7471 11.6948 -9.4736 6.2332 0.4609 46.4181
#
#
#
# Elastic Compliance Matrix: (Units=1/GPa)
#
#
# Indices 1 2 3 4 5 6 
#
# 1 0.011557 -0.002718 -0.001222 0.001073 -0.000261 -0.006116
# 2 -0.002718 0.012604 -0.003091 -0.003534 0.001052 -0.001834
# 3 -0.001222 -0.003091 0.009647 -0.002218 -0.003144 0.003754
# 4 0.001073 -0.003534 -0.002218 0.029159 0.000321 -0.004076
# 5 -0.000261 0.001052 -0.003144 0.000321 0.026162 -0.001065
# 6 -0.006116 -0.001834 0.003754 -0.004076 -0.001065 0.026722
#
#
# Mechanical properties :
#
#
# Convention : Reuss Voigt Hill
#
# Bulk Modulus (GPa) = 50.64307 56.26756 53.45532
# Shear Modulus (GPa) = 36.63118 41.73912 39.18515
#
# Velocity S-wave (km/s) = 3.66948 3.91698 3.79525
# Velocity P-wave (km/s) = 6.04724 6.41405 6.23335
#
# Compressibility (1/GPa) = 0.01974604
#
# Stress axis : x y z
#
# Youngs Moduli (GPa) = 86.52759 79.33684 103.66077
#
# Poissons Ratio (x) = 0.21568 0.12669
# Poissons Ratio (y) = 0.23522 0.32037
# Poissons Ratio (z) = 0.10575 0.24520
#
# Static dielectric constant tensor:
#      x y z
#    x 2.412030 -0.033380 0.300750 
#    y -0.033380 2.178500 -0.002270 
#    z 0.300750 -0.002270 2.456380 
# 
# From -- ./inp_files/126500.got.cif
#   From: 2010.05.17/outbox.cif.g08.bks.cpg/sg2_64_cif.got.tgz:126500.got - 2010.06.03 11:33:40.
