data_PCOD9089476
_publ_section_title
;
Structure prediction by ZEFSAII (Michael W. Deem and Ramdas Pophale) SiO2 
 PCOD9089476
Probable space group: P -1
;
_chemical_formula_sum "Si O2"
_cell_formula_units_Z 16
_cell_length_a 13.768058
_cell_length_b 13.266175
_cell_length_c 11.841002
_cell_angle_alpha 132.859636
_cell_angle_beta 143.695872
_cell_angle_gamma 69.174066
_cell_volume 841.108341
_symmetry_space_group_name_H-M "P -1"
_symmetry_group_IT_number 2
_symmetry_cell_setting 'triclinic'
loop_
_space_group_symop_operation_xyz
x,y,z
-x,-y,-z
loop_
_atom_site_type_symbol
_atom_site_label
_atom_site_fract_x
_atom_site_fract_y
_atom_site_fract_z
Si Si1 0.804829 0.878446 0.770945
Si Si2 0.973207 0.781002 0.028574
Si Si3 0.673786 0.892124 0.422232
Si Si4 0.410839 0.022490 0.177654
Si Si5 0.299138 0.407172 0.193215
Si Si6 0.223917 0.691202 0.326075
Si Si7 0.194549 0.904750 0.657059
Si Si8 0.226955 0.193313 0.767031
O O1 0.850297 0.751900 0.779787
O O2 0.673878 0.838268 0.509077
O O3 0.000000 0.000000 0.000000
O O4 0.134259 0.954050 0.303898
O O5 0.732560 0.954890 0.857897
O O6 0.831066 0.741845 0.968955
O O7 0.089381 0.689878 0.098653
O O8 0.685701 0.779975 0.253702
O O9 0.510623 0.935599 0.271537
O O10 0.570277 0.190894 0.426485
O O11 0.322660 0.940902 0.914552
O O12 0.500000 0.500000 0.500000
O O13 0.210986 0.524838 0.202886
O O14 0.311754 0.345379 0.036130
O O15 0.188479 0.770699 0.465614
O O16 0.990753 0.861742 0.477306
O O17 0.257037 0.057326 0.754204
#
# Coordination Sequence:
#
# PCOD9089476 Si02
#       8
#     2   2   2   2   2   2   2   2
#     4  10  20  36  58  84 112 150 195 240 286 324
#     4  10  19  38  57  82 114 151 189 235 279 339
#     4  10  21  36  58  87 113 150 193 246 279 326
#     4  11  21  34  59  89 117 145 191 240 285 337
#     4  12  24  35  57  85 121 155 188 224 292 350
#     4  11  22  36  56  89 121 153 183 231 289 349
#     4  11  20  34  59  84 121 147 184 236 293 336
#     4  11  20  36  55  83 118 151 189 233 285 340
#
# _framework density 19.02252
#
# number of rings (size 3 to 8) (size 9 to 14) (size 15 to 20)
#    0.000    1.250    3.750    5.625    1.750    0.000 
#    0.000    0.000    0.000    3.750    3.250    0.000 
#    0.000    0.000    0.000    0.000    0.000    0.000 
#
# Total GULP energy -89285.686730 kJ/mol
# GULP energy per Si atom -5580.355421 kJ/mol
# Density = 1.897922 g / cm^3
# Si number density = 19.022520 Si / 1000 Ang^3
#
#
#
# Elastic Constant Matrix: (Units=GPa)
#
#
# Indices 1 2 3 4 5 6 
#
# 1 78.3763 35.2356 19.5868 -10.7003 -14.5760 -10.9720
# 2 35.2356 99.4283 58.6762 -13.9939 -27.8205 -8.9139
# 3 19.5868 58.6762 98.9000 -25.8456 -19.4098 2.9398
# 4 -10.7003 -13.9939 -25.8456 35.1281 2.4299 -6.6152
# 5 -14.5760 -27.8205 -19.4098 2.4299 35.8705 -5.1077
# 6 -10.9720 -8.9139 2.9398 -6.6152 -5.1077 22.3920
#
#
#
# Elastic Compliance Matrix: (Units=1/GPa)
#
#
# Indices 1 2 3 4 5 6 
#
# 1 0.017418 -0.003224 0.001012 0.006294 0.006177 0.010387
# 2 -0.003224 0.021412 -0.009669 0.001776 0.011564 0.011376
# 3 0.001012 -0.009669 0.018599 0.009528 0.001970 -0.002531
# 4 0.006294 0.001776 0.009528 0.040612 0.008692 0.016521
# 5 0.006177 0.011564 0.001970 0.008692 0.042634 0.019664
# 6 0.010387 0.011376 -0.002531 0.016521 0.019664 0.063976
#
#
# Mechanical properties :
#
#
# Convention : Reuss Voigt Hill
#
# Bulk Modulus (GPa) = 29.70403 55.96687 42.83545
# Shear Modulus (GPa) = 20.86499 29.55852 25.21175
#
# Velocity S-wave (km/s) = 3.31548 3.94619 3.64450
# Velocity P-wave (km/s) = 5.50505 7.08862 6.34642
#
# Compressibility (1/GPa) = 0.03366546
#
# Stress axis : x y z
#
# Youngs Moduli (GPa) = 57.41245 46.70349 53.76519
#
# Poissons Ratio (x) = 0.15058 -0.05440
# Poissons Ratio (y) = 0.18510 0.51988
# Poissons Ratio (z) = -0.05809 0.45159
#
# Static dielectric constant tensor:
#      x y z
#    x 1.674390 0.001790 0.000400 
#    y 0.001790 1.678420 -0.038170 
#    z 0.000400 -0.038170 1.705130 
# 
# From -- ./inp_files/455147.got.cif
#   From: 2010.05.17/outbox.cif.g08.bks.cpg/sg2_228_cif.got.tgz:455147.got - 2010.06.03 11:33:40.
