data_PCOD9089811
_publ_section_title
;
Structure prediction by ZEFSAII (Michael W. Deem and Ramdas Pophale) SiO2 
 PCOD9089811
Probable space group: P -1
;
_chemical_formula_sum "Si O2"
_cell_formula_units_Z 14
_cell_length_a 13.610944
_cell_length_b 11.748215
_cell_length_c 16.443719
_cell_angle_alpha 146.173605
_cell_angle_beta 26.146934
_cell_angle_gamma 137.640300
_cell_volume 644.787014
_symmetry_space_group_name_H-M "P -1"
_symmetry_group_IT_number 2
_symmetry_cell_setting 'triclinic'
loop_
_space_group_symop_operation_xyz
x,y,z
-x,-y,-z
loop_
_atom_site_type_symbol
_atom_site_label
_atom_site_fract_x
_atom_site_fract_y
_atom_site_fract_z
Si Si1 0.087286 0.257330 0.129585
Si Si2 0.006291 0.930948 0.234553
Si Si3 0.776158 0.991807 0.607424
Si Si4 0.202898 0.382633 0.381512
Si Si5 0.448397 0.348664 0.021870
Si Si6 0.756101 0.940156 0.256060
Si Si7 0.524823 0.204059 0.158478
O O1 0.280837 0.191317 0.009937
O O2 0.999400 0.479888 0.353664
O O3 0.192360 0.245551 0.954999
O O4 0.874854 0.119998 0.223781
O O5 0.839849 0.921114 0.428130
O O6 0.110248 0.158149 0.298106
O O7 0.883374 0.907689 0.226990
O O8 0.216559 0.777198 0.002495
O O9 0.610468 0.842727 0.687534
O O10 0.653272 0.214325 0.824953
O O11 0.000000 0.000000 0.500000
O O12 0.314833 0.456647 0.258989
O O13 0.394556 0.371710 0.301089
O O14 0.500000 0.500000 0.000000
O O15 0.500000 0.000000 0.500000
O O16 0.500000 0.000000 0.000000
#
# Coordination Sequence:
#
# PCOD9089811 Si02
#       7
#     2   2   2   2   2   2   2
#     4  11  25  42  61  91 131 167 212 265 318 376
#     4  11  21  40  65  91 127 163 212 260 316 376
#     4  12  20  34  61  95 125 166 204 254 318 387
#     4  11  21  40  66  97 128 160 207 274 321 372
#     4  12  24  36  65 102 131 163 211 268 329 371
#     4  11  25  44  62  86 128 177 213 254 318 389
#     4  10  19  38  61  93 129 163 205 258 324 380
#
# _framework density 21.712596000000001
#
# number of rings (size 3 to 8) (size 9 to 14) (size 15 to 20)
#    0.000    0.857    7.143    2.143    4.000    1.143 
#    0.000    0.714    0.000    1.714    0.000    0.000 
#    0.000    0.000    0.000    0.000    0.000    0.000 
#
# Total GULP energy -78245.503739 kJ/mol
# GULP energy per Si atom -5588.964553 kJ/mol
# Density = 2.166318 g / cm^3
# Si number density = 21.712596 Si / 1000 Ang^3
#
#
#
# Elastic Constant Matrix: (Units=GPa)
#
#
# Indices 1 2 3 4 5 6 
#
# 1 168.2200 14.3650 96.3647 -7.0619 4.7409 -13.9572
# 2 14.3650 35.4309 22.9276 -20.6673 9.3292 -14.0255
# 3 96.3647 22.9276 161.2334 -27.5886 8.0742 -7.0005
# 4 -7.0619 -20.6673 -27.5886 33.8852 -13.6609 4.0423
# 5 4.7409 9.3292 8.0742 -13.6609 50.2630 -16.5494
# 6 -13.9572 -14.0255 -7.0005 4.0423 -16.5494 25.6031
#
#
#
# Elastic Compliance Matrix: (Units=1/GPa)
#
#
# Indices 1 2 3 4 5 6 
#
# 1 0.009728 -0.000473 -0.006203 -0.003579 0.000613 0.004309
# 2 -0.000473 0.060794 -0.001261 0.035884 0.009677 0.033290
# 3 -0.006203 -0.001261 0.011270 0.007512 0.000424 -0.001903
# 4 -0.003579 0.035884 0.007512 0.060651 0.015636 0.020292
# 5 0.000613 0.009677 0.000424 0.015636 0.029604 0.022418
# 6 0.004309 0.033290 -0.001903 0.020292 0.022418 0.070410
#
#
# Mechanical properties :
#
#
# Convention : Reuss Voigt Hill
#
# Bulk Modulus (GPa) = 15.17045 70.24431 42.70738
# Shear Modulus (GPa) = 17.83766 37.36538 27.60152
#
# Velocity S-wave (km/s) = 2.86935 4.15288 3.56929
# Velocity P-wave (km/s) = 4.24025 7.44428 6.05793
#
# Compressibility (1/GPa) = 0.06591764
#
# Stress axis : x y z
#
# Youngs Moduli (GPa) = 102.79124 16.44909 88.72748
#
# Poissons Ratio (x) = 0.00778 0.55038
# Poissons Ratio (y) = 0.04864 0.11191
# Poissons Ratio (z) = 0.63762 0.02075
#
# Static dielectric constant tensor:
#      x y z
#    x 1.815490 0.050740 -0.006010 
#    y 0.050740 1.893200 0.012310 
#    z -0.006010 0.012310 1.811440 
# 
# From -- ./inp_files/519196.got.cif
#   From: 2010.05.17/outbox.cif.g08.bks.cpg/sg2_260_cif.got.tgz:519196.got - 2010.06.03 11:33:40.
