data_PCOD9089117
_publ_section_title
;
Structure prediction by ZEFSAII (Michael W. Deem and Ramdas Pophale) SiO2 
 PCOD9089117
Probable space group: P -1
;
_chemical_formula_sum "Si O2"
_cell_formula_units_Z 16
_cell_length_a 8.752265
_cell_length_b 14.988828
_cell_length_c 15.275536
_cell_angle_alpha 132.740534
_cell_angle_beta 146.320302
_cell_angle_gamma 70.223518
_cell_volume 678.430538
_symmetry_space_group_name_H-M "P -1"
_symmetry_group_IT_number 2
_symmetry_cell_setting 'triclinic'
loop_
_space_group_symop_operation_xyz
x,y,z
-x,-y,-z
loop_
_atom_site_type_symbol
_atom_site_label
_atom_site_fract_x
_atom_site_fract_y
_atom_site_fract_z
Si Si1 0.323682 0.670615 0.163250
Si Si2 0.105248 0.026167 0.345310
Si Si3 0.230961 0.807444 0.669485
Si Si4 0.023145 0.631274 0.284508
Si Si5 0.039442 0.071395 0.971745
Si Si6 0.825945 0.702073 0.059423
Si Si7 0.226379 0.401213 0.553625
Si Si8 0.316893 0.354084 0.372145
O O1 0.536944 0.645148 0.319581
O O2 0.004122 0.649942 0.043937
O O3 0.563380 0.839420 0.362981
O O4 0.206340 0.544400 0.951441
O O5 0.950166 0.864822 0.200006
O O6 0.845630 0.071739 0.266721
O O7 0.192408 0.026159 0.283714
O O8 0.003709 0.700471 0.410864
O O9 0.603622 0.876693 0.863870
O O10 0.112995 0.700312 0.624152
O O11 0.397192 0.672620 0.484620
O O12 0.945078 0.697792 0.210302
O O13 0.053408 0.217729 0.096646
O O14 0.000000 0.000000 0.000000
O O15 0.437419 0.574417 0.785058
O O16 0.179642 0.369428 0.407622
O O17 0.500000 0.500000 0.500000
#
# Coordination Sequence:
#
# PCOD9089117 Si02
#       8
#     2   2   2   2   2   2   2   2
#     4  10  19  37  65  92 125 165 211 264 304 374
#     4  11  24  38  62  97 129 168 206 257 324 373
#     4  10  24  42  64  90 128 169 209 255 322 386
#     4  10  21  40  64  87 125 166 215 257 314 367
#     4  11  24  43  66  89 127 171 209 261 316 386
#     4  11  20  37  65  96 130 159 211 266 311 376
#     4  10  19  39  66  92 123 168 211 263 318 361
#     4  11  21  39  65  95 120 162 223 264 299 370
#
# _framework density 23.583845
#
# number of rings (size 3 to 8) (size 9 to 14) (size 15 to 20)
#    0.000    1.500    2.500    3.750    1.750    5.000 
#    0.000    8.125    0.000    0.000    0.000    0.000 
#    0.000    0.000    0.000    0.000    0.000    0.000 
#
# Total GULP energy -89545.201140 kJ/mol
# GULP energy per Si atom -5596.575071 kJ/mol
# Density = 2.353017 g / cm^3
# Si number density = 23.583845 Si / 1000 Ang^3
#
#
#
# Elastic Constant Matrix: (Units=GPa)
#
#
# Indices 1 2 3 4 5 6 
#
# 1 120.3453 54.7400 40.6631 10.5146 -17.6557 30.4061
# 2 54.7400 124.3971 43.1141 31.3616 -12.9656 5.9463
# 3 40.6631 43.1141 111.7108 30.9687 -23.4316 2.4300
# 4 10.5146 31.3616 30.9687 43.9995 -0.2069 4.8615
# 5 -17.6557 -12.9656 -23.4316 -0.2069 60.6865 2.2610
# 6 30.4061 5.9463 2.4300 4.8615 2.2610 24.1277
#
#
#
# Elastic Compliance Matrix: (Units=1/GPa)
#
#
# Indices 1 2 3 4 5 6 
#
# 1 0.018689 -0.006723 -0.004812 0.006263 0.003020 -0.022956
# 2 -0.006723 0.012863 -0.000350 -0.008079 0.000371 0.006931
# 3 -0.004812 -0.000350 0.014003 -0.009128 0.003668 0.006235
# 4 0.006263 -0.008079 -0.009128 0.034694 -0.002874 -0.011704
# 5 0.003020 0.000371 0.003668 -0.002874 0.019046 -0.005472
# 6 -0.022956 0.006931 0.006235 -0.011704 -0.005472 0.070910
#
#
# Mechanical properties :
#
#
# Convention : Reuss Voigt Hill
#
# Bulk Modulus (GPa) = 45.90518 70.38752 58.14635
# Shear Modulus (GPa) = 24.84637 40.29180 32.56909
#
# Velocity S-wave (km/s) = 3.24934 4.13782 3.72020
# Velocity P-wave (km/s) = 5.79522 7.26218 6.56977
#
# Compressibility (1/GPa) = 0.02178403
#
# Stress axis : x y z
#
# Youngs Moduli (GPa) = 53.50717 77.74291 71.41549
#
# Poissons Ratio (x) = 0.52269 0.34363
# Poissons Ratio (y) = 0.35975 0.02501
# Poissons Ratio (z) = 0.25746 0.02723
#
# Static dielectric constant tensor:
#      x y z
#    x 1.882340 -0.012850 0.025480 
#    y -0.012850 1.928910 -0.022480 
#    z 0.025480 -0.022480 1.977390 
# 
# From -- ./inp_files/398466.got.cif
#   From: 2010.05.17/outbox.cif.g08.bks.cpg/sg2_200_cif.got.tgz:398466.got - 2010.06.03 11:33:40.
