data_PCOD9089979
_publ_section_title
;
Structure prediction by ZEFSAII (Michael W. Deem and Ramdas Pophale) SiO2 
 PCOD9089979
Probable space group: P -1
;
_chemical_formula_sum "Si O2"
_cell_formula_units_Z 16
_cell_length_a 8.776058
_cell_length_b 14.966122
_cell_length_c 14.928238
_cell_angle_alpha 138.943783
_cell_angle_beta 73.685938
_cell_angle_gamma 76.604815
_cell_volume 878.326125
_symmetry_space_group_name_H-M "P -1"
_symmetry_group_IT_number 2
_symmetry_cell_setting 'triclinic'
loop_
_space_group_symop_operation_xyz
x,y,z
-x,-y,-z
loop_
_atom_site_type_symbol
_atom_site_label
_atom_site_fract_x
_atom_site_fract_y
_atom_site_fract_z
Si Si1 0.170715 0.006938 0.508229
Si Si2 0.745464 0.793998 0.484636
Si Si3 0.064758 0.259906 0.872060
Si Si4 0.308696 0.077733 0.878213
Si Si5 0.653617 0.685867 0.244080
Si Si6 0.723112 0.498548 0.535686
Si Si7 0.240777 0.825925 0.783904
Si Si8 0.056738 0.452616 0.311374
O O1 0.171133 0.129684 0.529826
O O2 0.101400 0.105402 0.690664
O O3 0.419312 0.801223 0.324201
O O4 0.000000 0.000000 0.500000
O O5 0.632563 0.765335 0.406157
O O6 0.940503 0.597690 0.356191
O O7 0.557910 0.952595 0.706053
O O8 0.142646 0.197849 0.913095
O O9 0.218604 0.281529 0.814824
O O10 0.812463 0.461887 0.058404
O O11 0.294809 0.930022 0.799126
O O12 0.227829 0.232995 0.083895
O O13 0.455873 0.678355 0.702650
O O14 0.770041 0.308866 0.372236
O O15 0.818783 0.511913 0.619532
O O16 0.859750 0.495655 0.432370
O O17 0.000000 0.000000 0.000000
#
# Coordination Sequence:
#
# PCOD9089979 Si02
#       8
#     2   2   2   2   2   2   2   2
#     4  11  23  38  59  90 130 159 195 252 312 357
#     4  11  21  39  63  89 119 162 208 249 297 367
#     4  10  20  36  63  89 112 161 207 245 291 363
#     4  12  21  37  68  91 118 163 217 245 297 375
#     4  10  19  38  63  84 119 157 203 246 295 357
#     4  10  24  43  61  90 129 158 202 261 320 357
#     4  11  23  41  65  91 125 165 200 252 314 372
#     4  11  23  40  64  95 119 159 210 263 303 363
#
# _framework density 18.216467999999999
#
# number of rings (size 3 to 8) (size 9 to 14) (size 15 to 20)
#    0.000    1.250    6.250    0.750    0.000    3.000 
#    0.000    0.000    0.000    0.000    0.000    0.000 
#    0.000    0.000    0.000    0.000    0.000    0.000 
#
# Total GULP energy -89298.399163 kJ/mol
# GULP energy per Si atom -5581.149948 kJ/mol
# Density = 1.817501 g / cm^3
# Si number density = 18.216468 Si / 1000 Ang^3
#
#
#
# Elastic Constant Matrix: (Units=GPa)
#
#
# Indices 1 2 3 4 5 6 
#
# 1 119.0562 32.4127 49.7359 11.4795 4.7671 -8.4862
# 2 32.4127 71.0979 26.3671 11.4906 11.2334 -13.1263
# 3 49.7359 26.3671 106.8502 14.9437 -2.3296 -3.2094
# 4 11.4795 11.4906 14.9437 30.8360 -1.5983 -4.1977
# 5 4.7671 11.2334 -2.3296 -1.5983 16.5552 2.3479
# 6 -8.4862 -13.1263 -3.2094 -4.1977 2.3479 12.2183
#
#
#
# Elastic Compliance Matrix: (Units=1/GPa)
#
#
# Indices 1 2 3 4 5 6 
#
# 1 0.011440 -0.001854 -0.004680 -0.000783 -0.003498 0.005128
# 2 -0.001854 0.026009 -0.004621 -0.004058 -0.022171 0.028306
# 3 -0.004680 -0.004621 0.013103 -0.003520 0.007027 -0.007333
# 4 -0.000783 -0.004058 -0.003520 0.037011 0.005223 0.005883
# 5 -0.003498 -0.022171 0.007027 0.005223 0.083428 -0.038639
# 6 0.005128 0.028306 -0.007333 0.005883 -0.038639 0.123336
#
#
# Mechanical properties :
#
#
# Convention : Reuss Voigt Hill
#
# Bulk Modulus (GPa) = 35.40816 57.11506 46.26161
# Shear Modulus (GPa) = 15.33502 24.48780 19.91141
#
# Velocity S-wave (km/s) = 2.90456 3.67040 3.30971
# Velocity P-wave (km/s) = 5.54331 7.02738 6.32900
#
# Compressibility (1/GPa) = 0.02824207
#
# Stress axis : x y z
#
# Youngs Moduli (GPa) = 87.40908 38.44874 76.31846
#
# Poissons Ratio (x) = 0.07128 0.35721
# Poissons Ratio (y) = 0.16204 0.35265
# Poissons Ratio (z) = 0.40912 0.17766
#
# Static dielectric constant tensor:
#      x y z
#    x 1.594210 0.003850 -0.005850 
#    y 0.003850 1.617170 0.000500 
#    z -0.005850 0.000500 1.657450 
# 
# From -- ./inp_files/217606.got.cif
#   From: 2010.05.17/outbox.cif.g08.bks.cpg/sg2_109_cif.got.tgz:217606.got - 2010.06.03 11:33:40.
