data_PCOD9089509
_publ_section_title
;
Structure prediction by ZEFSAII (Michael W. Deem and Ramdas Pophale) SiO2 
 PCOD9089509
Probable space group: P -1
;
_chemical_formula_sum "Si O2"
_cell_formula_units_Z 16
_cell_length_a 19.842746
_cell_length_b 7.990047
_cell_length_c 16.948464
_cell_angle_alpha 64.802114
_cell_angle_beta 158.146779
_cell_angle_gamma 126.050754
_cell_volume 741.054607
_symmetry_space_group_name_H-M "P -1"
_symmetry_group_IT_number 2
_symmetry_cell_setting 'triclinic'
loop_
_space_group_symop_operation_xyz
x,y,z
-x,-y,-z
loop_
_atom_site_type_symbol
_atom_site_label
_atom_site_fract_x
_atom_site_fract_y
_atom_site_fract_z
Si Si1 0.073734 0.488730 0.704352
Si Si2 0.503845 0.605322 0.401546
Si Si3 0.360299 0.676373 0.478854
Si Si4 0.996355 0.223733 0.229525
Si Si5 0.677988 0.439937 0.196987
Si Si6 0.600980 0.052193 0.952274
Si Si7 0.713053 0.195217 0.797728
Si Si8 0.812743 0.018174 0.570610
O O1 0.167233 0.451319 0.733431
O O2 0.277363 0.721134 0.911677
O O3 0.863959 0.499701 0.454058
O O4 0.995164 0.282203 0.719431
O O5 0.500000 0.500000 0.500000
O O6 0.508105 0.439293 0.376388
O O7 0.321699 0.658304 0.205979
O O8 0.728302 0.856091 0.586481
O O9 0.171159 0.494661 0.369711
O O10 0.266145 0.702613 0.287463
O O11 0.511652 0.929669 0.625906
O O12 0.115701 0.097980 0.389335
O O13 0.793538 0.096674 0.094225
O O14 0.908189 0.194059 0.049639
O O15 0.500000 0.500000 0.000000
O O16 0.517422 0.167678 0.077665
O O17 0.406282 0.018418 0.694527
#
# Coordination Sequence:
#
# PCOD9089509 Si02
#       8
#     2   2   2   2   2   2   2   2
#     4  10  23  40  63  90 120 159 200 240 305 369
#     4   9  18  36  58  82 120 160 202 261 306 352
#     4   9  21  35  58  86 112 161 210 255 317 364
#     4  11  22  36  59  85 117 159 202 249 307 364
#     4  10  22  42  64  90 123 156 193 246 300 362
#     4  11  23  38  61  91 123 157 198 250 303 365
#     4  10  19  38  58  81 121 156 206 266 306 363
#     4  10  22  39  56  87 122 156 203 255 299 360
#
# _framework density 21.590851000000001
#
# number of rings (size 3 to 8) (size 9 to 14) (size 15 to 20)
#    0.000    2.000    1.250    1.500    1.750    3.500 
#    0.000    0.000    0.000    9.000    0.000    0.000 
#    0.000    0.000    0.000    0.000    0.000    0.000 
#
# Total GULP energy -89124.106714 kJ/mol
# GULP energy per Si atom -5570.256670 kJ/mol
# Density = 2.154171 g / cm^3
# Si number density = 21.590851 Si / 1000 Ang^3
#
#
#
# Elastic Constant Matrix: (Units=GPa)
#
#
# Indices 1 2 3 4 5 6 
#
# 1 43.1314 17.5187 10.3427 -8.1971 18.6971 3.0986
# 2 17.5187 115.4530 5.3835 21.9988 6.3383 20.0752
# 3 10.3427 5.3835 0.1035 19.6311 28.3253 13.6037
# 4 -8.1971 21.9988 19.6311 26.3711 -14.4192 3.9693
# 5 18.6971 6.3383 28.3253 -14.4192 32.1322 0.2518
# 6 3.0986 20.0752 13.6037 3.9693 0.2518 25.9800
#
#
#
# Elastic Compliance Matrix: (Units=1/GPa)
#
#
# Indices 1 2 3 4 5 6 
#
# 1 0.033311 -0.005338 -0.000038 0.006541 -0.015356 -0.000679
# 2 -0.005338 0.010915 -0.005654 -0.003493 0.004404 -0.004346
# 3 -0.000038 -0.005654 -0.009435 0.021184 0.018915 0.005894
# 4 0.006541 -0.003493 0.021184 0.022690 -0.011511 -0.012528
# 5 -0.015356 0.004404 0.018915 -0.011511 0.017426 -0.009886
# 6 -0.000679 -0.004346 0.005894 -0.012528 -0.009886 0.040854
#
#
# Mechanical properties :
#
#
# Convention : Reuss Voigt Hill
#
# Bulk Modulus (GPa) = 78.55278 25.01974 51.78626
# Shear Modulus (GPa) = 35.19545 25.25953 30.22749
#
# Velocity S-wave (km/s) = 4.04184 3.42412 3.74574
# Velocity P-wave (km/s) = 7.63174 5.21978 6.53794
#
# Compressibility (1/GPa) = 0.01273029
#
# Stress axis : x y z
#
# Youngs Moduli (GPa) = 30.02021 91.61949 -105.98446
#
# Poissons Ratio (x) = 0.48908 -0.00401
# Poissons Ratio (y) = 0.16025 -0.59924
# Poissons Ratio (z) = 0.00114 0.51802
#
# Static dielectric constant tensor:
#      x y z
#    x 1.838890 -0.001630 0.032460 
#    y -0.001630 1.826620 -0.029480 
#    z 0.032460 -0.029480 1.794420 
# 
# From -- ./inp_files/577324.got.cif
#   From: 2010.05.17/outbox.cif.g08.bks.cpg/sg2_289_cif.got.tgz:577324.got - 2010.06.03 11:33:40.
