data_PCOD9089569
_publ_section_title
;
Structure prediction by ZEFSAII (Michael W. Deem and Ramdas Pophale) SiO2 
 PCOD9089569
Probable space group: P -1
;
_chemical_formula_sum "Si O2"
_cell_formula_units_Z 13
_cell_length_a 9.642687
_cell_length_b 8.649249
_cell_length_c 7.240835
_cell_angle_alpha 126.660947
_cell_angle_beta 86.126522
_cell_angle_gamma 107.750919
_cell_volume 456.165180
_symmetry_space_group_name_H-M "P -1"
_symmetry_group_IT_number 2
_symmetry_cell_setting 'triclinic'
loop_
_space_group_symop_operation_xyz
x,y,z
-x,-y,-z
loop_
_atom_site_type_symbol
_atom_site_label
_atom_site_fract_x
_atom_site_fract_y
_atom_site_fract_z
Si Si1 0.235453 0.937164 0.220602
Si Si2 0.500000 0.000000 0.500000
Si Si3 0.760069 0.705010 0.014221
Si Si4 0.091770 0.870809 0.577847
Si Si5 0.677968 0.348796 0.502712
Si Si6 0.875422 0.502259 0.164178
Si Si7 0.546438 0.797328 0.861426
O O1 0.133063 0.941995 0.409446
O O2 0.368220 0.900603 0.294909
O O3 0.304686 0.133737 0.228401
O O4 0.175877 0.736508 0.955401
O O5 0.538301 0.222075 0.548014
O O6 0.765817 0.587636 0.119043
O O7 0.891347 0.921885 0.166819
O O8 0.767931 0.553449 0.743610
O O9 0.608654 0.751475 0.018092
O O10 0.222840 0.797542 0.595896
O O11 0.951575 0.667407 0.430944
O O12 0.596352 0.368938 0.334320
O O13 0.000000 0.500000 0.000000
O O14 0.500000 0.000000 0.000000
#
# Coordination Sequence:
#
# PCOD9089569 Si02
#       7
#     2   1   2   2   2   2   2
#     4   9  19  38  61  86 124 158 197 257 295 348
#     4   8  14  32  58  78 114 146 192 244 284 334
#     4  12  21  37  66  90 117 166 201 239 317 355
#     4  10  20  38  66  88 119 158 208 250 291 355
#     4  10  19  38  59  87 120 156 196 249 299 349
#     4  10  19  39  64  88 121 157 204 254 292 351
#     4  11  23  40  60  91 129 158 196 252 308 364
#
# _framework density 28.498449000000001
#
# number of rings (size 3 to 8) (size 9 to 14) (size 15 to 20)
#    0.000    1.846    6.154    0.923    0.000    0.000 
#    0.000   17.692    0.000    0.000    0.000    0.000 
#    0.000    0.000    0.000    0.000    0.000    0.000 
#
# Total GULP energy -72460.267224 kJ/mol
# GULP energy per Si atom -5573.866710 kJ/mol
# Density = 2.843358 g / cm^3
# Si number density = 28.498449 Si / 1000 Ang^3
#
#
#
# Elastic Constant Matrix: (Units=GPa)
#
#
# Indices 1 2 3 4 5 6 
#
# 1 71.5553 39.9374 34.0120 -13.8242 -0.3478 -18.7908
# 2 39.9374 105.1612 55.9415 -6.9122 -4.1681 -18.0254
# 3 34.0120 55.9415 201.4649 37.0984 42.3062 5.5595
# 4 -13.8242 -6.9122 37.0984 54.9819 -5.0421 -0.5453
# 5 -0.3478 -4.1681 42.3062 -5.0421 43.8716 -7.7233
# 6 -18.7908 -18.0254 5.5595 -0.5453 -7.7233 50.3429
#
#
#
# Elastic Compliance Matrix: (Units=1/GPa)
#
#
# Indices 1 2 3 4 5 6 
#
# 1 0.025105 -0.000730 -0.009803 0.014187 0.013397 0.012401
# 2 -0.000730 0.017975 -0.009994 0.010216 0.014195 0.009555
# 3 -0.009803 -0.009994 0.017762 -0.017894 -0.022473 -0.012840
# 4 0.014187 0.010216 -0.017894 0.037588 0.025339 0.015224
# 5 0.013397 0.014195 -0.022473 0.025339 0.052510 0.020895
# 6 0.012401 0.009555 -0.012840 0.015224 0.020895 0.032702
#
#
# Mechanical properties :
#
#
# Convention : Reuss Voigt Hill
#
# Bulk Modulus (GPa) = 50.53657 70.88480 60.71069
# Shear Modulus (GPa) = 21.61765 46.39196 34.00480
#
# Velocity S-wave (km/s) = 2.75718 4.03907 3.45804
# Velocity P-wave (km/s) = 5.28277 6.83223 6.10684
#
# Compressibility (1/GPa) = 0.01978765
#
# Stress axis : x y z
#
# Youngs Moduli (GPa) = 39.83268 55.63398 56.29918
#
# Poissons Ratio (x) = 0.04062 0.55193
# Poissons Ratio (y) = 0.02908 0.56263
# Poissons Ratio (z) = 0.39050 0.55598
#
# Static dielectric constant tensor:
#      x y z
#    x 1.508500 0.516050 -0.108750 
#    y 0.516050 2.143330 -0.140670 
#    z -0.108750 -0.140670 2.287710 
# 
# From -- ./inp_files/236306.got.cif
#   From: 2010.05.17/outbox.cif.g08.bks.cpg/sg2_119_cif.got.tgz:236306.got - 2010.06.03 11:33:40.
