data_PCOD9089557
_publ_section_title
;
Structure prediction by ZEFSAII (Michael W. Deem and Ramdas Pophale) SiO2 
 PCOD9089557
Probable space group: P -1
;
_chemical_formula_sum "Si O2"
_cell_formula_units_Z 16
_cell_length_a 17.946774
_cell_length_b 6.979781
_cell_length_c 9.112433
_cell_angle_alpha 52.214944
_cell_angle_beta 74.634939
_cell_angle_gamma 57.634706
_cell_volume 758.571744
_symmetry_space_group_name_H-M "P -1"
_symmetry_group_IT_number 2
_symmetry_cell_setting 'triclinic'
loop_
_space_group_symop_operation_xyz
x,y,z
-x,-y,-z
loop_
_atom_site_type_symbol
_atom_site_label
_atom_site_fract_x
_atom_site_fract_y
_atom_site_fract_z
Si Si1 0.773333 0.850161 0.746542
Si Si2 0.643962 0.314081 0.097304
Si Si3 0.580427 0.944092 0.833690
Si Si4 0.599588 0.893223 0.187788
Si Si5 0.109770 0.580810 0.341635
Si Si6 0.097112 0.109573 0.749210
Si Si7 0.753020 0.300822 0.322321
Si Si8 0.810683 0.052447 0.918974
O O1 0.673930 0.902170 0.749589
O O2 0.844190 0.569622 0.763662
O O3 0.796870 0.863148 0.896696
O O4 0.776169 0.097155 0.541635
O O5 0.688114 0.266401 0.256382
O O6 0.601194 0.119377 0.187153
O O7 0.585894 0.643750 0.957959
O O8 0.719445 0.221158 0.976718
O O9 0.484806 0.153477 0.716927
O O10 0.582904 0.004365 0.976642
O O11 0.694733 0.614720 0.262578
O O12 0.120773 0.337802 0.560688
O O13 0.005524 0.779787 0.280259
O O14 0.159165 0.752564 0.274343
O O15 0.158351 0.819553 0.767237
O O16 0.118913 0.088358 0.920005
#
# Coordination Sequence:
#
# PCOD9089557 Si02
#       8
#     2   2   2   2   2   2   2   2
#     4  11  22  38  58  88 120 152 199 244 296 348
#     4  10  19  38  59  85 113 157 198 236 300 356
#     4  10  20  36  59  87 117 151 195 250 289 352
#     4  10  20  37  60  84 116 155 198 242 299 349
#     4  10  21  42  60  89 125 153 194 253 291 350
#     4   9  21  41  64  85 124 158 195 243 301 351
#     4   9  22  38  57  85 118 155 192 249 294 354
#     4  11  21  36  62  90 115 160 197 239 298 359
#
# _framework density 21.092268000000001
#
# number of rings (size 3 to 8) (size 9 to 14) (size 15 to 20)
#    0.000    2.000    2.500    0.750    0.000    4.000 
#    0.000    8.750    0.000    0.000    0.000    0.000 
#    0.000    0.000    0.000    0.000    0.000    0.000 
#
# Total GULP energy -89251.758950 kJ/mol
# GULP energy per Si atom -5578.234934 kJ/mol
# Density = 2.104426 g / cm^3
# Si number density = 21.092268 Si / 1000 Ang^3
#
#
#
# Elastic Constant Matrix: (Units=GPa)
#
#
# Indices 1 2 3 4 5 6 
#
# 1 102.0836 25.4477 36.1680 3.8573 -50.4443 -30.1545
# 2 25.4477 91.8027 18.4922 3.5898 8.9860 9.8170
# 3 36.1680 18.4922 58.8259 7.3534 -24.5810 -14.6320
# 4 3.8573 3.5898 7.3534 18.5016 -9.4088 -3.4240
# 5 -50.4443 8.9860 -24.5810 -9.4088 62.2974 26.5403
# 6 -30.1545 9.8170 -14.6320 -3.4240 26.5403 47.8268
#
#
#
# Elastic Compliance Matrix: (Units=1/GPa)
#
#
# Indices 1 2 3 4 5 6 
#
# 1 0.023211 -0.008267 -0.004049 0.008154 0.016950 0.006271
# 2 -0.008267 0.015710 -0.004338 -0.005277 -0.009361 -0.004947
# 3 -0.004049 -0.004338 0.024224 -0.004887 0.005064 0.002588
# 4 0.008154 -0.005277 -0.004887 0.062869 0.014404 0.001237
# 5 0.016950 -0.009361 0.005064 0.014404 0.037756 -0.005763
# 6 0.006271 -0.004947 0.002588 0.001237 -0.005763 0.029956
#
#
# Mechanical properties :
#
#
# Convention : Reuss Voigt Hill
#
# Bulk Modulus (GPa) = 33.51692 45.88089 39.69891
# Shear Modulus (GPa) = 21.09878 37.23211 29.16544
#
# Velocity S-wave (km/s) = 3.16620 4.20599 3.72258
# Velocity P-wave (km/s) = 5.41216 6.73697 6.11058
#
# Compressibility (1/GPa) = 0.02983567
#
# Stress axis : x y z
#
# Youngs Moduli (GPa) = 43.08282 63.65322 41.28219
#
# Poissons Ratio (x) = 0.52622 0.16716
# Poissons Ratio (y) = 0.35617 0.17910
# Poissons Ratio (z) = 0.17445 0.27615
#
# Static dielectric constant tensor:
#      x y z
#    x 1.793850 -0.024500 -0.014730 
#    y -0.024500 1.767250 -0.026650 
#    z -0.014730 -0.026650 1.772920 
# 
# From -- ./inp_files/51978.got.cif
#   From: 2010.05.17/outbox.cif.g08.bks.cpg/sg2_26_cif.got.tgz:51978.got - 2010.06.03 11:33:40.
