data_PCOD9089922
_publ_section_title
;
Structure prediction by ZEFSAII (Michael W. Deem and Ramdas Pophale) SiO2 
 PCOD9089922
Probable space group: P -1
;
_chemical_formula_sum "Si O2"
_cell_formula_units_Z 16
_cell_length_a 15.299256
_cell_length_b 10.968696
_cell_length_c 11.928554
_cell_angle_alpha 120.080093
_cell_angle_beta 25.903205
_cell_angle_gamma 124.104895
_cell_volume 724.048669
_symmetry_space_group_name_H-M "P -1"
_symmetry_group_IT_number 2
_symmetry_cell_setting 'triclinic'
loop_
_space_group_symop_operation_xyz
x,y,z
-x,-y,-z
loop_
_atom_site_type_symbol
_atom_site_label
_atom_site_fract_x
_atom_site_fract_y
_atom_site_fract_z
Si Si1 0.990207 0.798231 0.260882
Si Si2 0.163998 0.139792 0.190643
Si Si3 0.870140 0.297346 0.472002
Si Si4 0.544790 0.137269 0.593912
Si Si5 0.443335 0.413262 0.370728
Si Si6 0.769731 0.359168 0.254090
Si Si7 0.493337 0.379691 0.045952
Si Si8 0.925840 0.448888 0.828762
O O1 0.752766 0.733165 0.458995
O O2 0.048238 0.973149 0.284221
O O3 0.148191 0.749441 0.969654
O O4 0.017204 0.705066 0.297504
O O5 0.021053 0.229568 0.339112
O O6 0.332274 0.131466 0.898235
O O7 0.309446 0.233252 0.162825
O O8 0.727256 0.173093 0.494925
O O9 0.711165 0.342177 0.761066
O O10 0.986933 0.438995 0.323955
O O11 0.623216 0.268315 0.477501
O O12 0.500000 0.000000 0.500000
O O13 0.370720 0.538078 0.576897
O O14 0.677782 0.408118 0.111066
O O15 0.450715 0.443615 0.242079
O O16 0.965823 0.463839 0.144393
O O17 0.500000 0.500000 0.000000
#
# Coordination Sequence:
#
# PCOD9089922 Si02
#       8
#     2   2   2   2   2   2   2   2
#     4  11  24  41  62  92 133 164 203 259 322 374
#     4  11  24  43  64  98 130 163 204 265 319 369
#     4  10  23  40  65  96 121 163 218 252 314 375
#     4  10  19  38  62  91 128 162 199 259 311 367
#     4  11  23  39  62  92 121 169 218 252 308 377
#     4  10  21  40  62  92 126 165 209 255 317 372
#     4  11  23  42  68  92 126 166 213 265 309 371
#     4  10  21  40  63  90 125 165 211 256 305 373
#
# _framework density 22.097961000000002
#
# number of rings (size 3 to 8) (size 9 to 14) (size 15 to 20)
#    0.000    1.500    1.250    6.000    0.000    9.000 
#    2.250    1.250    0.000    0.000    0.000    0.000 
#    0.000    0.000    0.000    0.000    0.000    0.000 
#
# Total GULP energy -89347.487728 kJ/mol
# GULP energy per Si atom -5584.217983 kJ/mol
# Density = 2.204767 g / cm^3
# Si number density = 22.097961 Si / 1000 Ang^3
#
#
#
# Elastic Constant Matrix: (Units=GPa)
#
#
# Indices 1 2 3 4 5 6 
#
# 1 61.6366 31.1641 37.2109 7.9580 -1.9879 -9.4743
# 2 31.1641 119.5036 43.4635 -4.1442 -19.9454 -9.7203
# 3 37.2109 43.4635 166.4750 -0.0438 -14.0052 -1.0489
# 4 7.9580 -4.1442 -0.0438 30.1251 6.9431 2.1212
# 5 -1.9879 -19.9454 -14.0052 6.9431 52.3504 5.7156
# 6 -9.4743 -9.7203 -1.0489 2.1212 5.7156 29.9750
#
#
#
# Elastic Compliance Matrix: (Units=1/GPa)
#
#
# Indices 1 2 3 4 5 6 
#
# 1 0.022687 -0.004456 -0.004014 -0.006664 -0.001723 0.006386
# 2 -0.004456 0.010787 -0.001547 0.001843 0.003139 0.001306
# 3 -0.004014 -0.001547 0.007410 0.000675 0.001349 -0.001816
# 4 -0.006664 0.001843 0.000675 0.036326 -0.003825 -0.003326
# 5 -0.001723 0.003139 0.001349 -0.003825 0.021461 -0.003301
# 6 0.006386 0.001306 -0.001816 -0.003326 -0.003301 0.036604
#
#
# Mechanical properties :
#
#
# Convention : Reuss Voigt Hill
#
# Bulk Modulus (GPa) = 47.96294 63.47691 55.71992
# Shear Modulus (GPa) = 30.81475 38.20853 34.51164
#
# Velocity S-wave (km/s) = 3.73830 4.16270 3.95619
# Velocity P-wave (km/s) = 6.35492 7.20359 6.79252
#
# Compressibility (1/GPa) = 0.02084943
#
# Stress axis : x y z
#
# Youngs Moduli (GPa) = 44.07859 92.70522 134.94478
#
# Poissons Ratio (x) = 0.41306 0.54170
# Poissons Ratio (y) = 0.19640 0.20883
# Poissons Ratio (z) = 0.17694 0.14346
#
# Static dielectric constant tensor:
#      x y z
#    x 1.882160 -0.010100 0.002750 
#    y -0.010100 1.893810 -0.036920 
#    z 0.002750 -0.036920 1.841110 
# 
# From -- ./inp_files/538282.got.cif
#   From: 2010.05.17/outbox.cif.g08.bks.cpg/sg2_270_cif.got.tgz:538282.got - 2010.06.03 11:33:40.
