data_PCOD9089292
_publ_section_title
;
Structure prediction by ZEFSAII (Michael W. Deem and Ramdas Pophale) SiO2 
 PCOD9089292
Probable space group: P -1
;
_chemical_formula_sum "Si O2"
_cell_formula_units_Z 16
_cell_length_a 19.129726
_cell_length_b 6.644346
_cell_length_c 6.272849
_cell_angle_alpha 88.482241
_cell_angle_beta 71.957989
_cell_angle_gamma 77.761916
_cell_volume 740.217493
_symmetry_space_group_name_H-M "P -1"
_symmetry_group_IT_number 2
_symmetry_cell_setting 'triclinic'
loop_
_space_group_symop_operation_xyz
x,y,z
-x,-y,-z
loop_
_atom_site_type_symbol
_atom_site_label
_atom_site_fract_x
_atom_site_fract_y
_atom_site_fract_z
Si Si1 0.936664 0.027509 0.241367
Si Si2 0.287337 0.347736 0.921221
Si Si3 0.840243 0.909883 0.991855
Si Si4 0.613646 0.079239 0.181417
Si Si5 0.674812 0.333371 0.460533
Si Si6 0.013051 0.276042 0.406514
Si Si7 0.480866 0.429177 0.266380
Si Si8 0.261167 0.737786 0.183818
O O1 0.939950 0.241014 0.347376
O O2 0.967464 0.867676 0.402102
O O3 0.864598 0.982926 0.193860
O O4 0.000000 0.000000 0.000000
O O5 0.296255 0.519952 0.737577
O O6 0.362665 0.165987 0.865152
O O7 0.222508 0.225815 0.935630
O O8 0.267319 0.496195 0.139101
O O9 0.914425 0.780451 0.812410
O O10 0.806610 0.113107 0.877921
O O11 0.641979 0.155486 0.377990
O O12 0.526802 0.192262 0.233397
O O13 0.664223 0.185593 0.970436
O O14 0.607874 0.488214 0.642156
O O15 0.738422 0.233761 0.566988
O O16 0.000000 0.500000 0.500000
O O17 0.500000 0.500000 0.500000
O O18 0.500000 0.500000 0.000000
#
# Coordination Sequence:
#
# PCOD9089292 Si02
#       8
#     2   2   2   2   2   2   2   2
#     4   9  21  41  61  87 119 154 193 246 305 369
#     4  10  23  38  57  89 121 163 212 262 310 385
#     4  10  23  40  60  86 125 164 201 248 323 380
#     4   9  20  39  59  84 122 162 213 264 327 379
#     4  10  21  38  62  86 126 162 213 265 322 378
#     4  10  22  40  65  93 120 154 203 254 309 371
#     4  10  19  37  67  94 125 178 224 277 346 397
#     4  10  21  39  57  83 121 162 206 258 312 383
#
# _framework density 21.615269999999999
#
# number of rings (size 3 to 8) (size 9 to 14) (size 15 to 20)
#    0.000    2.250    1.250    0.000    0.000   12.500 
#    0.000    0.625    0.000    0.000    0.000    0.000 
#    0.000    0.000    0.000    0.000    0.000    0.000 
#
# Total GULP energy -89100.749701 kJ/mol
# GULP energy per Si atom -5568.796856 kJ/mol
# Density = 2.156607 g / cm^3
# Si number density = 21.615270 Si / 1000 Ang^3
#
#
#
# Elastic Constant Matrix: (Units=GPa)
#
#
# Indices 1 2 3 4 5 6 
#
# 1 52.6818 16.7995 29.4466 11.8436 14.3156 -8.2009
# 2 16.7995 99.1782 17.4962 31.6630 16.9896 -6.3454
# 3 29.4466 17.4962 90.8608 11.8968 11.7334 -2.6796
# 4 11.8436 31.6630 11.8968 26.6694 -7.3791 -3.9742
# 5 14.3156 16.9896 11.7334 -7.3791 41.3844 1.0519
# 6 -8.2009 -6.3454 -2.6796 -3.9742 1.0519 23.6041
#
#
#
# Elastic Compliance Matrix: (Units=1/GPa)
#
#
# Indices 1 2 3 4 5 6 
#
# 1 0.030604 0.005425 -0.006153 -0.020110 -0.014875 0.008670
# 2 0.005425 0.023643 0.000764 -0.035378 -0.018188 0.003181
# 3 -0.006153 0.000764 0.013923 -0.005402 -0.003067 -0.001125
# 4 -0.020110 -0.035378 -0.005402 0.101985 0.041242 -0.001777
# 5 -0.014875 -0.018188 -0.003067 0.041242 0.045139 -0.005473
# 6 0.008670 0.003181 -0.001125 -0.001777 -0.005473 0.046050
#
#
# Mechanical properties :
#
#
# Convention : Reuss Voigt Hill
#
# Bulk Modulus (GPa) = 14.65385 41.13392 27.89389
# Shear Modulus (GPa) = 17.60439 30.26349 23.93394
#
# Velocity S-wave (km/s) = 2.85694 3.74585 3.33118
# Velocity P-wave (km/s) = 4.20439 6.14653 5.26577
#
# Compressibility (1/GPa) = 0.06824144
#
# Stress axis : x y z
#
# Youngs Moduli (GPa) = 32.67526 42.29558 71.82337
#
# Poissons Ratio (x) = -0.22944 0.44194
# Poissons Ratio (y) = -0.17725 -0.05487
# Poissons Ratio (z) = 0.20106 -0.03231
#
# Static dielectric constant tensor:
#      x y z
#    x 1.766990 -0.034000 0.015120 
#    y -0.034000 1.750100 0.027460 
#    z 0.015120 0.027460 1.863900 
# 
# From -- ./inp_files/12956.got.cif
#   From: 2010.05.17/outbox.cif.g08.bks.cpg/sg2_7_cif.got.tgz:12956.got - 2010.06.03 11:33:40.
