data_PCOD9089405
_publ_section_title
;
Structure prediction by ZEFSAII (Michael W. Deem and Ramdas Pophale) SiO2 
 PCOD9089405
Probable space group: P -1
;
_chemical_formula_sum "Si O2"
_cell_formula_units_Z 13
_cell_length_a 12.489752
_cell_length_b 7.691437
_cell_length_c 4.924014
_cell_angle_alpha 78.531875
_cell_angle_beta 83.871623
_cell_angle_gamma 99.279214
_cell_volume 452.774737
_symmetry_space_group_name_H-M "P -1"
_symmetry_group_IT_number 2
_symmetry_cell_setting 'triclinic'
loop_
_space_group_symop_operation_xyz
x,y,z
-x,-y,-z
loop_
_atom_site_type_symbol
_atom_site_label
_atom_site_fract_x
_atom_site_fract_y
_atom_site_fract_z
Si Si1 0.858950 0.548780 0.914375
Si Si2 0.185283 0.150385 0.834919
Si Si3 0.672096 0.085941 0.795647
Si Si4 0.500507 0.782259 0.805310
Si Si5 0.000000 0.000000 0.500000
Si Si6 0.365475 0.448852 0.786776
Si Si7 0.882486 0.328090 0.480251
O O1 0.885234 0.756778 0.949225
O O2 0.727091 0.507769 0.992277
O O3 0.899185 0.410841 0.152623
O O4 0.895450 0.496290 0.630377
O O5 0.281307 0.316322 0.654285
O O6 0.108298 0.050234 0.659466
O O7 0.249604 0.021963 0.023149
O O8 0.754532 0.238690 0.571707
O O9 0.593997 0.952445 0.652758
O O10 0.592114 0.150557 0.014186
O O11 0.445712 0.637152 0.640629
O O12 0.562942 0.670820 0.032293
O O13 0.951849 0.176466 0.573176
#
# Coordination Sequence:
#
# PCOD9089405 Si02
#       7
#     2   2   2   2   1   2   2
#     4  10  24  47  72 101 148 195 227 306 345 440
#     4   9  22  44  69 104 143 186 242 295 355 422
#     4  10  19  37  71 106 149 180 236 300 350 423
#     4   9  16  34  73 104 144 192 231 280 367 421
#     4  12  28  44  74 106 136 192 240 312 366 418
#     4   8  17  39  67 104 145 187 238 283 349 446
#     4  12  26  47  74 103 148 185 249 294 370 419
#
# _framework density 28.711848
#
# number of rings (size 3 to 8) (size 9 to 14) (size 15 to 20)
#    0.923    1.231    1.538    0.923    0.000    4.923 
#    0.000    1.538    0.000    0.000    0.000    0.000 
#    0.000    0.000    0.000    0.000    0.000    0.000 
#
# Total GULP energy -72741.444260 kJ/mol
# GULP energy per Si atom -5595.495712 kJ/mol
# Density = 2.864650 g / cm^3
# Si number density = 28.711848 Si / 1000 Ang^3
#
#
#
# Elastic Constant Matrix: (Units=GPa)
#
#
# Indices 1 2 3 4 5 6 
#
# 1 180.1590 79.7419 50.3546 1.4643 22.8600 10.5207
# 2 79.7419 149.8111 35.2749 32.0069 7.2342 21.8732
# 3 50.3546 35.2749 87.7189 2.5289 2.4584 16.7883
# 4 1.4643 32.0069 2.5289 42.1681 3.1754 12.6139
# 5 22.8600 7.2342 2.4584 3.1754 46.6203 -0.9900
# 6 10.5207 21.8732 16.7883 12.6139 -0.9900 90.4535
#
#
#
# Elastic Compliance Matrix: (Units=1/GPa)
#
#
# Indices 1 2 3 4 5 6 
#
# 1 0.008948 -0.004595 -0.003315 0.003615 -0.003743 0.000140
# 2 -0.004595 0.011289 -0.001554 -0.008175 0.001124 -0.000755
# 3 -0.003315 -0.001554 0.014256 0.000964 0.001007 -0.002008
# 4 0.003615 -0.008175 0.000964 0.030823 -0.002717 -0.002951
# 5 -0.003743 0.001124 0.001007 -0.002717 0.023256 0.000610
# 6 0.000140 -0.000755 -0.002008 -0.002951 0.000610 0.012012
#
#
# Mechanical properties :
#
#
# Convention : Reuss Voigt Hill
#
# Bulk Modulus (GPa) = 64.23984 83.15911 73.69947
# Shear Modulus (GPa) = 40.09588 52.66956 46.38272
#
# Velocity S-wave (km/s) = 3.74102 4.28766 4.02363
# Velocity P-wave (km/s) = 6.40959 7.31698 6.87827
#
# Compressibility (1/GPa) = 0.01556666
#
# Stress axis : x y z
#
# Youngs Moduli (GPa) = 111.75286 88.58214 70.14469
#
# Poissons Ratio (x) = 0.40700 0.23255
# Poissons Ratio (y) = 0.51346 0.10897
# Poissons Ratio (z) = 0.37049 0.13762
#
# Static dielectric constant tensor:
#      x y z
#    x 2.370700 0.225330 -0.212700 
#    y 0.225330 2.498210 -0.250340 
#    z -0.212700 -0.250340 2.436310 
# 
# From -- ./inp_files/58488.got.cif
#   From: 2010.05.17/outbox.cif.g08.bks.cpg/sg2_30_cif.got.tgz:58488.got - 2010.06.03 11:33:40.
