data_PCOD9089835
_publ_section_title
;
Structure prediction by ZEFSAII (Michael W. Deem and Ramdas Pophale) SiO2 
 PCOD9089835
Probable space group: P -1
;
_chemical_formula_sum "Si O2"
_cell_formula_units_Z 16
_cell_length_a 14.347275
_cell_length_b 9.782372
_cell_length_c 24.940756
_cell_angle_alpha 126.147046
_cell_angle_beta 15.094154
_cell_angle_gamma 119.899838
_cell_volume 692.814342
_symmetry_space_group_name_H-M "P -1"
_symmetry_group_IT_number 2
_symmetry_cell_setting 'triclinic'
loop_
_space_group_symop_operation_xyz
x,y,z
-x,-y,-z
loop_
_atom_site_type_symbol
_atom_site_label
_atom_site_fract_x
_atom_site_fract_y
_atom_site_fract_z
Si Si1 0.171117 0.726301 0.943217
Si Si2 0.336525 0.843288 0.305505
Si Si3 0.105681 0.990394 0.741843
Si Si4 0.460071 0.836121 0.698880
Si Si5 0.217667 0.710917 0.080906
Si Si6 0.546721 0.296979 0.441597
Si Si7 0.443751 0.432546 0.796930
Si Si8 0.683091 0.428879 0.825987
O O1 0.302778 0.781657 0.827538
O O2 0.512661 0.562670 0.743524
O O3 0.822206 0.659552 0.106507
O O4 0.025396 0.884343 0.103990
O O5 0.254375 0.723102 0.371669
O O6 0.507343 0.698158 0.130232
O O7 0.565887 0.958467 0.231382
O O8 0.000000 0.000000 0.500000
O O9 0.189725 0.792151 0.674033
O O10 0.500000 0.000000 0.500000
O O11 0.815283 0.096699 0.881398
O O12 0.310367 0.808731 0.717542
O O13 0.892847 0.698582 0.428042
O O14 0.860357 0.722006 0.320107
O O15 0.207765 0.578413 0.006211
O O16 0.601729 0.603557 0.874041
O O17 0.500000 0.500000 0.500000
O O18 0.500000 0.500000 0.000000
#
# Coordination Sequence:
#
# PCOD9089835 Si02
#       8
#     2   2   2   2   2   2   2   2
#     4  10  20  35  57  85 119 150 190 242 289 350
#     4   9  20  36  58  86 113 153 199 237 286 348
#     4   9  20  36  53  77 111 153 187 226 285 349
#     4  11  22  36  58  92 117 148 199 246 292 333
#     4   9  18  36  57  80 108 153 194 230 283 349
#     4  11  21  33  56  87 119 151 186 241 290 343
#     4   9  18  35  58  80 116 157 186 229 296 351
#     4  10  19  38  62  83 114 156 196 241 290 349
#
# _framework density 23.09421
#
# number of rings (size 3 to 8) (size 9 to 14) (size 15 to 20)
#    0.000    2.250    1.250    1.500    0.000    5.000 
#    0.000   10.000    0.000    0.750    0.000    0.000 
#    0.000    0.000    0.000    0.000    0.000    0.000 
#
# Total GULP energy -89177.498967 kJ/mol
# GULP energy per Si atom -5573.593685 kJ/mol
# Density = 2.304165 g / cm^3
# Si number density = 23.094210 Si / 1000 Ang^3
#
#
#
# Elastic Constant Matrix: (Units=GPa)
#
#
# Indices 1 2 3 4 5 6 
#
# 1 107.8111 60.9412 30.5611 19.3643 0.1671 -40.1362
# 2 60.9412 129.1067 31.2069 28.3094 -9.5745 -52.1632
# 3 30.5611 31.2069 79.2673 13.3677 6.3478 -20.9464
# 4 19.3643 28.3094 13.3677 32.0173 -16.2519 -13.2949
# 5 0.1671 -9.5745 6.3478 -16.2519 35.4390 14.6206
# 6 -40.1362 -52.1632 -20.9464 -13.2949 14.6206 52.6602
#
#
#
# Elastic Compliance Matrix: (Units=1/GPa)
#
#
# Indices 1 2 3 4 5 6 
#
# 1 0.015721 -0.002322 -0.000743 -0.007065 -0.007843 0.009780
# 2 -0.002322 0.015901 0.000324 -0.010334 -0.005912 0.013142
# 3 -0.000743 0.000324 0.016951 -0.009089 -0.009992 0.006977
# 4 -0.007065 -0.010334 -0.009089 0.058886 0.031257 -0.013048
# 5 -0.007843 -0.005912 -0.009992 0.031257 0.052004 -0.022356
# 6 0.009780 0.013142 0.006977 -0.013048 -0.022356 0.045150
#
#
# Mechanical properties :
#
#
# Convention : Reuss Voigt Hill
#
# Bulk Modulus (GPa) = 23.20666 62.40040 42.80353
# Shear Modulus (GPa) = 22.27600 36.92168 29.59884
#
# Velocity S-wave (km/s) = 3.10912 4.00277 3.58391
# Velocity P-wave (km/s) = 4.79159 6.95999 5.97498
#
# Compressibility (1/GPa) = 0.04309108
#
# Stress axis : x y z
#
# Youngs Moduli (GPa) = 63.61043 62.89092 58.99382
#
# Poissons Ratio (x) = 0.14603 0.04383
# Poissons Ratio (y) = 0.14770 -0.01913
# Poissons Ratio (z) = 0.04726 -0.02040
#
# Static dielectric constant tensor:
#      x y z
#    x 1.893340 0.001800 -0.080790 
#    y 0.001800 1.928420 0.012950 
#    z -0.080790 0.012950 1.899120 
# 
# From -- ./inp_files/329278.got.cif
#   From: 2010.05.17/outbox.cif.g08.bks.cpg/sg2_165_cif.got.tgz:329278.got - 2010.06.03 11:33:40.
