data_PCOD9089964
_publ_section_title
;
Structure prediction by ZEFSAII (Michael W. Deem and Ramdas Pophale) SiO2 
 PCOD9089964
Probable space group: P -1
;
_chemical_formula_sum "Si O2"
_cell_formula_units_Z 15
_cell_length_a 12.246630
_cell_length_b 12.069271
_cell_length_c 12.608233
_cell_angle_alpha 139.450898
_cell_angle_beta 37.128190
_cell_angle_gamma 122.483342
_cell_volume 719.960005
_symmetry_space_group_name_H-M "P -1"
_symmetry_group_IT_number 2
_symmetry_cell_setting 'triclinic'
loop_
_space_group_symop_operation_xyz
x,y,z
-x,-y,-z
loop_
_atom_site_type_symbol
_atom_site_label
_atom_site_fract_x
_atom_site_fract_y
_atom_site_fract_z
Si Si1 0.957147 0.313616 0.863185
Si Si2 0.732080 0.620565 0.660423
Si Si3 0.468246 0.022778 0.913251
Si Si4 0.093155 0.652725 0.310591
Si Si5 0.769503 0.009282 0.498245
Si Si6 0.447074 0.673078 0.730194
Si Si7 0.477662 0.418904 0.842594
Si Si8 0.500000 0.000000 0.500000
O O1 0.997462 0.282956 0.684985
O O2 0.743697 0.312710 0.050178
O O3 0.077202 0.158666 0.722505
O O4 0.000000 0.500000 0.000000
O O5 0.945608 0.570969 0.433088
O O6 0.614107 0.657554 0.671638
O O7 0.637075 0.484569 0.698797
O O8 0.685404 0.816298 0.885934
O O9 0.426432 0.834231 0.783005
O O10 0.648989 0.043645 0.724498
O O11 0.500000 0.000000 0.000000
O O12 0.144842 0.816320 0.452219
O O13 0.274044 0.517355 0.041213
O O14 0.639756 0.975671 0.477852
O O15 0.500000 0.500000 0.500000
O O16 0.486494 0.214535 0.679181
O O17 0.500000 0.500000 0.000000
#
# Coordination Sequence:
#
# PCOD9089964 Si02
#       8
#     2   2   2   2   2   2   2   1
#     4  12  23  40  66 107 147 183 245 305 372 443
#     4  11  23  42  70 103 140 185 239 295 361 440
#     4  10  19  38  63 101 139 180 234 288 367 432
#     4  12  23  45  75 107 141 191 242 304 379 435
#     4  12  24  44  71 103 146 197 245 304 366 443
#     4  11  22  37  61 103 147 181 225 302 371 431
#     4  12  25  51  74 102 146 196 247 302 367 432
#     4  12  28  48  76 102 148 200 250 300 366 442
#
# _framework density 20.834489999999999
#
# number of rings (size 3 to 8) (size 9 to 14) (size 15 to 20)
#    0.000    0.533    4.000    6.000    1.867    0.533 
#    0.000    0.667    0.000    0.000    0.000    0.000 
#    0.000    0.000    0.000    0.000    0.000    0.000 
#
# Total GULP energy -83502.207901 kJ/mol
# GULP energy per Si atom -5566.813860 kJ/mol
# Density = 2.078707 g / cm^3
# Si number density = 20.834490 Si / 1000 Ang^3
#
#
#
# Elastic Constant Matrix: (Units=GPa)
#
#
# Indices 1 2 3 4 5 6 
#
# 1 99.3541 34.0074 32.2712 7.0297 6.6162 4.4725
# 2 34.0074 137.7372 70.4288 13.8340 -8.4789 17.2462
# 3 32.2712 70.4288 87.7742 4.8760 -7.1736 2.7729
# 4 7.0297 13.8340 4.8760 59.0472 12.7157 -7.3479
# 5 6.6162 -8.4789 -7.1736 12.7157 27.9518 7.3031
# 6 4.4725 17.2462 2.7729 -7.3479 7.3031 23.7459
#
#
#
# Elastic Compliance Matrix: (Units=1/GPa)
#
#
# Indices 1 2 3 4 5 6 
#
# 1 0.012007 -0.001534 -0.003599 0.000308 -0.004574 0.000775
# 2 -0.001534 0.016473 -0.011001 -0.006771 0.009655 -0.015456
# 3 -0.003599 -0.011001 0.021241 0.002027 0.000287 0.006726
# 4 0.000308 -0.006771 0.002027 0.024172 -0.017142 0.017375
# 5 -0.004574 0.009655 0.000287 -0.017142 0.055088 -0.028431
# 6 0.000775 -0.015456 0.006726 0.017375 -0.028431 0.066527
#
#
# Mechanical properties :
#
#
# Convention : Reuss Voigt Hill
#
# Bulk Modulus (GPa) = 57.29205 66.47557 61.88381
# Shear Modulus (GPa) = 21.40470 34.69286 28.04878
#
# Velocity S-wave (km/s) = 3.20874 4.08507 3.67313
# Velocity P-wave (km/s) = 6.42544 7.36384 6.91059
#
# Compressibility (1/GPa) = 0.01745443
#
# Stress axis : x y z
#
# Youngs Moduli (GPa) = 83.28524 60.70368 47.07784
#
# Poissons Ratio (x) = 0.09310 0.16945
# Poissons Ratio (y) = 0.12773 0.51789
# Poissons Ratio (z) = 0.29977 0.66778
#
# Static dielectric constant tensor:
#      x y z
#    x 1.760780 0.049710 0.119130 
#    y 0.049710 1.764880 -0.085420 
#    z 0.119130 -0.085420 1.584150 
# 
# From -- ./inp_files/391235.got.cif
#   From: 2010.05.17/outbox.cif.g08.bks.cpg/sg2_196_cif.got.tgz:391235.got - 2010.06.03 11:33:40.
