data_PCOD9089622
_publ_section_title
;
Structure prediction by ZEFSAII (Michael W. Deem and Ramdas Pophale) SiO2 
 PCOD9089622
Probable space group: P -1
;
_chemical_formula_sum "Si O2"
_cell_formula_units_Z 16
_cell_length_a 9.958417
_cell_length_b 13.232689
_cell_length_c 12.112620
_cell_angle_alpha 73.956162
_cell_angle_beta 37.688875
_cell_angle_gamma 52.025937
_cell_volume 691.961976
_symmetry_space_group_name_H-M "P -1"
_symmetry_group_IT_number 2
_symmetry_cell_setting 'triclinic'
loop_
_space_group_symop_operation_xyz
x,y,z
-x,-y,-z
loop_
_atom_site_type_symbol
_atom_site_label
_atom_site_fract_x
_atom_site_fract_y
_atom_site_fract_z
Si Si1 0.882825 0.931749 0.787149
Si Si2 0.224309 0.506155 0.175104
Si Si3 0.592484 0.752100 0.572054
Si Si4 0.972303 0.337069 0.954251
Si Si5 0.515371 0.966795 0.196999
Si Si6 0.244832 0.010577 0.572989
Si Si7 0.281279 0.784399 0.972034
Si Si8 0.337892 0.624346 0.653929
O O1 0.120469 0.945748 0.615335
O O2 0.051851 0.766939 0.736703
O O3 0.675884 0.003182 0.794007
O O4 0.721941 0.988411 0.996036
O O5 0.068062 0.559648 0.140644
O O6 0.398863 0.344776 0.141630
O O7 0.947276 0.626614 0.397871
O O8 0.500000 0.500000 0.000000
O O9 0.521829 0.877590 0.505506
O O10 0.372347 0.829642 0.796882
O O11 0.498367 0.674462 0.590992
O O12 0.284760 0.195553 0.841258
O O13 0.843900 0.275979 0.994632
O O14 0.762269 0.420132 0.169628
O O15 0.333258 0.055484 0.398971
O O16 0.971222 0.122910 0.798758
O O17 0.500000 0.500000 0.500000
#
# Coordination Sequence:
#
# PCOD9089622 Si02
#       8
#     2   2   2   2   2   2   2   2
#     4   9  21  38  59  89 120 153 199 247 303 352
#     4  10  20  39  57  84 118 161 198 242 301 363
#     4  10  20  39  61  83 123 162 193 245 312 350
#     4   9  19  38  58  81 119 155 196 243 302 357
#     4  10  19  38  60  81 122 159 192 242 305 343
#     4  11  21  38  63  91 119 155 205 242 298 367
#     4  10  22  37  59  90 120 151 203 250 294 361
#     4   9  19  37  61  83 115 155 201 248 297 358
#
# _framework density 23.122658000000001
#
# number of rings (size 3 to 8) (size 9 to 14) (size 15 to 20)
#    0.000    2.250    1.250    1.875    0.000    1.500 
#   11.250    0.625    0.000    0.000    0.000    0.000 
#    0.000    0.000    0.000    0.000    0.000    0.000 
#
# Total GULP energy -89190.918399 kJ/mol
# GULP energy per Si atom -5574.432400 kJ/mol
# Density = 2.307003 g / cm^3
# Si number density = 23.122658 Si / 1000 Ang^3
#
#
#
# Elastic Constant Matrix: (Units=GPa)
#
#
# Indices 1 2 3 4 5 6 
#
# 1 54.9595 30.2425 48.0248 -2.2241 12.0892 -24.0704
# 2 30.2425 79.5181 45.7180 -12.4749 5.6794 -32.0360
# 3 48.0248 45.7180 192.7552 -9.1388 26.3988 -17.0919
# 4 -2.2241 -12.4749 -9.1388 40.0776 -8.0822 -0.6282
# 5 12.0892 5.6794 26.3988 -8.0822 45.1877 2.0073
# 6 -24.0704 -32.0360 -17.0919 -0.6282 2.0073 34.5320
#
#
#
# Elastic Compliance Matrix: (Units=1/GPa)
#
#
# Indices 1 2 3 4 5 6 
#
# 1 0.033979 -0.001300 -0.005484 -0.000818 -0.006765 0.020143
# 2 -0.001300 0.024107 -0.003230 0.006919 -0.000446 0.020011
# 3 -0.005484 -0.003230 0.007361 -0.000146 -0.002318 -0.003044
# 4 -0.000818 0.006919 -0.000146 0.027961 0.004168 0.006042
# 5 -0.006765 -0.000446 -0.002318 0.004168 0.026439 -0.007738
# 6 0.020143 0.020011 -0.003044 0.006042 -0.007738 0.060617
#
#
# Mechanical properties :
#
#
# Convention : Reuss Voigt Hill
#
# Bulk Modulus (GPa) = 22.01742 63.91148 42.96445
# Shear Modulus (GPa) = 23.18761 37.50931 30.34846
#
# Velocity S-wave (km/s) = 3.17015 4.03201 3.62677
# Velocity P-wave (km/s) = 4.78983 7.02683 6.01327
#
# Compressibility (1/GPa) = 0.04541859
#
# Stress axis : x y z
#
# Youngs Moduli (GPa) = 29.42968 41.48242 135.85128
#
# Poissons Ratio (x) = 0.05394 0.74497
# Poissons Ratio (y) = 0.03827 0.43882
# Poissons Ratio (z) = 0.16138 0.13399
#
# Static dielectric constant tensor:
#      x y z
#    x 1.895590 0.007910 0.009290 
#    y 0.007910 1.918600 0.002900 
#    z 0.009290 0.002900 1.933350 
# 
# From -- ./inp_files/226308.got.cif
#   From: 2010.05.17/outbox.cif.g08.bks.cpg/sg2_114_cif.got.tgz:226308.got - 2010.06.03 11:33:40.
