data_PCOD9089495
_publ_section_title
;
Structure prediction by ZEFSAII (Michael W. Deem and Ramdas Pophale) SiO2 
 PCOD9089495
Probable space group: P -1
;
_chemical_formula_sum "Si O2"
_cell_formula_units_Z 16
_cell_length_a 9.538013
_cell_length_b 15.727701
_cell_length_c 9.164461
_cell_angle_alpha 99.829669
_cell_angle_beta 110.039445
_cell_angle_gamma 37.820398
_cell_volume 779.940237
_symmetry_space_group_name_H-M "P -1"
_symmetry_group_IT_number 2
_symmetry_cell_setting 'triclinic'
loop_
_space_group_symop_operation_xyz
x,y,z
-x,-y,-z
loop_
_atom_site_type_symbol
_atom_site_label
_atom_site_fract_x
_atom_site_fract_y
_atom_site_fract_z
Si Si1 0.491013 0.286088 0.491448
Si Si2 0.135810 0.018706 0.979162
Si Si3 0.799714 0.029839 0.357773
Si Si4 0.562037 0.768481 0.240661
Si Si5 0.786087 0.337135 0.898676
Si Si6 0.051801 0.600913 0.512059
Si Si7 0.274356 0.486291 0.855751
Si Si8 0.861117 0.271108 0.574649
O O1 0.546271 0.183048 0.371144
O O2 0.567922 0.217515 0.660795
O O3 0.223842 0.446839 0.464437
O O4 0.654154 0.292524 0.501212
O O5 0.386804 0.908607 0.125990
O O6 0.178887 0.978573 0.811776
O O7 0.000000 0.000000 0.000000
O O8 0.975104 0.178720 0.978639
O O9 0.000000 0.000000 0.500000
O O10 0.882927 0.896464 0.395896
O O11 0.653873 0.646411 0.138544
O O12 0.790107 0.711957 0.378026
O O13 0.517350 0.421065 0.857244
O O14 0.836764 0.322088 0.741467
O O15 0.800755 0.422321 0.007451
O O16 0.070052 0.583839 0.686677
O O17 0.162294 0.643019 0.523705
#
# Coordination Sequence:
#
# PCOD9089495 Si02
#       8
#     2   2   2   2   2   2   2   2
#     4  10  19  38  60  85 116 157 198 240 284 343
#     4  11  20  38  61  87 117 153 198 242 288 344
#     4   9  20  35  59  87 115 149 196 246 285 335
#     4  11  22  41  59  86 120 158 193 238 296 352
#     4  10  20  35  60  87 113 147 196 249 283 334
#     4  11  23  37  60  87 122 155 192 240 298 348
#     4  10  20  37  58  87 116 150 194 239 290 342
#     4  10  19  38  57  89 115 149 198 242 287 341
#
# _framework density 20.514392000000001
#
# number of rings (size 3 to 8) (size 9 to 14) (size 15 to 20)
#    0.000    1.750    3.750    3.375    0.000    4.000 
#    0.000   10.000    0.000    0.000    0.000    0.000 
#    0.000    0.000    0.000    0.000    0.000    0.000 
#
# Total GULP energy -89317.801759 kJ/mol
# GULP energy per Si atom -5582.362610 kJ/mol
# Density = 2.046770 g / cm^3
# Si number density = 20.514392 Si / 1000 Ang^3
#
#
#
# Elastic Constant Matrix: (Units=GPa)
#
#
# Indices 1 2 3 4 5 6 
#
# 1 27.9200 1.3289 6.6592 -1.2968 4.0124 7.4825
# 2 1.3289 76.3595 43.3055 13.0725 2.2032 3.5713
# 3 6.6592 43.3055 56.8063 -7.8335 15.5626 -1.7732
# 4 -1.2968 13.0725 -7.8335 47.2825 1.2874 4.2995
# 5 4.0124 2.2032 15.5626 1.2874 25.1486 -9.5624
# 6 7.4825 3.5713 -1.7732 4.2995 -9.5624 20.4769
#
#
#
# Elastic Compliance Matrix: (Units=1/GPa)
#
#
# Indices 1 2 3 4 5 6 
#
# 1 0.045442 0.002193 -0.003283 0.002765 -0.015005 -0.024859
# 2 0.002193 0.034179 -0.033693 -0.015738 0.019317 0.002645
# 3 -0.003283 -0.033693 0.055939 0.020276 -0.035584 -0.008955
# 4 0.002765 -0.015738 0.020276 0.030408 -0.017347 -0.010995
# 5 -0.015005 0.019317 -0.035584 -0.017347 0.078292 0.039236
# 6 -0.024859 0.002645 -0.008955 -0.010995 0.039236 0.077314
#
#
# Mechanical properties :
#
#
# Convention : Reuss Voigt Hill
#
# Bulk Modulus (GPa) = 15.15269 29.29698 22.22484
# Shear Modulus (GPa) = 12.10249 25.90108 19.00179
#
# Velocity S-wave (km/s) = 2.43153 3.55714 3.04676
# Velocity P-wave (km/s) = 3.90967 5.58419 4.82020
#
# Compressibility (1/GPa) = 0.06599489
#
# Stress axis : x y z
#
# Youngs Moduli (GPa) = 22.00596 29.25765 17.87669
#
# Poissons Ratio (x) = -0.06417 0.05869
# Poissons Ratio (y) = -0.04827 0.60232
# Poissons Ratio (z) = 0.07225 0.98577
#
# Static dielectric constant tensor:
#      x y z
#    x 1.757640 -0.039720 0.023500 
#    y -0.039720 1.766990 -0.012520 
#    z 0.023500 -0.012520 1.724600 
# 
# From -- ./inp_files/207881.got.cif
#   From: 2010.05.17/outbox.cif.g08.bks.cpg/sg2_104_cif.got.tgz:207881.got - 2010.06.03 11:33:40.
