data_PCOD9089856
_publ_section_title
;
Structure prediction by ZEFSAII (Michael W. Deem and Ramdas Pophale) SiO2 
 PCOD9089856
Probable space group: P -1
;
_chemical_formula_sum "Si O2"
_cell_formula_units_Z 16
_cell_length_a 10.291799
_cell_length_b 11.397414
_cell_length_c 16.161756
_cell_angle_alpha 101.148133
_cell_angle_beta 153.906666
_cell_angle_gamma 65.623897
_cell_volume 681.058227
_symmetry_space_group_name_H-M "P -1"
_symmetry_group_IT_number 2
_symmetry_cell_setting 'triclinic'
loop_
_space_group_symop_operation_xyz
x,y,z
-x,-y,-z
loop_
_atom_site_type_symbol
_atom_site_label
_atom_site_fract_x
_atom_site_fract_y
_atom_site_fract_z
Si Si1 0.445442 0.496884 0.067268
Si Si2 0.737554 0.648101 0.923432
Si Si3 0.582396 0.685147 0.257769
Si Si4 0.147310 0.870939 0.483287
Si Si5 0.691230 0.907060 0.358839
Si Si6 0.243847 0.750187 0.245781
Si Si7 0.667718 0.743502 0.622895
Si Si8 0.901570 0.943775 0.824927
O O1 0.029882 0.626100 0.858415
O O2 0.500000 0.500000 0.000000
O O3 0.446228 0.377340 0.106863
O O4 0.698718 0.540736 0.258922
O O5 0.446035 0.763589 0.707079
O O6 0.000000 0.500000 0.000000
O O7 0.962486 0.709748 0.096388
O O8 0.818619 0.744554 0.426607
O O9 0.366275 0.695600 0.215690
O O10 0.299570 0.813419 0.052664
O O11 0.320142 0.795489 0.486102
O O12 0.776148 0.906536 0.310274
O O13 0.115718 0.021180 0.483091
O O14 0.314945 0.004083 0.204095
O O15 0.596074 0.680131 0.493308
O O16 0.113927 0.918062 0.199042
O O17 0.724421 0.873935 0.663031
#
# Coordination Sequence:
#
# PCOD9089856 Si02
#       8
#     2   2   2   2   2   2   2   2
#     4  11  25  43  59  84 121 160 203 254 298 353
#     4  12  22  42  62  83 119 168 209 236 294 368
#     4  10  19  38  62  86 119 163 204 242 301 366
#     4  10  20  38  62  88 124 157 196 254 302 356
#     4   9  18  33  62  94 114 148 202 251 300 348
#     4  11  20  34  64  91 110 158 205 240 300 364
#     4  10  21  38  59  88 123 155 196 256 305 351
#     4   9  18  36  63  89 121 155 197 249 306 364
#
# _framework density 23.492851000000002
#
# number of rings (size 3 to 8) (size 9 to 14) (size 15 to 20)
#    0.000    1.750    2.500    4.125    0.000    3.500 
#    2.250    5.000    0.000   18.000    0.000    0.000 
#    0.000    0.000    0.000    0.000    0.000    0.000 
#
# Total GULP energy -89134.225360 kJ/mol
# GULP energy per Si atom -5570.889085 kJ/mol
# Density = 2.343938 g / cm^3
# Si number density = 23.492851 Si / 1000 Ang^3
#
#
#
# Elastic Constant Matrix: (Units=GPa)
#
#
# Indices 1 2 3 4 5 6 
#
# 1 92.8205 42.7779 17.9662 21.4091 17.2098 15.7533
# 2 42.7779 109.4160 43.1923 24.9421 4.0273 19.6324
# 3 17.9662 43.1923 83.4673 17.0282 4.2857 12.9279
# 4 21.4091 24.9421 17.0282 40.3317 4.5880 5.4318
# 5 17.2098 4.0273 4.2857 4.5880 38.8769 6.7967
# 6 15.7533 19.6324 12.9279 5.4318 6.7967 34.3152
#
#
#
# Elastic Compliance Matrix: (Units=1/GPa)
#
#
# Indices 1 2 3 4 5 6 
#
# 1 0.015241 -0.004458 0.000696 -0.004630 -0.005304 -0.002925
# 2 -0.004458 0.014527 -0.005196 -0.004127 0.002245 -0.004098
# 3 0.000696 -0.005196 0.015633 -0.003335 -0.000649 -0.002580
# 4 -0.004630 -0.004127 -0.003335 0.031192 -0.001012 0.001006
# 5 -0.005304 0.002245 -0.000649 -0.001012 0.028752 -0.004140
# 6 -0.002925 -0.004098 -0.002580 0.001006 -0.004140 0.034462
#
#
# Mechanical properties :
#
#
# Convention : Reuss Voigt Hill
#
# Bulk Modulus (GPa) = 36.38342 54.84187 45.61264
# Shear Modulus (GPa) = 29.96060 34.82258 32.39159
#
# Velocity S-wave (km/s) = 3.57502 3.85419 3.71723
# Velocity P-wave (km/s) = 5.70628 6.57276 6.15479
#
# Compressibility (1/GPa) = 0.02748505
#
# Stress axis : x y z
#
# Youngs Moduli (GPa) = 65.61225 68.83636 63.96649
#
# Poissons Ratio (x) = 0.30688 -0.04454
# Poissons Ratio (y) = 0.29250 0.33240
# Poissons Ratio (z) = -0.04569 0.35770
#
# Static dielectric constant tensor:
#      x y z
#    x 1.911800 0.011840 0.030560 
#    y 0.011840 1.933240 -0.002050 
#    z 0.030560 -0.002050 1.961630 
# 
# From -- ./inp_files/466487.got.cif
#   From: 2010.05.17/outbox.cif.g08.bks.cpg/sg2_234_cif.got.tgz:466487.got - 2010.06.03 11:33:40.
