data_PCOD9089240
_publ_section_title
;
Structure prediction by ZEFSAII (Michael W. Deem and Ramdas Pophale) SiO2 
 PCOD9089240
Probable space group: P -1
;
_chemical_formula_sum "Si O2"
_cell_formula_units_Z 16
_cell_length_a 9.093891
_cell_length_b 15.225749
_cell_length_c 14.686575
_cell_angle_alpha 35.001396
_cell_angle_beta 39.738444
_cell_angle_gamma 42.169141
_cell_volume 710.513294
_symmetry_space_group_name_H-M "P -1"
_symmetry_group_IT_number 2
_symmetry_cell_setting 'triclinic'
loop_
_space_group_symop_operation_xyz
x,y,z
-x,-y,-z
loop_
_atom_site_type_symbol
_atom_site_label
_atom_site_fract_x
_atom_site_fract_y
_atom_site_fract_z
Si Si1 0.808490 0.825426 0.478461
Si Si2 0.318229 0.222849 0.819321
Si Si3 0.446907 0.881231 0.756683
Si Si4 0.712478 0.515525 0.236685
Si Si5 0.155592 0.253524 0.172111
Si Si6 0.155490 0.009821 0.229436
Si Si7 0.059741 0.814155 0.102394
Si Si8 0.825455 0.423636 0.592651
O O1 0.599907 0.807503 0.657763
O O2 0.013407 0.663689 0.494171
O O3 0.681856 0.930361 0.362358
O O4 0.942350 0.939143 0.366304
O O5 0.286229 0.383292 0.757757
O O6 0.162714 0.236457 0.789980
O O7 0.599861 0.132918 0.744787
O O8 0.223641 0.104055 0.031024
O O9 0.627157 0.850153 0.781570
O O10 0.252177 0.792210 0.948483
O O11 0.451247 0.487274 0.375617
O O12 0.937487 0.356531 0.251731
O O13 0.751272 0.628283 0.038616
O O14 0.079680 0.133801 0.242599
O O15 0.183034 0.717833 0.213663
O O16 0.000000 0.000000 0.000000
O O17 0.000000 0.500000 0.500000
#
# Coordination Sequence:
#
# PCOD9089240 Si02
#       8
#     2   2   2   2   2   2   2   2
#     4  11  24  43  65 101 137 172 223 294 336 390
#     4  10  20  36  67  98 126 181 223 277 329 405
#     4  11  23  41  68  96 137 171 227 281 332 393
#     4  10  22  43  65  94 140 173 226 271 348 410
#     4  10  22  40  66  99 129 181 223 281 329 410
#     4  10  19  37  66  95 132 165 229 281 335 383
#     4  12  22  43  73 101 129 180 243 274 327 415
#     4  12  26  46  68  98 140 180 220 284 350 406
#
# _framework density 22.518930000000001
#
# number of rings (size 3 to 8) (size 9 to 14) (size 15 to 20)
#    0.000    1.250    5.000    0.750    1.750    3.500 
#    4.500    2.500    0.000    0.000    0.000    0.000 
#    0.000    0.000    0.000    0.000    0.000    0.000 
#
# Total GULP energy -89500.673712 kJ/mol
# GULP energy per Si atom -5593.792107 kJ/mol
# Density = 2.246768 g / cm^3
# Si number density = 22.518930 Si / 1000 Ang^3
#
#
#
# Elastic Constant Matrix: (Units=GPa)
#
#
# Indices 1 2 3 4 5 6 
#
# 1 100.3792 32.4734 2.7342 -3.2014 -22.5603 -10.6223
# 2 32.4734 105.6432 21.4306 18.7324 -26.4607 1.4800
# 3 2.7342 21.4306 58.6810 17.4336 -10.5119 -2.2381
# 4 -3.2014 18.7324 17.4336 27.0992 -4.8875 -2.8378
# 5 -22.5603 -26.4607 -10.5119 -4.8875 40.5982 -3.5562
# 6 -10.6223 1.4800 -2.2381 -2.8378 -3.5562 35.6836
#
#
#
# Elastic Compliance Matrix: (Units=1/GPa)
#
#
# Indices 1 2 3 4 5 6 
#
# 1 0.013247 -0.003644 0.000390 0.005494 0.006202 0.005174
# 2 -0.003644 0.013713 -0.001524 -0.008155 0.005373 -0.001862
# 3 0.000390 -0.001524 0.021880 -0.012249 0.003495 0.000926
# 4 0.005494 -0.008155 -0.012249 0.051872 0.001289 0.005459
# 5 0.006202 0.005373 0.003495 0.001289 0.033099 0.005244
# 6 0.005174 -0.001862 0.000926 0.005459 0.005244 0.030656
#
#
# Mechanical properties :
#
#
# Convention : Reuss Voigt Hill
#
# Bulk Modulus (GPa) = 25.45585 41.99777 33.72681
# Shear Modulus (GPa) = 26.72084 34.54722 30.63403
#
# Velocity S-wave (km/s) = 3.44844 3.92106 3.69232
# Velocity P-wave (km/s) = 5.21386 6.26020 5.76084
#
# Compressibility (1/GPa) = 0.03928369
#
# Stress axis : x y z
#
# Youngs Moduli (GPa) = 75.48814 72.92225 45.70337
#
# Poissons Ratio (x) = 0.26576 -0.01782
# Poissons Ratio (y) = 0.27511 0.06965
# Poissons Ratio (z) = -0.02943 0.11113
#
# Static dielectric constant tensor:
#      x y z
#    x 1.824570 -0.013620 0.056390 
#    y -0.013620 1.835250 -0.015600 
#    z 0.056390 -0.015600 1.893870 
# 
# From -- ./inp_files/419320.got.cif
#   From: 2010.05.17/outbox.cif.g08.bks.cpg/sg2_210_cif.got.tgz:419320.got - 2010.06.03 11:33:40.
