data_PCOD9089208
_publ_section_title
;
Structure prediction by ZEFSAII (Michael W. Deem and Ramdas Pophale) SiO2 
 PCOD9089208
Probable space group: P -1
;
_chemical_formula_sum "Si O2"
_cell_formula_units_Z 16
_cell_length_a 13.564732
_cell_length_b 13.595175
_cell_length_c 20.876998
_cell_angle_alpha 147.613341
_cell_angle_beta 159.856070
_cell_angle_gamma 31.890913
_cell_volume 676.342055
_symmetry_space_group_name_H-M "P -1"
_symmetry_group_IT_number 2
_symmetry_cell_setting 'triclinic'
loop_
_space_group_symop_operation_xyz
x,y,z
-x,-y,-z
loop_
_atom_site_type_symbol
_atom_site_label
_atom_site_fract_x
_atom_site_fract_y
_atom_site_fract_z
Si Si1 0.867038 0.315084 0.564199
Si Si2 0.194720 0.471504 0.743777
Si Si3 0.226356 0.069747 0.750550
Si Si4 0.773012 0.753347 0.024290
Si Si5 0.811428 0.581379 0.826096
Si Si6 0.838969 0.135426 0.117537
Si Si7 0.289606 0.725059 0.137630
Si Si8 0.727592 0.412160 0.321994
O O1 0.512204 0.411764 0.392801
O O2 0.065388 0.417213 0.700780
O O3 0.981804 0.257113 0.674170
O O4 0.895134 0.107431 0.435264
O O5 0.200130 0.690965 0.861576
O O6 0.515460 0.328358 0.837484
O O7 0.962835 0.447500 0.534192
O O8 0.270365 0.076597 0.857391
O O9 0.529468 0.078419 0.903812
O O10 0.058786 0.598025 0.146094
O O11 0.806694 0.755937 0.970558
O O12 0.504766 0.664661 0.823232
O O13 0.030023 0.621228 0.927520
O O14 0.860735 0.245637 0.258436
O O15 0.122583 0.950538 0.172511
O O16 0.528295 0.608135 0.273040
#
# Coordination Sequence:
#
# PCOD9089208 Si02
#       8
#     2   2   2   2   2   2   2   2
#     4  11  23  42  63  89 125 164 210 264 303 362
#     4  11  23  39  60  92 129 161 204 260 312 366
#     4  10  23  42  64  87 124 168 211 253 312 371
#     4   9  19  37  62  95 120 158 209 256 309 375
#     4  10  19  37  66  92 122 158 205 261 311 366
#     4  10  20  38  62  87 122 167 206 245 318 380
#     4  10  20  36  60  92 125 163 197 257 314 369
#     4   9  19  35  58  91 126 160 200 258 311 367
#
# _framework density 23.656669000000001
#
# number of rings (size 3 to 8) (size 9 to 14) (size 15 to 20)
#    0.000    2.000    2.500    2.250    0.000    4.500 
#    2.250    0.625    0.000    0.000    0.000    0.000 
#    0.000    0.000    0.000    0.000    0.000    0.000 
#
# Total GULP energy -89385.183274 kJ/mol
# GULP energy per Si atom -5586.573955 kJ/mol
# Density = 2.360283 g / cm^3
# Si number density = 23.656669 Si / 1000 Ang^3
#
#
#
# Elastic Constant Matrix: (Units=GPa)
#
#
# Indices 1 2 3 4 5 6 
#
# 1 127.9391 38.7004 56.8429 -9.5440 -0.5371 7.2118
# 2 38.7004 147.2445 31.6546 -9.7014 0.5699 -9.1240
# 3 56.8429 31.6546 79.8503 -14.3241 -5.3318 7.9004
# 4 -9.5440 -9.7014 -14.3241 41.9682 -4.1216 0.4740
# 5 -0.5371 0.5699 -5.3318 -4.1216 23.7004 2.6649
# 6 7.2118 -9.1240 7.9004 0.4740 2.6649 35.2872
#
#
#
# Elastic Compliance Matrix: (Units=1/GPa)
#
#
# Indices 1 2 3 4 5 6 
#
# 1 0.011780 -0.001482 -0.007894 -0.000491 -0.001457 -0.000907
# 2 -0.001482 0.007906 -0.002334 0.000564 -0.000981 0.002936
# 3 -0.007894 -0.002334 0.020853 0.005417 0.005981 -0.004183
# 4 -0.000491 0.000564 0.005417 0.026301 0.005967 -0.001771
# 5 -0.001457 -0.000981 0.005981 0.005967 0.045105 -0.004781
# 6 -0.000907 0.002936 -0.004183 -0.001771 -0.004781 0.030605
#
#
# Mechanical properties :
#
#
# Convention : Reuss Voigt Hill
#
# Bulk Modulus (GPa) = 58.41308 67.71442 63.06375
# Shear Modulus (GPa) = 29.12467 35.38021 32.25244
#
# Velocity S-wave (km/s) = 3.51257 3.87146 3.69637
# Velocity P-wave (km/s) = 6.41845 6.97640 6.70323
#
# Compressibility (1/GPa) = 0.01711945
#
# Stress axis : x y z
#
# Youngs Moduli (GPa) = 84.88817 126.49350 47.95451
#
# Poissons Ratio (x) = 0.18747 0.37855
# Poissons Ratio (y) = 0.12581 0.11191
# Poissons Ratio (z) = 0.67011 0.29519
#
# Static dielectric constant tensor:
#      x y z
#    x 1.940680 -0.080450 -0.027410 
#    y -0.080450 2.042790 -0.001020 
#    z -0.027410 -0.001020 1.864220 
# 
# From -- ./inp_files/612128.got.cif
#   From: 2010.05.17/outbox.cif.g08.bks.cpg/sg2_307_cif.got.tgz:612128.got - 2010.06.03 11:33:40.
