data_PCOD9089665
_publ_section_title
;
Structure prediction by ZEFSAII (Michael W. Deem and Ramdas Pophale) SiO2 
 PCOD9089665
Probable space group: P -1
;
_chemical_formula_sum "Si O2"
_cell_formula_units_Z 16
_cell_length_a 10.545087
_cell_length_b 14.567147
_cell_length_c 7.751876
_cell_angle_alpha 99.738112
_cell_angle_beta 137.063113
_cell_angle_gamma 58.352009
_cell_volume 641.312843
_symmetry_space_group_name_H-M "P -1"
_symmetry_group_IT_number 2
_symmetry_cell_setting 'triclinic'
loop_
_space_group_symop_operation_xyz
x,y,z
-x,-y,-z
loop_
_atom_site_type_symbol
_atom_site_label
_atom_site_fract_x
_atom_site_fract_y
_atom_site_fract_z
Si Si1 0.828684 0.906889 0.129100
Si Si2 0.805704 0.068650 0.667112
Si Si3 0.903922 0.173779 0.275424
Si Si4 0.014911 0.467950 0.800487
Si Si5 0.487480 0.096652 0.633256
Si Si6 0.972991 0.329902 0.197622
Si Si7 0.836301 0.340299 0.680671
Si Si8 0.538238 0.258940 0.197374
O O1 0.999175 0.912429 0.170357
O O2 0.930485 0.889347 0.413716
O O3 0.902025 0.779951 0.119634
O O4 0.582943 0.027069 0.886508
O O5 0.657847 0.116154 0.708565
O O6 0.622783 0.146160 0.358689
O O7 0.948170 0.930399 0.745537
O O8 0.655935 0.213171 0.112172
O O9 0.869307 0.290437 0.222120
O O10 0.996092 0.569600 0.709867
O O11 0.831568 0.438111 0.601327
O O12 0.266950 0.354061 0.965645
O O13 0.000000 0.500000 0.000000
O O14 0.234640 0.213526 0.412722
O O15 0.500000 0.000000 0.500000
O O16 0.827398 0.360305 0.883953
O O17 0.657809 0.316357 0.422646
#
# Coordination Sequence:
#
# PCOD9089665 Si02
#       8
#     2   2   2   2   2   2   2   2
#     4  10  21  36  59  86 118 157 195 240 303 361
#     4  10  19  38  60  88 120 149 200 243 297 362
#     4  10  21  39  58  88 124 154 193 242 300 367
#     4  10  22  39  63  88 118 155 206 249 291 343
#     4  12  21  35  61  88 118 153 191 250 301 336
#     4  11  22  37  58  89 120 156 199 245 292 353
#     4   9  19  40  63  88 117 152 204 252 288 348
#     4  10  22  39  64  88 117 163 194 241 309 347
#
# _framework density 24.948823999999998
#
# number of rings (size 3 to 8) (size 9 to 14) (size 15 to 20)
#    0.000    2.000    2.500    3.375    0.000    4.000 
#    0.000    6.250    0.000    0.750    0.000    0.000 
#    0.000    0.000    0.000    0.000    0.000    0.000 
#
# Total GULP energy -89353.739016 kJ/mol
# GULP energy per Si atom -5584.608688 kJ/mol
# Density = 2.489204 g / cm^3
# Si number density = 24.948824 Si / 1000 Ang^3
#
#
#
# Elastic Constant Matrix: (Units=GPa)
#
#
# Indices 1 2 3 4 5 6 
#
# 1 97.9526 18.7649 20.7329 -9.6368 -4.4449 7.8372
# 2 18.7649 80.3274 5.8393 -15.8860 -12.5565 29.8112
# 3 20.7329 5.8393 39.0433 -5.2878 -5.1751 3.5114
# 4 -9.6368 -15.8860 -5.2878 37.2090 2.5018 -1.8400
# 5 -4.4449 -12.5565 -5.1751 2.5018 23.1576 -5.6618
# 6 7.8372 29.8112 3.5114 -1.8400 -5.6618 50.6452
#
#
#
# Elastic Compliance Matrix: (Units=1/GPa)
#
#
# Indices 1 2 3 4 5 6 
#
# 1 0.011993 -0.002070 -0.005895 0.001397 -0.000342 -0.000216
# 2 -0.002070 0.018946 0.000988 0.006737 0.006953 -0.009878
# 3 -0.005895 0.000988 0.029785 0.002706 0.005519 -0.001019
# 4 0.001397 0.006737 0.002706 0.030308 0.000465 -0.003216
# 5 -0.000342 0.006953 0.005519 0.000465 0.048313 0.000995
# 6 -0.000216 -0.009878 -0.001019 -0.003216 0.000995 0.025658
#
#
# Mechanical properties :
#
#
# Convention : Reuss Voigt Hill
#
# Bulk Modulus (GPa) = 21.38156 34.22196 27.80176
# Shear Modulus (GPa) = 25.70064 33.66810 29.68437
#
# Velocity S-wave (km/s) = 3.21305 3.67752 3.45311
# Velocity P-wave (km/s) = 4.72797 5.63727 5.20253
#
# Compressibility (1/GPa) = 0.04676927
#
# Stress axis : x y z
#
# Youngs Moduli (GPa) = 83.38461 52.78126 33.57377
#
# Poissons Ratio (x) = 0.10926 0.19793
# Poissons Ratio (y) = 0.17260 -0.03318
# Poissons Ratio (z) = 0.49159 -0.05216
#
# Static dielectric constant tensor:
#      x y z
#    x 2.028080 0.040190 -0.002360 
#    y 0.040190 2.050830 0.079700 
#    z -0.002360 0.079700 2.034840 
# 
# From -- ./inp_files/267953.got.cif
#   From: 2010.05.17/outbox.cif.g08.bks.cpg/sg2_134_cif.got.tgz:267953.got - 2010.06.03 11:33:40.
