data_PCOD9089228
_publ_section_title
;
Structure prediction by ZEFSAII (Michael W. Deem and Ramdas Pophale) SiO2 
 PCOD9089228
Probable space group: P -1
;
_chemical_formula_sum "Si O2"
_cell_formula_units_Z 16
_cell_length_a 9.655437
_cell_length_b 18.859532
_cell_length_c 18.657254
_cell_angle_alpha 20.457697
_cell_angle_beta 32.996186
_cell_angle_gamma 42.682585
_cell_volume 623.315597
_symmetry_space_group_name_H-M "P -1"
_symmetry_group_IT_number 2
_symmetry_cell_setting 'triclinic'
loop_
_space_group_symop_operation_xyz
x,y,z
-x,-y,-z
loop_
_atom_site_type_symbol
_atom_site_label
_atom_site_fract_x
_atom_site_fract_y
_atom_site_fract_z
Si Si1 0.241581 0.817820 0.841427
Si Si2 0.272836 0.782964 0.080189
Si Si3 0.095083 0.623755 0.552316
Si Si4 0.365451 0.310021 0.115630
Si Si5 0.006531 0.980762 0.358540
Si Si6 0.358336 0.264521 0.445830
Si Si7 0.317236 0.233838 0.663066
Si Si8 0.504686 0.353247 0.758644
O O1 0.475017 0.711223 0.860304
O O2 0.293254 0.025714 0.672285
O O3 0.203711 0.915017 0.689107
O O4 0.987248 0.620477 0.155244
O O5 0.475167 0.753706 0.959428
O O6 0.352931 0.004709 0.876815
O O7 0.279511 0.625345 0.291131
O O8 0.987410 0.776200 0.178140
O O9 0.060289 0.793489 0.464453
O O10 0.372862 0.689222 0.328817
O O11 0.878287 0.644304 0.566826
O O12 0.095411 0.133335 0.414515
O O13 0.383103 0.555773 0.863811
O O14 0.258236 0.178506 0.059552
O O15 0.363979 0.262149 0.530895
O O16 0.519365 0.409628 0.454475
#
# Coordination Sequence:
#
# PCOD9089228 Si02
#       8
#     2   2   2   2   2   2   2   2
#     4  10  22  41  66  93 119 161 210 266 300 357
#     4  11  23  38  67  96 126 157 203 266 311 364
#     4  10  23  41  65  91 121 163 210 260 307 358
#     4  11  22  41  64  93 125 165 208 254 308 362
#     4  11  27  42  60  90 130 174 207 242 305 381
#     4  10  19  37  66  94 120 152 207 263 307 356
#     4  11  21  38  65  99 118 157 209 256 314 360
#     4  12  24  41  63  93 131 164 200 256 315 370
#
# _framework density 25.669177000000001
#
# number of rings (size 3 to 8) (size 9 to 14) (size 15 to 20)
#    0.000    1.250    3.750    2.625    1.750    7.500 
#    0.000    0.625    0.000    0.000    0.000    0.000 
#    0.000    0.000    0.000    0.000    0.000    0.000 
#
# Total GULP energy -89493.745150 kJ/mol
# GULP energy per Si atom -5593.359072 kJ/mol
# Density = 2.561075 g / cm^3
# Si number density = 25.669177 Si / 1000 Ang^3
#
#
#
# Elastic Constant Matrix: (Units=GPa)
#
#
# Indices 1 2 3 4 5 6 
#
# 1 37.5664 9.4037 -6.7345 4.4070 9.2922 -0.4311
# 2 9.4037 116.9410 57.3568 -14.1378 -11.1720 23.4350
# 3 -6.7345 57.3568 176.2266 -5.7119 -11.5633 11.4582
# 4 4.4070 -14.1378 -5.7119 39.9870 3.6628 2.7291
# 5 9.2922 -11.1720 -11.5633 3.6628 37.1641 -9.6394
# 6 -0.4311 23.4350 11.4582 2.7291 -9.6394 24.3355
#
#
#
# Elastic Compliance Matrix: (Units=1/GPa)
#
#
# Indices 1 2 3 4 5 6 
#
# 1 0.030697 -0.005136 0.002075 -0.004338 -0.007634 0.001975
# 2 -0.005136 0.013998 -0.003732 0.005762 0.000592 -0.012225
# 3 0.002075 -0.003732 0.006949 -0.000678 0.000781 0.000744
# 4 -0.004338 0.005762 -0.000678 0.028321 -0.002659 -0.009536
# 5 -0.007634 0.000592 0.000781 -0.002659 0.032653 0.012159
# 6 0.001975 -0.012225 0.000744 -0.009536 0.012159 0.058436
#
#
# Mechanical properties :
#
#
# Convention : Reuss Voigt Hill
#
# Bulk Modulus (GPa) = 26.27521 50.08732 38.18126
# Shear Modulus (GPa) = 25.33887 38.34452 31.84170
#
# Velocity S-wave (km/s) = 3.14527 3.86916 3.52584
# Velocity P-wave (km/s) = 4.84238 6.28614 5.61089
#
# Compressibility (1/GPa) = 0.03805869
#
# Stress axis : x y z
#
# Youngs Moduli (GPa) = 32.57667 71.44016 143.89990
#
# Poissons Ratio (x) = 0.36689 -0.29854
# Poissons Ratio (y) = 0.16730 0.53698
# Poissons Ratio (z) = -0.06758 0.26659
#
# Static dielectric constant tensor:
#      x y z
#    x 2.052090 -0.050650 -0.082810 
#    y -0.050650 1.992040 0.014340 
#    z -0.082810 0.014340 2.109040 
# 
# From -- ./inp_files/457622.got.cif
#   From: 2010.05.17/outbox.cif.g08.bks.cpg/sg2_229_cif.got.tgz:457622.got - 2010.06.03 11:33:40.
