data_PCOD9089501
_publ_section_title
;
Structure prediction by ZEFSAII (Michael W. Deem and Ramdas Pophale) SiO2 
 PCOD9089501
Probable space group: P -1
;
_chemical_formula_sum "Si O2"
_cell_formula_units_Z 16
_cell_length_a 7.474520
_cell_length_b 21.969090
_cell_length_c 9.397066
_cell_angle_alpha 27.473290
_cell_angle_beta 99.887129
_cell_angle_gamma 98.902184
_cell_volume 701.292964
_symmetry_space_group_name_H-M "P -1"
_symmetry_group_IT_number 2
_symmetry_cell_setting 'triclinic'
loop_
_space_group_symop_operation_xyz
x,y,z
-x,-y,-z
loop_
_atom_site_type_symbol
_atom_site_label
_atom_site_fract_x
_atom_site_fract_y
_atom_site_fract_z
Si Si1 0.048708 0.761483 0.253982
Si Si2 0.015479 0.466698 0.819256
Si Si3 0.445836 0.718195 0.029630
Si Si4 0.304211 0.009355 0.768862
Si Si5 0.706755 0.082769 0.610485
Si Si6 0.065477 0.191604 0.557575
Si Si7 0.753062 0.510292 0.465824
Si Si8 0.768152 0.891228 0.765101
O O1 0.914348 0.796301 0.295622
O O2 0.090914 0.606376 0.597203
O O3 0.931000 0.793105 0.030704
O O4 0.216836 0.863523 0.073444
O O5 0.816750 0.501616 0.656980
O O6 0.110677 0.436908 0.743178
O O7 0.040058 0.339563 0.183904
O O8 0.586525 0.607817 0.230459
O O9 0.301127 0.640606 0.265267
O O10 0.359738 0.780475 0.749789
O O11 0.569820 0.826365 0.898758
O O12 0.523988 0.016516 0.785393
O O13 0.238485 0.061808 0.495477
O O14 0.218159 0.111041 0.660347
O O15 0.875964 0.113321 0.669630
O O16 0.782290 0.008661 0.635254
#
# Coordination Sequence:
#
# PCOD9089501 Si02
#       8
#     2   2   2   2   2   2   2   2
#     4  12  26  43  66  97 137 174 217 271 327 389
#     4  11  23  40  65  93 131 173 219 265 329 386
#     4  10  19  38  58 100 131 157 212 280 323 382
#     4  11  25  44  72  97 131 171 224 273 327 387
#     4  11  24  40  71  96 132 169 221 268 334 381
#     4  12  26  47  65  94 138 181 217 266 325 398
#     4  10  21  34  67  94 123 168 217 269 330 381
#     4  11  23  40  68 102 130 166 216 281 328 381
#
# _framework density 22.815003000000001
#
# number of rings (size 3 to 8) (size 9 to 14) (size 15 to 20)
#    0.000    1.000    3.750    4.125    5.250    0.500 
#    0.000    0.000    0.000    3.000    0.000    0.000 
#    0.000    0.000    0.000    0.000    0.000    0.000 
#
# Total GULP energy -89405.930668 kJ/mol
# GULP energy per Si atom -5587.870667 kJ/mol
# Density = 2.276308 g / cm^3
# Si number density = 22.815003 Si / 1000 Ang^3
#
#
#
# Elastic Constant Matrix: (Units=GPa)
#
#
# Indices 1 2 3 4 5 6 
#
# 1 74.9082 9.2029 20.5334 1.1147 -2.1519 -4.4664
# 2 9.2029 81.0335 33.3409 -3.3761 -6.0484 -9.7066
# 3 20.5334 33.3409 122.5845 -9.2674 -10.6194 -2.4179
# 4 1.1147 -3.3761 -9.2674 37.1509 2.1383 -1.0059
# 5 -2.1519 -6.0484 -10.6194 2.1383 34.8135 -3.0583
# 6 -4.4664 -9.7066 -2.4179 -1.0059 -3.0583 23.3305
#
#
#
# Elastic Compliance Matrix: (Units=1/GPa)
#
#
# Indices 1 2 3 4 5 6 
#
# 1 0.014184 -0.000417 -0.002258 -0.000986 0.000379 0.002315
# 2 -0.000417 0.014756 -0.003621 0.000501 0.001926 0.005958
# 3 -0.002258 -0.003621 0.009844 0.002061 0.002058 -0.000560
# 4 -0.000986 0.000501 0.002061 0.027595 -0.000926 0.001301
# 5 0.000379 0.001926 0.002058 -0.000926 0.030207 0.005007
# 6 0.002315 0.005958 -0.000560 0.001301 0.005007 0.046439
#
#
# Mechanical properties :
#
#
# Convention : Reuss Voigt Hill
#
# Bulk Modulus (GPa) = 38.18245 44.96452 41.57348
# Shear Modulus (GPa) = 30.42317 33.42224 31.92270
#
# Velocity S-wave (km/s) = 3.65564 3.83158 3.74464
# Velocity P-wave (km/s) = 5.88135 6.27103 6.07931
#
# Compressibility (1/GPa) = 0.02619005
#
# Stress axis : x y z
#
# Youngs Moduli (GPa) = 70.50416 67.76785 101.58561
#
# Poissons Ratio (x) = 0.02827 0.22942
# Poissons Ratio (y) = 0.02941 0.36788
# Poissons Ratio (z) = 0.15923 0.24541
#
# Static dielectric constant tensor:
#      x y z
#    x 1.998190 0.050350 -0.022140 
#    y 0.050350 1.857780 -0.049270 
#    z -0.022140 -0.049270 1.881970 
# 
# From -- ./inp_files/221556.got.cif
#   From: 2010.05.17/outbox.cif.g08.bks.cpg/sg2_111_cif.got.tgz:221556.got - 2010.06.03 11:33:40.
