data_PCOD9089677
_publ_section_title
;
Structure prediction by ZEFSAII (Michael W. Deem and Ramdas Pophale) SiO2 
 PCOD9089677
Probable space group: P -1
;
_chemical_formula_sum "Si O2"
_cell_formula_units_Z 16
_cell_length_a 10.637510
_cell_length_b 10.684146
_cell_length_c 10.012709
_cell_angle_alpha 44.598180
_cell_angle_beta 89.428026
_cell_angle_gamma 67.828698
_cell_volume 678.825517
_symmetry_space_group_name_H-M "P -1"
_symmetry_group_IT_number 2
_symmetry_cell_setting 'triclinic'
loop_
_space_group_symop_operation_xyz
x,y,z
-x,-y,-z
loop_
_atom_site_type_symbol
_atom_site_label
_atom_site_fract_x
_atom_site_fract_y
_atom_site_fract_z
Si Si1 0.552296 0.692193 0.810377
Si Si2 0.139900 0.625828 0.028259
Si Si3 0.351356 0.003913 0.106736
Si Si4 0.686913 0.987410 0.605958
Si Si5 0.003820 0.783205 0.644967
Si Si6 0.041770 0.354717 0.742211
Si Si7 0.585233 0.135910 0.059620
Si Si8 0.925008 0.919097 0.266549
O O1 0.683790 0.502564 0.872579
O O2 0.607157 0.855985 0.700227
O O3 0.405691 0.805571 0.637537
O O4 0.507299 0.679440 0.972778
O O5 0.062147 0.561967 0.189272
O O6 0.076917 0.869519 0.870204
O O7 0.110662 0.611568 0.881485
O O8 0.213634 0.227815 0.884322
O O9 0.494211 0.018927 0.128767
O O10 0.299992 0.962930 0.278988
O O11 0.388988 0.834558 0.118427
O O12 0.843889 0.842486 0.649005
O O13 0.019586 0.753079 0.509061
O O14 0.000000 0.000000 0.500000
O O15 0.000000 0.500000 0.500000
O O16 0.024238 0.174108 0.809281
O O17 0.751410 0.988392 0.227778
#
# Coordination Sequence:
#
# PCOD9089677 Si02
#       8
#     2   2   2   2   2   2   2   2
#     4  10  22  34  63  91 119 159 205 259 302 357
#     4  11  24  41  60  93 127 162 204 252 310 367
#     4   9  19  36  62  86 120 158 201 252 309 354
#     4  10  19  38  60  89 122 160 207 252 304 359
#     4  10  21  39  61  88 123 169 200 248 309 368
#     4  11  24  39  65  92 121 161 206 257 303 365
#     4   9  18  36  57  86 113 157 200 242 297 361
#     4  10  22  41  64  86 124 168 202 247 309 370
#
# _framework density 23.570121
#
# number of rings (size 3 to 8) (size 9 to 14) (size 15 to 20)
#    0.000    2.000    2.500    0.375    1.750    6.000 
#    0.000    0.000    0.000    3.750    0.000    0.000 
#    0.000    0.000    0.000    0.000    0.000    0.000 
#
# Total GULP energy -89243.576163 kJ/mol
# GULP energy per Si atom -5577.723510 kJ/mol
# Density = 2.351647 g / cm^3
# Si number density = 23.570121 Si / 1000 Ang^3
#
#
#
# Elastic Constant Matrix: (Units=GPa)
#
#
# Indices 1 2 3 4 5 6 
#
# 1 56.5820 6.7167 30.6749 7.6077 2.0330 -7.0682
# 2 6.7167 84.6656 37.0574 26.7732 -17.4496 -20.9251
# 3 30.6749 37.0574 97.3434 20.9484 -1.6073 2.0308
# 4 7.6077 26.7732 20.9484 36.0898 -0.5342 0.7212
# 5 2.0330 -17.4496 -1.6073 -0.5342 24.4062 0.9091
# 6 -7.0682 -20.9251 2.0308 0.7212 0.9091 26.7328
#
#
#
# Elastic Compliance Matrix: (Units=1/GPa)
#
#
# Indices 1 2 3 4 5 6 
#
# 1 0.024345 0.007882 -0.009714 -0.005574 0.002346 0.013415
# 2 0.007882 0.034811 -0.011458 -0.021111 0.021897 0.030028
# 3 -0.009714 -0.011458 0.017781 0.000395 -0.005730 -0.012703
# 4 -0.005574 -0.021111 0.000395 0.044500 -0.012930 -0.018790
# 5 0.002346 0.021897 -0.005730 -0.012930 0.055152 0.016669
# 6 0.013415 0.030028 -0.012703 -0.018790 0.016669 0.065364
#
#
# Mechanical properties :
#
#
# Convention : Reuss Voigt Hill
#
# Bulk Modulus (GPa) = 19.85767 43.05433 31.45600
# Shear Modulus (GPa) = 17.52434 28.38854 22.95644
#
# Velocity S-wave (km/s) = 2.72967 3.47425 3.12422
# Velocity P-wave (km/s) = 4.28696 5.86516 5.13703
#
# Compressibility (1/GPa) = 0.05035838
#
# Stress axis : x y z
#
# Youngs Moduli (GPa) = 41.07628 28.72647 56.23983
#
# Poissons Ratio (x) = -0.22642 0.54630
# Poissons Ratio (y) = -0.32376 0.64437
# Poissons Ratio (z) = 0.39901 0.32914
#
# Static dielectric constant tensor:
#      x y z
#    x 1.565770 0.049950 0.012630 
#    y 0.049950 1.945860 0.001930 
#    z 0.012630 0.001930 1.904720 
# 
# From -- ./inp_files/261618.got.cif
#   From: 2010.05.17/outbox.cif.g08.bks.cpg/sg2_131_cif.got.tgz:261618.got - 2010.06.03 11:33:40.
