data_PCOD9089080
_publ_section_title
;
Structure prediction by ZEFSAII (Michael W. Deem and Ramdas Pophale) SiO2 
 PCOD9089080
Probable space group: P -1
;
_chemical_formula_sum "Si O2"
_cell_formula_units_Z 16
_cell_length_a 7.555042
_cell_length_b 13.930937
_cell_length_c 10.482005
_cell_angle_alpha 41.282262
_cell_angle_beta 61.999188
_cell_angle_gamma 67.338203
_cell_volume 641.665537
_symmetry_space_group_name_H-M "P -1"
_symmetry_group_IT_number 2
_symmetry_cell_setting 'triclinic'
loop_
_space_group_symop_operation_xyz
x,y,z
-x,-y,-z
loop_
_atom_site_type_symbol
_atom_site_label
_atom_site_fract_x
_atom_site_fract_y
_atom_site_fract_z
Si Si1 0.244942 0.665622 0.939329
Si Si2 0.675051 0.041182 0.267427
Si Si3 0.324991 0.209009 0.876793
Si Si4 0.759824 0.833619 0.765665
Si Si5 0.141079 0.485691 0.730920
Si Si6 0.558092 0.531627 0.134952
Si Si7 0.959173 0.805812 0.482360
Si Si8 0.736812 0.085952 0.925743
O O1 0.333294 0.591120 0.116246
O O2 0.030472 0.600988 0.051471
O O3 0.257620 0.837699 0.776772
O O4 0.387343 0.601334 0.844141
O O5 0.436855 0.061342 0.304507
O O6 0.743215 0.876334 0.442362
O O7 0.788141 0.091701 0.050209
O O8 0.224242 0.159614 0.093748
O O9 0.325784 0.080109 0.904285
O O10 0.220484 0.364999 0.720788
O O11 0.557409 0.207712 0.840614
O O12 0.951280 0.842269 0.599939
O O13 0.682111 0.673607 0.916653
O O14 0.342741 0.508180 0.722711
O O15 0.027366 0.640449 0.592258
O O16 0.105857 0.892364 0.258633
#
# Coordination Sequence:
#
# PCOD9089080 Si02
#       8
#     2   2   2   2   2   2   2   2
#     4  10  19  37  65  88 118 178 209 241 312 389
#     4  10  22  41  61  86 128 172 210 253 310 385
#     4   9  21  42  67  85 119 175 213 247 320 387
#     4   9  19  38  64  93 123 158 210 272 314 364
#     4  11  22  38  64  96 128 161 209 268 318 370
#     4   9  19  37  61  92 130 162 206 257 316 379
#     4  12  23  36  61  96 128 156 208 273 320 361
#     4  10  22  44  62  84 125 174 216 253 308 386
#
# _framework density 24.935108
#
# number of rings (size 3 to 8) (size 9 to 14) (size 15 to 20)
#    0.000    2.000    1.250    2.625    1.750    1.000 
#    2.250    5.000    0.000    0.000    0.000    0.000 
#    0.000    0.000    0.000    0.000    0.000    0.000 
#
# Total GULP energy -89246.422489 kJ/mol
# GULP energy per Si atom -5577.901406 kJ/mol
# Density = 2.487835 g / cm^3
# Si number density = 24.935108 Si / 1000 Ang^3
#
#
#
# Elastic Constant Matrix: (Units=GPa)
#
#
# Indices 1 2 3 4 5 6 
#
# 1 54.2997 30.9657 21.1155 -22.9397 12.2392 -16.7618
# 2 30.9657 149.5924 35.6419 -33.0721 14.3190 -14.5705
# 3 21.1155 35.6419 51.1902 -6.3954 6.1857 -7.0505
# 4 -22.9397 -33.0721 -6.3954 59.7626 -19.6962 9.4385
# 5 12.2392 14.3190 6.1857 -19.6962 14.3411 -8.4952
# 6 -16.7618 -14.5705 -7.0505 9.4385 -8.4952 43.2032
#
#
#
# Elastic Compliance Matrix: (Units=1/GPa)
#
#
# Indices 1 2 3 4 5 6 
#
# 1 0.028591 -0.001272 -0.008356 0.005818 -0.007675 0.006520
# 2 -0.001272 0.009136 -0.005239 0.003904 0.000120 0.000904
# 3 -0.008356 -0.005239 0.026694 -0.005486 -0.007202 -0.000870
# 4 0.005818 0.003904 -0.005486 0.033855 0.042111 0.003563
# 5 -0.007675 0.000120 -0.007202 0.042111 0.146252 0.015446
# 6 0.006520 0.000904 -0.000870 0.003563 0.015446 0.028098
#
#
# Mechanical properties :
#
#
# Convention : Reuss Voigt Hill
#
# Bulk Modulus (GPa) = 28.82787 47.83651 38.33219
# Shear Modulus (GPa) = 15.92751 34.61866 25.27309
#
# Velocity S-wave (km/s) = 2.53011 3.73010 3.18709
# Velocity P-wave (km/s) = 4.48570 6.14635 5.38048
#
# Compressibility (1/GPa) = 0.03468866
#
# Stress axis : x y z
#
# Youngs Moduli (GPa) = 34.97584 109.45917 37.46106
#
# Poissons Ratio (x) = 0.13919 0.31302
# Poissons Ratio (y) = 0.04448 0.19625
# Poissons Ratio (z) = 0.29226 0.57343
#
# Static dielectric constant tensor:
#      x y z
#    x 2.037760 -0.031580 0.047260 
#    y -0.031580 1.946640 0.013440 
#    z 0.047260 0.013440 2.048930 
# 
# From -- ./inp_files/398369.got.cif
#   From: 2010.05.17/outbox.cif.g08.bks.cpg/sg2_200_cif.got.tgz:398369.got - 2010.06.03 11:33:40.
