data_PCOD9089796
_publ_section_title
;
Structure prediction by ZEFSAII (Michael W. Deem and Ramdas Pophale) SiO2 
 PCOD9089796
Probable space group: P -1
;
_chemical_formula_sum "Si O2"
_cell_formula_units_Z 16
_cell_length_a 12.534567
_cell_length_b 10.589387
_cell_length_c 9.504218
_cell_angle_alpha 109.100776
_cell_angle_beta 123.514369
_cell_angle_gamma 45.651436
_cell_volume 748.480837
_symmetry_space_group_name_H-M "P -1"
_symmetry_group_IT_number 2
_symmetry_cell_setting 'triclinic'
loop_
_space_group_symop_operation_xyz
x,y,z
-x,-y,-z
loop_
_atom_site_type_symbol
_atom_site_label
_atom_site_fract_x
_atom_site_fract_y
_atom_site_fract_z
Si Si1 0.707869 0.193482 0.384212
Si Si2 0.022020 0.801006 0.349498
Si Si3 0.653165 0.969377 0.787343
Si Si4 0.444294 0.737197 0.982163
Si Si5 0.225044 0.637993 0.860429
Si Si6 0.057492 0.311456 0.508834
Si Si7 0.013647 0.842036 0.024579
Si Si8 0.403322 0.932708 0.529962
O O1 0.791992 0.279911 0.492153
O O2 0.649228 0.171353 0.479891
O O3 0.560563 0.275128 0.193160
O O4 0.867708 0.996510 0.371274
O O5 0.975927 0.693205 0.351232
O O6 0.025631 0.826017 0.195243
O O7 0.595729 0.089532 0.926616
O O8 0.576432 0.874548 0.697568
O O9 0.579454 0.083191 0.630849
O O10 0.851460 0.861830 0.877769
O O11 0.615204 0.568330 0.116788
O O12 0.292973 0.740055 0.917062
O O13 0.066869 0.703794 0.673488
O O14 0.170730 0.670782 0.994792
O O15 0.000000 0.500000 0.500000
O O16 0.249045 0.140125 0.538852
O O17 0.000000 0.000000 0.000000
#
# Coordination Sequence:
#
# PCOD9089796 Si02
#       8
#     2   2   2   2   2   2   2   2
#     4  10  19  38  61  91 123 153 206 263 305 356
#     4  10  21  36  65  95 117 159 216 253 300 371
#     4  11  21  39  60  93 120 157 207 250 305 366
#     4  11  22  39  61  92 124 159 202 258 308 367
#     4  11  23  39  61  90 125 164 204 249 315 369
#     4  11  22  42  61  89 129 172 201 249 319 370
#     4  12  21  39  66  95 122 161 209 259 307 362
#     4  10  23  37  63  92 122 162 206 258 306 369
#
# _framework density 21.376632000000001
#
# number of rings (size 3 to 8) (size 9 to 14) (size 15 to 20)
#    0.000    1.250    5.000    1.500    1.750    0.500 
#    2.250    5.000    0.000    0.000    0.000    0.000 
#    0.000    0.000    0.000    0.000    0.000    0.000 
#
# Total GULP energy -89262.241786 kJ/mol
# GULP energy per Si atom -5578.890112 kJ/mol
# Density = 2.132798 g / cm^3
# Si number density = 21.376632 Si / 1000 Ang^3
#
#
#
# Elastic Constant Matrix: (Units=GPa)
#
#
# Indices 1 2 3 4 5 6 
#
# 1 102.4494 9.1971 20.5942 -2.6910 -7.9828 2.7097
# 2 9.1971 16.8006 -9.9099 -7.0929 2.8657 1.4826
# 3 20.5942 -9.9099 66.1160 -0.9184 -3.3613 -3.8912
# 4 -2.6910 -7.0929 -0.9184 16.6646 -1.5386 -3.4630
# 5 -7.9828 2.8657 -3.3613 -1.5386 43.2038 -5.0004
# 6 2.7097 1.4826 -3.8912 -3.4630 -5.0004 19.2164
#
#
#
# Elastic Compliance Matrix: (Units=1/GPa)
#
#
# Indices 1 2 3 4 5 6 
#
# 1 0.012040 -0.011519 -0.005529 -0.003471 0.002206 -0.001980
# 2 -0.011519 0.093662 0.018141 0.039332 -0.005085 0.003836
# 3 -0.005529 0.018141 0.020005 0.009017 0.000245 0.005120
# 4 -0.003471 0.039332 0.009017 0.079807 0.001933 0.014166
# 5 0.002206 -0.005085 0.000245 0.001933 0.024781 0.006928
# 6 -0.001980 0.003836 0.005120 0.014166 0.006928 0.057414
#
#
# Mechanical properties :
#
#
# Convention : Reuss Voigt Hill
#
# Bulk Modulus (GPa) = 7.81919 25.01429 16.41674
# Shear Modulus (GPa) = 15.23670 26.84929 21.04300
#
# Velocity S-wave (km/s) = 2.67268 3.54787 3.14091
# Velocity P-wave (km/s) = 3.63181 5.33950 4.56620
#
# Compressibility (1/GPa) = 0.12789056
#
# Stress axis : x y z
#
# Youngs Moduli (GPa) = 83.05929 10.67668 49.98664
#
# Poissons Ratio (x) = 0.12299 0.27640
# Poissons Ratio (y) = 0.95679 -0.90678
# Poissons Ratio (z) = 0.45927 -0.19368
#
# Static dielectric constant tensor:
#      x y z
#    x 1.767220 0.012310 -0.010530 
#    y 0.012310 1.770530 -0.012340 
#    z -0.010530 -0.012340 1.825750 
# 
# From -- ./inp_files/262718.got.cif
#   From: 2010.05.17/outbox.cif.g08.bks.cpg/sg2_132_cif.got.tgz:262718.got - 2010.06.03 11:33:40.
