data_PCOD9089171
_publ_section_title
;
Structure prediction by ZEFSAII (Michael W. Deem and Ramdas Pophale) SiO2 
 PCOD9089171
Probable space group: P -1
;
_chemical_formula_sum "Si O2"
_cell_formula_units_Z 14
_cell_length_a 8.752023
_cell_length_b 11.677106
_cell_length_c 16.700744
_cell_angle_alpha 48.443354
_cell_angle_beta 142.833205
_cell_angle_gamma 104.619627
_cell_volume 610.821641
_symmetry_space_group_name_H-M "P -1"
_symmetry_group_IT_number 2
_symmetry_cell_setting 'triclinic'
loop_
_space_group_symop_operation_xyz
x,y,z
-x,-y,-z
loop_
_atom_site_type_symbol
_atom_site_label
_atom_site_fract_x
_atom_site_fract_y
_atom_site_fract_z
Si Si1 0.415161 0.134732 0.772578
Si Si2 0.668802 0.279774 0.931652
Si Si3 0.608477 0.029283 0.615464
Si Si4 0.806510 0.301347 0.543070
Si Si5 0.183621 0.084967 0.560218
Si Si6 0.334854 0.480825 0.864159
Si Si7 0.783145 0.499540 0.586457
O O1 0.612785 0.139514 0.925563
O O2 0.453109 0.990402 0.786715
O O3 0.364633 0.301559 0.615580
O O4 0.104124 0.185155 0.663109
O O5 0.454473 0.487042 0.701903
O O6 0.558597 0.332686 0.954745
O O7 0.043289 0.170426 0.129669
O O8 0.657769 0.193148 0.551066
O O9 0.357184 0.084597 0.553995
O O10 0.500000 0.000000 0.500000
O O11 0.944005 0.334379 0.663496
O O12 0.887086 0.300868 0.363459
O O13 0.000000 0.000000 0.500000
O O14 0.057007 0.459825 0.777727
O O15 0.500000 0.500000 0.000000
O O16 0.500000 0.500000 0.500000
#
# Coordination Sequence:
#
# PCOD9089171 Si02
#       7
#     2   2   2   2   2   2   2
#     4  10  20  42  73  95 137 183 231 286 346 412
#     4  11  23  45  73 102 130 186 237 278 355 413
#     4  12  28  44  66 106 143 178 236 289 346 421
#     4  11  20  44  73  95 138 179 226 294 341 407
#     4  11  24  47  65  97 147 181 220 293 353 409
#     4  11  22  43  70  99 140 183 235 286 356 424
#     4  10  19  37  66 100 134 179 229 285 349 408
#
# _framework density 22.919947000000001
#
# number of rings (size 3 to 8) (size 9 to 14) (size 15 to 20)
#    0.000    1.143    4.286    4.286    0.000    1.714 
#   10.286    0.000    0.000    0.000    0.000    0.000 
#    0.000    0.000    0.000    0.000    0.000    0.000 
#
# Total GULP energy -78068.038776 kJ/mol
# GULP energy per Si atom -5576.288484 kJ/mol
# Density = 2.286778 g / cm^3
# Si number density = 22.919947 Si / 1000 Ang^3
#
#
#
# Elastic Constant Matrix: (Units=GPa)
#
#
# Indices 1 2 3 4 5 6 
#
# 1 124.3240 37.7708 25.8675 29.9437 11.4670 -1.5359
# 2 37.7708 128.7204 43.9790 50.1825 -7.6115 -6.7475
# 3 25.8675 43.9790 68.1268 27.6781 -3.2279 -5.6133
# 4 29.9437 50.1825 27.6781 56.4295 -2.9634 -7.9580
# 5 11.4670 -7.6115 -3.2279 -2.9634 24.4860 9.9207
# 6 -1.5359 -6.7475 -5.6133 -7.9580 9.9207 54.3015
#
#
#
# Elastic Compliance Matrix: (Units=1/GPa)
#
#
# Indices 1 2 3 4 5 6 
#
# 1 0.010265 -0.001304 -0.001823 -0.003641 -0.006105 0.000522
# 2 -0.001304 0.013272 -0.004358 -0.008903 0.003393 -0.000763
# 3 -0.001823 -0.004358 0.020313 -0.004974 0.001361 0.000529
# 4 -0.003641 -0.008903 -0.004974 0.030420 0.000924 0.002566
# 5 -0.006105 0.003393 0.001361 0.000924 0.048416 -0.008320
# 6 0.000522 -0.000763 0.000529 0.002566 -0.008320 0.020286
#
#
# Mechanical properties :
#
#
# Convention : Reuss Voigt Hill
#
# Bulk Modulus (GPa) = 34.62523 59.60065 47.11294
# Shear Modulus (GPa) = 29.83861 41.28033 35.55947
#
# Velocity S-wave (km/s) = 3.61205 4.24850 3.94314
# Velocity P-wave (km/s) = 5.70400 7.08002 6.42893
#
# Compressibility (1/GPa) = 0.02888067
#
# Stress axis : x y z
#
# Youngs Moduli (GPa) = 97.41578 75.34939 49.22974
#
# Poissons Ratio (x) = 0.09822 0.08976
# Poissons Ratio (y) = 0.12698 0.21452
# Poissons Ratio (z) = 0.17763 0.32834
#
# Static dielectric constant tensor:
#      x y z
#    x 2.411840 -0.130230 -0.257330 
#    y -0.130230 1.968160 0.051110 
#    z -0.257330 0.051110 2.005030 
# 
# From -- ./inp_files/262329.got.cif
#   From: 2010.05.17/outbox.cif.g08.bks.cpg/sg2_132_cif.got.tgz:262329.got - 2010.06.03 11:33:40.
