data_PCOD9089015
_publ_section_title
;
Structure prediction by ZEFSAII (Michael W. Deem and Ramdas Pophale) SiO2 
 PCOD9089015
Probable space group: P -1
;
_chemical_formula_sum "Si O2"
_cell_formula_units_Z 16
_cell_length_a 20.910652
_cell_length_b 7.965881
_cell_length_c 13.950525
_cell_angle_alpha 136.975480
_cell_angle_beta 156.691865
_cell_angle_gamma 47.185986
_cell_volume 627.065142
_symmetry_space_group_name_H-M "P -1"
_symmetry_group_IT_number 2
_symmetry_cell_setting 'triclinic'
loop_
_space_group_symop_operation_xyz
x,y,z
-x,-y,-z
loop_
_atom_site_type_symbol
_atom_site_label
_atom_site_fract_x
_atom_site_fract_y
_atom_site_fract_z
Si Si1 0.260689 0.317878 0.549193
Si Si2 0.958232 0.562441 0.859640
Si Si3 0.581278 0.186276 0.996856
Si Si4 0.271506 0.652491 0.243549
Si Si5 0.885810 0.019468 0.444254
Si Si6 0.456432 0.302697 0.497812
Si Si7 0.684248 0.194881 0.922386
Si Si8 0.929832 0.489440 0.270636
O O1 0.188457 0.285251 0.330105
O O2 0.377533 0.547394 0.793983
O O3 0.105384 0.398204 0.434302
O O4 0.390669 0.134427 0.703764
O O5 0.931264 0.279382 0.663909
O O6 0.000000 0.500000 0.000000
O O7 0.107360 0.733796 0.103504
O O8 0.697421 0.020471 0.154331
O O9 0.659487 0.190242 0.999705
O O10 0.372469 0.516545 0.409760
O O11 0.398365 0.794768 0.413509
O O12 0.187691 0.485944 0.975534
O O13 0.000000 0.000000 0.500000
O O14 0.921170 0.749259 0.422010
O O15 0.540282 0.348045 0.733219
O O16 0.332899 0.087510 0.248913
O O17 0.843039 0.296600 0.137140
#
# Coordination Sequence:
#
# PCOD9089015 Si02
#       8
#     2   2   2   2   2   2   2   2
#     4   9  20  38  59  90 126 175 206 260 340 389
#     4  10  21  35  64  94 131 171 215 267 327 393
#     4  10  20  36  63  87 127 169 208 268 329 384
#     4   9  17  34  61  83 125 171 211 262 322 386
#     4  11  19  39  66  97 122 175 222 262 324 397
#     4   9  19  34  54  92 124 165 212 269 322 377
#     4  10  21  33  59  92 128 160 219 275 317 380
#     4  10  19  37  64  94 121 165 226 267 315 390
#
# _framework density 25.515689999999999
#
# number of rings (size 3 to 8) (size 9 to 14) (size 15 to 20)
#    0.000    2.250    3.750    0.750    1.750    0.500 
#    0.000    0.000    8.250    9.750    0.000    0.000 
#    0.000    0.000    0.000    0.000    0.000    0.000 
#
# Total GULP energy -89154.084293 kJ/mol
# GULP energy per Si atom -5572.130268 kJ/mol
# Density = 2.545762 g / cm^3
# Si number density = 25.515690 Si / 1000 Ang^3
#
#
#
# Elastic Constant Matrix: (Units=GPa)
#
#
# Indices 1 2 3 4 5 6 
#
# 1 81.9688 33.7692 51.5546 -5.0845 1.9994 8.0201
# 2 33.7692 62.6001 48.2375 1.4504 13.4107 5.8368
# 3 51.5546 48.2375 148.0984 -34.3513 -4.7907 3.3240
# 4 -5.0845 1.4504 -34.3513 37.6449 14.2330 6.1875
# 5 1.9994 13.4107 -4.7907 14.2330 52.0560 1.1786
# 6 8.0201 5.8368 3.3240 6.1875 1.1786 34.5585
#
#
#
# Elastic Compliance Matrix: (Units=1/GPa)
#
#
# Indices 1 2 3 4 5 6 
#
# 1 0.017574 -0.006047 -0.004371 -0.001322 0.000897 -0.002431
# 2 -0.006047 0.027426 -0.008760 -0.007639 -0.005532 -0.000830
# 3 -0.004371 -0.008760 0.014109 0.012707 0.000275 -0.001147
# 4 -0.001322 -0.007639 0.012707 0.042553 -0.008289 -0.006961
# 5 0.000897 -0.005532 0.000275 -0.008289 0.022861 0.001404
# 6 -0.002431 -0.000830 -0.001147 -0.006961 0.001404 0.030950
#
#
# Mechanical properties :
#
#
# Convention : Reuss Voigt Hill
#
# Bulk Modulus (GPa) = 48.18632 62.19890 55.19261
# Shear Modulus (GPa) = 24.90695 35.45894 30.18294
#
# Velocity S-wave (km/s) = 3.12772 3.73190 3.44309
# Velocity P-wave (km/s) = 5.65415 6.55737 6.12244
#
# Compressibility (1/GPa) = 0.02075278
#
# Stress axis : x y z
#
# Youngs Moduli (GPa) = 56.90162 36.46137 70.87559
#
# Poissons Ratio (x) = 0.22048 0.30981
# Poissons Ratio (y) = 0.34408 0.62090
# Poissons Ratio (z) = 0.24873 0.31942
#
# Static dielectric constant tensor:
#      x y z
#    x 2.058040 -0.058160 -0.017700 
#    y -0.058160 2.287670 0.009340 
#    z -0.017700 0.009340 2.113100 
# 
# From -- ./inp_files/542428.got.cif
#   From: 2010.05.17/outbox.cif.g08.bks.cpg/sg2_272_cif.got.tgz:542428.got - 2010.06.03 11:33:40.
