data_PCOD9089826
_publ_section_title
;
Structure prediction by ZEFSAII (Michael W. Deem and Ramdas Pophale) SiO2 
 PCOD9089826
Probable space group: P -1
;
_chemical_formula_sum "Si O2"
_cell_formula_units_Z 16
_cell_length_a 5.419855
_cell_length_b 20.751335
_cell_length_c 14.622780
_cell_angle_alpha 41.436494
_cell_angle_beta 74.225831
_cell_angle_gamma 91.292403
_cell_volume 979.011347
_symmetry_space_group_name_H-M "P -1"
_symmetry_group_IT_number 2
_symmetry_cell_setting 'triclinic'
loop_
_space_group_symop_operation_xyz
x,y,z
-x,-y,-z
loop_
_atom_site_type_symbol
_atom_site_label
_atom_site_fract_x
_atom_site_fract_y
_atom_site_fract_z
Si Si1 0.185305 0.051811 0.724854
Si Si2 0.572503 0.226311 0.238746
Si Si3 0.869633 0.272985 0.509477
Si Si4 0.517699 0.032576 0.357109
Si Si5 0.435195 0.306878 0.420840
Si Si6 0.602317 0.049842 0.839233
Si Si7 0.312911 0.566687 0.922039
Si Si8 0.937610 0.168296 0.419518
O O1 0.320173 0.178732 0.564778
O O2 0.353156 0.022913 0.820782
O O3 0.865735 0.022761 0.809074
O O4 0.253045 0.997484 0.686929
O O5 0.572158 0.154509 0.228349
O O6 0.670899 0.350301 0.088183
O O7 0.776818 0.207061 0.315508
O O8 0.252380 0.189870 0.340563
O O9 0.675282 0.335694 0.439625
O O10 0.722728 0.176001 0.692925
O O11 0.910834 0.224719 0.456639
O O12 0.174143 0.334858 0.444813
O O13 0.500000 0.000000 0.500000
O O14 0.233831 0.955096 0.425041
O O15 0.553393 0.362299 0.255184
O O16 0.500000 0.000000 0.000000
O O17 0.500000 0.500000 0.000000
O O18 0.000000 0.500000 0.000000
#
# Coordination Sequence:
#
# PCOD9089826 Si02
#       8
#     2   2   2   2   2   2   2   2
#     4  10  20  33  51  69  98 131 161 197 241 271
#     4  11  22  32  44  66  94 121 170 200 226 279
#     4  10  16  28  50  60  93 118 157 187 234 265
#     4  10  20  30  49  73  96 128 166 203 225 280
#     4  10  17  31  45  64  85 120 162 190 229 277
#     4  10  20  31  47  70  98 132 163 189 234 290
#     4  12  22  32  46  61  89 129 166 206 243 272
#     4  11  17  31  47  67  92 122 159 196 229 269
#
# _framework density 16.343018000000001
#
# number of rings (size 3 to 8) (size 9 to 14) (size 15 to 20)
#    0.000    1.500    5.000    3.000    3.500    2.000 
#    0.000    0.000    0.000    0.000    0.000    0.000 
#    0.000    0.000    0.000   90.000    0.000    0.000 
#
# Total GULP energy -89161.342666 kJ/mol
# GULP energy per Si atom -5572.583917 kJ/mol
# Density = 1.630582 g / cm^3
# Si number density = 16.343018 Si / 1000 Ang^3
#
#
#
# Elastic Constant Matrix: (Units=GPa)
#
#
# Indices 1 2 3 4 5 6 
#
# 1 160.9701 28.6193 39.1316 3.2853 -1.1094 -15.7377
# 2 28.6193 53.8422 25.6817 -11.3560 -1.0569 -7.3667
# 3 39.1316 25.6817 69.0608 8.4385 3.2005 -6.5807
# 4 3.2853 -11.3560 8.4385 28.4816 2.2756 -0.9624
# 5 -1.1094 -1.0569 3.2005 2.2756 25.6956 0.0577
# 6 -15.7377 -7.3667 -6.5807 -0.9624 0.0577 13.7397
#
#
#
# Elastic Compliance Matrix: (Units=1/GPa)
#
#
# Indices 1 2 3 4 5 6 
#
# 1 0.007979 -0.001975 -0.003120 -0.000618 0.000692 0.006540
# 2 -0.001975 0.029323 -0.010821 0.015354 0.001088 0.009348
# 3 -0.003120 -0.010821 0.021653 -0.010170 -0.002377 0.000293
# 4 -0.000618 0.015354 -0.010170 0.044680 -0.002098 0.005792
# 5 0.000692 0.001088 -0.002377 -0.002098 0.039474 -0.000075
# 6 0.006540 0.009348 0.000293 0.005792 -0.000075 0.085830
#
#
# Mechanical properties :
#
#
# Convention : Reuss Voigt Hill
#
# Bulk Modulus (GPa) = 36.87008 52.30426 44.58717
# Shear Modulus (GPa) = 18.53151 26.27941 22.40546
#
# Velocity S-wave (km/s) = 3.37101 4.01433 3.70665
# Velocity P-wave (km/s) = 6.14498 7.31846 6.75724
#
# Compressibility (1/GPa) = 0.02712226
#
# Stress axis : x y z
#
# Youngs Moduli (GPa) = 125.33477 34.10334 46.18370
#
# Poissons Ratio (x) = 0.06734 0.14409
# Poissons Ratio (y) = 0.24750 0.49976
# Poissons Ratio (z) = 0.39105 0.36904
#
# Static dielectric constant tensor:
#      x y z
#    x 1.661990 -0.010920 0.004940 
#    y -0.010920 1.568100 -0.022250 
#    z 0.004940 -0.022250 1.570330 
# 
# From -- ./inp_files/96655.got.cif
#   From: 2010.05.17/outbox.cif.g08.bks.cpg/sg2_49_cif.got.tgz:96655.got - 2010.06.03 11:33:40.
