data_PCOD9089411
_publ_section_title
;
Structure prediction by ZEFSAII (Michael W. Deem and Ramdas Pophale) SiO2 
 PCOD9089411
Probable space group: P -1
;
_chemical_formula_sum "Si O2"
_cell_formula_units_Z 12
_cell_length_a 9.885077
_cell_length_b 13.788262
_cell_length_c 8.517224
_cell_angle_alpha 155.270526
_cell_angle_beta 105.795683
_cell_angle_gamma 74.892977
_cell_volume 467.039857
_symmetry_space_group_name_H-M "P -1"
_symmetry_group_IT_number 2
_symmetry_cell_setting 'triclinic'
loop_
_space_group_symop_operation_xyz
x,y,z
-x,-y,-z
loop_
_atom_site_type_symbol
_atom_site_label
_atom_site_fract_x
_atom_site_fract_y
_atom_site_fract_z
Si Si1 0.827801 0.634840 0.264228
Si Si2 0.059866 0.747267 0.703952
Si Si3 0.452379 0.306951 0.575069
Si Si4 0.608359 0.980704 0.360092
Si Si5 0.891064 0.073960 0.707202
Si Si6 0.678973 0.455032 0.659558
O O1 0.712954 0.701846 0.460320
O O2 0.970563 0.574206 0.313504
O O3 0.854967 0.855327 0.485577
O O4 0.763392 0.459593 0.860398
O O5 0.224095 0.704020 0.654174
O O6 0.046789 0.747687 0.887292
O O7 0.000000 0.000000 0.000000
O O8 0.522848 0.379153 0.541793
O O9 0.528957 0.073691 0.319052
O O10 0.500000 0.500000 0.000000
O O11 0.500000 0.000000 0.500000
O O12 0.741108 0.137204 0.674229
O O13 0.664671 0.716839 0.977282
O O14 0.000000 0.000000 0.500000
#
# Coordination Sequence:
#
# PCOD9089411 Si02
#       6
#     2   2   2   2   2   2
#     4   9  19  39  66  95 128 165 218 262 315 397
#     4  10  22  41  63  94 132 168 222 266 315 391
#     4  10  19  37  71  97 123 174 213 257 331 378
#     4  11  20  41  67  95 131 164 222 264 310 398
#     4  10  22  40  64  90 127 177 211 270 328 367
#     4  10  21  39  69  98 126 175 209 266 331 367
#
# _framework density 25.693739000000001
#
# number of rings (size 3 to 8) (size 9 to 14) (size 15 to 20)
#    0.000    2.000    5.000    0.500    4.667    0.000 
#    3.000    9.167    0.000    0.000    0.000    0.000 
#    0.000    0.000    0.000    0.000    0.000    0.000 
#
# Total GULP energy -67155.120749 kJ/mol
# GULP energy per Si atom -5596.260062 kJ/mol
# Density = 2.563526 g / cm^3
# Si number density = 25.693739 Si / 1000 Ang^3
#
#
#
# Elastic Constant Matrix: (Units=GPa)
#
#
# Indices 1 2 3 4 5 6 
#
# 1 155.3519 11.4766 19.7607 -7.4095 -20.5850 4.0230
# 2 11.4766 77.4770 20.2810 13.4588 -5.6328 2.3679
# 3 19.7607 20.2810 96.0535 -2.5468 -14.8625 2.1987
# 4 -7.4095 13.4588 -2.5468 41.8839 -7.1666 -1.3206
# 5 -20.5850 -5.6328 -14.8625 -7.1666 42.1676 1.0473
# 6 4.0230 2.3679 2.1987 -1.3206 1.0473 21.2085
#
#
#
# Elastic Compliance Matrix: (Units=1/GPa)
#
#
# Indices 1 2 3 4 5 6 
#
# 1 0.007193 -0.000969 -0.000642 0.002112 0.003545 -0.001233
# 2 -0.000969 0.014782 -0.003096 -0.005231 -0.000443 -0.001450
# 3 -0.000642 -0.003096 0.011872 0.002237 0.003858 -0.000814
# 4 0.002112 -0.005231 0.002237 0.027083 0.005690 0.001357
# 5 0.003545 -0.000443 0.003858 0.005690 0.027764 -0.002040
# 6 -0.001233 -0.001450 -0.000814 0.001357 -0.002040 0.047816
#
#
# Mechanical properties :
#
#
# Convention : Reuss Voigt Hill
#
# Bulk Modulus (GPa) = 40.92981 47.99100 44.46040
# Shear Modulus (GPa) = 32.45352 39.54296 35.99824
#
# Velocity S-wave (km/s) = 3.55785 3.92728 3.74712
# Velocity P-wave (km/s) = 5.73081 6.26764 6.00523
#
# Compressibility (1/GPa) = 0.02443207
#
# Stress axis : x y z
#
# Youngs Moduli (GPa) = 139.02963 67.65097 84.23518
#
# Poissons Ratio (x) = 0.06554 0.05411
# Poissons Ratio (y) = 0.13469 0.26077
# Poissons Ratio (z) = 0.08931 0.20943
#
# Static dielectric constant tensor:
#      x y z
#    x 2.066630 0.026930 0.115620 
#    y 0.026930 2.018340 0.016710 
#    z 0.115620 0.016710 2.123810 
# 
# From -- ./inp_files/194769.got.cif
#   From: 2010.05.17/outbox.cif.g08.bks.cpg/sg2_98_cif.got.tgz:194769.got - 2010.06.03 11:33:40.
