data_PCOD9089069
_publ_section_title
;
Structure prediction by ZEFSAII (Michael W. Deem and Ramdas Pophale) SiO2 
 PCOD9089069
Probable space group: P -1
;
_chemical_formula_sum "Si O2"
_cell_formula_units_Z 14
_cell_length_a 9.204008
_cell_length_b 29.436735
_cell_length_c 5.045280
_cell_angle_alpha 80.277855
_cell_angle_beta 80.088878
_cell_angle_gamma 25.847844
_cell_volume 586.760727
_symmetry_space_group_name_H-M "P -1"
_symmetry_group_IT_number 2
_symmetry_cell_setting 'triclinic'
loop_
_space_group_symop_operation_xyz
x,y,z
-x,-y,-z
loop_
_atom_site_type_symbol
_atom_site_label
_atom_site_fract_x
_atom_site_fract_y
_atom_site_fract_z
Si Si1 0.324831 0.411454 0.799926
Si Si2 0.254583 0.071455 0.755328
Si Si3 0.796434 0.014004 0.170761
Si Si4 0.418769 0.582260 0.005929
Si Si5 0.029237 0.415864 0.629528
Si Si6 0.646744 0.857399 0.309503
Si Si7 0.049393 0.654618 0.532379
O O1 0.213191 0.479793 0.546600
O O2 0.339835 0.357956 0.703908
O O3 0.593879 0.360652 0.954284
O O4 0.000000 0.500000 0.000000
O O5 0.129754 0.159353 0.691979
O O6 0.500000 0.000000 0.500000
O O7 0.047762 0.081450 0.814318
O O8 0.500000 0.000000 0.000000
O O9 0.668465 0.053489 0.474350
O O10 0.473930 0.105193 0.991082
O O11 0.000000 0.000000 0.000000
O O12 0.791630 0.468259 0.896759
O O13 0.167516 0.637307 0.801832
O O14 0.349956 0.574317 0.304423
O O15 0.106815 0.351494 0.476836
O O16 0.811606 0.762314 0.403608
#
# Coordination Sequence:
#
# PCOD9089069 Si02
#       7
#     2   2   2   2   2   2   2
#     4   9  20  37  60  78 110 150 217 239 282 342
#     4   8  16  32  58  80 106 143 180 217 270 346
#     4  10  19  37  65  84 110 150 194 230 273 364
#     4  11  22  38  57  86 108 160 206 241 278 346
#     4  10  21  38  59  84 111 161 206 239 290 342
#     4  10  21  38  55  90 118 147 183 237 307 337
#     4  12  24  35  60  85 124 148 190 257 293 336
#
# _framework density 23.859812000000002
#
# number of rings (size 3 to 8) (size 9 to 14) (size 15 to 20)
#    0.000    2.000    1.429    2.143    4.000    0.000 
#    0.000    1.429    6.286    0.000    0.000    0.000 
#    0.000    0.000    0.000    0.000    0.000    0.000 
#
# Total GULP energy -78050.152700 kJ/mol
# GULP energy per Si atom -5575.010907 kJ/mol
# Density = 2.380551 g / cm^3
# Si number density = 23.859812 Si / 1000 Ang^3
#
#
#
# Elastic Constant Matrix: (Units=GPa)
#
#
# Indices 1 2 3 4 5 6 
#
# 1 213.6214 41.9846 16.2601 -0.5280 23.6722 51.3387
# 2 41.9846 51.3076 2.0666 -1.7988 8.0153 36.0103
# 3 16.2601 2.0666 122.6578 1.6390 15.9541 5.8229
# 4 -0.5280 -1.7988 1.6390 22.9393 0.7168 -4.2268
# 5 23.6722 8.0153 15.9541 0.7168 52.9490 2.9216
# 6 51.3387 36.0103 5.8229 -4.2268 2.9216 37.6992
#
#
#
# Elastic Compliance Matrix: (Units=1/GPa)
#
#
# Indices 1 2 3 4 5 6 
#
# 1 0.007706 0.004526 0.000063 -0.002097 -0.003304 -0.014806
# 2 0.004526 0.065327 0.002833 -0.007440 -0.008850 -0.069150
# 3 0.000063 0.002833 0.008670 -0.001050 -0.002833 -0.004029
# 4 -0.002097 -0.007440 -0.001050 0.045807 0.000922 0.015189
# 5 -0.003304 -0.008850 -0.002833 0.000922 0.021893 0.011797
# 6 -0.014806 -0.069150 -0.004029 0.015189 0.011797 0.114151
#
#
# Mechanical properties :
#
#
# Convention : Reuss Voigt Hill
#
# Bulk Modulus (GPa) = 10.35771 56.46771 33.41271
# Shear Modulus (GPa) = 17.80029 44.53587 31.16808
#
# Velocity S-wave (km/s) = 2.73433 4.32506 3.61820
# Velocity P-wave (km/s) = 3.78408 6.97563 5.61153
#
# Compressibility (1/GPa) = 0.09654645
#
# Stress axis : x y z
#
# Youngs Moduli (GPa) = 129.76737 15.30755 115.33415
#
# Poissons Ratio (x) = -0.06928 -0.00725
# Poissons Ratio (y) = -0.58731 -0.32670
# Poissons Ratio (z) = -0.00815 -0.04336
#
# Static dielectric constant tensor:
#      x y z
#    x 2.124190 0.069600 -0.096000 
#    y 0.069600 1.986770 -0.046650 
#    z -0.096000 -0.046650 2.032530 
# 
# From -- ./inp_files/56165.got.cif
#   From: 2010.05.17/outbox.cif.g08.bks.cpg/sg2_29_cif.got.tgz:56165.got - 2010.06.03 11:33:40.
