data_PCOD9089455
_publ_section_title
;
Structure prediction by ZEFSAII (Michael W. Deem and Ramdas Pophale) SiO2 
 PCOD9089455
Probable space group: P -1
;
_chemical_formula_sum "Si O2"
_cell_formula_units_Z 16
_cell_length_a 7.511013
_cell_length_b 16.786503
_cell_length_c 8.002352
_cell_angle_alpha 114.004305
_cell_angle_beta 52.872091
_cell_angle_gamma 82.894329
_cell_volume 633.427359
_symmetry_space_group_name_H-M "P -1"
_symmetry_group_IT_number 2
_symmetry_cell_setting 'triclinic'
loop_
_space_group_symop_operation_xyz
x,y,z
-x,-y,-z
loop_
_atom_site_type_symbol
_atom_site_label
_atom_site_fract_x
_atom_site_fract_y
_atom_site_fract_z
Si Si1 0.802944 0.659388 0.121873
Si Si2 0.392106 0.062349 0.444870
Si Si3 0.957832 0.236997 0.055976
Si Si4 0.041020 0.876947 0.475572
Si Si5 0.517688 0.288519 0.119123
Si Si6 0.003069 0.320411 0.609426
Si Si7 0.233657 0.476282 0.220125
Si Si8 0.257857 0.857288 0.667988
O O1 0.814447 0.559947 0.962395
O O2 0.926773 0.690462 0.922593
O O3 0.952284 0.652568 0.203047
O O4 0.505694 0.748254 0.387826
O O5 0.231497 0.040271 0.380492
O O6 0.610251 0.084989 0.270663
O O7 0.500000 0.000000 0.500000
O O8 0.153994 0.166292 0.741116
O O9 0.672595 0.299272 0.195306
O O10 0.938993 0.164758 0.139593
O O11 0.012328 0.780964 0.467662
O O12 0.122963 0.914280 0.622974
O O13 0.288732 0.820419 0.164889
O O14 0.263749 0.294835 0.341012
O O15 0.462879 0.377392 0.095910
O O16 0.778754 0.418401 0.722256
O O17 0.000000 0.500000 0.500000
#
# Coordination Sequence:
#
# PCOD9089455 Si02
#       8
#     2   2   2   2   2   2   2   2
#     4  11  20  40  56  85 125 162 210 258 298 350
#     4  10  23  44  65  94 129 150 193 258 305 369
#     4  10  21  39  64  86 119 164 204 242 306 367
#     4  11  22  39  66  90 119 166 201 240 312 370
#     4  10  19  38  56  83 120 160 207 249 298 355
#     4  11  21  38  57  84 125 162 208 258 304 346
#     4  10  23  35  55  87 125 163 209 266 295 343
#     4  11  22  39  66  93 118 165 205 244 305 368
#
# _framework density 25.259408000000001
#
# number of rings (size 3 to 8) (size 9 to 14) (size 15 to 20)
#    0.000    1.500    6.250    0.375    3.500    1.500 
#    0.000    3.125    0.000    0.000    0.000    0.000 
#    0.000    0.000    0.000    0.000    0.000    0.000 
#
# Total GULP energy -89394.224972 kJ/mol
# GULP energy per Si atom -5587.139061 kJ/mol
# Density = 2.520192 g / cm^3
# Si number density = 25.259408 Si / 1000 Ang^3
#
#
#
# Elastic Constant Matrix: (Units=GPa)
#
#
# Indices 1 2 3 4 5 6 
#
# 1 68.9028 17.8118 21.9130 2.6679 -1.9778 -22.3073
# 2 17.8118 126.8567 22.0876 -2.6048 -10.8888 -5.4521
# 3 21.9130 22.0876 66.7461 -18.2892 -10.5624 13.7620
# 4 2.6679 -2.6048 -18.2892 40.5397 -1.0554 -9.4114
# 5 -1.9778 -10.8888 -10.5624 -1.0554 20.1844 -9.3468
# 6 -22.3073 -5.4521 13.7620 -9.4114 -9.3468 44.9949
#
#
#
# Elastic Compliance Matrix: (Units=1/GPa)
#
#
# Indices 1 2 3 4 5 6 
#
# 1 0.022988 -0.000539 -0.010708 -0.002908 0.002974 0.014616
# 2 -0.000539 0.008911 -0.002517 0.000194 0.004646 0.002588
# 3 -0.010708 -0.002517 0.025089 0.009745 0.006664 -0.009865
# 4 -0.002908 0.000194 0.009745 0.030327 0.008194 0.003647
# 5 0.002974 0.004646 0.006664 0.008194 0.063122 0.014826
# 6 0.014616 0.002588 -0.009865 0.003647 0.014826 0.036645
#
#
# Mechanical properties :
#
#
# Convention : Reuss Voigt Hill
#
# Bulk Modulus (GPa) = 33.94530 42.90337 38.42434
# Shear Modulus (GPa) = 22.27853 34.52334 28.40094
#
# Velocity S-wave (km/s) = 2.97305 3.70097 3.35680
# Velocity P-wave (km/s) = 5.02526 5.94011 5.50173
#
# Compressibility (1/GPa) = 0.02945916
#
# Stress axis : x y z
#
# Youngs Moduli (GPa) = 43.50045 112.22283 39.85749
#
# Poissons Ratio (x) = 0.06054 0.42681
# Poissons Ratio (y) = 0.02347 0.10031
# Poissons Ratio (z) = 0.46582 0.28244
#
# Static dielectric constant tensor:
#      x y z
#    x 2.084160 -0.047640 -0.014380 
#    y -0.047640 2.091610 -0.024600 
#    z -0.014380 -0.024600 1.988380 
# 
# From -- ./inp_files/215048.got.cif
#   From: 2010.05.17/outbox.cif.g08.bks.cpg/sg2_108_cif.got.tgz:215048.got - 2010.06.03 11:33:40.
