data_PCOD9089926
_publ_section_title
;
Structure prediction by ZEFSAII (Michael W. Deem and Ramdas Pophale) SiO2 
 PCOD9089926
Probable space group: P -1
;
_chemical_formula_sum "Si O2"
_cell_formula_units_Z 14
_cell_length_a 13.983799
_cell_length_b 8.069118
_cell_length_c 14.769406
_cell_angle_alpha 57.171912
_cell_angle_beta 40.543117
_cell_angle_gamma 35.377008
_cell_volume 613.731740
_symmetry_space_group_name_H-M "P -1"
_symmetry_group_IT_number 2
_symmetry_cell_setting 'triclinic'
loop_
_space_group_symop_operation_xyz
x,y,z
-x,-y,-z
loop_
_atom_site_type_symbol
_atom_site_label
_atom_site_fract_x
_atom_site_fract_y
_atom_site_fract_z
Si Si1 0.817246 0.019481 0.144426
Si Si2 0.305926 0.814181 0.623539
Si Si3 0.367691 0.478333 0.253926
Si Si4 0.424747 0.815669 0.351644
Si Si5 0.706831 0.885612 0.099677
Si Si6 0.014583 0.747866 0.565435
Si Si7 0.043927 0.137888 0.226963
O O1 0.804776 0.980288 0.270445
O O2 0.581837 0.344531 0.190922
O O3 0.826312 0.830124 0.123581
O O4 0.000000 0.000000 0.000000
O O5 0.372329 0.896699 0.471893
O O6 0.512029 0.478538 0.606891
O O7 0.142151 0.815159 0.697260
O O8 0.476690 0.233214 0.171534
O O9 0.229780 0.794288 0.221275
O O10 0.215421 0.507787 0.424704
O O11 0.633187 0.734079 0.195394
O O12 0.215395 0.081967 0.364764
O O13 0.848610 0.823873 0.934069
O O14 0.030332 0.683682 0.679224
O O15 0.000000 0.000000 0.500000
#
# Coordination Sequence:
#
# PCOD9089926 Si02
#       7
#     2   2   2   2   2   2   2
#     4  10  21  40  62  90 122 163 203 249 303 367
#     4  11  21  38  68  83 119 172 204 237 311 370
#     4   9  20  38  65  86 123 158 202 251 297 366
#     4  11  24  39  63  92 123 160 206 254 300 361
#     4  10  24  39  62  94 127 151 208 260 301 351
#     4  10  19  38  62  92 119 161 204 246 296 374
#     4  11  20  39  66  90 119 165 204 244 310 364
#
# _framework density 22.811268999999999
#
# number of rings (size 3 to 8) (size 9 to 14) (size 15 to 20)
#    0.857    0.857    4.286    2.143    2.000    2.286 
#    0.000    0.000    0.000    0.000    0.000    0.000 
#    0.000    0.000    0.000    0.000    0.000    0.000 
#
# Total GULP energy -78153.119977 kJ/mol
# GULP energy per Si atom -5582.365713 kJ/mol
# Density = 2.275935 g / cm^3
# Si number density = 22.811269 Si / 1000 Ang^3
#
#
#
# Elastic Constant Matrix: (Units=GPa)
#
#
# Indices 1 2 3 4 5 6 
#
# 1 87.1590 15.3712 58.1360 -1.0114 -1.9975 -20.9462
# 2 15.3712 67.2280 22.5671 15.3714 -2.8583 -6.6214
# 3 58.1360 22.5671 172.2385 2.3461 21.1397 -2.1782
# 4 -1.0114 15.3714 2.3461 26.5198 -5.4049 -6.9123
# 5 -1.9975 -2.8583 21.1397 -5.4049 46.3303 5.9253
# 6 -20.9462 -6.6214 -2.1782 -6.9123 5.9253 25.8690
#
#
#
# Elastic Compliance Matrix: (Units=1/GPa)
#
#
# Indices 1 2 3 4 5 6 
#
# 1 0.020762 -0.002417 -0.006903 0.007792 0.002618 0.017094
# 2 -0.002417 0.018341 -0.001512 -0.010569 0.000527 -0.000334
# 3 -0.006903 -0.001512 0.008799 -0.002270 -0.004042 -0.004916
# 4 0.007792 -0.010569 -0.002270 0.049301 0.004481 0.015560
# 5 0.002618 0.000527 -0.004042 0.004481 0.024414 -0.002480
# 6 0.017094 -0.000334 -0.004916 0.015560 -0.002480 0.056723
#
#
# Mechanical properties :
#
#
# Convention : Reuss Voigt Hill
#
# Bulk Modulus (GPa) = 38.11208 57.64156 47.87682
# Shear Modulus (GPa) = 23.95227 35.11391 29.53309
#
# Velocity S-wave (km/s) = 3.24392 3.92768 3.60206
# Velocity P-wave (km/s) = 5.54748 6.77441 6.19141
#
# Compressibility (1/GPa) = 0.02623840
#
# Stress axis : x y z
#
# Youngs Moduli (GPa) = 48.16506 54.52262 113.65355
#
# Poissons Ratio (x) = 0.13177 0.78449
# Poissons Ratio (y) = 0.11641 0.17188
# Poissons Ratio (z) = 0.33246 0.08245
#
# Static dielectric constant tensor:
#      x y z
#    x 1.887880 -0.011160 0.044600 
#    y -0.011160 1.903550 0.027420 
#    z 0.044600 0.027420 1.850310 
# 
# From -- ./inp_files/296287.got.cif
#   From: 2010.05.17/outbox.cif.g08.bks.cpg/sg2_149_cif.got.tgz:296287.got - 2010.06.03 11:33:40.
