data_PCOD9089319
_publ_section_title
;
Structure prediction by ZEFSAII (Michael W. Deem and Ramdas Pophale) SiO2 
 PCOD9089319
Probable space group: P -1
;
_chemical_formula_sum "Si O2"
_cell_formula_units_Z 14
_cell_length_a 6.954408
_cell_length_b 5.231238
_cell_length_c 14.661344
_cell_angle_alpha 89.752802
_cell_angle_beta 78.292842
_cell_angle_gamma 78.595897
_cell_volume 511.618556
_symmetry_space_group_name_H-M "P -1"
_symmetry_group_IT_number 2
_symmetry_cell_setting 'triclinic'
loop_
_space_group_symop_operation_xyz
x,y,z
-x,-y,-z
loop_
_atom_site_type_symbol
_atom_site_label
_atom_site_fract_x
_atom_site_fract_y
_atom_site_fract_z
Si Si1 0.118437 0.027109 0.179160
Si Si2 0.196100 0.658106 0.678468
Si Si3 0.835790 0.783594 0.575788
Si Si4 0.333079 0.115011 0.590459
Si Si5 0.458009 0.329601 0.135733
Si Si6 0.705123 0.316764 0.687937
Si Si7 0.165676 0.664504 0.013614
O O1 0.114174 0.803949 0.256514
O O2 0.084584 0.915718 0.084305
O O3 0.956979 0.282812 0.222706
O O4 0.340618 0.094860 0.166542
O O5 0.047606 0.721616 0.605944
O O6 0.331881 0.379430 0.644930
O O7 0.314923 0.890259 0.662713
O O8 0.848337 0.811362 0.466368
O O9 0.742382 0.536602 0.613756
O O10 0.708694 0.050570 0.632119
O O11 0.500000 0.000000 0.500000
O O12 0.446958 0.518897 0.223657
O O13 0.317194 0.480711 0.069317
O O14 0.682755 0.263672 0.077060
O O15 0.000000 0.500000 0.000000
#
# Coordination Sequence:
#
# PCOD9089319 Si02
#       7
#     2   2   2   2   2   2   2
#     4  10  21  40  72 100 139 182 242 294 358 415
#     4  11  22  41  71  94 131 183 241 287 345 424
#     4  11  21  40  69  98 128 176 241 285 341 419
#     4  12  26  43  63  98 143 180 229 293 362 416
#     4  10  20  42  69 100 147 184 234 294 353 423
#     4  10  19  37  68 100 133 172 234 293 341 411
#     4  10  23  41  68 106 144 186 236 289 360 430
#
# _framework density 27.364134
#
# number of rings (size 3 to 8) (size 9 to 14) (size 15 to 20)
#    0.000    1.429    2.857    4.286    2.000    0.571 
#    2.571    1.429    0.000    0.000    0.000    0.000 
#    0.000    0.000    0.000    0.000    0.000    0.000 
#
# Total GULP energy -78393.999412 kJ/mol
# GULP energy per Si atom -5599.571387 kJ/mol
# Density = 2.730185 g / cm^3
# Si number density = 27.364134 Si / 1000 Ang^3
#
#
#
# Elastic Constant Matrix: (Units=GPa)
#
#
# Indices 1 2 3 4 5 6 
#
# 1 122.7719 71.6917 55.7018 22.6105 -12.0699 16.0214
# 2 71.6917 242.9397 80.2969 40.8551 -28.9779 16.4954
# 3 55.7018 80.2969 140.7819 36.6527 -4.1066 15.4813
# 4 22.6105 40.8551 36.6527 59.0722 1.1816 2.5861
# 5 -12.0699 -28.9779 -4.1066 1.1816 57.3423 6.1407
# 6 16.0214 16.4954 15.4813 2.5861 6.1407 54.9979
#
#
#
# Elastic Compliance Matrix: (Units=1/GPa)
#
#
# Indices 1 2 3 4 5 6 
#
# 1 0.011105 -0.001855 -0.002762 -0.001195 0.001442 -0.002006
# 2 -0.001855 0.006079 -0.001956 -0.002294 0.002688 -0.000925
# 3 -0.002762 -0.001956 0.010486 -0.004027 -0.000596 -0.001305
# 4 -0.001195 -0.002294 -0.004027 0.021455 -0.002293 0.001417
# 5 0.001442 0.002688 -0.000596 -0.002293 0.019440 -0.003121
# 6 -0.002006 -0.000925 -0.001305 0.001417 -0.003121 0.019693
#
#
# Mechanical properties :
#
#
# Convention : Reuss Voigt Hill
#
# Bulk Modulus (GPa) = 68.85029 102.43049 85.64039
# Shear Modulus (GPa) = 47.06013 54.20269 50.63141
#
# Velocity S-wave (km/s) = 4.15151 4.45544 4.30616
# Velocity P-wave (km/s) = 6.94230 7.99885 7.48923
#
# Compressibility (1/GPa) = 0.01452427
#
# Stress axis : x y z
#
# Youngs Moduli (GPa) = 90.04814 164.48872 95.36223
#
# Poissons Ratio (x) = 0.30515 0.26340
# Poissons Ratio (y) = 0.16705 0.18654
# Poissons Ratio (z) = 0.24872 0.32176
#
# Static dielectric constant tensor:
#      x y z
#    x 2.349300 -0.044910 0.015430 
#    y -0.044910 2.150730 -0.036770 
#    z 0.015430 -0.036770 2.097470 
# 
# From -- ./inp_files/545908.got.cif
#   From: 2010.05.17/outbox.cif.g08.bks.cpg/sg2_273_cif.got.tgz:545908.got - 2010.06.03 11:33:40.
