data_PCOD9089104
_publ_section_title
;
Structure prediction by ZEFSAII (Michael W. Deem and Ramdas Pophale) SiO2 
 PCOD9089104
Probable space group: P -1
;
_chemical_formula_sum "Si O2"
_cell_formula_units_Z 16
_cell_length_a 10.058690
_cell_length_b 9.744925
_cell_length_c 15.068477
_cell_angle_alpha 38.066691
_cell_angle_beta 113.635859
_cell_angle_gamma 128.984497
_cell_volume 694.046456
_symmetry_space_group_name_H-M "P -1"
_symmetry_group_IT_number 2
_symmetry_cell_setting 'triclinic'
loop_
_space_group_symop_operation_xyz
x,y,z
-x,-y,-z
loop_
_atom_site_type_symbol
_atom_site_label
_atom_site_fract_x
_atom_site_fract_y
_atom_site_fract_z
Si Si1 0.884779 0.328304 0.472949
Si Si2 0.231958 0.134514 0.565183
Si Si3 0.242739 0.622135 0.332965
Si Si4 0.149914 0.170188 0.320962
Si Si5 0.548839 0.120099 0.220921
Si Si6 0.767834 0.575967 0.174827
Si Si7 0.141538 0.853994 0.036696
Si Si8 0.343123 0.777644 0.007784
O O1 0.777787 0.426801 0.341586
O O2 0.000000 0.500000 0.500000
O O3 0.040969 0.411005 0.404299
O O4 0.803622 0.017204 0.623237
O O5 0.322027 0.445574 0.457209
O O6 0.187249 0.149733 0.443841
O O7 0.343799 0.008019 0.658034
O O8 0.057435 0.950232 0.671480
O O9 0.231897 0.735883 0.178536
O O10 0.345695 0.880082 0.291872
O O11 0.267917 0.472514 0.166996
O O12 0.609974 0.368369 0.175063
O O13 0.597164 0.185660 0.096778
O O14 0.941957 0.693471 0.099479
O O15 0.774185 0.836306 0.075248
O O16 0.185567 0.818303 0.966754
O O17 0.500000 0.000000 0.000000
#
# Coordination Sequence:
#
# PCOD9089104 Si02
#       8
#     2   2   2   2   2   2   2   2
#     4  10  22  43  66  90 124 170 219 259 316 386
#     4  10  19  37  65  91 118 166 214 258 313 377
#     4  10  21  39  64  90 128 168 203 262 334 372
#     4  10  20  38  65  88 125 165 213 262 314 369
#     4  12  23  38  65 100 125 165 213 266 322 384
#     4  10  23  40  65  93 125 173 218 258 315 388
#     4  10  21  42  62  88 136 171 211 260 318 383
#     4  12  24  40  62  99 134 166 212 269 324 374
#
# _framework density 23.053211999999998
#
# number of rings (size 3 to 8) (size 9 to 14) (size 15 to 20)
#    0.000    1.500    3.750    1.125    0.000    7.500 
#    2.250    0.625    0.000    0.000    0.000    0.000 
#    0.000    0.000    0.000    0.000    0.000    0.000 
#
# Total GULP energy -89256.687626 kJ/mol
# GULP energy per Si atom -5578.542977 kJ/mol
# Density = 2.300074 g / cm^3
# Si number density = 23.053212 Si / 1000 Ang^3
#
#
#
# Elastic Constant Matrix: (Units=GPa)
#
#
# Indices 1 2 3 4 5 6 
#
# 1 27.3632 -8.4436 38.6943 -2.5156 -5.4211 -5.0673
# 2 -8.4436 118.1384 52.4917 -27.0121 -6.7462 -12.5141
# 3 38.6943 52.4917 86.5356 -31.2777 15.5529 -9.3080
# 4 -2.5156 -27.0121 -31.2777 43.8436 2.0082 3.7502
# 5 -5.4211 -6.7462 15.5529 2.0082 9.8551 -2.7107
# 6 -5.0673 -12.5141 -9.3080 3.7502 -2.7107 29.0572
#
#
#
# Elastic Compliance Matrix: (Units=1/GPa)
#
#
# Indices 1 2 3 4 5 6 
#
# 1 -0.006287 -0.010679 0.021328 0.010877 -0.047948 -0.004740
# 2 -0.010679 0.005634 0.007269 0.008709 -0.015166 0.000354
# 3 0.021328 0.007269 -0.008158 -0.002232 0.032106 0.007520
# 4 0.010877 0.008709 -0.002232 0.026498 0.010759 0.002516
# 5 -0.047948 -0.015166 0.032106 0.010759 0.010471 -0.005020
# 6 -0.004740 0.000354 0.007520 0.002516 -0.005020 0.035356
#
#
# Mechanical properties :
#
#
# Convention : Reuss Voigt Hill
#
# Bulk Modulus (GPa) = 37.00300 44.16911 40.58605
# Shear Modulus (GPa) = 136.28934 26.50414 81.39674
#
# Velocity S-wave (km/s) = 7.69726 3.39439 5.94852
# Velocity P-wave (km/s) = 9.75105 5.87910 8.05130
#
# Compressibility (1/GPa) = 0.02702484
#
# Stress axis : x y z
#
# Youngs Moduli (GPa) = -159.06186 177.48624 -122.57323
#
# Poissons Ratio (x) = 1.89539 2.61424
# Poissons Ratio (y) = -1.69863 0.89098
# Poissons Ratio (z) = 3.39247 -1.29015
#
# Static dielectric constant tensor:
#      x y z
#    x 2.673270 0.064730 0.212070 
#    y 0.064730 1.942080 0.019210 
#    z 0.212070 0.019210 1.963140 
# 
# From -- ./inp_files/207942.got.cif
#   From: 2010.05.17/outbox.cif.g08.bks.cpg/sg2_104_cif.got.tgz:207942.got - 2010.06.03 11:33:40.
