data_PCOD9089291
_publ_section_title
;
Structure prediction by ZEFSAII (Michael W. Deem and Ramdas Pophale) SiO2 
 PCOD9089291
Probable space group: P -1
;
_chemical_formula_sum "Si O2"
_cell_formula_units_Z 14
_cell_length_a 9.137468
_cell_length_b 17.738393
_cell_length_c 12.421082
_cell_angle_alpha 34.132496
_cell_angle_beta 146.982969
_cell_angle_gamma 149.140996
_cell_volume 519.025024
_symmetry_space_group_name_H-M "P -1"
_symmetry_group_IT_number 2
_symmetry_cell_setting 'triclinic'
loop_
_space_group_symop_operation_xyz
x,y,z
-x,-y,-z
loop_
_atom_site_type_symbol
_atom_site_label
_atom_site_fract_x
_atom_site_fract_y
_atom_site_fract_z
Si Si1 0.534054 0.706176 0.309232
Si Si2 0.654963 0.573581 0.328541
Si Si3 0.583093 0.262097 0.159823
Si Si4 0.688097 0.052334 0.324028
Si Si5 0.653773 0.305852 0.394996
Si Si6 0.899491 0.051882 0.072838
Si Si7 0.943138 0.725483 0.895683
O O1 0.683663 0.666118 0.348561
O O2 0.491598 0.603862 0.508685
O O3 0.758691 0.894034 0.244763
O O4 0.184900 0.665763 0.103544
O O5 0.445411 0.614759 0.077322
O O6 0.999303 0.635526 0.414976
O O7 0.748292 0.184443 0.292681
O O8 0.714078 0.334544 0.271277
O O9 0.225375 0.112920 0.139696
O O10 0.954131 0.143403 0.289731
O O11 0.584654 0.884310 0.511335
O O12 0.369342 0.001042 0.119619
O O13 0.442283 0.375202 0.220976
O O14 0.957257 0.191625 0.022798
#
# Coordination Sequence:
#
# PCOD9089291 Si02
#       7
#     2   2   2   2   2   2   2
#     4  10  21  39  67  90 126 171 206 255 314 372
#     4  11  22  42  67  89 127 173 206 252 314 375
#     4  11  21  39  67  96 126 160 214 264 303 369
#     4  11  18  36  63  93 128 161 206 264 309 362
#     4  11  24  37  63  97 127 163 211 256 315 373
#     4  10  19  37  67  94 122 161 209 260 312 363
#     4  10  22  39  65  96 129 158 212 264 313 368
#
# _framework density 26.973651
#
# number of rings (size 3 to 8) (size 9 to 14) (size 15 to 20)
#    0.000    1.429    4.286    3.857    0.000    1.714 
#    0.000    7.143   18.857    0.000    0.000    0.000 
#    0.000    0.000    0.000    0.000    0.000    0.000 
#
# Total GULP energy -78484.884464 kJ/mol
# GULP energy per Si atom -5606.063176 kJ/mol
# Density = 2.691226 g / cm^3
# Si number density = 26.973651 Si / 1000 Ang^3
#
#
#
# Elastic Constant Matrix: (Units=GPa)
#
#
# Indices 1 2 3 4 5 6 
#
# 1 133.7514 16.2403 31.3434 0.8540 17.0016 15.4120
# 2 16.2403 70.6266 20.1123 -0.1133 7.4228 15.7704
# 3 31.3434 20.1123 134.1416 -16.5802 -5.1380 19.9081
# 4 0.8540 -0.1133 -16.5802 44.9136 13.6046 -5.2803
# 5 17.0016 7.4228 -5.1380 13.6046 57.9365 7.1953
# 6 15.4120 15.7704 19.9081 -5.2803 7.1953 31.6598
#
#
#
# Elastic Compliance Matrix: (Units=1/GPa)
#
#
# Indices 1 2 3 4 5 6 
#
# 1 0.008500 -0.000740 -0.001666 -0.000391 -0.002171 -0.002293
# 2 -0.000740 0.016359 -0.001421 -0.000996 -0.000920 -0.006852
# 3 -0.001666 -0.001421 0.009017 0.002456 0.001398 -0.004059
# 4 -0.000391 -0.000996 0.002456 0.025605 -0.006150 0.004810
# 5 -0.002171 -0.000920 0.001398 -0.006150 0.020202 -0.004981
# 6 -0.002293 -0.006852 -0.004059 0.004810 -0.004981 0.040602
#
#
# Mechanical properties :
#
#
# Convention : Reuss Voigt Hill
#
# Bulk Modulus (GPa) = 38.13948 52.65684 45.39816
# Shear Modulus (GPa) = 36.58209 44.95688 40.76949
#
# Velocity S-wave (km/s) = 3.68668 4.08695 3.89196
# Velocity P-wave (km/s) = 5.68264 6.46798 6.08799
#
# Compressibility (1/GPa) = 0.02621955
#
# Stress axis : x y z
#
# Youngs Moduli (GPa) = 117.65375 61.12862 110.90524
#
# Poissons Ratio (x) = 0.04526 0.18478
# Poissons Ratio (y) = 0.08712 0.15762
# Poissons Ratio (z) = 0.19602 0.08688
#
# Static dielectric constant tensor:
#      x y z
#    x 2.004110 -0.002720 0.013740 
#    y -0.002720 2.095320 -0.002510 
#    z 0.013740 -0.002510 2.134080 
# 
# From -- ./inp_files/402901.got.cif
#   From: 2010.05.17/outbox.cif.g08.bks.cpg/sg2_202_cif.got.tgz:402901.got - 2010.06.03 11:33:40.
