data_PCOD9089692
_publ_section_title
;
Structure prediction by ZEFSAII (Michael W. Deem and Ramdas Pophale) SiO2 
 PCOD9089692
Probable space group: P -1
;
_chemical_formula_sum "Si O2"
_cell_formula_units_Z 16
_cell_length_a 31.035397
_cell_length_b 11.395945
_cell_length_c 8.960619
_cell_angle_alpha 131.385368
_cell_angle_beta 48.127709
_cell_angle_gamma 161.264107
_cell_volume 752.407229
_symmetry_space_group_name_H-M "P -1"
_symmetry_group_IT_number 2
_symmetry_cell_setting 'triclinic'
loop_
_space_group_symop_operation_xyz
x,y,z
-x,-y,-z
loop_
_atom_site_type_symbol
_atom_site_label
_atom_site_fract_x
_atom_site_fract_y
_atom_site_fract_z
Si Si1 0.874996 0.505181 0.662726
Si Si2 0.103277 0.895501 0.585288
Si Si3 0.398128 0.160501 0.796640
Si Si4 0.379880 0.598852 0.016416
Si Si5 0.299209 0.113010 0.241875
Si Si6 0.654372 0.844238 0.381993
Si Si7 0.798946 0.673986 0.016344
Si Si8 0.546943 0.000926 0.259927
O O1 0.032994 0.840873 0.584378
O O2 0.809089 0.276144 0.774809
O O3 0.777299 0.182563 0.495655
O O4 0.857606 0.647369 0.825670
O O5 0.000000 0.500000 0.500000
O O6 0.242613 0.148532 0.429644
O O7 0.108464 0.987526 0.812664
O O8 0.559013 0.568382 0.732069
O O9 0.322918 0.982163 0.664192
O O10 0.400827 0.023726 0.790941
O O11 0.339878 0.165444 0.025675
O O12 0.357313 0.367376 0.813183
O O13 0.247867 0.366317 0.065379
O O14 0.500000 0.000000 0.000000
O O15 0.422904 0.690021 0.166108
O O16 0.500000 0.500000 0.500000
O O17 0.671518 0.347764 0.153001
O O18 0.500000 0.000000 0.500000
#
# Coordination Sequence:
#
# PCOD9089692 Si02
#       8
#     2   2   2   2   2   2   2   2
#     4  11  22  40  62  93 124 167 215 257 311 372
#     4  10  22  39  66  91 121 168 217 258 309 376
#     4  11  22  36  64  92 130 164 205 259 322 371
#     4  10  22  36  55  90 127 164 202 258 313 365
#     4  10  19  38  60  91 123 161 209 255 307 375
#     4  12  23  37  63  93 130 164 210 262 315 379
#     4  11  22  40  61  90 129 160 215 264 307 375
#     4  11  23  36  59  95 132 168 200 258 327 379
#
# _framework density 21.265080000000001
#
# number of rings (size 3 to 8) (size 9 to 14) (size 15 to 20)
#    0.000    1.250    2.500    5.625    5.250    0.000 
#    0.000    0.625    0.000    5.250    0.000    0.000 
#    0.000    0.000    0.000    0.000    0.000    0.000 
#
# Total GULP energy -89133.211904 kJ/mol
# GULP energy per Si atom -5570.825744 kJ/mol
# Density = 2.121668 g / cm^3
# Si number density = 21.265080 Si / 1000 Ang^3
#
#
#
# Elastic Constant Matrix: (Units=GPa)
#
#
# Indices 1 2 3 4 5 6 
#
# 1 140.6518 21.2464 65.7081 6.1070 -6.1682 17.0327
# 2 21.2464 27.1860 21.6426 16.2147 2.6472 9.9530
# 3 65.7081 21.6426 131.4402 17.5812 -20.1715 25.6773
# 4 6.1070 16.2147 17.5812 35.5619 4.5577 -1.0247
# 5 -6.1682 2.6472 -20.1715 4.5577 40.0407 1.6594
# 6 17.0327 9.9530 25.6773 -1.0247 1.6594 33.8102
#
#
#
# Elastic Compliance Matrix: (Units=1/GPa)
#
#
# Indices 1 2 3 4 5 6 
#
# 1 0.009991 -0.006367 -0.004658 0.003610 -0.000819 0.000528
# 2 -0.006367 0.065682 -0.000923 -0.028627 -0.001858 -0.016204
# 3 -0.004658 -0.000923 0.013775 -0.006781 0.007403 -0.008412
# 4 0.003610 -0.028627 -0.006781 0.045147 -0.006664 0.013454
# 5 -0.000819 -0.001858 0.007403 -0.006664 0.029721 -0.006323
# 6 0.000528 -0.016204 -0.008412 0.013454 -0.006323 0.041187
#
#
# Mechanical properties :
#
#
# Convention : Reuss Voigt Hill
#
# Bulk Modulus (GPa) = 15.25500 57.38582 36.32041
# Shear Modulus (GPa) = 19.90053 34.59460 27.24757
#
# Velocity S-wave (km/s) = 3.06246 4.03777 3.58345
# Velocity P-wave (km/s) = 4.43781 6.98446 5.85136
#
# Compressibility (1/GPa) = 0.06555228
#
# Stress axis : x y z
#
# Youngs Moduli (GPa) = 100.09047 15.22496 72.59485
#
# Poissons Ratio (x) = 0.09694 0.33816
# Poissons Ratio (y) = 0.63726 0.06698
# Poissons Ratio (z) = 0.46623 0.01405
#
# Static dielectric constant tensor:
#      x y z
#    x 1.843430 0.043800 -0.039930 
#    y 0.043800 1.894430 -0.016990 
#    z -0.039930 -0.016990 1.813110 
# 
# From -- ./inp_files/358596.got.cif
#   From: 2010.05.17/outbox.cif.g08.bks.cpg/sg2_180_cif.got.tgz:358596.got - 2010.06.03 11:33:40.
