data_PCOD9089280
_publ_section_title
;
Structure prediction by ZEFSAII (Michael W. Deem and Ramdas Pophale) SiO2 
 PCOD9089280
Probable space group: P -1
;
_chemical_formula_sum "Si O2"
_cell_formula_units_Z 14
_cell_length_a 24.310114
_cell_length_b 8.012042
_cell_length_c 16.639880
_cell_angle_alpha 135.648482
_cell_angle_beta 20.926487
_cell_angle_gamma 146.850171
_cell_volume 594.649545
_symmetry_space_group_name_H-M "P -1"
_symmetry_group_IT_number 2
_symmetry_cell_setting 'triclinic'
loop_
_space_group_symop_operation_xyz
x,y,z
-x,-y,-z
loop_
_atom_site_type_symbol
_atom_site_label
_atom_site_fract_x
_atom_site_fract_y
_atom_site_fract_z
Si Si1 0.947987 0.845478 0.688531
Si Si2 0.668326 0.492190 0.799476
Si Si3 0.029341 0.519455 0.684831
Si Si4 0.047758 0.274341 0.844656
Si Si5 0.222101 0.336300 0.877069
Si Si6 0.726368 0.158319 0.826556
Si Si7 0.337441 0.261460 0.518739
O O1 0.827998 0.767027 0.741665
O O2 0.796199 0.490905 0.815587
O O3 0.165357 0.930546 0.407235
O O4 0.982391 0.106372 0.788840
O O5 0.805947 0.523144 0.550011
O O6 0.500000 0.500000 0.000000
O O7 0.517631 0.141456 0.929056
O O8 0.857904 0.268001 0.766978
O O9 0.186219 0.892816 0.567680
O O10 0.894147 0.533494 0.936582
O O11 0.286018 0.436851 0.594407
O O12 0.000000 0.500000 0.000000
O O13 0.915703 0.987653 0.992692
O O14 0.276268 0.271079 0.696755
O O15 0.428817 0.586630 0.735497
#
# Coordination Sequence:
#
# PCOD9089280 Si02
#       7
#     2   2   2   2   2   2   2
#     4  10  22  41  66  92 124 175 213 256 318 378
#     4  11  25  42  61 101 131 164 209 270 328 377
#     4  10  19  37  67  90 123 164 209 262 313 374
#     4  11  23  42  63  97 135 167 205 268 324 376
#     4  10  21  41  66  93 122 171 219 264 306 382
#     4  10  20  41  67  92 121 166 218 260 310 387
#     4  10  21  41  66  94 121 168 224 258 314 376
#
# _framework density 23.543278000000001
#
# number of rings (size 3 to 8) (size 9 to 14) (size 15 to 20)
#    0.000    1.714    2.857    3.000    0.000    4.000 
#   15.429    0.000    0.000    0.000    0.000    0.000 
#    0.000    0.000    0.000    0.000    0.000    0.000 
#
# Total GULP energy -78160.006055 kJ/mol
# GULP energy per Si atom -5582.857575 kJ/mol
# Density = 2.348969 g / cm^3
# Si number density = 23.543278 Si / 1000 Ang^3
#
#
#
# Elastic Constant Matrix: (Units=GPa)
#
#
# Indices 1 2 3 4 5 6 
#
# 1 64.8771 33.4382 34.4129 12.1777 -14.7332 9.7246
# 2 33.4382 110.8880 54.9409 17.8160 -3.6053 17.6291
# 3 34.4129 54.9409 148.6453 23.4282 -16.8037 6.6632
# 4 12.1777 17.8160 23.4282 51.4557 0.8617 -3.1230
# 5 -14.7332 -3.6053 -16.8037 0.8617 42.5298 -0.9940
# 6 9.7246 17.6291 6.6632 -3.1230 -0.9940 34.9025
#
#
#
# Elastic Compliance Matrix: (Units=1/GPa)
#
#
# Indices 1 2 3 4 5 6 
#
# 1 0.021090 -0.004117 -0.002047 -0.002949 0.006126 -0.003495
# 2 -0.004117 0.013105 -0.003512 -0.002241 -0.001775 -0.005053
# 3 -0.002047 -0.003512 0.009175 -0.002495 0.002679 0.000445
# 4 -0.002949 -0.002241 -0.002495 0.022351 -0.002548 0.004357
# 5 0.006126 -0.001775 0.002679 -0.002548 0.026576 -0.000793
# 6 -0.003495 -0.005053 0.000445 0.004357 -0.000793 0.032460
#
#
# Mechanical properties :
#
#
# Convention : Reuss Voigt Hill
#
# Bulk Modulus (GPa) = 41.63250 63.33269 52.48260
# Shear Modulus (GPa) = 32.86976 39.21883 36.04430
#
# Velocity S-wave (km/s) = 3.74055 4.08587 3.91702
# Velocity P-wave (km/s) = 6.03137 7.01556 6.54200
#
# Compressibility (1/GPa) = 0.02401969
#
# Stress axis : x y z
#
# Youngs Moduli (GPa) = 47.41577 76.30587 108.98647
#
# Poissons Ratio (x) = 0.31414 0.22309
# Poissons Ratio (y) = 0.19521 0.38272
# Poissons Ratio (z) = 0.09706 0.26796
#
# Static dielectric constant tensor:
#      x y z
#    x 1.960210 -0.048640 -0.014500 
#    y -0.048640 1.914630 0.005180 
#    z -0.014500 0.005180 1.966550 
# 
# From -- ./inp_files/579629.got.cif
#   From: 2010.05.17/outbox.cif.g08.bks.cpg/sg2_290_cif.got.tgz:579629.got - 2010.06.03 11:33:40.
