data_PCOD9089206
_publ_section_title
;
Structure prediction by ZEFSAII (Michael W. Deem and Ramdas Pophale) SiO2 
 PCOD9089206
Probable space group: P -1
;
_chemical_formula_sum "Si O2"
_cell_formula_units_Z 16
_cell_length_a 19.515598
_cell_length_b 9.245974
_cell_length_c 21.668505
_cell_angle_alpha 144.705158
_cell_angle_beta 20.000276
_cell_angle_gamma 143.315807
_cell_volume 760.459591
_symmetry_space_group_name_H-M "P -1"
_symmetry_group_IT_number 2
_symmetry_cell_setting 'triclinic'
loop_
_space_group_symop_operation_xyz
x,y,z
-x,-y,-z
loop_
_atom_site_type_symbol
_atom_site_label
_atom_site_fract_x
_atom_site_fract_y
_atom_site_fract_z
Si Si1 0.465357 0.995249 0.218215
Si Si2 0.208171 0.666807 0.734940
Si Si3 0.401846 0.096429 0.801256
Si Si4 0.384573 0.391115 0.689404
Si Si5 0.803810 0.843298 0.352578
Si Si6 0.014925 0.797010 0.580813
Si Si7 0.362866 0.003020 0.057815
Si Si8 0.229971 0.411245 0.960163
O O1 0.583980 0.862670 0.123693
O O2 0.551606 0.299443 0.259484
O O3 0.510380 0.918991 0.084445
O O4 0.224905 0.920477 0.411636
O O5 0.229882 0.872513 0.842868
O O6 0.409610 0.708223 0.537323
O O7 0.204655 0.397914 0.678770
O O8 0.011313 0.682021 0.866473
O O9 0.608751 0.985729 0.573421
O O10 0.361618 0.332661 0.877462
O O11 0.217285 0.276807 0.739736
O O12 0.310334 0.317577 0.795112
O O13 0.981764 0.052458 0.303804
O O14 0.000000 0.500000 0.500000
O O15 0.815575 0.837715 0.727456
O O16 0.256258 0.712484 0.037472
O O17 0.500000 0.000000 0.000000
#
# Coordination Sequence:
#
# PCOD9089206 Si02
#       8
#     2   2   2   2   2   2   2   2
#     4  10  21  43  71  90 123 167 210 253 321 376
#     4  11  18  38  62  91 130 167 200 248 313 383
#     4  10  20  37  64  95 128 163 199 260 312 373
#     4  10  19  38  67  92 125 169 198 253 322 375
#     4  10  19  37  66  91 125 167 210 246 311 378
#     4  11  24  43  67  94 124 166 221 260 296 372
#     4  11  26  44  66  91 124 167 211 262 315 368
#     4  11  24  37  61  97 131 157 205 260 316 370
#
# _framework density 21.039908
#
# number of rings (size 3 to 8) (size 9 to 14) (size 15 to 20)
#    0.000    1.500    5.000    1.125    3.500    4.500 
#    0.000    2.500    0.000    0.000    0.000    0.000 
#    0.000    0.000    0.000    0.000    0.000    0.000 
#
# Total GULP energy -89295.894886 kJ/mol
# GULP energy per Si atom -5580.993430 kJ/mol
# Density = 2.099202 g / cm^3
# Si number density = 21.039908 Si / 1000 Ang^3
#
#
#
# Elastic Constant Matrix: (Units=GPa)
#
#
# Indices 1 2 3 4 5 6 
#
# 1 97.2590 -4.9286 30.8827 3.4307 -15.1643 -8.9435
# 2 -4.9286 47.5659 14.0029 14.1941 -4.8295 -6.0170
# 3 30.8827 14.0029 67.3946 2.6194 -21.3167 -14.1273
# 4 3.4307 14.1941 2.6194 21.7577 -2.7760 -12.6954
# 5 -15.1643 -4.8295 -21.3167 -2.7760 34.2156 3.8133
# 6 -8.9435 -6.0170 -14.1273 -12.6954 3.8133 31.7719
#
#
#
# Elastic Compliance Matrix: (Units=1/GPa)
#
#
# Indices 1 2 3 4 5 6 
#
# 1 0.012905 0.004516 -0.005973 -0.003990 0.002317 -0.000040
# 2 0.004516 0.030112 -0.008843 -0.022875 -0.000440 -0.006046
# 3 -0.005973 -0.008843 0.024828 0.011547 0.011290 0.010943
# 4 -0.003990 -0.022875 0.011547 0.078547 0.005177 0.030443
# 5 0.002317 -0.000440 0.011290 0.005177 0.037291 0.003182
# 6 -0.000040 -0.006046 0.010943 0.030443 0.003182 0.046966
#
#
# Mechanical properties :
#
#
# Convention : Reuss Voigt Hill
#
# Bulk Modulus (GPa) = 21.16572 32.45927 26.81249
# Shear Modulus (GPa) = 18.72680 29.03323 23.88001
#
# Velocity S-wave (km/s) = 2.98663 3.71875 3.37261
# Velocity P-wave (km/s) = 4.68774 5.82235 5.28558
#
# Compressibility (1/GPa) = 0.04724621
#
# Stress axis : x y z
#
# Youngs Moduli (GPa) = 77.48641 33.20986 40.27636
#
# Poissons Ratio (x) = -0.14999 0.24056
# Poissons Ratio (y) = -0.34995 0.35618
# Poissons Ratio (z) = 0.46280 0.29369
#
# Static dielectric constant tensor:
#      x y z
#    x 1.776250 0.027010 0.010030 
#    y 0.027010 1.804980 -0.009950 
#    z 0.010030 -0.009950 1.776030 
# 
# From -- ./inp_files/187864.got.cif
#   From: 2010.05.17/outbox.cif.g08.bks.cpg/sg2_94_cif.got.tgz:187864.got - 2010.06.03 11:33:40.
