data_PCOD9089439
_publ_section_title
;
Structure prediction by ZEFSAII (Michael W. Deem and Ramdas Pophale) SiO2 
 PCOD9089439
Probable space group: P -1
;
_chemical_formula_sum "Si O2"
_cell_formula_units_Z 16
_cell_length_a 19.686129
_cell_length_b 8.373353
_cell_length_c 13.585220
_cell_angle_alpha 35.080340
_cell_angle_beta 137.126488
_cell_angle_gamma 137.585520
_cell_volume 818.855259
_symmetry_space_group_name_H-M "P -1"
_symmetry_group_IT_number 2
_symmetry_cell_setting 'triclinic'
loop_
_space_group_symop_operation_xyz
x,y,z
-x,-y,-z
loop_
_atom_site_type_symbol
_atom_site_label
_atom_site_fract_x
_atom_site_fract_y
_atom_site_fract_z
Si Si1 0.607346 0.174809 0.966798
Si Si2 0.008881 0.307144 0.400493
Si Si3 0.135445 0.431901 0.649107
Si Si4 0.169379 0.435875 0.913176
Si Si5 0.190557 0.888041 0.325454
Si Si6 0.471128 0.175798 0.242957
Si Si7 0.567102 0.737944 0.618294
Si Si8 0.334028 0.264491 0.896405
O O1 0.581951 0.438319 0.750133
O O2 0.707264 0.351366 0.053647
O O3 0.500000 0.000000 0.000000
O O4 0.644344 0.956309 0.048370
O O5 0.024224 0.289236 0.544504
O O6 0.116666 0.583653 0.347956
O O7 0.908917 0.396678 0.220691
O O8 0.000000 0.000000 0.500000
O O9 0.138936 0.372013 0.798167
O O10 0.172059 0.776281 0.476343
O O11 0.220413 0.300842 0.756774
O O12 0.155570 0.151040 0.111373
O O13 0.316686 0.003394 0.385261
O O14 0.472252 0.292817 0.295495
O O15 0.574023 0.413184 0.181292
O O16 0.487723 0.862675 0.414862
O O17 0.361992 0.158096 0.084936
#
# Coordination Sequence:
#
# PCOD9089439 Si02
#       8
#     2   2   2   2   2   2   2   2
#     4  11  23  35  57  87 123 156 195 250 298 338
#     4  10  21  41  67  92 120 153 193 256 304 345
#     4  10  22  38  65  87 119 155 207 237 298 358
#     4  11  22  41  65  87 120 163 201 240 296 362
#     4   9  21  36  65  84 121 153 203 237 299 356
#     4  10  20  32  61  76 116 157 204 232 295 353
#     4  10  19  38  54  86 114 159 197 244 289 361
#     4  11  20  36  55  85 115 158 196 244 293 349
#
# _framework density 19.539473000000001
#
# number of rings (size 3 to 8) (size 9 to 14) (size 15 to 20)
#    0.750    1.000    2.500    3.000    1.750    0.500 
#    0.000    1.875    5.500    0.000    0.000    0.000 
#    0.000    0.000    0.000    0.000    0.000    0.000 
#
# Total GULP energy -89092.560074 kJ/mol
# GULP energy per Si atom -5568.285005 kJ/mol
# Density = 1.949500 g / cm^3
# Si number density = 19.539473 Si / 1000 Ang^3
#
#
#
# Elastic Constant Matrix: (Units=GPa)
#
#
# Indices 1 2 3 4 5 6 
#
# 1 45.7853 2.3365 37.4166 -12.6452 9.3222 0.2267
# 2 2.3365 60.7490 34.5409 -11.8110 5.2763 5.6788
# 3 37.4166 34.5409 164.5468 2.3249 15.2978 -5.1210
# 4 -12.6452 -11.8110 2.3249 25.6554 -1.4892 0.6482
# 5 9.3222 5.2763 15.2978 -1.4892 28.0134 4.7050
# 6 0.2267 5.6788 -5.1210 0.6482 4.7050 28.8872
#
#
#
# Elastic Compliance Matrix: (Units=1/GPa)
#
#
# Indices 1 2 3 4 5 6 
#
# 1 0.038071 0.010190 -0.010606 0.024107 -0.006911 -0.003597
# 2 0.010190 0.024543 -0.007740 0.017078 -0.001810 -0.006365
# 3 -0.010606 -0.007740 0.010565 -0.009965 -0.001988 0.004025
# 4 0.024107 0.017078 -0.009965 0.059697 -0.001548 -0.006401
# 5 -0.006911 -0.001810 -0.001988 -0.001548 0.040432 -0.006493
# 6 -0.003597 -0.006365 0.004025 -0.006401 -0.006493 0.037812
#
#
# Mechanical properties :
#
#
# Convention : Reuss Voigt Hill
#
# Bulk Modulus (GPa) = 17.58527 46.62990 32.10758
# Shear Modulus (GPa) = 20.29319 29.63033 24.96176
#
# Velocity S-wave (km/s) = 3.22619 3.89837 3.57810
# Velocity P-wave (km/s) = 4.78509 6.64675 5.79122
#
# Compressibility (1/GPa) = 0.05686579
#
# Stress axis : x y z
#
# Youngs Moduli (GPa) = 26.26640 40.74509 94.65489
#
# Poissons Ratio (x) = -0.41518 1.00393
# Poissons Ratio (y) = -0.26765 0.73264
# Poissons Ratio (z) = 0.27859 0.31537
#
# Static dielectric constant tensor:
#      x y z
#    x 1.705590 -0.012560 -0.018530 
#    y -0.012560 1.669290 0.000890 
#    z -0.018530 0.000890 1.735810 
# 
# From -- ./inp_files/327337.got.cif
#   From: 2010.05.17/outbox.cif.g08.bks.cpg/sg2_164_cif.got.tgz:327337.got - 2010.06.03 11:33:40.
