data_PCOD9089932
_publ_section_title
;
Structure prediction by ZEFSAII (Michael W. Deem and Ramdas Pophale) SiO2 
 PCOD9089932
Probable space group: P -1
;
_chemical_formula_sum "Si O2"
_cell_formula_units_Z 12
_cell_length_a 15.736236
_cell_length_b 9.279083
_cell_length_c 9.782462
_cell_angle_alpha 56.660712
_cell_angle_beta 152.942459
_cell_angle_gamma 119.638634
_cell_volume 542.784369
_symmetry_space_group_name_H-M "P -1"
_symmetry_group_IT_number 2
_symmetry_cell_setting 'triclinic'
loop_
_space_group_symop_operation_xyz
x,y,z
-x,-y,-z
loop_
_atom_site_type_symbol
_atom_site_label
_atom_site_fract_x
_atom_site_fract_y
_atom_site_fract_z
Si Si1 0.065729 0.853020 0.067476
Si Si2 0.325368 0.685237 0.729131
Si Si3 0.233367 0.346578 0.640070
Si Si4 0.246130 0.418685 0.308328
Si Si5 0.860309 0.192224 0.113911
Si Si6 0.410265 0.836803 0.034749
O O1 0.249973 0.786709 0.439045
O O2 0.103359 0.886528 0.943148
O O3 0.906631 0.704172 0.917564
O O4 0.000000 0.000000 0.000000
O O5 0.243493 0.492906 0.693431
O O6 0.549610 0.702701 0.033314
O O7 0.273066 0.755917 0.765635
O O8 0.200263 0.426902 0.399702
O O9 0.058350 0.216025 0.463983
O O10 0.438752 0.310399 0.633508
O O11 0.225379 0.613559 0.126273
O O12 0.704673 0.102695 0.031103
O O13 0.500000 0.000000 0.000000
#
# Coordination Sequence:
#
# PCOD9089932 Si02
#       6
#     2   2   2   2   2   2
#     4  11  21  39  68  97 131 167 211 273 327 383
#     4  10  19  38  62  92 130 158 212 267 321 371
#     4   9  18  36  68  93 121 165 211 271 316 373
#     4  10  19  41  66  94 127 171 219 263 322 387
#     4  11  21  42  68  95 126 176 223 258 320 394
#     4  11  25  41  61  93 140 174 210 269 331 379
#
# _framework density 22.108228
#
# number of rings (size 3 to 8) (size 9 to 14) (size 15 to 20)
#    0.000    1.667    3.333    2.500    0.000    0.667 
#    0.000   16.667    0.000    0.000    0.000    0.000 
#    0.000    0.000    0.000    0.000    0.000    0.000 
#
# Total GULP energy -66946.655624 kJ/mol
# GULP energy per Si atom -5578.887969 kJ/mol
# Density = 2.205791 g / cm^3
# Si number density = 22.108228 Si / 1000 Ang^3
#
#
#
# Elastic Constant Matrix: (Units=GPa)
#
#
# Indices 1 2 3 4 5 6 
#
# 1 125.7477 46.1322 30.7045 4.3062 5.7115 -12.5907
# 2 46.1322 84.6366 34.2831 -0.0100 -5.7840 -24.3507
# 3 30.7045 34.2831 123.5022 16.2180 -5.1030 -5.4106
# 4 4.3062 -0.0100 16.2180 24.1092 -9.3005 -3.2736
# 5 5.7115 -5.7840 -5.1030 -9.3005 21.8512 7.4215
# 6 -12.5907 -24.3507 -5.4106 -3.2736 7.4215 40.5468
#
#
#
# Elastic Compliance Matrix: (Units=1/GPa)
#
#
# Indices 1 2 3 4 5 6 
#
# 1 0.010750 -0.005789 -0.000810 -0.003736 -0.006329 0.000610
# 2 -0.005789 0.019737 -0.004384 0.007464 0.005832 0.009006
# 3 -0.000810 -0.004384 0.010373 -0.007509 -0.001073 -0.001910
# 4 -0.003736 0.007464 -0.007509 0.057039 0.024657 0.002412
# 5 -0.006329 0.005832 -0.001073 0.024657 0.061905 -0.007946
# 6 0.000610 0.009006 -0.001910 0.002412 -0.007946 0.031655
#
#
# Mechanical properties :
#
#
# Convention : Reuss Voigt Hill
#
# Bulk Modulus (GPa) = 52.92506 61.79176 57.35841
# Shear Modulus (GPa) = 22.75586 32.15255 27.45420
#
# Velocity S-wave (km/s) = 3.21174 3.81770 3.52775
# Velocity P-wave (km/s) = 6.14368 6.88792 6.52642
#
# Compressibility (1/GPa) = 0.01889464
#
# Stress axis : x y z
#
# Youngs Moduli (GPa) = 93.01908 50.66656 96.40064
#
# Poissons Ratio (x) = 0.29331 0.07807
# Poissons Ratio (y) = 0.53849 0.42264
# Poissons Ratio (z) = 0.07533 0.22213
#
# Static dielectric constant tensor:
#      x y z
#    x 1.826680 0.002130 0.027220 
#    y 0.002130 1.945530 -0.050540 
#    z 0.027220 -0.050540 1.841870 
# 
# From -- ./inp_files/153032.got.cif
#   From: 2010.05.17/outbox.cif.g08.bks.cpg/sg2_77_cif.got.tgz:153032.got - 2010.06.03 11:33:40.
