data_PCOD9089089
_publ_section_title
;
Structure prediction by ZEFSAII (Michael W. Deem and Ramdas Pophale) SiO2 
 PCOD9089089
Probable space group: P -1
;
_chemical_formula_sum "Si O2"
_cell_formula_units_Z 16
_cell_length_a 8.830535
_cell_length_b 14.220529
_cell_length_c 8.194364
_cell_angle_alpha 70.476408
_cell_angle_beta 46.468483
_cell_angle_gamma 85.189068
_cell_volume 686.824216
_symmetry_space_group_name_H-M "P -1"
_symmetry_group_IT_number 2
_symmetry_cell_setting 'triclinic'
loop_
_space_group_symop_operation_xyz
x,y,z
-x,-y,-z
loop_
_atom_site_type_symbol
_atom_site_label
_atom_site_fract_x
_atom_site_fract_y
_atom_site_fract_z
Si Si1 0.090565 0.408845 0.063620
Si Si2 0.464584 0.228371 0.708131
Si Si3 0.739590 0.859998 0.743732
Si Si4 0.364959 0.713664 0.939497
Si Si5 0.812715 0.095379 0.484763
Si Si6 0.012377 0.217063 0.991334
Si Si7 0.489317 0.464329 0.216461
Si Si8 0.765566 0.405236 0.556831
O O1 0.031097 0.307632 0.060236
O O2 0.997260 0.400326 0.320803
O O3 0.341269 0.449115 0.866780
O O4 0.000000 0.500000 0.000000
O O5 0.624399 0.156400 0.583386
O O6 0.612057 0.339241 0.572328
O O7 0.360240 0.183864 0.984014
O O8 0.256862 0.224709 0.752035
O O9 0.586360 0.792251 0.767055
O O10 0.991909 0.858395 0.562683
O O11 0.731982 0.978063 0.658883
O O12 0.170130 0.765044 0.005036
O O13 0.421451 0.638031 0.802430
O O14 0.289826 0.651289 0.197585
O O15 0.923938 0.111822 0.215189
O O16 0.270599 0.479749 0.454066
O O17 0.500000 0.500000 0.000000
#
# Coordination Sequence:
#
# PCOD9089089 Si02
#       8
#     2   2   2   2   2   2   2   2
#     4  12  23  41  61  88 123 165 210 253 299 371
#     4  10  19  37  65  89 124 158 212 249 298 374
#     4   9  21  39  65  91 120 161 207 257 303 365
#     4  10  22  42  60  93 133 159 203 261 307 369
#     4  10  20  39  66  91 118 164 207 252 309 363
#     4  11  22  39  60  93 131 159 201 258 306 365
#     4  10  22  39  60  88 125 161 205 258 298 361
#     4  10  22  40  64  86 120 171 208 248 307 359
#
# _framework density 23.295625999999999
#
# number of rings (size 3 to 8) (size 9 to 14) (size 15 to 20)
#    0.000    1.750    3.750    0.375    1.750    3.000 
#    2.250    5.625    0.000    0.000    0.000    0.000 
#    0.000    0.000    0.000    0.000    0.000    0.000 
#
# Total GULP energy -89406.984180 kJ/mol
# GULP energy per Si atom -5587.936511 kJ/mol
# Density = 2.324260 g / cm^3
# Si number density = 23.295626 Si / 1000 Ang^3
#
#
#
# Elastic Constant Matrix: (Units=GPa)
#
#
# Indices 1 2 3 4 5 6 
#
# 1 101.8565 22.1557 12.6706 -1.1462 -18.7820 -16.0171
# 2 22.1557 64.6548 28.3494 2.1406 -14.7075 -15.6862
# 3 12.6706 28.3494 68.0329 7.0003 -10.2623 1.5058
# 4 -1.1462 2.1406 7.0003 34.3384 -8.2638 -9.7795
# 5 -18.7820 -14.7075 -10.2623 -8.2638 33.5230 7.3971
# 6 -16.0171 -15.6862 1.5058 -9.7795 7.3971 31.8149
#
#
#
# Elastic Compliance Matrix: (Units=1/GPa)
#
#
# Indices 1 2 3 4 5 6 
#
# 1 0.012171 -0.001019 -0.001500 0.003699 0.005604 0.005530
# 2 -0.001019 0.024211 -0.009864 0.005303 0.005645 0.012209
# 3 -0.001500 -0.009864 0.020086 -0.005632 0.001501 -0.008649
# 4 0.003699 0.005303 -0.005632 0.036054 0.008507 0.013848
# 5 0.005604 0.005645 0.001501 0.008507 0.038163 -0.000724
# 6 0.005530 0.012209 -0.008649 0.013848 -0.000724 0.045070
#
#
# Mechanical properties :
#
#
# Convention : Reuss Voigt Hill
#
# Bulk Modulus (GPa) = 31.54261 40.09953 35.82107
# Shear Modulus (GPa) = 23.68691 31.35981 27.52336
#
# Velocity S-wave (km/s) = 3.19218 3.67300 3.44100
# Velocity P-wave (km/s) = 5.21117 5.93621 5.58546
#
# Compressibility (1/GPa) = 0.03170315
#
# Stress axis : x y z
#
# Youngs Moduli (GPa) = 82.16554 41.30281 49.78693
#
# Poissons Ratio (x) = 0.04209 0.07467
# Poissons Ratio (y) = 0.08373 0.49107
# Poissons Ratio (z) = 0.12322 0.40739
#
# Static dielectric constant tensor:
#      x y z
#    x 1.980520 -0.036090 -0.090680 
#    y -0.036090 1.856700 0.002530 
#    z -0.090680 0.002530 2.018180 
# 
# From -- ./inp_files/39699.got.cif
#   From: 2010.05.17/outbox.cif.g08.bks.cpg/sg2_20_cif.got.tgz:39699.got - 2010.06.03 11:33:40.
