data_PCOD9089918
_publ_section_title
;
Structure prediction by ZEFSAII (Michael W. Deem and Ramdas Pophale) SiO2 
 PCOD9089918
Probable space group: P -1
;
_chemical_formula_sum "Si O2"
_cell_formula_units_Z 16
_cell_length_a 11.485695
_cell_length_b 20.260180
_cell_length_c 7.431968
_cell_angle_alpha 128.164343
_cell_angle_beta 103.271150
_cell_angle_gamma 36.513025
_cell_volume 664.257574
_symmetry_space_group_name_H-M "P -1"
_symmetry_group_IT_number 2
_symmetry_cell_setting 'triclinic'
loop_
_space_group_symop_operation_xyz
x,y,z
-x,-y,-z
loop_
_atom_site_type_symbol
_atom_site_label
_atom_site_fract_x
_atom_site_fract_y
_atom_site_fract_z
Si Si1 0.939662 0.740013 0.920974
Si Si2 0.717447 0.619238 0.934559
Si Si3 0.329366 0.415561 0.754731
Si Si4 0.778397 0.325876 0.352344
Si Si5 0.765333 0.708484 0.582046
Si Si6 0.508572 0.073449 0.493661
Si Si7 0.802540 0.200001 0.466790
Si Si8 0.759873 0.159758 0.996700
O O1 0.767095 0.767209 0.853891
O O2 0.149939 0.580482 0.854262
O O3 0.062529 0.697329 0.708835
O O4 0.778732 0.908577 0.238714
O O5 0.781037 0.542709 0.022948
O O6 0.587995 0.786167 0.202939
O O7 0.511499 0.686464 0.894484
O O8 0.956487 0.480914 0.673397
O O9 0.361715 0.304915 0.483089
O O10 0.576339 0.316190 0.703279
O O11 0.500000 0.500000 0.500000
O O12 0.802145 0.288713 0.509724
O O13 0.856199 0.194356 0.050768
O O14 0.654260 0.827810 0.577525
O O15 0.500000 0.000000 0.500000
O O16 0.761754 0.160601 0.216434
O O17 0.062123 0.016931 0.318051
#
# Coordination Sequence:
#
# PCOD9089918 Si02
#       8
#     2   2   2   2   2   2   2   2
#     4  12  23  41  68  93 128 167 213 266 315 368
#     4  11  23  42  65  88 131 171 207 258 322 382
#     4  11  22  39  63  91 127 164 212 252 323 379
#     4  10  19  38  62  91 123 158 213 264 306 356
#     4  11  24  42  66  93 123 174 216 252 311 392
#     4  11  25  42  61  99 135 159 205 271 325 372
#     4   9  20  38  62  91 120 162 215 259 298 375
#     4   9  21  39  62  86 121 167 211 254 305 376
#
# _framework density 24.087040999999999
#
# number of rings (size 3 to 8) (size 9 to 14) (size 15 to 20)
#    0.750    0.750    1.250    5.250    3.500    2.500 
#    0.000    1.875    0.000    0.000    0.000    0.000 
#    0.000    0.000    0.000    0.000    0.000    0.000 
#
# Total GULP energy -89398.077493 kJ/mol
# GULP energy per Si atom -5587.379843 kJ/mol
# Density = 2.403222 g / cm^3
# Si number density = 24.087041 Si / 1000 Ang^3
#
#
#
# Elastic Constant Matrix: (Units=GPa)
#
#
# Indices 1 2 3 4 5 6 
#
# 1 85.5575 24.2427 20.1217 5.3984 -19.2993 17.5185
# 2 24.2427 55.5646 11.9698 24.9109 5.6314 5.4717
# 3 20.1217 11.9698 79.5516 15.9490 -1.2547 16.6939
# 4 5.3984 24.9109 15.9490 32.2197 2.0010 6.5248
# 5 -19.2993 5.6314 -1.2547 2.0010 22.5071 0.1535
# 6 17.5185 5.4717 16.6939 6.5248 0.1535 28.8907
#
#
#
# Elastic Compliance Matrix: (Units=1/GPa)
#
#
# Indices 1 2 3 4 5 6 
#
# 1 0.024026 -0.015811 -0.002851 0.010672 0.023534 -0.012462
# 2 -0.015811 0.038533 0.001955 -0.028386 -0.020618 0.007680
# 3 -0.002851 0.001955 0.015752 -0.007525 -0.001346 -0.006036
# 4 0.010672 -0.028386 -0.007525 0.056165 0.010905 -0.009489
# 5 0.023534 -0.020618 -0.001346 0.010905 0.068810 -0.012416
# 6 -0.012462 0.007680 -0.006036 -0.009489 -0.012416 0.046412
#
#
# Mechanical properties :
#
#
# Convention : Reuss Voigt Hill
#
# Bulk Modulus (GPa) = 22.27294 37.03800 29.65547
# Shear Modulus (GPa) = 16.77422 27.67946 22.22684
#
# Velocity S-wave (km/s) = 2.64180 3.39358 3.04101
# Velocity P-wave (km/s) = 4.30957 5.54665 4.96678
#
# Compressibility (1/GPa) = 0.04489753
#
# Stress axis : x y z
#
# Youngs Moduli (GPa) = 41.62243 25.95148 63.48521
#
# Poissons Ratio (x) = 0.41031 0.18102
# Poissons Ratio (y) = 0.65807 -0.12414
# Poissons Ratio (z) = 0.11868 -0.05074
#
# Static dielectric constant tensor:
#      x y z
#    x 1.956140 -0.002950 0.033510 
#    y -0.002950 1.926760 -0.004880 
#    z 0.033510 -0.004880 1.958690 
# 
# From -- ./inp_files/283247.got.cif
#   From: 2010.05.17/outbox.cif.g08.bks.cpg/sg2_142_cif.got.tgz:283247.got - 2010.06.03 11:33:40.
