data_PCOD9089480
_publ_section_title
;
Structure prediction by ZEFSAII (Michael W. Deem and Ramdas Pophale) SiO2 
 PCOD9089480
Probable space group: P -1
;
_chemical_formula_sum "Si O2"
_cell_formula_units_Z 14
_cell_length_a 9.175125
_cell_length_b 25.758970
_cell_length_c 10.824802
_cell_angle_alpha 32.163498
_cell_angle_beta 47.210209
_cell_angle_gamma 24.839227
_cell_volume 524.938554
_symmetry_space_group_name_H-M "P -1"
_symmetry_group_IT_number 2
_symmetry_cell_setting 'triclinic'
loop_
_space_group_symop_operation_xyz
x,y,z
-x,-y,-z
loop_
_atom_site_type_symbol
_atom_site_label
_atom_site_fract_x
_atom_site_fract_y
_atom_site_fract_z
Si Si1 0.714927 0.197949 0.707819
Si Si2 0.126741 0.558077 0.790998
Si Si3 0.136889 0.291790 0.114965
Si Si4 0.343059 0.971253 0.304947
Si Si5 0.065597 0.122206 0.405066
Si Si6 0.638101 0.812371 0.207667
Si Si7 0.370360 0.418536 0.685373
O O1 0.381573 0.264497 0.726560
O O2 0.662099 0.296509 0.650374
O O3 0.824255 0.197943 0.513228
O O4 0.000000 0.000000 0.000000
O O5 0.447639 0.418382 0.782072
O O6 0.183990 0.572748 0.866671
O O7 0.744956 0.766036 0.538521
O O8 0.000000 0.500000 0.000000
O O9 0.048749 0.246877 0.155302
O O10 0.521288 0.088969 0.363992
O O11 0.226856 0.365474 0.878819
O O12 0.315403 0.939328 0.246272
O O13 0.025782 0.092941 0.349790
O O14 0.389521 0.067763 0.067359
O O15 0.031551 0.628175 0.416913
#
# Coordination Sequence:
#
# PCOD9089480 Si02
#       7
#     2   2   2   2   2   2   2
#     4  12  24  36  56  90 122 148 188 244 294 336
#     4   8  16  30  59  85 108 141 199 236 269 331
#     4   9  17  34  59  84 111 153 193 234 283 346
#     4   9  19  38  63  83 111 157 199 228 281 351
#     4  10  20  34  58  86 114 151 192 236 288 339
#     4  10  22  39  62  84 114 157 195 233 284 347
#     4  10  19  38  57  83 115 154 195 232 285 345
#
# _framework density 26.669788
#
# number of rings (size 3 to 8) (size 9 to 14) (size 15 to 20)
#    0.000    2.286    1.429    1.286    4.000    0.571 
#    0.000    3.571    0.000    0.000    0.000    0.000 
#    0.000    0.000    0.000    0.000    0.000    0.000 
#
# Total GULP energy -78191.232993 kJ/mol
# GULP energy per Si atom -5585.088071 kJ/mol
# Density = 2.660909 g / cm^3
# Si number density = 26.669788 Si / 1000 Ang^3
#
#
#
# Elastic Constant Matrix: (Units=GPa)
#
#
# Indices 1 2 3 4 5 6 
#
# 1 82.0529 37.6777 14.9465 5.8404 -14.9962 36.0629
# 2 37.6777 140.2395 33.7379 19.0071 -9.9005 61.2807
# 3 14.9465 33.7379 140.9587 0.7203 -28.4434 0.7608
# 4 5.8404 19.0071 0.7203 41.3531 8.2351 1.8225
# 5 -14.9962 -9.9005 -28.4434 8.2351 25.2795 1.7200
# 6 36.0629 61.2807 0.7608 1.8225 1.7200 55.1263
#
#
#
# Elastic Compliance Matrix: (Units=1/GPa)
#
#
# Indices 1 2 3 4 5 6 
#
# 1 0.024175 0.006527 0.000555 -0.009836 0.022322 -0.023450
# 2 0.006527 0.020462 -0.002352 -0.012084 0.015017 -0.027053
# 3 0.000555 -0.002352 0.009757 -0.001381 0.010712 0.001828
# 4 -0.009836 -0.012084 -0.001381 0.035255 -0.024933 0.019499
# 5 0.022322 0.015017 0.010712 -0.024933 0.081112 -0.033151
# 6 -0.023450 -0.027053 0.001828 0.019499 -0.033151 0.063919
#
#
# Mechanical properties :
#
#
# Convention : Reuss Voigt Hill
#
# Bulk Modulus (GPa) = 15.66017 59.55284 37.60651
# Shear Modulus (GPa) = 20.28367 42.81105 31.54736
#
# Velocity S-wave (km/s) = 2.76080 4.01087 3.44304
# Velocity P-wave (km/s) = 4.00591 6.62025 5.47151
#
# Compressibility (1/GPa) = 0.06385626
#
# Stress axis : x y z
#
# Youngs Moduli (GPa) = 41.36505 48.87038 102.49026
#
# Poissons Ratio (x) = -0.31899 -0.05692
# Poissons Ratio (y) = -0.27000 0.24102
# Poissons Ratio (z) = -0.02297 0.11493
#
# Static dielectric constant tensor:
#      x y z
#    x 1.532890 -0.124610 -0.217760 
#    y -0.124610 2.198720 0.031460 
#    z -0.217760 0.031460 1.951550 
# 
# From -- ./inp_files/174811.got.cif
#   From: 2010.05.17/outbox.cif.g08.bks.cpg/sg2_88_cif.got.tgz:174811.got - 2010.06.03 11:33:40.
