data_PCOD9089675
_publ_section_title
;
Structure prediction by ZEFSAII (Michael W. Deem and Ramdas Pophale) SiO2 
 PCOD9089675
Probable space group: P -1
;
_chemical_formula_sum "Si O2"
_cell_formula_units_Z 14
_cell_length_a 10.405227
_cell_length_b 13.444490
_cell_length_c 16.459250
_cell_angle_alpha 25.414052
_cell_angle_beta 48.319463
_cell_angle_gamma 48.531226
_cell_volume 724.261048
_symmetry_space_group_name_H-M "P -1"
_symmetry_group_IT_number 2
_symmetry_cell_setting 'triclinic'
loop_
_space_group_symop_operation_xyz
x,y,z
-x,-y,-z
loop_
_atom_site_type_symbol
_atom_site_label
_atom_site_fract_x
_atom_site_fract_y
_atom_site_fract_z
Si Si1 0.836953 0.873515 0.642171
Si Si2 0.239641 0.392692 0.690435
Si Si3 0.994037 0.353503 0.529229
Si Si4 0.603485 0.151861 0.671318
Si Si5 0.296485 0.990704 0.582156
Si Si6 0.773714 0.973660 0.889372
Si Si7 0.915930 0.387659 0.042171
O O1 0.690118 0.970868 0.699935
O O2 0.766631 0.932898 0.538391
O O3 0.895282 0.593323 0.833291
O O4 0.000000 0.000000 0.500000
O O5 0.401988 0.270727 0.655451
O O6 0.290945 0.631883 0.528275
O O7 0.067801 0.473937 0.648574
O O8 0.235969 0.205152 0.901680
O O9 0.000000 0.500000 0.500000
O O10 0.171383 0.168562 0.565952
O O11 0.834899 0.211461 0.714677
O O12 0.622713 0.033831 0.840559
O O13 0.258610 0.722866 0.799911
O O14 0.500000 0.000000 0.500000
O O15 0.938315 0.840720 0.867134
O O16 0.000000 0.500000 0.000000
#
# Coordination Sequence:
#
# PCOD9089675 Si02
#       7
#     2   2   2   2   2   2   2
#     4  12  21  38  66  93 126 169 210 256 324 379
#     4  10  21  37  58  87 123 159 200 263 309 359
#     4  10  23  43  61  83 120 168 214 243 306 385
#     4  10  21  34  57  94 123 150 204 260 309 371
#     4  11  26  43  63  97 131 166 209 267 318 372
#     4  10  19  38  60  89 120 153 204 261 309 364
#     4  11  20  38  65  94 122 163 210 254 314 386
#
# _framework density 19.330047
#
# number of rings (size 3 to 8) (size 9 to 14) (size 15 to 20)
#    0.000    1.429    2.857    3.857    2.000    1.143 
#    2.571    0.000    0.000    0.000    0.000    0.000 
#    0.000    0.000    0.000    0.000    0.000    0.000 
#
# Total GULP energy -78065.178965 kJ/mol
# GULP energy per Si atom -5576.084212 kJ/mol
# Density = 1.928605 g / cm^3
# Si number density = 19.330047 Si / 1000 Ang^3
#
#
#
# Elastic Constant Matrix: (Units=GPa)
#
#
# Indices 1 2 3 4 5 6 
#
# 1 95.9761 26.5976 40.4047 -1.1272 -6.1868 0.7604
# 2 26.5976 74.7985 -4.1474 -8.9601 -7.4771 9.1566
# 3 40.4047 -4.1474 114.0092 -1.4731 13.6146 11.2118
# 4 -1.1272 -8.9601 -1.4731 25.3692 1.3211 2.9988
# 5 -6.1868 -7.4771 13.6146 1.3211 28.4199 1.2790
# 6 0.7604 9.1566 11.2118 2.9988 1.2790 33.8555
#
#
#
# Elastic Compliance Matrix: (Units=1/GPa)
#
#
# Indices 1 2 3 4 5 6 
#
# 1 0.015056 -0.005956 -0.006496 -0.002470 0.004782 0.003462
# 2 -0.005956 0.017417 0.003249 0.006733 0.001700 -0.006313
# 3 -0.006496 0.003249 0.012467 0.002490 -0.006430 -0.004839
# 4 -0.002470 0.006733 0.002490 0.042663 -0.001658 -0.006306
# 5 0.004782 0.001700 -0.006430 -0.001658 0.039823 0.000204
# 6 0.003462 -0.006313 -0.004839 -0.006306 0.000204 0.033321
#
#
# Mechanical properties :
#
#
# Convention : Reuss Voigt Hill
#
# Bulk Modulus (GPa) = 37.68582 45.61036 41.64809
# Shear Modulus (GPa) = 26.59621 32.32417 29.46019
#
# Velocity S-wave (km/s) = 3.71334 4.09372 3.90816
# Velocity P-wave (km/s) = 6.15820 6.78171 6.47746
#
# Compressibility (1/GPa) = 0.02653518
#
# Stress axis : x y z
#
# Youngs Moduli (GPa) = 66.41757 57.41647 80.20873
#
# Poissons Ratio (x) = 0.34196 0.52103
# Poissons Ratio (y) = 0.39557 -0.26061
# Poissons Ratio (z) = 0.43145 -0.18655
#
# Static dielectric constant tensor:
#      x y z
#    x 1.696720 -0.024550 -0.027920 
#    y -0.024550 1.705350 0.010350 
#    z -0.027920 0.010350 1.801350 
# 
# From -- ./inp_files/222556.got.cif
#   From: 2010.05.17/outbox.cif.g08.bks.cpg/sg2_112_cif.got.tgz:222556.got - 2010.06.03 11:33:40.
