data_PCOD9089232
_publ_section_title
;
Structure prediction by ZEFSAII (Michael W. Deem and Ramdas Pophale) SiO2 
 PCOD9089232
Probable space group: P -1
;
_chemical_formula_sum "Si O2"
_cell_formula_units_Z 16
_cell_length_a 9.286810
_cell_length_b 9.710884
_cell_length_c 11.416991
_cell_angle_alpha 90.127775
_cell_angle_beta 127.438192
_cell_angle_gamma 110.313070
_cell_volume 734.568887
_symmetry_space_group_name_H-M "P -1"
_symmetry_group_IT_number 2
_symmetry_cell_setting 'triclinic'
loop_
_space_group_symop_operation_xyz
x,y,z
-x,-y,-z
loop_
_atom_site_type_symbol
_atom_site_label
_atom_site_fract_x
_atom_site_fract_y
_atom_site_fract_z
Si Si1 0.414677 0.425315 0.584349
Si Si2 0.063205 0.669297 0.301635
Si Si3 0.658094 0.676908 0.100290
Si Si4 0.374916 0.854706 0.651856
Si Si5 0.022992 0.618041 0.618051
Si Si6 0.327393 0.268198 0.160222
Si Si7 0.052679 0.680089 0.026398
Si Si8 0.491916 0.804008 0.224114
O O1 0.500000 0.500000 0.500000
O O2 0.495440 0.566570 0.715753
O O3 0.504537 0.310836 0.672297
O O4 0.171444 0.347460 0.471209
O O5 0.252151 0.767531 0.475992
O O6 0.091134 0.722520 0.182715
O O7 0.866696 0.683557 0.249427
O O8 0.002087 0.488077 0.281542
O O9 0.587080 0.762292 0.159309
O O10 0.500000 0.500000 0.000000
O O11 0.690731 0.749242 0.988041
O O12 0.236172 0.758318 0.693444
O O13 0.590812 0.850017 0.754722
O O14 0.398515 0.024569 0.675400
O O15 0.000000 0.500000 0.500000
O O16 0.124823 0.277743 0.103501
O O17 0.267007 0.769547 0.073651
O O18 0.000000 0.500000 0.000000
#
# Coordination Sequence:
#
# PCOD9089232 Si02
#       8
#     2   2   2   2   2   2   2   2
#     4  12  23  41  68 104 129 167 230 282 324 393
#     4  10  21  40  67  96 131 181 221 271 337 402
#     4  11  21  40  69  94 133 172 221 274 330 399
#     4  11  25  41  68  99 139 172 225 280 344 389
#     4  10  19  37  66  94 127 171 217 265 327 398
#     4  11  23  43  65  95 132 180 221 272 338 394
#     4  11  23  41  67  98 129 177 238 272 329 402
#     4  12  25  42  68 102 135 172 227 284 335 397
#
# _framework density 21.781480999999999
#
# number of rings (size 3 to 8) (size 9 to 14) (size 15 to 20)
#    0.000    1.000    5.000    3.750    0.000    3.500 
#    0.000    0.000    0.000    0.000    0.000    0.000 
#    0.000    0.000    0.000    0.000    0.000    0.000 
#
# Total GULP energy -89413.453029 kJ/mol
# GULP energy per Si atom -5588.340814 kJ/mol
# Density = 2.173191 g / cm^3
# Si number density = 21.781481 Si / 1000 Ang^3
#
#
#
# Elastic Constant Matrix: (Units=GPa)
#
#
# Indices 1 2 3 4 5 6 
#
# 1 97.2979 14.5986 37.2749 -12.2560 28.4430 -28.7505
# 2 14.5986 90.8482 17.0110 -0.6970 -7.1912 -21.7456
# 3 37.2749 17.0110 90.1364 -16.3130 10.2370 -16.7464
# 4 -12.2560 -0.6970 -16.3130 18.9573 -7.5442 5.4696
# 5 28.4430 -7.1912 10.2370 -7.5442 38.3894 -8.4431
# 6 -28.7505 -21.7456 -16.7464 5.4696 -8.4431 21.6699
#
#
#
# Elastic Compliance Matrix: (Units=1/GPa)
#
#
# Indices 1 2 3 4 5 6 
#
# 1 0.020991 0.002326 -0.003660 0.000087 -0.008872 0.023876
# 2 0.002326 0.016512 -0.001231 -0.002865 0.005915 0.021732
# 3 -0.003660 -0.001231 0.015197 0.010114 0.001201 0.003569
# 4 0.000087 -0.002865 0.010114 0.067105 0.007958 -0.008780
# 5 -0.008872 0.005915 0.001201 0.007958 0.036588 0.007340
# 6 0.023876 0.021732 0.003569 -0.008780 0.007340 0.107465
#
#
# Mechanical properties :
#
#
# Convention : Reuss Voigt Hill
#
# Bulk Modulus (GPa) = 21.02180 46.22794 33.62487
# Shear Modulus (GPa) = 17.55342 29.76317 23.65829
#
# Velocity S-wave (km/s) = 2.84190 3.70055 3.29928
# Velocity P-wave (km/s) = 4.52114 6.28716 5.47581
#
# Compressibility (1/GPa) = 0.04756966
#
# Stress axis : x y z
#
# Youngs Moduli (GPa) = 47.64056 60.56162 65.80156
#
# Poissons Ratio (x) = -0.14084 0.24084
# Poissons Ratio (y) = -0.11079 0.08098
# Poissons Ratio (z) = 0.17437 0.07453
#
# Static dielectric constant tensor:
#      x y z
#    x 1.832830 0.017220 0.006680 
#    y 0.017220 1.819440 -0.043750 
#    z 0.006680 -0.043750 1.823600 
# 
# From -- ./inp_files/205652.got.cif
#   From: 2010.05.17/outbox.cif.g08.bks.cpg/sg2_103_cif.got.tgz:205652.got - 2010.06.03 11:33:40.
