data_PCOD9089444
_publ_section_title
;
Structure prediction by ZEFSAII (Michael W. Deem and Ramdas Pophale) SiO2 
 PCOD9089444
Probable space group: P -1
;
_chemical_formula_sum "Si O2"
_cell_formula_units_Z 12
_cell_length_a 29.119609
_cell_length_b 6.509746
_cell_length_c 15.547058
_cell_angle_alpha 124.376219
_cell_angle_beta 160.457626
_cell_angle_gamma 45.331489
_cell_volume 639.007398
_symmetry_space_group_name_H-M "P -1"
_symmetry_group_IT_number 2
_symmetry_cell_setting 'triclinic'
loop_
_space_group_symop_operation_xyz
x,y,z
-x,-y,-z
loop_
_atom_site_type_symbol
_atom_site_label
_atom_site_fract_x
_atom_site_fract_y
_atom_site_fract_z
Si Si1 0.140229 0.576679 0.999973
Si Si2 0.918504 0.286803 0.717098
Si Si3 0.916913 0.331986 0.536410
Si Si4 0.787172 0.611232 0.735917
Si Si5 0.126755 0.581841 0.711106
Si Si6 0.563742 0.710080 0.675701
O O1 0.158050 0.624256 0.143076
O O2 0.327448 0.350136 0.231973
O O3 0.055036 0.401435 0.802197
O O4 0.017637 0.913065 0.815148
O O5 0.830717 0.414762 0.498558
O O6 0.794743 0.471440 0.623967
O O7 0.072279 0.321215 0.002392
O O8 0.820223 0.493785 0.314014
O O9 0.016283 0.959150 0.614332
O O10 0.601453 0.935379 0.509741
O O11 0.000000 0.500000 0.500000
O O12 0.295149 0.416689 0.029251
O O13 0.500000 0.500000 0.500000
#
# Coordination Sequence:
#
# PCOD9089444 Si02
#       6
#     2   2   2   2   2   2
#     4  11  19  37  61  84 116 154 193 240 288 338
#     4  10  19  38  55  84 120 155 192 232 288 351
#     4  10  20  36  63  84 110 158 198 231 281 354
#     4  10  22  33  56  87 120 153 189 238 293 340
#     4  11  21  38  60  89 115 153 194 237 290 344
#     4  12  21  38  59  91 119 144 194 251 285 331
#
# _framework density 18.779125000000001
#
# number of rings (size 3 to 8) (size 9 to 14) (size 15 to 20)
#    0.000    1.333    5.000    2.000    0.000    0.000 
#    0.000    0.833    0.000    4.000    0.000    0.000 
#    0.000    0.000    0.000    0.000    0.000    0.000 
#
# Total GULP energy -66920.637953 kJ/mol
# GULP energy per Si atom -5576.719829 kJ/mol
# Density = 1.873638 g / cm^3
# Si number density = 18.779125 Si / 1000 Ang^3
#
#
#
# Elastic Constant Matrix: (Units=GPa)
#
#
# Indices 1 2 3 4 5 6 
#
# 1 184.3509 40.3220 41.1730 1.7163 -17.9647 -9.6888
# 2 40.3220 49.0696 11.5866 -2.9741 2.5629 -4.7853
# 3 41.1730 11.5866 60.8111 2.8399 -14.2550 -0.0947
# 4 1.7163 -2.9741 2.8399 19.7662 -7.2962 0.0541
# 5 -17.9647 2.5629 -14.2550 -7.2962 30.2886 -4.5079
# 6 -9.6888 -4.7853 -0.0947 0.0541 -4.5079 30.8848
#
#
#
# Elastic Compliance Matrix: (Units=1/GPa)
#
#
# Indices 1 2 3 4 5 6 
#
# 1 0.007920 -0.005690 -0.003351 0.000418 0.004027 0.002180
# 2 -0.005690 0.026300 -0.002692 0.002608 -0.006031 0.001397
# 3 -0.003351 -0.002692 0.021136 -0.000153 0.008118 -0.000218
# 4 0.000418 0.002608 -0.000153 0.056066 0.013826 0.002455
# 5 0.004027 -0.006031 0.008118 0.013826 0.044073 0.006763
# 6 0.002180 0.001397 -0.000218 0.002455 0.006763 0.034261
#
#
# Mechanical properties :
#
#
# Convention : Reuss Voigt Hill
#
# Bulk Modulus (GPa) = 31.35671 53.37718 42.36695
# Shear Modulus (GPa) = 22.33634 29.59792 25.96713
#
# Velocity S-wave (km/s) = 3.45254 3.97433 3.72259
# Velocity P-wave (km/s) = 5.71203 7.03888 6.40988
#
# Compressibility (1/GPa) = 0.03189110
#
# Stress axis : x y z
#
# Youngs Moduli (GPa) = 126.25678 38.02343 47.31325
#
# Poissons Ratio (x) = 0.21634 0.15853
# Poissons Ratio (y) = 0.71836 0.12737
# Poissons Ratio (z) = 0.42303 0.10236
#
# Static dielectric constant tensor:
#      x y z
#    x 1.736610 -0.007590 -0.044690 
#    y -0.007590 1.634830 0.013090 
#    z -0.044690 0.013090 1.624670 
# 
# From -- ./inp_files/18317.got.cif
#   From: 2010.05.17/outbox.cif.g08.bks.cpg/sg2_10_cif.got.tgz:18317.got - 2010.06.03 11:33:40.
