data_PCOD9089368
_publ_section_title
;
Structure prediction by ZEFSAII (Michael W. Deem and Ramdas Pophale) SiO2 
 PCOD9089368
Probable space group: P -1
;
_chemical_formula_sum "Si O2"
_cell_formula_units_Z 16
_cell_length_a 17.748022
_cell_length_b 9.269346
_cell_length_c 5.219436
_cell_angle_alpha 73.195293
_cell_angle_beta 80.992059
_cell_angle_gamma 110.703238
_cell_volume 736.106329
_symmetry_space_group_name_H-M "P -1"
_symmetry_group_IT_number 2
_symmetry_cell_setting 'triclinic'
loop_
_space_group_symop_operation_xyz
x,y,z
-x,-y,-z
loop_
_atom_site_type_symbol
_atom_site_label
_atom_site_fract_x
_atom_site_fract_y
_atom_site_fract_z
Si Si1 0.091591 0.010595 0.918615
Si Si2 0.802848 0.487065 0.667866
Si Si3 0.059508 0.532998 0.696574
Si Si4 0.465091 0.096570 0.661328
Si Si5 0.844636 0.226990 0.100821
Si Si6 0.191798 0.180823 0.275646
Si Si7 0.366541 0.806649 0.262735
Si Si8 0.314551 0.049176 0.496420
O O1 0.126030 0.070654 0.584696
O O2 0.088165 0.826520 0.038792
O O3 0.152376 0.126315 0.045707
O O4 0.000000 0.000000 0.000000
O O5 0.875803 0.547739 0.377531
O O6 0.795087 0.634790 0.750882
O O7 0.711602 0.362615 0.678214
O O8 0.830490 0.374049 0.898942
O O9 0.127565 0.718980 0.647983
O O10 0.000000 0.500000 0.500000
O O11 0.000000 0.500000 0.000000
O O12 0.551686 0.221681 0.680046
O O13 0.403139 0.161919 0.523544
O O14 0.500000 0.000000 0.500000
O O15 0.405836 0.949631 0.954398
O O16 0.759647 0.058602 0.214284
O O17 0.274421 0.145459 0.292884
O O18 0.332092 0.902776 0.429290
#
# Coordination Sequence:
#
# PCOD9089368 Si02
#       8
#     2   2   2   2   2   2   2   2
#     4  11  27  47  66  92 133 178 234 282 335 395
#     4  12  25  43  68 100 140 175 224 281 342 401
#     4  12  27  41  64  98 135 172 225 281 337 386
#     4   9  19  35  66 102 128 163 225 275 321 398
#     4  11  24  42  71  94 127 182 230 274 330 403
#     4  11  28  42  65  99 136 179 218 283 345 395
#     4  10  19  37  69 100 128 171 222 276 327 400
#     4  10  20  41  65  96 131 175 222 270 333 399
#
# _framework density 21.735987999999999
#
# number of rings (size 3 to 8) (size 9 to 14) (size 15 to 20)
#    0.000    1.250    3.750    1.125    8.750    0.000 
#    0.000    0.625    0.000    6.750    0.000    0.000 
#    0.000    0.000    0.000    0.000    0.000    0.000 
#
# Total GULP energy -89236.081171 kJ/mol
# GULP energy per Si atom -5577.255073 kJ/mol
# Density = 2.168652 g / cm^3
# Si number density = 21.735988 Si / 1000 Ang^3
#
#
#
# Elastic Constant Matrix: (Units=GPa)
#
#
# Indices 1 2 3 4 5 6 
#
# 1 177.8981 48.0511 14.5058 9.1654 13.3244 13.6772
# 2 48.0511 107.6342 3.2127 14.8360 14.6756 -6.4560
# 3 14.5058 3.2127 60.2155 11.2924 -5.8830 6.4095
# 4 9.1654 14.8360 11.2924 31.5484 0.8640 4.8267
# 5 13.3244 14.6756 -5.8830 0.8640 32.1729 0.0758
# 6 13.6772 -6.4560 6.4095 4.8267 0.0758 38.2959
#
#
#
# Elastic Compliance Matrix: (Units=1/GPa)
#
#
# Indices 1 2 3 4 5 6 
#
# 1 0.006875 -0.003011 -0.001448 0.000408 -0.001743 -0.002768
# 2 -0.003011 0.012158 0.000289 -0.005410 -0.004110 0.003766
# 3 -0.001448 0.000289 0.018698 -0.006246 0.004059 -0.001785
# 4 0.000408 -0.005410 -0.006246 0.037071 0.000172 -0.004685
# 5 -0.001743 -0.004110 0.004059 0.000172 0.034418 -0.000839
# 6 -0.002768 0.003766 -0.001785 -0.004685 -0.000839 0.028627
#
#
# Mechanical properties :
#
#
# Convention : Reuss Voigt Hill
#
# Bulk Modulus (GPa) = 34.02278 53.03186 43.52732
# Shear Modulus (GPa) = 32.05473 39.06866 35.56170
#
# Velocity S-wave (km/s) = 3.84439 4.24420 4.04923
# Velocity P-wave (km/s) = 5.94916 6.96195 6.47539
#
# Compressibility (1/GPa) = 0.02939208
#
# Stress axis : x y z
#
# Youngs Moduli (GPa) = 145.45931 82.24994 53.48111
#
# Poissons Ratio (x) = 0.24761 0.07742
# Poissons Ratio (y) = 0.43791 -0.01544
# Poissons Ratio (z) = 0.21057 -0.02374
#
# Static dielectric constant tensor:
#      x y z
#    x 1.669410 0.049570 0.186390 
#    y 0.049570 1.803680 -0.017990 
#    z 0.186390 -0.017990 1.759560 
# 
# From -- ./inp_files/106699.got.cif
#   From: 2010.05.17/outbox.cif.g08.bks.cpg/sg2_54_cif.got.tgz:106699.got - 2010.06.03 11:33:40.
