data_PCOD9089909
_publ_section_title
;
Structure prediction by ZEFSAII (Michael W. Deem and Ramdas Pophale) SiO2 
 PCOD9089909
Probable space group: P -1
;
_chemical_formula_sum "Si O2"
_cell_formula_units_Z 16
_cell_length_a 8.480577
_cell_length_b 9.423795
_cell_length_c 19.275901
_cell_angle_alpha 136.557475
_cell_angle_beta 46.324186
_cell_angle_gamma 105.430716
_cell_volume 674.946930
_symmetry_space_group_name_H-M "P -1"
_symmetry_group_IT_number 2
_symmetry_cell_setting 'triclinic'
loop_
_space_group_symop_operation_xyz
x,y,z
-x,-y,-z
loop_
_atom_site_type_symbol
_atom_site_label
_atom_site_fract_x
_atom_site_fract_y
_atom_site_fract_z
Si Si1 0.579808 0.373526 0.005072
Si Si2 0.562973 0.204916 0.715285
Si Si3 0.064983 0.387185 0.841034
Si Si4 0.103625 0.310194 0.252773
Si Si5 0.424426 0.966875 0.919747
Si Si6 0.321902 0.739778 0.600558
Si Si7 0.717251 0.934275 0.150017
Si Si8 0.219350 0.242188 0.586246
O O1 0.423464 0.571191 0.179941
O O2 0.500000 0.500000 0.000000
O O3 0.525846 0.156485 0.946373
O O4 0.865464 0.313192 0.904919
O O5 0.306693 0.302661 0.784441
O O6 0.521090 0.083087 0.753666
O O7 0.760953 0.998791 0.534802
O O8 0.125525 0.297670 0.712392
O O9 0.926107 0.668977 0.982039
O O10 0.918114 0.283993 0.354524
O O11 0.948378 0.544878 0.338845
O O12 0.349394 0.268181 0.203817
O O13 0.214239 0.096377 0.087083
O O14 0.330158 0.938090 0.863752
O O15 0.500000 0.500000 0.500000
O O16 0.501088 0.785080 0.511021
O O17 0.234439 0.930496 0.755503
#
# Coordination Sequence:
#
# PCOD9089909 Si02
#       8
#     2   2   2   2   2   2   2   2
#     4  11  20  38  63  90 123 160 201 252 307 361
#     4  10  22  36  62  92 122 160 199 256 312 361
#     4  11  21  37  64  94 122 156 205 257 304 365
#     4  10  22  41  61  87 121 163 203 253 292 363
#     4  11  22  38  63  91 122 158 208 249 299 359
#     4   9  21  39  63  85 120 161 203 249 304 350
#     4  10  19  38  62  90 120 157 203 255 299 360
#     4  10  20  42  60  92 129 155 200 259 309 358
#
# _framework density 23.705568
#
# number of rings (size 3 to 8) (size 9 to 14) (size 15 to 20)
#    0.000    1.750    3.750    1.875    5.250    0.500 
#    0.000    8.125    0.000    0.000    0.000    0.000 
#    0.000    0.000    0.000    0.000    0.000    0.000 
#
# Total GULP energy -89454.400173 kJ/mol
# GULP energy per Si atom -5590.900011 kJ/mol
# Density = 2.365161 g / cm^3
# Si number density = 23.705568 Si / 1000 Ang^3
#
#
#
# Elastic Constant Matrix: (Units=GPa)
#
#
# Indices 1 2 3 4 5 6 
#
# 1 51.8479 18.2742 35.9894 9.8138 -3.8100 -8.7377
# 2 18.2742 70.7540 24.3718 -8.1862 -3.7723 -0.8219
# 3 35.9894 24.3718 139.6810 -5.3892 14.4170 -4.7913
# 4 9.8138 -8.1862 -5.3892 25.5294 0.7227 -4.6771
# 5 -3.8100 -3.7723 14.4170 0.7227 37.8013 -5.2777
# 6 -8.7377 -0.8219 -4.7913 -4.6771 -5.2777 35.4328
#
#
#
# Elastic Compliance Matrix: (Units=1/GPa)
#
#
# Indices 1 2 3 4 5 6 
#
# 1 0.031502 -0.006705 -0.008025 -0.015130 0.006626 0.005517
# 2 -0.006705 0.017218 -0.001116 0.007793 0.001293 -0.000184
# 3 -0.008025 -0.001116 0.010097 0.004864 -0.004967 -0.000737
# 4 -0.015130 0.007793 0.004864 0.049175 -0.003105 0.003136
# 5 0.006626 0.001293 -0.004967 -0.003105 0.029908 0.005037
# 6 0.005517 -0.000184 -0.000737 0.003136 0.005037 0.030643
#
#
# Mechanical properties :
#
#
# Convention : Reuss Voigt Hill
#
# Bulk Modulus (GPa) = 36.86720 46.61709 41.74214
# Shear Modulus (GPa) = 23.89194 31.99585 27.94389
#
# Velocity S-wave (km/s) = 3.17813 3.67784 3.43708
# Velocity P-wave (km/s) = 5.39010 6.14354 5.77911
#
# Compressibility (1/GPa) = 0.02712438
#
# Stress axis : x y z
#
# Youngs Moduli (GPa) = 31.74449 58.07862 99.04373
#
# Poissons Ratio (x) = 0.38942 0.79483
# Poissons Ratio (y) = 0.21285 0.11051
# Poissons Ratio (z) = 0.25475 0.06480
#
# Static dielectric constant tensor:
#      x y z
#    x 1.832490 0.279900 0.073400 
#    y 0.279900 1.332010 -0.278990 
#    z 0.073400 -0.278990 1.769870 
# 
# From -- ./inp_files/304090.got.cif
#   From: 2010.05.17/outbox.cif.g08.bks.cpg/sg2_153_cif.got.tgz:304090.got - 2010.06.03 11:33:40.
