data_PCOD9089588
_publ_section_title
;
Structure prediction by ZEFSAII (Michael W. Deem and Ramdas Pophale) SiO2 
 PCOD9089588
Probable space group: P -1
;
_chemical_formula_sum "Si O2"
_cell_formula_units_Z 16
_cell_length_a 8.114643
_cell_length_b 13.721166
_cell_length_c 17.548327
_cell_angle_alpha 147.568121
_cell_angle_beta 124.024695
_cell_angle_gamma 76.251991
_cell_volume 737.607439
_symmetry_space_group_name_H-M "P -1"
_symmetry_group_IT_number 2
_symmetry_cell_setting 'triclinic'
loop_
_space_group_symop_operation_xyz
x,y,z
-x,-y,-z
loop_
_atom_site_type_symbol
_atom_site_label
_atom_site_fract_x
_atom_site_fract_y
_atom_site_fract_z
Si Si1 0.127631 0.949178 0.740464
Si Si2 0.193882 0.432920 0.505136
Si Si3 0.661682 0.325800 0.444544
Si Si4 0.172389 0.912869 0.481971
Si Si5 0.625398 0.018418 0.743012
Si Si6 0.299873 0.112341 0.489131
Si Si7 0.521011 0.429581 0.173394
Si Si8 0.078866 0.544170 0.812334
O O1 0.278340 0.843698 0.688900
O O2 0.286231 0.200408 0.959210
O O3 0.968892 0.820531 0.687722
O O4 0.945430 0.895743 0.589488
O O5 0.342029 0.536709 0.535797
O O6 0.360835 0.528382 0.684865
O O7 0.000000 0.500000 0.500000
O O8 0.878129 0.487139 0.660812
O O9 0.447870 0.177658 0.347547
O O10 0.030126 0.661201 0.296389
O O11 0.387027 0.020655 0.668525
O O12 0.278504 0.974455 0.465146
O O13 0.000000 0.000000 0.500000
O O14 0.678027 0.972649 0.642275
O O15 0.829720 0.238435 0.975105
O O16 0.494588 0.363761 0.712816
O O17 0.699565 0.428511 0.158133
#
# Coordination Sequence:
#
# PCOD9089588 Si02
#       8
#     2   2   2   2   2   2   2   2
#     4  10  20  35  60  86 115 155 197 240 285 346
#     4   9  18  33  57  93 119 144 198 253 281 332
#     4  10  19  38  59  89 122 149 195 248 286 340
#     4  11  23  41  63  87 117 150 194 245 285 346
#     4  11  25  38  62  87 119 155 192 237 297 345
#     4  11  23  43  57  86 122 152 193 244 289 346
#     4  11  20  36  63  87 116 158 196 238 295 340
#     4  11  21  37  60  89 115 153 197 236 288 348
#
# _framework density 21.691754
#
# number of rings (size 3 to 8) (size 9 to 14) (size 15 to 20)
#    0.000    1.500    6.250    1.125    0.000    7.000 
#    0.000    2.500    0.000    4.500    0.000    0.000 
#    0.000    0.000    0.000    0.000    0.000    0.000 
#
# Total GULP energy -89415.520489 kJ/mol
# GULP energy per Si atom -5588.470031 kJ/mol
# Density = 2.164238 g / cm^3
# Si number density = 21.691754 Si / 1000 Ang^3
#
#
#
# Elastic Constant Matrix: (Units=GPa)
#
#
# Indices 1 2 3 4 5 6 
#
# 1 71.0430 28.5272 21.3448 4.7795 -7.4934 31.2204
# 2 28.5272 156.1482 46.5625 20.2062 6.6613 48.4811
# 3 21.3448 46.5625 166.1154 31.7990 7.9522 27.6677
# 4 4.7795 20.2062 31.7990 16.3721 7.2255 5.6860
# 5 -7.4934 6.6613 7.9522 7.2255 27.4888 -1.8331
# 6 31.2204 48.4811 27.6677 5.6860 -1.8331 48.0315
#
#
#
# Elastic Compliance Matrix: (Units=1/GPa)
#
#
# Indices 1 2 3 4 5 6 
#
# 1 0.020577 0.000774 0.000036 -0.004960 0.005824 -0.013367
# 2 0.000774 0.010757 0.000809 -0.011260 -0.000371 -0.010508
# 3 0.000036 0.000809 0.010317 -0.020396 0.001904 -0.004296
# 4 -0.004960 -0.011260 -0.020396 0.123011 -0.024334 0.010847
# 5 0.005824 -0.000371 0.001904 -0.024334 0.043904 0.000048
# 6 -0.013367 -0.010508 -0.004296 0.010847 0.000048 0.041306
#
#
# Mechanical properties :
#
#
# Convention : Reuss Voigt Hill
#
# Bulk Modulus (GPa) = 22.27766 65.13063 43.70415
# Shear Modulus (GPa) = 19.11329 38.16994 28.64162
#
# Velocity S-wave (km/s) = 2.97161 4.19937 3.63766
# Velocity P-wave (km/s) = 4.69748 7.32145 6.15102
#
# Compressibility (1/GPa) = 0.04488801
#
# Stress axis : x y z
#
# Youngs Moduli (GPa) = 48.59865 92.96299 96.92505
#
# Poissons Ratio (x) = -0.07192 -0.00351
# Poissons Ratio (y) = -0.03760 -0.07838
# Poissons Ratio (z) = -0.00176 -0.07518
#
# Static dielectric constant tensor:
#      x y z
#    x 1.907040 -0.019920 -0.004830 
#    y -0.019920 1.798850 0.021700 
#    z -0.004830 0.021700 1.727690 
# 
# From -- ./inp_files/294110.got.cif
#   From: 2010.05.17/outbox.cif.g08.bks.cpg/sg2_148_cif.got.tgz:294110.got - 2010.06.03 11:33:40.
