data_PCOD9089512
_publ_section_title
;
Structure prediction by ZEFSAII (Michael W. Deem and Ramdas Pophale) SiO2 
 PCOD9089512
Probable space group: P -1
;
_chemical_formula_sum "Si O2"
_cell_formula_units_Z 16
_cell_length_a 22.503661
_cell_length_b 11.202345
_cell_length_c 8.975881
_cell_angle_alpha 142.331725
_cell_angle_beta 40.153680
_cell_angle_gamma 143.130991
_cell_volume 774.818017
_symmetry_space_group_name_H-M "P -1"
_symmetry_group_IT_number 2
_symmetry_cell_setting 'triclinic'
loop_
_space_group_symop_operation_xyz
x,y,z
-x,-y,-z
loop_
_atom_site_type_symbol
_atom_site_label
_atom_site_fract_x
_atom_site_fract_y
_atom_site_fract_z
Si Si1 0.971827 0.255066 0.665819
Si Si2 0.902463 0.608113 0.156828
Si Si3 0.534862 0.694184 0.347558
Si Si4 0.278583 0.013325 0.490483
Si Si5 0.575130 0.797311 0.034311
Si Si6 0.061186 0.638778 0.662420
Si Si7 0.229412 0.199310 0.482493
Si Si8 0.411126 0.867759 0.912908
O O1 0.036933 0.247683 0.673544
O O2 0.060108 0.445833 0.578626
O O3 0.887911 0.019401 0.526094
O O4 0.899029 0.370631 0.958683
O O5 0.794631 0.601223 0.314459
O O6 0.984370 0.708202 0.962464
O O7 0.511038 0.445490 0.106449
O O8 0.434853 0.678063 0.615195
O O9 0.632992 0.836326 0.409561
O O10 0.554533 0.809603 0.260645
O O11 0.171059 0.849560 0.618921
O O12 0.266700 0.172937 0.548976
O O13 0.308889 0.850286 0.174738
O O14 0.688183 0.809269 0.800272
O O15 0.572477 0.980532 0.113867
O O16 0.000000 0.500000 0.500000
O O17 0.500000 0.000000 0.000000
#
# Coordination Sequence:
#
# PCOD9089512 Si02
#       8
#     2   2   2   2   2   2   2   2
#     4   9  20  39  57  82 119 154 192 242 279 346
#     4   9  21  37  60  80 119 160 187 237 294 335
#     4  10  22  42  61  85 123 150 199 250 300 342
#     4  10  21  37  61  90 117 160 195 245 291 354
#     4  10  23  38  62  91 117 153 199 251 286 357
#     4  10  19  38  58  83 122 149 195 240 284 342
#     4  11  21  37  59  88 115 156 196 231 299 346
#     4   9  20  39  64  84 117 157 195 239 305 346
#
# _framework density 20.650010000000002
#
# number of rings (size 3 to 8) (size 9 to 14) (size 15 to 20)
#    0.750    1.500    1.250    0.750    1.750    8.000 
#    0.000    7.500    0.000    0.000    0.000    0.000 
#    0.000    0.000    0.000    0.000    0.000    0.000 
#
# Total GULP energy -89129.237188 kJ/mol
# GULP energy per Si atom -5570.577324 kJ/mol
# Density = 2.060301 g / cm^3
# Si number density = 20.650010 Si / 1000 Ang^3
#
#
#
# Elastic Constant Matrix: (Units=GPa)
#
#
# Indices 1 2 3 4 5 6 
#
# 1 119.7458 22.2518 53.4826 -2.9866 14.1310 13.5778
# 2 22.2518 55.7245 16.4004 -10.1608 4.9045 12.9968
# 3 53.4826 16.4004 73.2838 -14.3298 13.2247 3.3893
# 4 -2.9866 -10.1608 -14.3298 26.7856 1.0312 -0.1040
# 5 14.1310 4.9045 13.2247 1.0312 34.2693 -1.9020
# 6 13.5778 12.9968 3.3893 -0.1040 -1.9020 22.2320
#
#
#
# Elastic Compliance Matrix: (Units=1/GPa)
#
#
# Indices 1 2 3 4 5 6 
#
# 1 0.013980 -0.001858 -0.010051 -0.004477 -0.001824 -0.006097
# 2 -0.001858 0.023816 -0.001199 0.008257 -0.003140 -0.012835
# 3 -0.010051 -0.001199 0.024359 0.011670 -0.005284 0.002729
# 4 -0.004477 0.008257 0.011670 0.046404 -0.005464 -0.004122
# 5 -0.001824 -0.003140 -0.005284 -0.005464 0.032949 0.006548
# 6 -0.006097 -0.012835 0.002729 -0.004122 0.006548 0.056332
#
#
# Mechanical properties :
#
#
# Convention : Reuss Voigt Hill
#
# Bulk Modulus (GPa) = 27.82587 48.11376 37.96982
# Shear Modulus (GPa) = 21.18321 27.09866 24.14094
#
# Velocity S-wave (km/s) = 3.20632 3.62647 3.42285
# Velocity P-wave (km/s) = 5.21647 6.39416 5.83510
#
# Compressibility (1/GPa) = 0.03593777
#
# Stress axis : x y z
#
# Youngs Moduli (GPa) = 71.52822 41.98901 41.05327
#
# Poissons Ratio (x) = 0.07803 0.41264
# Poissons Ratio (y) = 0.13292 0.04922
# Poissons Ratio (z) = 0.71896 0.05034
#
# Static dielectric constant tensor:
#      x y z
#    x 1.711400 -0.000940 -0.033990 
#    y -0.000940 1.752800 0.060330 
#    z -0.033990 0.060330 1.778320 
# 
# From -- ./inp_files/345666.got.cif
#   From: 2010.05.17/outbox.cif.g08.bks.cpg/sg2_173_cif.got.tgz:345666.got - 2010.06.03 11:33:40.
