data_PCOD9089923
_publ_section_title
;
Structure prediction by ZEFSAII (Michael W. Deem and Ramdas Pophale) SiO2 
 PCOD9089923
Probable space group: P -1
;
_chemical_formula_sum "Si O2"
_cell_formula_units_Z 16
_cell_length_a 10.458340
_cell_length_b 11.316758
_cell_length_c 11.306222
_cell_angle_alpha 146.263482
_cell_angle_beta 97.748972
_cell_angle_gamma 70.504950
_cell_volume 674.040920
_symmetry_space_group_name_H-M "P -1"
_symmetry_group_IT_number 2
_symmetry_cell_setting 'triclinic'
loop_
_space_group_symop_operation_xyz
x,y,z
-x,-y,-z
loop_
_atom_site_type_symbol
_atom_site_label
_atom_site_fract_x
_atom_site_fract_y
_atom_site_fract_z
Si Si1 0.552717 0.168848 0.817878
Si Si2 0.487872 0.195302 0.308379
Si Si3 0.974879 0.776500 0.283210
Si Si4 0.720785 0.769638 0.894154
Si Si5 0.120276 0.074386 0.124170
Si Si6 0.758304 0.645901 0.052921
Si Si7 0.345743 0.567517 0.781487
Si Si8 0.175661 0.243331 0.523599
O O1 0.393219 0.261073 0.826727
O O2 0.549376 0.991538 0.774477
O O3 0.691725 0.999995 0.625582
O O4 0.577357 0.385354 0.055416
O O5 0.642650 0.037541 0.151886
O O6 0.458062 0.411821 0.569618
O O7 0.383219 0.267601 0.244643
O O8 0.838287 0.817379 0.220929
O O9 0.937600 0.689999 0.331279
O O10 0.000000 0.000000 0.500000
O O11 0.118327 0.593848 0.091005
O O12 0.737595 0.621755 0.890671
O O13 0.855539 0.755100 0.826052
O O14 0.113706 0.188581 0.347937
O O15 0.253471 0.827138 0.943232
O O16 0.000000 0.000000 0.000000
O O17 0.242934 0.433396 0.676514
#
# Coordination Sequence:
#
# PCOD9089923 Si02
#       8
#     2   2   2   2   2   2   2   2
#     4   9  19  41  65  98 125 159 204 257 312 370
#     4   9  18  36  59  92 134 157 196 249 304 375
#     4  11  27  48  64  87 122 169 216 262 310 361
#     4  10  19  39  59  93 131 158 196 256 301 368
#     4  11  24  36  57  94 132 164 202 245 306 379
#     4  10  25  43  66  92 127 162 214 261 304 365
#     4  10  19  38  62  91 128 164 197 250 315 369
#     4  10  23  43  64  91 126 163 207 260 305 374
#
# _framework density 23.737431000000001
#
# number of rings (size 3 to 8) (size 9 to 14) (size 15 to 20)
#    0.000    2.000    3.750    0.000    3.500    8.500 
#    0.000    1.250    0.000    0.000    0.000    0.000 
#    0.000    0.000    0.000    0.000    0.000    0.000 
#
# Total GULP energy -89358.928134 kJ/mol
# GULP energy per Si atom -5584.933008 kJ/mol
# Density = 2.368340 g / cm^3
# Si number density = 23.737431 Si / 1000 Ang^3
#
#
#
# Elastic Constant Matrix: (Units=GPa)
#
#
# Indices 1 2 3 4 5 6 
#
# 1 60.7143 14.4424 8.1272 9.2998 13.2387 -21.2594
# 2 14.4424 50.9388 14.6676 -11.2767 8.0445 0.1005
# 3 8.1272 14.6676 121.0778 -4.7284 14.4371 -7.0801
# 4 9.2998 -11.2767 -4.7284 19.4573 -3.6396 1.1170
# 5 13.2387 8.0445 14.4371 -3.6396 37.4986 -2.1169
# 6 -21.2594 0.1005 -7.0801 1.1170 -2.1169 37.9340
#
#
#
# Elastic Compliance Matrix: (Units=1/GPa)
#
#
# Indices 1 2 3 4 5 6 
#
# 1 0.032308 -0.013572 0.000762 -0.026106 -0.010279 0.018479
# 2 -0.013572 0.029201 -0.002364 0.023568 0.001231 -0.008750
# 3 0.000762 -0.002364 0.008971 -0.000252 -0.003131 0.001941
# 4 -0.026106 0.023568 -0.000252 0.080501 0.011140 -0.016489
# 5 -0.010279 0.001231 -0.003131 0.011140 0.032043 -0.004888
# 6 0.018479 -0.008750 0.001941 -0.016489 -0.004888 0.037316
#
#
# Mechanical properties :
#
#
# Convention : Reuss Voigt Hill
#
# Bulk Modulus (GPa) = 24.91830 34.13392 29.52611
# Shear Modulus (GPa) = 18.93474 32.01089 25.47282
#
# Velocity S-wave (km/s) = 2.82738 3.67623 3.27939
# Velocity P-wave (km/s) = 4.60207 5.69479 5.17733
#
# Compressibility (1/GPa) = 0.04013115
#
# Stress axis : x y z
#
# Youngs Moduli (GPa) = 30.95254 34.24588 111.46560
#
# Poissons Ratio (x) = 0.46478 -0.08496
# Poissons Ratio (y) = 0.42009 0.26356
# Poissons Ratio (z) = -0.02359 0.08097
#
# Static dielectric constant tensor:
#      x y z
#    x 1.946770 -0.026580 -0.020360 
#    y -0.026580 1.978820 -0.004280 
#    z -0.020360 -0.004280 1.885030 
# 
# From -- ./inp_files/427921.got.cif
#   From: 2010.05.17/outbox.cif.g08.bks.cpg/sg2_214_cif.got.tgz:427921.got - 2010.06.03 11:33:40.
