data_PCOD9089342
_publ_section_title
;
Structure prediction by ZEFSAII (Michael W. Deem and Ramdas Pophale) SiO2 
 PCOD9089342
Probable space group: P -1
;
_chemical_formula_sum "Si O2"
_cell_formula_units_Z 16
_cell_length_a 14.348812
_cell_length_b 8.959660
_cell_length_c 13.286278
_cell_angle_alpha 110.225416
_cell_angle_beta 95.595746
_cell_angle_gamma 32.478696
_cell_volume 794.221216
_symmetry_space_group_name_H-M "P -1"
_symmetry_group_IT_number 2
_symmetry_cell_setting 'triclinic'
loop_
_space_group_symop_operation_xyz
x,y,z
-x,-y,-z
loop_
_atom_site_type_symbol
_atom_site_label
_atom_site_fract_x
_atom_site_fract_y
_atom_site_fract_z
Si Si1 0.622161 0.109449 0.777291
Si Si2 0.534539 0.619841 0.486602
Si Si3 0.672583 0.847927 0.530820
Si Si4 0.299324 0.765518 0.770461
Si Si5 0.964342 0.353174 0.291700
Si Si6 0.647126 0.967083 0.259194
Si Si7 0.572675 0.794935 0.054159
Si Si8 0.028635 0.922569 0.101621
O O1 0.459724 0.460069 0.791888
O O2 0.559581 0.136397 0.885718
O O3 0.646864 0.921245 0.661552
O O4 0.823433 0.897775 0.748976
O O5 0.500000 0.500000 0.500000
O O6 0.694110 0.356375 0.358223
O O7 0.360115 0.931693 0.472371
O O8 0.524782 0.748628 0.612950
O O9 0.868369 0.499508 0.426189
O O10 0.500000 0.000000 0.500000
O O11 0.330133 0.901453 0.769624
O O12 0.101229 0.030889 0.865246
O O13 0.828637 0.656856 0.274956
O O14 0.962911 0.175556 0.211849
O O15 0.622723 0.853935 0.157181
O O16 0.754008 0.435742 0.948787
O O17 0.500000 0.000000 0.000000
O O18 0.000000 0.000000 0.000000
#
# Coordination Sequence:
#
# PCOD9089342 Si02
#       8
#     2   2   2   2   2   2   2   2
#     4  11  23  41  64  97 128 160 209 262 313 366
#     4   8  16  33  60  92 117 147 192 243 304 367
#     4  10  19  37  68  94 124 163 202 248 314 380
#     4  10  21  39  68  93 122 165 203 256 316 377
#     4  11  23  39  66  98 127 161 205 262 313 372
#     4  10  21  41  66  92 123 165 207 253 319 376
#     4  12  28  44  61  86 124 170 219 263 306 367
#     4  12  24  44  61  86 124 168 221 253 308 377
#
# _framework density 20.145522
#
# number of rings (size 3 to 8) (size 9 to 14) (size 15 to 20)
#    0.000    1.500    2.500    3.375    3.500    2.000 
#    0.000    0.000    0.000    1.500    0.000    0.000 
#    0.000    0.000    0.000    0.000    0.000    0.000 
#
# Total GULP energy -89189.742588 kJ/mol
# GULP energy per Si atom -5574.358912 kJ/mol
# Density = 2.009967 g / cm^3
# Si number density = 20.145522 Si / 1000 Ang^3
#
#
#
# Elastic Constant Matrix: (Units=GPa)
#
#
# Indices 1 2 3 4 5 6 
#
# 1 80.2643 20.2418 5.0293 1.9311 -21.5390 4.8822
# 2 20.2418 75.7403 11.1610 2.2870 -19.9748 12.0928
# 3 5.0293 11.1610 56.6813 7.9678 -26.6772 8.0885
# 4 1.9311 2.2870 7.9678 32.0584 2.5848 -0.2795
# 5 -21.5390 -19.9748 -26.6772 2.5848 40.6693 4.9846
# 6 4.8822 12.0928 8.0885 -0.2795 4.9846 34.6165
#
#
#
# Elastic Compliance Matrix: (Units=1/GPa)
#
#
# Indices 1 2 3 4 5 6 
#
# 1 0.016205 -0.000823 0.006148 -0.003548 0.013092 -0.005348
# 2 -0.000823 0.017497 0.003994 -0.003239 0.012049 -0.008691
# 3 0.006148 0.003994 0.034318 -0.011755 0.030282 -0.014736
# 4 -0.003548 -0.003239 -0.011755 0.035769 -0.014277 0.006723
# 5 0.013092 0.012049 0.030282 -0.014277 0.060909 -0.022017
# 6 -0.005348 -0.008691 -0.014736 0.006723 -0.022017 0.039346
#
#
# Mechanical properties :
#
#
# Convention : Reuss Voigt Hill
#
# Bulk Modulus (GPa) = 11.53970 31.72780 21.63375
# Shear Modulus (GPa) = 23.33248 33.21909 28.27579
#
# Velocity S-wave (km/s) = 3.40692 4.06514 3.75050
# Velocity P-wave (km/s) = 4.60616 6.14958 5.43296
#
# Compressibility (1/GPa) = 0.08665736
#
# Stress axis : x y z
#
# Youngs Moduli (GPa) = 61.70908 57.15146 29.13921
#
# Poissons Ratio (x) = 0.04704 -0.17914
# Poissons Ratio (y) = 0.05079 -0.11638
# Poissons Ratio (z) = -0.37937 -0.22825
#
# Static dielectric constant tensor:
#      x y z
#    x 1.738200 0.010760 0.003210 
#    y 0.010760 1.676840 -0.009960 
#    z 0.003210 -0.009960 1.760380 
# 
# From -- ./inp_files/242450.got.cif
#   From: 2010.05.17/outbox.cif.g08.bks.cpg/sg2_122_cif.got.tgz:242450.got - 2010.06.03 11:33:40.
