data_PCOD9089204
_publ_section_title
;
Structure prediction by ZEFSAII (Michael W. Deem and Ramdas Pophale) SiO2 
 PCOD9089204
Probable space group: P -1
;
_chemical_formula_sum "Si O2"
_cell_formula_units_Z 14
_cell_length_a 6.667963
_cell_length_b 12.088065
_cell_length_c 13.435478
_cell_angle_alpha 139.284118
_cell_angle_beta 66.707697
_cell_angle_gamma 127.113554
_cell_volume 559.313709
_symmetry_space_group_name_H-M "P -1"
_symmetry_group_IT_number 2
_symmetry_cell_setting 'triclinic'
loop_
_space_group_symop_operation_xyz
x,y,z
-x,-y,-z
loop_
_atom_site_type_symbol
_atom_site_label
_atom_site_fract_x
_atom_site_fract_y
_atom_site_fract_z
Si Si1 0.002773 0.790416 0.693446
Si Si2 0.595679 0.207967 0.075376
Si Si3 0.430005 0.646739 0.015539
Si Si4 0.140460 0.553630 0.645471
Si Si5 0.222769 0.838244 0.476265
Si Si6 0.978827 0.849815 0.117783
Si Si7 0.026200 0.752939 0.247696
O O1 0.120563 0.729818 0.718797
O O2 0.819233 0.576206 0.533863
O O3 0.188867 0.897288 0.634977
O O4 0.922761 0.952395 0.832990
O O5 0.645805 0.363662 0.256992
O O6 0.456369 0.211445 0.006758
O O7 0.875871 0.262675 0.019773
O O8 0.500000 0.000000 0.000000
O O9 0.681481 0.696262 0.058562
O O10 0.248064 0.700669 0.150378
O O11 0.242882 0.437899 0.857409
O O12 0.873005 0.391617 0.637790
O O13 0.050447 0.820323 0.402628
O O14 0.500000 0.000000 0.500000
O O15 0.058046 0.901308 0.253504
#
# Coordination Sequence:
#
# PCOD9089204 Si02
#       7
#     2   2   2   2   2   2   2
#     4   9  20  39  61  87 127 165 213 257 312 382
#     4  11  23  40  67  92 126 167 218 262 320 385
#     4  10  20  39  60  91 136 168 201 266 322 379
#     4   9  20  41  63  87 127 173 209 254 326 383
#     4  10  19  37  66  91 124 172 212 255 320 382
#     4  11  23  39  65  99 124 165 215 266 319 376
#     4  10  21  37  62  96 130 166 213 258 321 381
#
# _framework density 25.030674999999999
#
# number of rings (size 3 to 8) (size 9 to 14) (size 15 to 20)
#    0.857    1.143    1.429    2.143    0.000    4.000 
#    2.571    0.714    0.000    0.000    0.000    0.000 
#    0.000    0.000    0.000    0.000    0.000    0.000 
#
# Total GULP energy -78062.625674 kJ/mol
# GULP energy per Si atom -5575.901834 kJ/mol
# Density = 2.497370 g / cm^3
# Si number density = 25.030675 Si / 1000 Ang^3
#
#
#
# Elastic Constant Matrix: (Units=GPa)
#
#
# Indices 1 2 3 4 5 6 
#
# 1 103.7917 34.3852 23.8067 -6.1486 19.5462 -8.1250
# 2 34.3852 98.0960 6.0688 -3.3669 11.5912 -19.2776
# 3 23.8067 6.0688 76.8311 -2.0229 20.6748 1.7121
# 4 -6.1486 -3.3669 -2.0229 38.5578 -7.2049 6.7991
# 5 19.5462 11.5912 20.6748 -7.2049 33.0050 3.7467
# 6 -8.1250 -19.2776 1.7121 6.7991 3.7467 35.5209
#
#
#
# Elastic Compliance Matrix: (Units=1/GPa)
#
#
# Indices 1 2 3 4 5 6 
#
# 1 0.012294 -0.003279 -0.002286 0.000381 -0.004793 0.001575
# 2 -0.003279 0.013142 0.000963 -0.001389 -0.004382 0.007064
# 3 -0.002286 0.000963 0.016140 -0.001276 -0.009426 0.000460
# 4 0.000381 -0.001389 -0.001276 0.028537 0.008077 -0.006920
# 5 -0.004793 -0.004382 -0.009426 0.008077 0.043382 -0.009142
# 6 0.001575 0.007064 0.000460 -0.006920 -0.009142 0.034613
#
#
# Mechanical properties :
#
#
# Convention : Reuss Voigt Hill
#
# Bulk Modulus (GPa) = 30.88942 45.24890 38.06916
# Shear Modulus (GPa) = 29.74388 35.71395 32.72891
#
# Velocity S-wave (km/s) = 3.45091 3.78141 3.61993
# Velocity P-wave (km/s) = 5.31468 6.09771 5.71961
#
# Compressibility (1/GPa) = 0.03237354
#
# Stress axis : x y z
#
# Youngs Moduli (GPa) = 81.34251 76.09086 61.95659
#
# Poissons Ratio (x) = 0.24949 0.14161
# Poissons Ratio (y) = 0.26671 -0.05967
# Poissons Ratio (z) = 0.18592 -0.07328
#
# Static dielectric constant tensor:
#      x y z
#    x 1.983800 0.012640 -0.095420 
#    y 0.012640 2.068150 -0.022290 
#    z -0.095420 -0.022290 2.069700 
# 
# From -- ./inp_files/482339.got.cif
#   From: 2010.05.17/outbox.cif.g08.bks.cpg/sg2_242_cif.got.tgz:482339.got - 2010.06.03 11:33:40.
