data_PCOD9089661
_publ_section_title
;
Structure prediction by ZEFSAII (Michael W. Deem and Ramdas Pophale) SiO2 
 PCOD9089661
Probable space group: P -1
;
_chemical_formula_sum "Si O2"
_cell_formula_units_Z 14
_cell_length_a 11.975249
_cell_length_b 9.436762
_cell_length_c 7.927922
_cell_angle_alpha 106.188986
_cell_angle_beta 131.635903
_cell_angle_gamma 96.760303
_cell_volume 582.950206
_symmetry_space_group_name_H-M "P -1"
_symmetry_group_IT_number 2
_symmetry_cell_setting 'triclinic'
loop_
_space_group_symop_operation_xyz
x,y,z
-x,-y,-z
loop_
_atom_site_type_symbol
_atom_site_label
_atom_site_fract_x
_atom_site_fract_y
_atom_site_fract_z
Si Si1 0.785453 0.337569 0.769408
Si Si2 0.888985 0.835909 0.549931
Si Si3 0.436922 0.332799 0.054594
Si Si4 0.865442 0.658049 0.815016
Si Si5 0.765068 0.918061 0.990657
Si Si6 0.597107 0.357086 0.882549
Si Si7 0.686714 0.992771 0.582158
O O1 0.755313 0.465446 0.663154
O O2 0.759461 0.386038 0.950892
O O3 0.667902 0.150423 0.554801
O O4 0.963175 0.334273 0.937222
O O5 0.744147 0.727845 0.242201
O O6 0.888825 0.722683 0.669391
O O7 0.827402 0.964330 0.612031
O O8 0.074797 0.945348 0.711469
O O9 0.576317 0.359024 0.063689
O O10 0.390972 0.182601 0.083754
O O11 0.465448 0.510742 0.206580
O O12 0.806936 0.775017 0.902142
O O13 0.733853 0.010422 0.831573
O O14 0.469581 0.175996 0.649636
#
# Coordination Sequence:
#
# PCOD9089661 Si02
#       7
#     2   2   2   2   2   2   2
#     4  11  19  37  60  87 115 141 185 243 282 325
#     4  10  19  38  60  88 110 145 189 239 274 332
#     4  10  22  38  58  80 118 154 189 220 278 344
#     4  10  20  34  64  87 110 141 192 238 285 319
#     4  11  18  38  61  89 107 145 194 238 273 326
#     4  10  22  39  55  81 117 157 184 224 279 337
#     4  10  20  35  64  84 113 141 195 237 274 325
#
# _framework density 24.015774
#
# number of rings (size 3 to 8) (size 9 to 14) (size 15 to 20)
#    0.000    1.714    4.286    1.714    0.000    0.571 
#    5.143    1.429    6.286    0.000    0.000    0.000 
#    0.000    0.000    0.000    0.000    0.000    0.000 
#
# Total GULP energy -78197.029189 kJ/mol
# GULP energy per Si atom -5585.502085 kJ/mol
# Density = 2.396111 g / cm^3
# Si number density = 24.015774 Si / 1000 Ang^3
#
#
#
# Elastic Constant Matrix: (Units=GPa)
#
#
# Indices 1 2 3 4 5 6 
#
# 1 69.3266 25.3792 -16.0757 1.7989 6.1166 11.4368
# 2 25.3792 170.3487 40.9131 22.8210 3.0435 1.7431
# 3 -16.0757 40.9131 47.0503 9.1692 2.7813 -2.6360
# 4 1.7989 22.8210 9.1692 37.4858 1.5474 7.4685
# 5 6.1166 3.0435 2.7813 1.5474 13.7337 4.9955
# 6 11.4368 1.7431 -2.6360 7.4685 4.9955 28.0877
#
#
#
# Elastic Compliance Matrix: (Units=1/GPa)
#
#
# Indices 1 2 3 4 5 6 
#
# 1 0.021282 -0.006127 0.012555 0.001167 -0.008657 -0.005878
# 2 -0.006127 0.009542 -0.009765 -0.003524 0.002448 0.001488
# 3 0.012555 -0.009765 0.035383 -0.003181 -0.010811 0.001583
# 4 0.001167 -0.003524 -0.003181 0.031310 0.000650 -0.008996
# 5 -0.008657 0.002448 -0.010811 0.000650 0.082805 -0.012542
# 6 -0.005878 0.001488 0.001583 -0.008996 -0.012542 0.042675
#
#
# Mechanical properties :
#
#
# Convention : Reuss Voigt Hill
#
# Bulk Modulus (GPa) = 16.79818 43.01765 29.90792
# Shear Modulus (GPa) = 20.03889 31.62869 25.83379
#
# Velocity S-wave (km/s) = 2.89174 3.63298 3.28335
# Velocity P-wave (km/s) = 4.26138 5.96232 5.18211
#
# Compressibility (1/GPa) = 0.05953025
#
# Stress axis : x y z
#
# Youngs Moduli (GPa) = 46.98816 104.80380 28.26245
#
# Poissons Ratio (x) = 0.64218 -0.35483
# Poissons Ratio (y) = 0.28792 0.27599
# Poissons Ratio (z) = -0.58992 1.02343
#
# Static dielectric constant tensor:
#      x y z
#    x 1.979870 0.072770 0.062130 
#    y 0.072770 1.934500 0.034990 
#    z 0.062130 0.034990 2.006910 
# 
# From -- ./inp_files/153725.got.cif
#   From: 2010.05.17/outbox.cif.g08.bks.cpg/sg2_77_cif.got.tgz:153725.got - 2010.06.03 11:33:40.
