data_PCOD9089872
_publ_section_title
;
Structure prediction by ZEFSAII (Michael W. Deem and Ramdas Pophale) SiO2 
 PCOD9089872
Probable space group: P -1
;
_chemical_formula_sum "Si O2"
_cell_formula_units_Z 16
_cell_length_a 17.320039
_cell_length_b 8.385849
_cell_length_c 14.976046
_cell_angle_alpha 60.426558
_cell_angle_beta 149.823765
_cell_angle_gamma 102.541352
_cell_volume 834.619426
_symmetry_space_group_name_H-M "P -1"
_symmetry_group_IT_number 2
_symmetry_cell_setting 'triclinic'
loop_
_space_group_symop_operation_xyz
x,y,z
-x,-y,-z
loop_
_atom_site_type_symbol
_atom_site_label
_atom_site_fract_x
_atom_site_fract_y
_atom_site_fract_z
Si Si1 0.689847 0.424281 0.743821
Si Si2 0.086278 0.944545 0.811766
Si Si3 0.247898 0.878530 0.449238
Si Si4 0.861029 0.680061 0.876912
Si Si5 0.835359 0.720236 0.302072
Si Si6 0.467197 0.733589 0.885783
Si Si7 0.118453 0.076780 0.540654
Si Si8 0.887178 0.247273 0.804967
O O1 0.500000 0.500000 0.500000
O O2 0.716105 0.608151 0.762895
O O3 0.798462 0.338584 0.785009
O O4 0.753136 0.236083 0.927647
O O5 0.140420 0.099867 0.774379
O O6 0.930439 0.069901 0.690837
O O7 0.000646 0.841312 0.689092
O O8 0.398770 0.797070 0.697476
O O9 0.250930 0.720526 0.419194
O O10 0.217449 0.094679 0.312727
O O11 0.000000 0.500000 0.000000
O O12 0.964982 0.678959 0.070834
O O13 0.849214 0.767292 0.407545
O O14 0.000000 0.500000 0.500000
O O15 0.648538 0.735774 0.087311
O O16 0.305557 0.892111 0.743880
O O17 0.500000 0.500000 0.000000
O O18 0.000000 0.000000 0.500000
O O19 0.000000 0.000000 0.000000
#
# Coordination Sequence:
#
# PCOD9089872 Si02
#       8
#     2   2   2   2   2   2   2   2
#     4  11  22  37  56  90 124 156 197 251 297 350
#     4  10  20  39  61  84 122 157 198 248 307 362
#     4  10  19  38  62  87 116 160 199 252 298 357
#     4   9  17  35  59  82 115 158 198 233 291 357
#     4  11  23  43  63  90 122 161 201 259 314 368
#     4  11  23  41  64  92 124 158 206 254 307 373
#     4   9  20  41  66  88 121 156 203 255 310 364
#     4   9  17  38  61  80 117 158 202 241 289 362
#
# _framework density 19.170414000000001
#
# number of rings (size 3 to 8) (size 9 to 14) (size 15 to 20)
#    0.000    2.000    3.750    2.625    1.750    0.000 
#   11.250    2.500    0.000    0.000    0.000    0.000 
#    0.000    0.000    0.000    0.000    0.000    0.000 
#
# Total GULP energy -89078.786672 kJ/mol
# GULP energy per Si atom -5567.424167 kJ/mol
# Density = 1.912678 g / cm^3
# Si number density = 19.170414 Si / 1000 Ang^3
#
#
#
# Elastic Constant Matrix: (Units=GPa)
#
#
# Indices 1 2 3 4 5 6 
#
# 1 46.4749 38.9722 34.7391 2.3346 -3.2762 -1.8351
# 2 38.9722 149.8041 77.4741 28.2501 -4.5489 -4.9293
# 3 34.7391 77.4741 151.8293 23.9391 -0.3061 -1.3738
# 4 2.3346 28.2501 23.9391 23.4014 2.6982 1.7666
# 5 -3.2762 -4.5489 -0.3061 2.6982 29.9856 5.9861
# 6 -1.8351 -4.9293 -1.3738 1.7666 5.9861 35.0723
#
#
#
# Elastic Compliance Matrix: (Units=1/GPa)
#
#
# Indices 1 2 3 4 5 6 
#
# 1 0.031117 -0.007562 -0.005000 0.011021 0.001291 -0.000406
# 2 -0.007562 0.012357 -0.002712 -0.011708 0.001770 0.001522
# 3 -0.005000 -0.002712 0.010154 -0.006592 -0.000288 0.000136
# 4 0.011021 -0.011708 -0.006592 0.063428 -0.005636 -0.003560
# 5 0.001291 0.001770 -0.000288 -0.005636 0.035350 -0.005445
# 6 -0.000406 0.001522 0.000136 -0.003560 -0.005445 0.029819
#
#
# Mechanical properties :
#
#
# Convention : Reuss Voigt Hill
#
# Bulk Modulus (GPa) = 43.32636 72.27547 57.80092
# Shear Modulus (GPa) = 22.67923 30.82003 26.74963
#
# Velocity S-wave (km/s) = 3.44326 4.01395 3.73950
# Velocity P-wave (km/s) = 6.20143 7.69843 6.99012
#
# Compressibility (1/GPa) = 0.02308064
#
# Stress axis : x y z
#
# Youngs Moduli (GPa) = 32.13703 80.92695 98.48251
#
# Poissons Ratio (x) = 0.61197 0.49239
# Poissons Ratio (y) = 0.24302 0.26707
# Poissons Ratio (z) = 0.16068 0.21946
#
# Static dielectric constant tensor:
#      x y z
#    x 1.712260 -0.011790 -0.009520 
#    y -0.011790 1.712490 0.044510 
#    z -0.009520 0.044510 1.682160 
# 
# From -- ./inp_files/225280.got.cif
#   From: 2010.05.17/outbox.cif.g08.bks.cpg/sg2_113_cif.got.tgz:225280.got - 2010.06.03 11:33:40.
