data_PCOD9089215
_publ_section_title
;
Structure prediction by ZEFSAII (Michael W. Deem and Ramdas Pophale) SiO2 
 PCOD9089215
Probable space group: P -1
;
_chemical_formula_sum "Si O2"
_cell_formula_units_Z 16
_cell_length_a 17.072030
_cell_length_b 15.020244
_cell_length_c 6.924051
_cell_angle_alpha 76.763994
_cell_angle_beta 117.533455
_cell_angle_gamma 154.733598
_cell_volume 582.139030
_symmetry_space_group_name_H-M "P -1"
_symmetry_group_IT_number 2
_symmetry_cell_setting 'triclinic'
loop_
_space_group_symop_operation_xyz
x,y,z
-x,-y,-z
loop_
_atom_site_type_symbol
_atom_site_label
_atom_site_fract_x
_atom_site_fract_y
_atom_site_fract_z
Si Si1 0.300594 0.504995 0.132333
Si Si2 0.740259 0.227433 0.413252
Si Si3 0.496317 0.316683 0.315925
Si Si4 0.191388 0.140527 0.510686
Si Si5 0.426936 0.069117 0.956030
Si Si6 0.280027 0.289365 0.116796
Si Si7 0.133595 0.813008 0.212532
Si Si8 0.010085 0.765491 0.527096
O O1 0.443125 0.603311 0.430187
O O2 0.446491 0.717051 0.070894
O O3 0.206182 0.326232 0.996053
O O4 0.097590 0.371688 0.059476
O O5 0.789012 0.218197 0.670312
O O6 0.000000 0.500000 0.500000
O O7 0.597865 0.021193 0.213878
O O8 0.583990 0.168259 0.243617
O O9 0.325396 0.234724 0.087331
O O10 0.745402 0.536238 0.394005
O O11 0.345416 0.080945 0.267790
O O12 0.155535 0.140777 0.250065
O O13 0.442543 0.419783 0.707925
O O14 0.149125 0.993706 0.562965
O O15 0.000000 0.000000 0.500000
O O16 0.159254 0.840764 0.799708
O O17 0.049560 0.756797 0.366720
#
# Coordination Sequence:
#
# PCOD9089215 Si02
#       8
#     2   2   2   2   2   2   2   2
#     4  12  20  39  65  91 122 167 202 253 303 362
#     4  10  19  37  66  93 116 159 201 255 315 369
#     4  12  22  42  61  89 128 169 206 250 302 363
#     4  11  17  31  59  88 116 166 204 243 298 356
#     4  10  20  36  65  93 118 158 210 243 311 379
#     4  11  19  34  59  90 123 162 210 243 296 361
#     4  11  24  41  62  90 127 156 208 259 308 367
#     4  11  21  40  62  88 128 164 204 256 305 361
#
# _framework density 27.484843999999999
#
# number of rings (size 3 to 8) (size 9 to 14) (size 15 to 20)
#    0.000    1.000   10.000    0.000    0.000    0.500 
#    2.250    1.250    0.000    3.750    0.000    0.000 
#    0.000    0.000    0.000    0.000    0.000    0.000 
#
# Total GULP energy -89436.455333 kJ/mol
# GULP energy per Si atom -5589.778458 kJ/mol
# Density = 2.742229 g / cm^3
# Si number density = 27.484844 Si / 1000 Ang^3
#
#
#
# Elastic Constant Matrix: (Units=GPa)
#
#
# Indices 1 2 3 4 5 6 
#
# 1 102.8094 49.9035 37.5737 -13.5022 32.6413 12.4397
# 2 49.9035 157.3425 12.7568 -10.7971 18.2050 3.5062
# 3 37.5737 12.7568 114.9738 -17.0035 44.4259 -0.8093
# 4 -13.5022 -10.7971 -17.0035 19.7842 -16.3608 9.8905
# 5 32.6413 18.2050 44.4259 -16.3608 48.5768 4.3207
# 6 12.4397 3.5062 -0.8093 9.8905 4.3207 64.8260
#
#
#
# Elastic Compliance Matrix: (Units=1/GPa)
#
#
# Indices 1 2 3 4 5 6 
#
# 1 0.014631 -0.003569 -0.001793 0.003362 -0.005474 -0.002785
# 2 -0.003569 0.007619 0.000825 0.001965 -0.000551 0.000020
# 3 -0.001793 0.000825 0.013778 0.001074 -0.011439 0.001070
# 4 0.003362 0.001965 0.001074 0.083510 0.025499 -0.015179
# 5 -0.005474 -0.000551 -0.011439 0.025499 0.044044 -0.005888
# 6 -0.002785 0.000020 0.001070 -0.015179 -0.005888 0.018681
#
#
# Mechanical properties :
#
#
# Convention : Reuss Voigt Hill
#
# Bulk Modulus (GPa) = 37.09924 63.95488 50.52706
# Shear Modulus (GPa) = 24.95991 44.96350 34.96171
#
# Velocity S-wave (km/s) = 3.01680 4.04906 3.57043
# Velocity P-wave (km/s) = 5.06578 6.72157 5.95154
#
# Compressibility (1/GPa) = 0.02695473
#
# Stress axis : x y z
#
# Youngs Moduli (GPa) = 68.34930 131.25410 72.57785
#
# Poissons Ratio (x) = 0.46843 0.13010
# Poissons Ratio (y) = 0.24393 -0.05986
# Poissons Ratio (z) = 0.12252 -0.10826
#
# Static dielectric constant tensor:
#      x y z
#    x 2.199290 0.036360 -0.005640 
#    y 0.036360 2.081630 0.029800 
#    z -0.005640 0.029800 2.444510 
# 
# From -- ./inp_files/348457.got.cif
#   From: 2010.05.17/outbox.cif.g08.bks.cpg/sg2_175_cif.got.tgz:348457.got - 2010.06.03 11:33:40.
