data_PCOD9089544
_publ_section_title
;
Structure prediction by ZEFSAII (Michael W. Deem and Ramdas Pophale) SiO2 
 PCOD9089544
Probable space group: P -1
;
_chemical_formula_sum "Si O2"
_cell_formula_units_Z 16
_cell_length_a 11.932912
_cell_length_b 10.053433
_cell_length_c 14.439563
_cell_angle_alpha 59.721652
_cell_angle_beta 109.163502
_cell_angle_gamma 57.800659
_cell_volume 730.197641
_symmetry_space_group_name_H-M "P -1"
_symmetry_group_IT_number 2
_symmetry_cell_setting 'triclinic'
loop_
_space_group_symop_operation_xyz
x,y,z
-x,-y,-z
loop_
_atom_site_type_symbol
_atom_site_label
_atom_site_fract_x
_atom_site_fract_y
_atom_site_fract_z
Si Si1 0.134320 0.521346 0.305145
Si Si2 0.547231 0.271821 0.564532
Si Si3 0.836508 0.057242 0.352355
Si Si4 0.234941 0.026308 0.081582
Si Si5 0.825072 0.812495 0.292944
Si Si6 0.810440 0.889287 0.589497
Si Si7 0.650820 0.509356 0.254661
Si Si8 0.680659 0.719295 0.047088
O O1 0.320369 0.416300 0.447055
O O2 0.225292 0.254206 0.387933
O O3 0.927686 0.716146 0.252449
O O4 0.013979 0.740709 0.108382
O O5 0.500000 0.500000 0.500000
O O6 0.721371 0.025693 0.779222
O O7 0.649382 0.135790 0.537934
O O8 0.665367 0.388438 0.208912
O O9 0.821153 0.981595 0.281201
O O10 0.787837 0.995361 0.446623
O O11 0.106590 0.799094 0.523836
O O12 0.439733 0.711441 0.193277
O O13 0.272042 0.159620 0.011622
O O14 0.000000 0.500000 0.500000
O O15 0.562983 0.050097 0.143805
O O16 0.070960 0.629380 0.786732
O O17 0.655180 0.681512 0.159109
#
# Coordination Sequence:
#
# PCOD9089544 Si02
#       8
#     2   2   2   2   2   2   2   2
#     4  11  24  42  71  98 130 175 230 278 327 403
#     4  12  27  48  69  92 132 182 232 282 335 389
#     4  10  21  34  63  93 133 178 206 269 329 395
#     4  11  23  42  68  96 130 177 221 276 334 392
#     4  12  21  38  65 103 130 169 217 266 342 402
#     4  10  23  44  64  97 132 175 230 269 325 393
#     4  10  19  38  58  93 138 168 209 261 341 394
#     4  10  22  37  66  95 135 164 207 273 326 404
#
# _framework density 21.911877
#
# number of rings (size 3 to 8) (size 9 to 14) (size 15 to 20)
#    0.000    1.250    2.500    3.750    1.750    5.000 
#    4.500    0.000    0.000    0.000    0.000    0.000 
#    0.000    0.000    0.000    0.000    0.000    0.000 
#
# Total GULP energy -89279.702358 kJ/mol
# GULP energy per Si atom -5579.981397 kJ/mol
# Density = 2.186200 g / cm^3
# Si number density = 21.911877 Si / 1000 Ang^3
#
#
#
# Elastic Constant Matrix: (Units=GPa)
#
#
# Indices 1 2 3 4 5 6 
#
# 1 45.8972 20.9566 15.6730 -1.8325 -3.4820 8.9289
# 2 20.9566 111.7349 -4.2756 0.9118 -8.1284 15.4559
# 3 15.6730 -4.2756 74.8408 16.9518 -5.9217 8.9008
# 4 -1.8325 0.9118 16.9518 30.3402 1.1986 3.3809
# 5 -3.4820 -8.1284 -5.9217 1.1986 27.2957 5.5973
# 6 8.9289 15.4559 8.9008 3.3809 5.5973 31.4440
#
#
#
# Elastic Compliance Matrix: (Units=1/GPa)
#
#
# Indices 1 2 3 4 5 6 
#
# 1 0.027464 -0.004756 -0.006762 0.006022 0.001262 -0.004419
# 2 -0.004756 0.011082 0.003088 -0.001905 0.004592 -0.005583
# 3 -0.006762 0.003088 0.018294 -0.010422 0.005431 -0.004622
# 4 0.006022 -0.001905 -0.010422 0.039503 -0.003498 -0.001448
# 5 0.001262 0.004592 0.005431 -0.003498 0.041796 -0.011217
# 6 -0.004419 -0.005583 -0.004622 -0.001448 -0.011217 0.039263
#
#
# Mechanical properties :
#
#
# Convention : Reuss Voigt Hill
#
# Bulk Modulus (GPa) = 25.01214 33.02012 29.01613
# Shear Modulus (GPa) = 24.08601 31.15723 27.62162
#
# Velocity S-wave (km/s) = 3.31905 3.77494 3.55431
# Velocity P-wave (km/s) = 5.11153 5.83973 5.48773
#
# Compressibility (1/GPa) = 0.03998059
#
# Stress axis : x y z
#
# Youngs Moduli (GPa) = 36.41090 90.23789 54.66179
#
# Poissons Ratio (x) = 0.42916 0.36962
# Poissons Ratio (y) = 0.17317 -0.16879
# Poissons Ratio (z) = 0.24621 -0.27864
#
# Static dielectric constant tensor:
#      x y z
#    x 1.835080 0.047940 -0.010710 
#    y 0.047940 1.835320 0.002470 
#    z -0.010710 0.002470 1.875220 
# 
# From -- ./inp_files/515402.got.cif
#   From: 2010.05.17/outbox.cif.g08.bks.cpg/sg2_258_cif.got.tgz:515402.got - 2010.06.03 11:33:40.
