data_PCOD9089155
_publ_section_title
;
Structure prediction by ZEFSAII (Michael W. Deem and Ramdas Pophale) SiO2 
 PCOD9089155
Probable space group: P -1
;
_chemical_formula_sum "Si O2"
_cell_formula_units_Z 14
_cell_length_a 15.673752
_cell_length_b 12.128887
_cell_length_c 17.815475
_cell_angle_alpha 148.321933
_cell_angle_beta 157.533006
_cell_angle_gamma 26.421039
_cell_volume 570.409768
_symmetry_space_group_name_H-M "P -1"
_symmetry_group_IT_number 2
_symmetry_cell_setting 'triclinic'
loop_
_space_group_symop_operation_xyz
x,y,z
-x,-y,-z
loop_
_atom_site_type_symbol
_atom_site_label
_atom_site_fract_x
_atom_site_fract_y
_atom_site_fract_z
Si Si1 0.522926 0.319113 0.140333
Si Si2 0.846325 0.501744 0.299825
Si Si3 0.206672 0.906648 0.913049
Si Si4 0.014440 0.466383 0.082749
Si Si5 0.345050 0.960147 0.544734
Si Si6 0.929655 0.108537 0.588464
Si Si7 0.362891 0.261602 0.494213
O O1 0.274507 0.387729 0.028875
O O2 0.542217 0.561720 0.295982
O O3 0.545387 0.233636 0.023647
O O4 0.787999 0.081210 0.252225
O O5 0.639998 0.795882 0.296003
O O6 0.000000 0.500000 0.500000
O O7 0.052777 0.409636 0.346122
O O8 0.768536 0.300657 0.130213
O O9 0.148581 0.175958 0.043215
O O10 0.929724 0.978876 0.685443
O O11 0.145285 0.609901 0.303818
O O12 0.000000 0.500000 0.000000
O O13 0.564510 0.782029 0.559404
O O14 0.296726 0.897045 0.552193
O O15 0.000000 0.000000 0.500000
O O16 0.500000 0.000000 0.500000
#
# Coordination Sequence:
#
# PCOD9089155 Si02
#       7
#     2   2   2   2   2   2   2
#     4  11  20  34  58  84 114 149 188 234 287 325
#     4  10  16  28  47  83 116 140 173 238 289 331
#     4  10  18  30  53  84 114 138 186 234 288 326
#     4  12  21  37  59  83 115 146 195 243 279 336
#     4  10  18  32  50  79 115 144 186 233 279 333
#     4  11  24  41  57  80 120 159 192 233 283 340
#     4  12  16  26  54  88 117 137 180 240 296 327
#
# _framework density 24.543758
#
# number of rings (size 3 to 8) (size 9 to 14) (size 15 to 20)
#    0.000    1.143   11.429    0.429    0.000    0.000 
#    0.000    2.857    0.000    0.857    0.000    5.000 
#    0.000    0.000    0.000    0.000    0.000    0.000 
#
# Total GULP energy -78326.123392 kJ/mol
# GULP energy per Si atom -5594.723099 kJ/mol
# Density = 2.448790 g / cm^3
# Si number density = 24.543758 Si / 1000 Ang^3
#
#
#
# Elastic Constant Matrix: (Units=GPa)
#
#
# Indices 1 2 3 4 5 6 
#
# 1 199.3430 46.2260 51.2461 14.1374 11.1696 -41.5410
# 2 46.2260 114.5366 41.8518 33.2266 7.4453 -13.5582
# 3 51.2461 41.8518 117.6000 50.1488 8.8201 6.3182
# 4 14.1374 33.2266 50.1488 55.5166 -2.5601 5.0133
# 5 11.1696 7.4453 8.8201 -2.5601 39.8867 7.4165
# 6 -41.5410 -13.5582 6.3182 5.0133 7.4165 52.2696
#
#
#
# Elastic Compliance Matrix: (Units=1/GPa)
#
#
# Indices 1 2 3 4 5 6 
#
# 1 0.007579 -0.001260 -0.003651 0.001453 -0.002159 0.006305
# 2 -0.001260 0.012007 -0.000962 -0.006412 -0.002687 0.003226
# 3 -0.003651 -0.000962 0.016422 -0.013133 -0.002621 -0.003504
# 4 0.001453 -0.006412 -0.013133 0.033920 0.006446 -0.003089
# 5 -0.002159 -0.002687 -0.002621 0.006446 0.028425 -0.006748
# 6 0.006305 0.003226 -0.003504 -0.003089 -0.006748 0.026656
#
#
# Mechanical properties :
#
#
# Convention : Reuss Voigt Hill
#
# Bulk Modulus (GPa) = 41.21312 78.90304 60.05808
# Shear Modulus (GPa) = 34.52058 49.01165 41.76611
#
# Velocity S-wave (km/s) = 3.75439 4.47353 4.12964
# Velocity P-wave (km/s) = 5.96842 7.67470 6.87470
#
# Compressibility (1/GPa) = 0.02426412
#
# Stress axis : x y z
#
# Youngs Moduli (GPa) = 131.94607 83.28266 60.89493
#
# Poissons Ratio (x) = 0.10490 0.22230
# Poissons Ratio (y) = 0.16619 0.05857
# Poissons Ratio (z) = 0.48168 0.08010
#
# Static dielectric constant tensor:
#      x y z
#    x 1.919120 0.067490 0.010290 
#    y 0.067490 2.005360 -0.089870 
#    z 0.010290 -0.089870 1.993490 
# 
# From -- ./inp_files/325555.got.cif
#   From: 2010.05.17/outbox.cif.g08.bks.cpg/sg2_163_cif.got.tgz:325555.got - 2010.06.03 11:33:40.
