data_PCOD9089435
_publ_section_title
;
Structure prediction by ZEFSAII (Michael W. Deem and Ramdas Pophale) SiO2 
 PCOD9089435
Probable space group: P -1
;
_chemical_formula_sum "Si O2"
_cell_formula_units_Z 16
_cell_length_a 15.032770
_cell_length_b 13.669702
_cell_length_c 11.325684
_cell_angle_alpha 28.661355
_cell_angle_beta 41.340333
_cell_angle_gamma 51.412798
_cell_volume 732.793290
_symmetry_space_group_name_H-M "P -1"
_symmetry_group_IT_number 2
_symmetry_cell_setting 'triclinic'
loop_
_space_group_symop_operation_xyz
x,y,z
-x,-y,-z
loop_
_atom_site_type_symbol
_atom_site_label
_atom_site_fract_x
_atom_site_fract_y
_atom_site_fract_z
Si Si1 0.100886 0.663435 0.819055
Si Si2 0.997523 0.231940 0.806333
Si Si3 0.513093 0.963401 0.239953
Si Si4 0.213674 0.942642 0.619600
Si Si5 0.202017 0.123130 0.897257
Si Si6 0.816573 0.689152 0.026159
Si Si7 0.012731 0.279656 0.481894
Si Si8 0.528465 0.738541 0.216449
O O1 0.174576 0.831926 0.651682
O O2 0.191395 0.546327 0.762983
O O3 0.034662 0.479355 0.166298
O O4 0.977141 0.754548 0.778981
O O5 0.131256 0.249854 0.734694
O O6 0.997900 0.353664 0.554471
O O7 0.863743 0.206650 0.046828
O O8 0.000000 0.000000 0.000000
O O9 0.374585 0.962175 0.450291
O O10 0.642139 0.911105 0.239330
O O11 0.490693 0.822218 0.293350
O O12 0.543514 0.177522 0.913619
O O13 0.145446 0.155239 0.470875
O O14 0.199999 0.251917 0.883577
O O15 0.110440 0.899917 0.233917
O O16 0.691995 0.787161 0.987224
O O17 0.500000 0.500000 0.500000
#
# Coordination Sequence:
#
# PCOD9089435 Si02
#       8
#     2   2   2   2   2   2   2   2
#     4  11  21  33  57  84 108 148 184 226 272 327
#     4   8  17  37  58  78 109 142 181 239 272 312
#     4  10  21  34  57  78 107 154 181 209 286 322
#     4  10  19  38  54  81 111 140 185 231 264 325
#     4   9  18  38  55  81 112 142 182 229 268 330
#     4  10  20  35  50  85 114 140 181 225 272 319
#     4  10  21  37  59  80 109 144 187 228 286 314
#     4  10  21  36  50  76 117 151 178 219 262 334
#
# _framework density 21.834261999999999
#
# number of rings (size 3 to 8) (size 9 to 14) (size 15 to 20)
#    0.000    2.500    2.500    1.500    1.750    1.000 
#    6.750    5.625    0.000    0.750    0.000    0.000 
#    0.000    0.000    0.000    0.000    0.000    0.000 
#
# Total GULP energy -89224.025703 kJ/mol
# GULP energy per Si atom -5576.501606 kJ/mol
# Density = 2.178457 g / cm^3
# Si number density = 21.834262 Si / 1000 Ang^3
#
#
#
# Elastic Constant Matrix: (Units=GPa)
#
#
# Indices 1 2 3 4 5 6 
#
# 1 87.7467 33.1407 30.8237 19.1444 1.7899 -9.0713
# 2 33.1407 98.1698 32.7113 17.9045 -15.9547 -16.6520
# 3 30.8237 32.7113 99.3710 1.0484 2.2060 -8.9871
# 4 19.1444 17.9045 1.0484 35.1208 -14.5006 -7.0715
# 5 1.7899 -15.9547 2.2060 -14.5006 18.3137 5.6123
# 6 -9.0713 -16.6520 -8.9871 -7.0715 5.6123 46.5141
#
#
#
# Elastic Compliance Matrix: (Units=1/GPa)
#
#
# Indices 1 2 3 4 5 6 
#
# 1 0.017960 -0.005024 -0.003298 -0.014000 -0.017128 0.001005
# 2 -0.005024 0.015705 -0.003754 0.001570 0.015155 0.002327
# 3 -0.003298 -0.003754 0.012465 0.002358 -0.002929 0.001133
# 4 -0.014000 0.001570 0.002358 0.053970 0.044854 0.001080
# 5 -0.017128 0.015155 -0.002929 0.044854 0.106740 -0.004541
# 6 0.001005 0.002327 0.001133 0.001080 -0.004541 0.023459
#
#
# Mechanical properties :
#
#
# Convention : Reuss Voigt Hill
#
# Bulk Modulus (GPa) = 45.50140 53.18207 49.34174
# Shear Modulus (GPa) = 19.10016 32.56385 25.83200
#
# Velocity S-wave (km/s) = 2.96088 3.86607 3.44335
# Velocity P-wave (km/s) = 5.70734 6.65873 6.20131
#
# Compressibility (1/GPa) = 0.02197735
#
# Stress axis : x y z
#
# Youngs Moduli (GPa) = 55.67836 63.67527 80.22594
#
# Poissons Ratio (x) = 0.31990 0.26462
# Poissons Ratio (y) = 0.27972 0.30116
# Poissons Ratio (z) = 0.18365 0.23903
#
# Static dielectric constant tensor:
#      x y z
#    x 1.850610 -0.011880 0.032890 
#    y -0.011880 1.882560 -0.021180 
#    z 0.032890 -0.021180 1.876020 
# 
# From -- ./inp_files/454329.got.cif
#   From: 2010.05.17/outbox.cif.g08.bks.cpg/sg2_228_cif.got.tgz:454329.got - 2010.06.03 11:33:40.
