data_PCOD9089093
_publ_section_title
;
Structure prediction by ZEFSAII (Michael W. Deem and Ramdas Pophale) SiO2 
 PCOD9089093
Probable space group: P -1
;
_chemical_formula_sum "Si O2"
_cell_formula_units_Z 14
_cell_length_a 8.047597
_cell_length_b 24.678344
_cell_length_c 9.156130
_cell_angle_alpha 35.321154
_cell_angle_beta 49.345021
_cell_angle_gamma 35.020736
_cell_volume 602.568828
_symmetry_space_group_name_H-M "P -1"
_symmetry_group_IT_number 2
_symmetry_cell_setting 'triclinic'
loop_
_space_group_symop_operation_xyz
x,y,z
-x,-y,-z
loop_
_atom_site_type_symbol
_atom_site_label
_atom_site_fract_x
_atom_site_fract_y
_atom_site_fract_z
Si Si1 0.822362 0.550256 0.341053
Si Si2 0.657917 0.186602 0.579432
Si Si3 0.754473 0.177260 0.888358
Si Si4 0.306633 0.145598 0.670226
Si Si5 0.659327 0.530580 0.933606
Si Si6 0.885365 0.433802 0.281573
Si Si7 0.803372 0.007192 0.471375
O O1 0.496863 0.675592 0.269701
O O2 0.838146 0.456471 0.430103
O O3 0.000000 0.500000 0.500000
O O4 0.011395 0.569963 0.093419
O O5 0.728600 0.157664 0.774669
O O6 0.497959 0.138876 0.707454
O O7 0.454682 0.333203 0.337726
O O8 0.960700 0.121742 0.464520
O O9 0.065148 0.133137 0.854987
O O10 0.700786 0.107916 0.183594
O O11 0.524722 0.052309 0.622611
O O12 0.103520 0.291189 0.427850
O O13 0.500000 0.500000 0.000000
O O14 0.602641 0.511755 0.172467
O O15 0.000000 0.500000 0.000000
O O16 0.000000 0.000000 0.500000
#
# Coordination Sequence:
#
# PCOD9089093 Si02
#       7
#     2   2   2   2   2   2   2
#     4  11  22  41  62  98 138 169 225 280 342 413
#     4  11  23  45  66  99 143 175 229 292 334 406
#     4  12  25  44  71  99 140 183 228 288 345 405
#     4  11  23  46  70 100 138 182 233 280 344 414
#     4  11  22  41  66  97 135 177 226 279 343 415
#     4  10  19  37  65  89 134 175 212 276 341 391
#     4  10  25  45  73  98 136 183 237 286 338 407
#
# _framework density 23.23386
#
# number of rings (size 3 to 8) (size 9 to 14) (size 15 to 20)
#    0.000    1.143    4.286    3.000    2.000    3.429 
#    2.571    4.286    0.000    0.000    0.000    0.000 
#    0.000    0.000    0.000    0.000    0.000    0.000 
#
# Total GULP energy -78020.912517 kJ/mol
# GULP energy per Si atom -5572.922323 kJ/mol
# Density = 2.318098 g / cm^3
# Si number density = 23.233860 Si / 1000 Ang^3
#
#
#
# Elastic Constant Matrix: (Units=GPa)
#
#
# Indices 1 2 3 4 5 6 
#
# 1 110.6890 37.5163 28.4130 12.9681 25.9477 3.5972
# 2 37.5163 147.4315 29.8495 9.7517 10.4681 -7.3729
# 3 28.4130 29.8495 80.3179 -7.3088 31.1422 1.7622
# 4 12.9681 9.7517 -7.3088 36.7547 -7.2283 6.6278
# 5 25.9477 10.4681 31.1422 -7.2283 35.3178 20.0485
# 6 3.5972 -7.3729 1.7622 6.6278 20.0485 30.2038
#
#
#
# Elastic Compliance Matrix: (Units=1/GPa)
#
#
# Indices 1 2 3 4 5 6 
#
# 1 0.016456 -0.000898 0.004861 -0.014655 -0.031350 0.021562
# 2 -0.000898 0.008281 -0.001135 -0.004459 -0.005629 0.006909
# 3 0.004861 -0.001135 0.028462 -0.011292 -0.049135 0.032575
# 4 -0.014655 -0.004459 -0.011292 0.052805 0.062072 -0.051473
# 5 -0.031350 -0.005629 -0.049135 0.062072 0.182621 -0.129614
# 6 0.021562 0.006909 0.032575 -0.051473 -0.129614 0.127656
#
#
# Mechanical properties :
#
#
# Convention : Reuss Voigt Hill
#
# Bulk Modulus (GPa) = 16.99082 58.88847 37.93964
# Shear Modulus (GPa) = 11.62134 36.63256 24.12695
#
# Velocity S-wave (km/s) = 2.23892 3.97506 3.22598
# Velocity P-wave (km/s) = 3.74333 6.81683 5.49917
#
# Compressibility (1/GPa) = 0.05885531
#
# Stress axis : x y z
#
# Youngs Moduli (GPa) = 60.76754 120.75506 35.13504
#
# Poissons Ratio (x) = 0.10846 -0.17080
# Poissons Ratio (y) = 0.05458 0.03987
# Poissons Ratio (z) = -0.29540 0.13703
#
# Static dielectric constant tensor:
#      x y z
#    x 2.125410 -0.038240 0.040810 
#    y -0.038240 1.883800 0.014070 
#    z 0.040810 0.014070 1.926490 
# 
# From -- ./inp_files/227298.got.cif
#   From: 2010.05.17/outbox.cif.g08.bks.cpg/sg2_114_cif.got.tgz:227298.got - 2010.06.03 11:33:40.
