data_PCOD9089500
_publ_section_title
;
Structure prediction by ZEFSAII (Michael W. Deem and Ramdas Pophale) SiO2 
 PCOD9089500
Probable space group: P -1
;
_chemical_formula_sum "Si O2"
_cell_formula_units_Z 14
_cell_length_a 11.545523
_cell_length_b 14.696140
_cell_length_c 10.665827
_cell_angle_alpha 105.787295
_cell_angle_beta 36.318850
_cell_angle_gamma 78.088220
_cell_volume 685.968412
_symmetry_space_group_name_H-M "P -1"
_symmetry_group_IT_number 2
_symmetry_cell_setting 'triclinic'
loop_
_space_group_symop_operation_xyz
x,y,z
-x,-y,-z
loop_
_atom_site_type_symbol
_atom_site_label
_atom_site_fract_x
_atom_site_fract_y
_atom_site_fract_z
Si Si1 0.631573 0.825160 0.613472
Si Si2 0.633856 0.216332 0.604668
Si Si3 0.856851 0.312709 0.745171
Si Si4 0.348534 0.008527 0.515027
Si Si5 0.278345 0.462253 0.211528
Si Si6 0.867446 0.972586 0.701507
Si Si7 0.224476 0.843071 0.809195
O O1 0.581100 0.946756 0.642535
O O2 0.484018 0.801582 0.641716
O O3 0.978763 0.693161 0.287998
O O4 0.456897 0.882615 0.918690
O O5 0.654722 0.248294 0.457256
O O6 0.948201 0.096873 0.355779
O O7 0.540603 0.139132 0.654027
O O8 0.439383 0.351351 0.914197
O O9 0.825538 0.397701 0.690970
O O10 0.073148 0.149450 0.458210
O O11 0.530498 0.386160 0.068853
O O12 0.500000 0.000000 0.500000
O O13 0.996554 0.132409 0.896750
O O14 0.000000 0.500000 0.500000
O O15 0.000000 0.000000 0.500000
O O16 0.000000 0.000000 0.000000
#
# Coordination Sequence:
#
# PCOD9089500 Si02
#       7
#     2   2   2   2   2   2   2
#     4  12  22  36  64  94 131 153 201 262 313 380
#     4  10  20  39  63  88 124 161 208 246 310 368
#     4  10  25  40  59  92 120 165 215 244 309 365
#     4  11  19  34  61  94 124 157 198 245 321 367
#     4  10  24  45  63  82 125 174 211 256 292 363
#     4  11  22  37  61  95 132 159 194 260 323 371
#     4  10  19  38  57  93 124 159 192 258 314 364
#
# _framework density 20.409103000000002
#
# number of rings (size 3 to 8) (size 9 to 14) (size 15 to 20)
#    0.000    1.429    5.714    1.286    6.000    0.000 
#    2.571    0.714    0.000    1.714    0.000    0.000 
#    0.000    0.000    0.000    0.000    0.000    0.000 
#
# Total GULP energy -78079.497624 kJ/mol
# GULP energy per Si atom -5577.106973 kJ/mol
# Density = 2.036265 g / cm^3
# Si number density = 20.409103 Si / 1000 Ang^3
#
#
#
# Elastic Constant Matrix: (Units=GPa)
#
#
# Indices 1 2 3 4 5 6 
#
# 1 120.7843 14.6175 45.9101 -3.7369 -36.4882 9.7595
# 2 14.6175 50.4701 20.9964 -15.2878 3.0232 8.2735
# 3 45.9101 20.9964 99.9861 -21.5956 -10.2970 3.4329
# 4 -3.7369 -15.2878 -21.5956 32.5616 2.0208 -1.2535
# 5 -36.4882 3.0232 -10.2970 2.0208 40.3804 -5.7087
# 6 9.7595 8.2735 3.4329 -1.2535 -5.7087 24.3225
#
#
#
# Elastic Compliance Matrix: (Units=1/GPa)
#
#
# Indices 1 2 3 4 5 6 
#
# 1 0.014405 -0.003785 -0.005539 -0.004583 0.011955 -0.001141
# 2 -0.003785 0.026975 -0.002047 0.011021 -0.007731 -0.008615
# 3 -0.005539 -0.002047 0.014565 0.008187 -0.001413 0.000953
# 4 -0.004583 0.011021 0.008187 0.041031 -0.005241 -0.002181
# 5 0.011955 -0.007731 -0.001413 -0.005241 0.036958 0.006437
# 6 -0.001141 -0.008615 0.000953 -0.002181 0.006437 0.045766
#
#
# Mechanical properties :
#
#
# Convention : Reuss Voigt Hill
#
# Bulk Modulus (GPa) = 30.11750 48.25427 39.18589
# Shear Modulus (GPa) = 23.41831 32.10068 27.75950
#
# Velocity S-wave (km/s) = 3.39107 3.97023 3.69203
# Velocity P-wave (km/s) = 5.48830 6.68669 6.11691
#
# Compressibility (1/GPa) = 0.03320328
#
# Stress axis : x y z
#
# Youngs Moduli (GPa) = 69.42241 37.07110 68.66006
#
# Poissons Ratio (x) = 0.14032 0.38029
# Poissons Ratio (y) = 0.26278 0.14051
# Poissons Ratio (z) = 0.38452 0.07587
#
# Static dielectric constant tensor:
#      x y z
#    x 1.818440 0.005670 -0.018940 
#    y 0.005670 1.724430 -0.013100 
#    z -0.018940 -0.013100 1.795580 
# 
# From -- ./inp_files/431559.got.cif
#   From: 2010.05.17/outbox.cif.g08.bks.cpg/sg2_216_cif.got.tgz:431559.got - 2010.06.03 11:33:40.
