data_PCOD9089045
_publ_section_title
;
Structure prediction by ZEFSAII (Michael W. Deem and Ramdas Pophale) SiO2 
 PCOD9089045
Probable space group: P -1
;
_chemical_formula_sum "Si O2"
_cell_formula_units_Z 14
_cell_length_a 12.668774
_cell_length_b 20.603962
_cell_length_c 5.943465
_cell_angle_alpha 95.962913
_cell_angle_beta 103.640900
_cell_angle_gamma 151.372554
_cell_volume 537.710192
_symmetry_space_group_name_H-M "P -1"
_symmetry_group_IT_number 2
_symmetry_cell_setting 'triclinic'
loop_
_space_group_symop_operation_xyz
x,y,z
-x,-y,-z
loop_
_atom_site_type_symbol
_atom_site_label
_atom_site_fract_x
_atom_site_fract_y
_atom_site_fract_z
Si Si1 0.078607 0.170377 0.432700
Si Si2 0.694124 0.577075 0.921322
Si Si3 0.682326 0.400571 0.263994
Si Si4 0.114672 0.170875 0.972592
Si Si5 0.805920 0.347192 0.075059
Si Si6 0.396670 0.013188 0.011621
Si Si7 0.846094 0.271172 0.679913
O O1 0.441255 0.380282 0.659346
O O2 0.001573 0.104930 0.627553
O O3 0.953362 0.066810 0.098405
O O4 0.930394 0.158670 0.322157
O O5 0.500000 0.500000 0.000000
O O6 0.780248 0.694473 0.893517
O O7 0.004675 0.709304 0.129527
O O8 0.645139 0.326075 0.023067
O O9 0.861347 0.464804 0.576216
O O10 0.919453 0.586368 0.355158
O O11 0.386271 0.271924 0.138062
O O12 0.594352 0.177986 0.041337
O O13 0.851995 0.338684 0.859212
O O14 0.503854 0.078257 0.346982
O O15 0.500000 0.000000 0.000000
#
# Coordination Sequence:
#
# PCOD9089045 Si02
#       7
#     2   2   2   2   2   2   2
#     4  11  24  40  64  96 135 171 221 270 338 394
#     4  10  19  37  64  97 127 168 224 275 334 384
#     4  10  21  42  66  98 125 170 225 283 321 390
#     4  11  23  40  68  96 131 172 223 279 327 392
#     4  10  24  40  66  94 131 173 226 267 335 393
#     4  11  26  41  61  95 138 176 215 271 336 403
#     4  11  21  41  68  95 128 172 219 280 329 394
#
# _framework density 26.036332999999999
#
# number of rings (size 3 to 8) (size 9 to 14) (size 15 to 20)
#    0.000    1.429    2.857    3.429    6.000    0.571 
#    0.000    1.429    0.000    0.000    0.000    0.000 
#    0.000    0.000    0.000    0.000    0.000    0.000 
#
# Total GULP energy -78004.292136 kJ/mol
# GULP energy per Si atom -5571.735153 kJ/mol
# Density = 2.597707 g / cm^3
# Si number density = 26.036333 Si / 1000 Ang^3
#
#
#
# Elastic Constant Matrix: (Units=GPa)
#
#
# Indices 1 2 3 4 5 6 
#
# 1 112.3605 9.1376 23.9879 -6.7256 4.2821 11.5086
# 2 9.1376 81.4288 24.6201 -17.9828 -0.9296 3.9284
# 3 23.9879 24.6201 133.3852 -18.3825 -0.5687 23.6774
# 4 -6.7256 -17.9828 -18.3825 37.5199 11.3786 -14.2478
# 5 4.2821 -0.9296 -0.5687 11.3786 39.3413 1.8620
# 6 11.5086 3.9284 23.6774 -14.2478 1.8620 32.3716
#
#
#
# Elastic Compliance Matrix: (Units=1/GPa)
#
#
# Indices 1 2 3 4 5 6 
#
# 1 0.009483 -0.000541 -0.001165 0.000336 -0.001053 -0.002245
# 2 -0.000541 0.014513 -0.002148 0.007771 -0.002044 0.003540
# 3 -0.001165 -0.002148 0.009254 0.001120 0.000152 -0.005610
# 4 0.000336 0.007771 0.001120 0.041254 -0.012573 0.016999
# 5 -0.001053 -0.002044 0.000152 -0.012573 0.029441 -0.006716
# 6 -0.002245 0.003540 -0.005610 0.016999 -0.006716 0.043231
#
#
# Mechanical properties :
#
#
# Convention : Reuss Voigt Hill
#
# Bulk Modulus (GPa) = 39.15212 49.18509 44.16860
# Shear Modulus (GPa) = 30.60030 39.80848 35.20439
#
# Velocity S-wave (km/s) = 3.43197 3.91443 3.68112
# Velocity P-wave (km/s) = 5.54750 6.27394 5.92187
#
# Compressibility (1/GPa) = 0.02554140
#
# Stress axis : x y z
#
# Youngs Moduli (GPa) = 105.45327 68.90516 108.06490
#
# Poissons Ratio (x) = 0.03730 0.12591
# Poissons Ratio (y) = 0.05708 0.23207
# Poissons Ratio (z) = 0.12287 0.14798
#
# Static dielectric constant tensor:
#      x y z
#    x 2.035500 -0.017310 -0.052460 
#    y -0.017310 2.178460 0.007450 
#    z -0.052460 0.007450 2.282620 
# 
# From -- ./inp_files/72559.got.cif
#   From: 2010.05.17/outbox.cif.g08.bks.cpg/sg2_37_cif.got.tgz:72559.got - 2010.06.03 11:33:40.
