data_PCOD9089027
_publ_section_title
;
Structure prediction by ZEFSAII (Michael W. Deem and Ramdas Pophale) SiO2 
 PCOD9089027
Probable space group: P -1
;
_chemical_formula_sum "Si O2"
_cell_formula_units_Z 16
_cell_length_a 9.228370
_cell_length_b 9.528727
_cell_length_c 9.627728
_cell_angle_alpha 62.530701
_cell_angle_beta 107.271943
_cell_angle_gamma 120.973288
_cell_volume 642.077736
_symmetry_space_group_name_H-M "P -1"
_symmetry_group_IT_number 2
_symmetry_cell_setting 'triclinic'
loop_
_space_group_symop_operation_xyz
x,y,z
-x,-y,-z
loop_
_atom_site_type_symbol
_atom_site_label
_atom_site_fract_x
_atom_site_fract_y
_atom_site_fract_z
Si Si1 0.047996 0.245487 0.098360
Si Si2 0.295769 0.217211 0.954217
Si Si3 0.142323 0.127846 0.653598
Si Si4 0.517091 0.313520 0.623085
Si Si5 0.430788 0.790411 0.601525
Si Si6 0.397696 0.446024 0.211098
Si Si7 0.242263 0.833981 0.154412
Si Si8 0.093683 0.703010 0.478326
O O1 0.203219 0.400722 0.150227
O O2 0.157123 0.203623 0.032214
O O3 0.961224 0.079151 0.252461
O O4 0.903369 0.263911 0.957908
O O5 0.209769 0.214282 0.783575
O O6 0.471340 0.392191 0.916763
O O7 0.317184 0.040909 0.051455
O O8 0.319106 0.183921 0.600100
O O9 0.026695 0.217452 0.529560
O O10 0.609525 0.320308 0.503009
O O11 0.558208 0.486695 0.647188
O O12 0.605092 0.218764 0.785755
O O13 0.559037 0.720355 0.732713
O O14 0.238772 0.730302 0.621928
O O15 0.500000 0.000000 0.500000
O O16 0.165838 0.803671 0.304271
O O17 0.000000 0.500000 0.500000
#
# Coordination Sequence:
#
# PCOD9089027 Si02
#       8
#     2   2   2   2   2   2   2   2
#     4  11  20  37  64  96 130 166 214 271 306 384
#     4  10  19  37  64  94 130 170 213 262 311 383
#     4  10  19  38  65  92 125 170 213 258 326 370
#     4  10  24  43  64  93 132 174 205 268 326 387
#     4  11  25  45  68  93 126 170 219 267 315 391
#     4  11  24  39  65  98 133 167 212 267 333 364
#     4  10  21  39  64  92 131 172 217 255 323 379
#     4  11  20  37  64  94 124 166 219 264 311 380
#
# _framework density 24.919101000000001
#
# number of rings (size 3 to 8) (size 9 to 14) (size 15 to 20)
#    0.000    1.500    2.500    3.750    1.750    6.000 
#    0.000    5.000    0.000    0.000    0.000    0.000 
#    0.000    0.000    0.000    0.000    0.000    0.000 
#
# Total GULP energy -89365.778204 kJ/mol
# GULP energy per Si atom -5585.361138 kJ/mol
# Density = 2.486238 g / cm^3
# Si number density = 24.919101 Si / 1000 Ang^3
#
#
#
# Elastic Constant Matrix: (Units=GPa)
#
#
# Indices 1 2 3 4 5 6 
#
# 1 103.6518 24.7952 20.2560 -21.1926 23.9050 23.6371
# 2 24.7952 81.7105 16.5977 0.3408 1.5632 21.0956
# 3 20.2560 16.5977 53.4917 -6.9135 6.0881 5.9545
# 4 -21.1926 0.3408 -6.9135 31.4632 1.1790 -5.4878
# 5 23.9050 1.5632 6.0881 1.1790 42.1735 -2.7728
# 6 23.6371 21.0956 5.9545 -5.4878 -2.7728 44.2954
#
#
#
# Elastic Compliance Matrix: (Units=1/GPa)
#
#
# Indices 1 2 3 4 5 6 
#
# 1 0.016467 -0.002686 -0.002306 0.009826 -0.009609 -0.006582
# 2 -0.002686 0.015285 -0.003722 -0.003841 0.001223 -0.005745
# 3 -0.002306 -0.003722 0.021293 0.003307 -0.001692 0.000444
# 4 0.009826 -0.003841 0.003307 0.039536 -0.006970 0.000603
# 5 -0.009609 0.001223 -0.001692 -0.006970 0.029932 0.005783
# 6 -0.006582 -0.005745 0.000444 0.000603 0.005783 0.029201
#
#
# Mechanical properties :
#
#
# Convention : Reuss Voigt Hill
#
# Bulk Modulus (GPa) = 28.07597 40.23909 34.15753
# Shear Modulus (GPa) = 27.62197 35.40007 31.51102
#
# Velocity S-wave (km/s) = 3.33297 3.77317 3.55988
# Velocity P-wave (km/s) = 5.10910 5.93004 5.53481
#
# Compressibility (1/GPa) = 0.03561764
#
# Stress axis : x y z
#
# Youngs Moduli (GPa) = 60.72718 65.42217 46.96398
#
# Poissons Ratio (x) = 0.17575 0.10829
# Poissons Ratio (y) = 0.16314 0.17478
# Poissons Ratio (z) = 0.14003 0.24347
#
# Static dielectric constant tensor:
#      x y z
#    x 2.032940 0.011740 0.083470 
#    y 0.011740 1.996400 0.033810 
#    z 0.083470 0.033810 2.136790 
# 
# From -- ./inp_files/381417.got.cif
#   From: 2010.05.17/outbox.cif.g08.bks.cpg/sg2_191_cif.got.tgz:381417.got - 2010.06.03 11:33:40.
