data_PCOD9089421
_publ_section_title
;
Structure prediction by ZEFSAII (Michael W. Deem and Ramdas Pophale) SiO2 
 PCOD9089421
Probable space group: P -1
;
_chemical_formula_sum "Si O2"
_cell_formula_units_Z 14
_cell_length_a 8.992667
_cell_length_b 9.161512
_cell_length_c 12.019898
_cell_angle_alpha 123.283372
_cell_angle_beta 98.262781
_cell_angle_gamma 113.952165
_cell_volume 663.807401
_symmetry_space_group_name_H-M "P -1"
_symmetry_group_IT_number 2
_symmetry_cell_setting 'triclinic'
loop_
_space_group_symop_operation_xyz
x,y,z
-x,-y,-z
loop_
_atom_site_type_symbol
_atom_site_label
_atom_site_fract_x
_atom_site_fract_y
_atom_site_fract_z
Si Si1 0.833387 0.467238 0.538566
Si Si2 0.483328 0.019097 0.636108
Si Si3 0.161631 0.772733 0.844063
Si Si4 0.479974 0.551417 0.146224
Si Si5 0.111896 0.110712 0.943614
Si Si6 0.606571 0.398864 0.293712
Si Si7 0.242679 0.976275 0.172735
O O1 0.726081 0.528935 0.471337
O O2 0.000000 0.500000 0.500000
O O3 0.945077 0.603543 0.716364
O O4 0.687877 0.216179 0.441846
O O5 0.466834 0.211022 0.741105
O O6 0.500000 0.000000 0.500000
O O7 0.662088 0.065867 0.737791
O O8 0.293273 0.708565 0.787014
O O9 0.211324 0.992931 0.883904
O O10 0.189765 0.814013 0.995853
O O11 0.734713 0.636612 0.927599
O O12 0.592362 0.522783 0.241974
O O13 0.500000 0.500000 0.000000
O O14 0.943656 0.051938 0.821853
O O15 0.000000 0.000000 0.000000
O O16 0.400641 0.211284 0.236538
#
# Coordination Sequence:
#
# PCOD9089421 Si02
#       7
#     2   2   2   2   2   2   2
#     4   9  22  41  67  91 128 180 224 265 325 411
#     4  11  27  45  65  99 145 175 213 283 355 388
#     4  10  19  37  72  97 123 168 242 272 314 392
#     4  12  26  42  67 106 138 172 226 288 335 391
#     4  10  22  39  67 100 128 167 234 281 317 397
#     4  10  20  40  67  98 127 181 224 272 332 408
#     4  10  21  41  69  92 126 181 231 264 326 408
#
# _framework density 21.090454000000001
#
# number of rings (size 3 to 8) (size 9 to 14) (size 15 to 20)
#    0.000    1.714    2.857    1.286   10.000    1.714 
#    5.143    5.714    0.000    0.000    0.000    0.000 
#    0.000    0.000    0.000    0.000    0.000    0.000 
#
# Total GULP energy -78132.976321 kJ/mol
# GULP energy per Si atom -5580.926880 kJ/mol
# Density = 2.104245 g / cm^3
# Si number density = 21.090454 Si / 1000 Ang^3
#
#
#
# Elastic Constant Matrix: (Units=GPa)
#
#
# Indices 1 2 3 4 5 6 
#
# 1 62.9029 23.6331 26.8759 -17.0118 20.9630 -8.8743
# 2 23.6331 88.2977 49.7650 -21.0477 9.7901 -10.2404
# 3 26.8759 49.7650 147.6852 -19.4485 26.7248 -7.7782
# 4 -17.0118 -21.0477 -19.4485 34.5680 -3.6818 7.8059
# 5 20.9630 9.7901 26.7248 -3.6818 43.5280 -1.9660
# 6 -8.8743 -10.2404 -7.7782 7.8059 -1.9660 34.9577
#
#
#
# Elastic Compliance Matrix: (Units=1/GPa)
#
#
# Indices 1 2 3 4 5 6 
#
# 1 0.022612 -0.002664 -0.000384 0.007707 -0.009284 0.002631
# 2 -0.002664 0.015859 -0.004167 0.005679 0.000837 0.001821
# 3 -0.000384 -0.004167 0.009316 0.002032 -0.004423 0.000052
# 4 0.007707 0.005679 0.002032 0.038017 -0.003229 -0.004598
# 5 -0.009284 0.000837 -0.004423 -0.003229 0.029668 -0.000706
# 6 0.002631 0.001821 0.000052 -0.004598 -0.000706 0.030806
#
#
# Mechanical properties :
#
#
# Convention : Reuss Voigt Hill
#
# Bulk Modulus (GPa) = 29.97834 55.49266 42.73550
# Shear Modulus (GPa) = 29.09919 35.85152 32.47536
#
# Velocity S-wave (km/s) = 3.71850 4.12745 3.92830
# Velocity P-wave (km/s) = 5.71677 7.00595 6.39393
#
# Compressibility (1/GPa) = 0.03335742
#
# Stress axis : x y z
#
# Youngs Moduli (GPa) = 44.22423 63.05615 107.34320
#
# Poissons Ratio (x) = 0.16800 0.04118
# Poissons Ratio (y) = 0.11783 0.44728
# Poissons Ratio (z) = 0.01696 0.26274
#
# Static dielectric constant tensor:
#      x y z
#    x 1.814330 -0.028500 -0.011930 
#    y -0.028500 1.758970 -0.001560 
#    z -0.011930 -0.001560 1.849330 
# 
# From -- ./inp_files/380022.got.cif
#   From: 2010.05.17/outbox.cif.g08.bks.cpg/sg2_191_cif.got.tgz:380022.got - 2010.06.03 11:33:40.
