data_PCOD9089354
_publ_section_title
;
Structure prediction by ZEFSAII (Michael W. Deem and Ramdas Pophale) SiO2 
 PCOD9089354
Probable space group: P -1
;
_chemical_formula_sum "Si O2"
_cell_formula_units_Z 16
_cell_length_a 5.625801
_cell_length_b 17.363562
_cell_length_c 6.557827
_cell_angle_alpha 91.559048
_cell_angle_beta 76.885214
_cell_angle_gamma 91.450330
_cell_volume 623.534619
_symmetry_space_group_name_H-M "P -1"
_symmetry_group_IT_number 2
_symmetry_cell_setting 'triclinic'
loop_
_space_group_symop_operation_xyz
x,y,z
-x,-y,-z
loop_
_atom_site_type_symbol
_atom_site_label
_atom_site_fract_x
_atom_site_fract_y
_atom_site_fract_z
Si Si1 0.375561 0.250749 0.814749
Si Si2 0.311353 0.862605 0.048046
Si Si3 0.860826 0.678350 0.491812
Si Si4 0.544584 0.077719 0.365293
Si Si5 0.250067 0.614863 0.111749
Si Si6 0.109637 0.721868 0.831478
Si Si7 0.281151 0.480051 0.379998
Si Si8 0.005081 0.092598 0.526379
O O1 0.306870 0.264737 0.594620
O O2 0.556907 0.321946 0.838428
O O3 0.490190 0.168315 0.834266
O O4 0.145935 0.259559 0.008578
O O5 0.385507 0.930939 0.886786
O O6 0.280346 0.788286 0.900079
O O7 0.076202 0.881455 0.230494
O O8 0.724602 0.612340 0.644278
O O9 0.001189 0.635499 0.279951
O O10 0.058420 0.717890 0.602952
O O11 0.786115 0.116145 0.421655
O O12 0.279490 0.115959 0.416546
O O13 0.500000 0.000000 0.500000
O O14 0.317400 0.531207 0.173743
O O15 0.196994 0.638503 0.891262
O O16 0.500000 0.500000 0.500000
O O17 0.000000 0.500000 0.500000
O O18 0.000000 0.000000 0.500000
#
# Coordination Sequence:
#
# PCOD9089354 Si02
#       8
#     2   2   2   2   2   2   2   2
#     4  10  22  41  62  94 138 183 228 293 351 429
#     4  11  26  45  70 103 151 184 241 299 366 430
#     4  10  21  40  67  91 138 182 241 289 358 420
#     4  10  25  46  76 111 143 185 237 291 364 434
#     4   9  20  40  61  91 136 176 237 295 356 408
#     4  10  24  41  61 101 136 187 232 294 356 432
#     4  10  19  37  68  96 128 185 237 294 359 413
#     4  10  25  47  76 110 143 187 236 292 364 434
#
# _framework density 25.660162
#
# number of rings (size 3 to 8) (size 9 to 14) (size 15 to 20)
#    0.000    2.000    1.250    0.000    3.500   10.500 
#    0.000    0.625    0.000    0.000    0.000    0.000 
#    0.000    0.000    0.000    0.000    0.000    0.000 
#
# Total GULP energy -89424.462965 kJ/mol
# GULP energy per Si atom -5589.028935 kJ/mol
# Density = 2.560176 g / cm^3
# Si number density = 25.660162 Si / 1000 Ang^3
#
#
#
# Elastic Constant Matrix: (Units=GPa)
#
#
# Indices 1 2 3 4 5 6 
#
# 1 155.8294 7.1267 42.0038 -0.4596 9.8913 -10.0300
# 2 7.1267 62.0042 30.0513 -14.3195 9.2432 5.5730
# 3 42.0038 30.0513 102.7273 -11.2277 28.2965 -20.9277
# 4 -0.4596 -14.3195 -11.2277 33.3887 -10.0075 3.2648
# 5 9.8913 9.2432 28.2965 -10.0075 48.4619 3.7088
# 6 -10.0300 5.5730 -20.9277 3.2648 3.7088 26.1818
#
#
#
# Elastic Compliance Matrix: (Units=1/GPa)
#
#
# Indices 1 2 3 4 5 6 
#
# 1 0.007257 0.000504 -0.003186 -0.000741 0.000114 0.000203
# 2 0.000504 0.024121 -0.010599 0.009676 0.004653 -0.015279
# 3 -0.003186 -0.010599 0.021135 -0.002976 -0.011812 0.019974
# 4 -0.000741 0.009676 -0.002976 0.036635 0.008411 -0.010482
# 5 0.000114 0.004653 -0.011812 0.008411 0.029553 -0.015623
# 6 0.000203 -0.015279 0.019974 -0.010482 -0.015623 0.061010
#
#
# Mechanical properties :
#
#
# Convention : Reuss Voigt Hill
#
# Bulk Modulus (GPa) = 38.53418 53.21383 45.87400
# Shear Modulus (GPa) = 23.26410 37.69843 30.48127
#
# Velocity S-wave (km/s) = 3.01429 3.83710 3.45031
# Velocity P-wave (km/s) = 5.21194 6.35720 5.81284
#
# Compressibility (1/GPa) = 0.02595099
#
# Stress axis : x y z
#
# Youngs Moduli (GPa) = 137.80712 41.45706 47.31472
#
# Poissons Ratio (x) = -0.02088 0.15073
# Poissons Ratio (y) = -0.06939 0.50148
# Poissons Ratio (z) = 0.43900 0.43940
#
# Static dielectric constant tensor:
#      x y z
#    x 2.050580 -0.021490 0.021920 
#    y -0.021490 2.206510 -0.124380 
#    z 0.021920 -0.124380 2.079780 
# 
# From -- ./inp_files/10615.got.cif
#   From: 2010.05.17/outbox.cif.g08.bks.cpg/sg2_6_cif.got.tgz:10615.got - 2010.06.03 11:33:40.
