data_PCOD9089057
_publ_section_title
;
Structure prediction by ZEFSAII (Michael W. Deem and Ramdas Pophale) SiO2 
 PCOD9089057
Probable space group: P -1
;
_chemical_formula_sum "Si O2"
_cell_formula_units_Z 14
_cell_length_a 9.950253
_cell_length_b 12.025613
_cell_length_c 12.004810
_cell_angle_alpha 74.804595
_cell_angle_beta 155.036300
_cell_angle_gamma 105.354616
_cell_volume 583.754409
_symmetry_space_group_name_H-M "P -1"
_symmetry_group_IT_number 2
_symmetry_cell_setting 'triclinic'
loop_
_space_group_symop_operation_xyz
x,y,z
-x,-y,-z
loop_
_atom_site_type_symbol
_atom_site_label
_atom_site_fract_x
_atom_site_fract_y
_atom_site_fract_z
Si Si1 0.375412 0.401010 0.847701
Si Si2 0.748192 0.580361 0.735222
Si Si3 0.466705 0.151872 0.230887
Si Si4 0.353254 0.620287 0.640419
Si Si5 0.578492 0.902558 0.313253
Si Si6 0.849646 0.227522 0.157522
Si Si7 0.715930 0.114566 0.664128
O O1 0.369722 0.482222 0.711559
O O2 0.018202 0.363714 0.624175
O O3 0.500000 0.500000 0.000000
O O4 0.599578 0.298485 0.018662
O O5 0.500000 0.500000 0.500000
O O6 0.544503 0.634032 0.665202
O O7 0.935165 0.677639 0.776106
O O8 0.000000 0.500000 0.000000
O O9 0.476134 0.286761 0.168914
O O10 0.665144 0.171033 0.490512
O O11 0.606726 0.042459 0.304005
O O12 0.092199 0.111402 0.969093
O O13 0.429018 0.855567 0.332399
O O14 0.914612 0.845319 0.573133
O O15 0.342097 0.858089 0.050003
O O16 0.500000 0.000000 0.500000
#
# Coordination Sequence:
#
# PCOD9089057 Si02
#       7
#     2   2   2   2   2   2   2
#     4  11  27  49  71  94 136 191 240 282 350 410
#     4  12  24  42  68 107 138 168 228 290 345 397
#     4  11  23  40  67 102 139 180 231 275 340 420
#     4  11  26  45  72 100 135 186 235 287 341 416
#     4  11  22  40  65 101 138 179 218 275 349 413
#     4  12  25  44  71 100 141 177 221 287 351 404
#     4  10  19  37  64  99 144 180 216 269 341 414
#
# _framework density 23.982689000000001
#
# number of rings (size 3 to 8) (size 9 to 14) (size 15 to 20)
#    0.000    0.857    1.429    7.714    6.000    0.000 
#    0.000    1.429    0.000    0.000    0.000    0.000 
#    0.000    0.000    0.000    0.000    0.000    0.000 
#
# Total GULP energy -78187.666487 kJ/mol
# GULP energy per Si atom -5584.833320 kJ/mol
# Density = 2.392810 g / cm^3
# Si number density = 23.982689 Si / 1000 Ang^3
#
#
#
# Elastic Constant Matrix: (Units=GPa)
#
#
# Indices 1 2 3 4 5 6 
#
# 1 81.0279 18.4386 6.5293 12.5343 24.2482 -13.9934
# 2 18.4386 159.0261 48.2923 7.0006 24.9273 -21.5719
# 3 6.5293 48.2923 128.5259 8.3778 19.1407 -6.6704
# 4 12.5343 7.0006 8.3778 41.1813 -9.6388 6.2263
# 5 24.2482 24.9273 19.1407 -9.6388 41.5196 -8.7343
# 6 -13.9934 -21.5719 -6.6704 6.2263 -8.7343 28.1517
#
#
#
# Elastic Compliance Matrix: (Units=1/GPa)
#
#
# Indices 1 2 3 4 5 6 
#
# 1 0.019161 0.001008 0.001793 -0.010829 -0.013241 0.009009
# 2 0.001008 0.008387 -0.002071 -0.003172 -0.004177 0.005843
# 3 0.001793 -0.002071 0.009437 -0.003350 -0.004763 0.000804
# 4 -0.010829 -0.003172 -0.003350 0.034103 0.015291 -0.011406
# 5 -0.013241 -0.004177 -0.004763 0.015291 0.039653 -0.001991
# 6 0.009009 0.005843 0.000804 -0.011406 -0.001991 0.046573
#
#
# Mechanical properties :
#
#
# Convention : Reuss Voigt Hill
#
# Bulk Modulus (GPa) = 26.00999 57.23335 41.62167
# Shear Modulus (GPa) = 29.64400 41.85850 35.75125
#
# Velocity S-wave (km/s) = 3.51958 4.18229 3.86516
# Velocity P-wave (km/s) = 5.23311 6.87301 6.10834
#
# Compressibility (1/GPa) = 0.03844676
#
# Stress axis : x y z
#
# Youngs Moduli (GPa) = 52.18906 119.22976 105.96748
#
# Poissons Ratio (x) = -0.12020 -0.19002
# Poissons Ratio (y) = -0.05261 0.21941
# Poissons Ratio (z) = -0.09359 0.24687
#
# Static dielectric constant tensor:
#      x y z
#    x 2.196980 0.331460 -0.234720 
#    y 0.331460 2.314430 -0.239350 
#    z -0.234720 -0.239350 2.024580 
# 
# From -- ./inp_files/518954.got.cif
#   From: 2010.05.17/outbox.cif.g08.bks.cpg/sg2_260_cif.got.tgz:518954.got - 2010.06.03 11:33:40.
