data_PCOD9089749
_publ_section_title
;
Structure prediction by ZEFSAII (Michael W. Deem and Ramdas Pophale) SiO2 
 PCOD9089749
Probable space group: P -1
;
_chemical_formula_sum "Si O2"
_cell_formula_units_Z 16
_cell_length_a 8.757228
_cell_length_b 4.978934
_cell_length_c 21.062466
_cell_angle_alpha 126.368844
_cell_angle_beta 56.055473
_cell_angle_gamma 111.427539
_cell_volume 612.649526
_symmetry_space_group_name_H-M "P -1"
_symmetry_group_IT_number 2
_symmetry_cell_setting 'triclinic'
loop_
_space_group_symop_operation_xyz
x,y,z
-x,-y,-z
loop_
_atom_site_type_symbol
_atom_site_label
_atom_site_fract_x
_atom_site_fract_y
_atom_site_fract_z
Si Si1 0.312756 0.664676 0.087824
Si Si2 0.845618 0.272122 0.572609
Si Si3 0.532273 0.807951 0.293960
Si Si4 0.177019 0.341356 0.962999
Si Si5 0.097277 0.539400 0.655254
Si Si6 0.709526 0.138946 0.458913
Si Si7 0.227228 0.718522 0.778724
Si Si8 0.570787 0.594177 0.855576
O O1 0.313090 0.644710 0.160580
O O2 0.336131 0.038899 0.110516
O O3 0.500000 0.500000 0.000000
O O4 0.168428 0.418507 0.050862
O O5 0.644506 0.106621 0.613196
O O6 0.796911 0.386577 0.528277
O O7 0.924764 0.522607 0.644469
O O8 0.000000 0.000000 0.500000
O O9 0.704392 0.635092 0.262924
O O10 0.450375 0.514377 0.226386
O O11 0.598865 0.106123 0.274431
O O12 0.359055 0.548322 0.923033
O O13 0.190325 0.969374 0.880301
O O14 0.000000 0.500000 0.000000
O O15 0.259444 0.704572 0.595970
O O16 0.081177 0.702585 0.751892
O O17 0.163183 0.175866 0.607263
O O18 0.500000 0.000000 0.500000
#
# Coordination Sequence:
#
# PCOD9089749 Si02
#       8
#     2   2   2   2   2   2   2   2
#     4  10  19  38  61  87 121 163 208 253 304 372
#     4  10  24  42  65  97 127 160 206 263 311 357
#     4  11  23  43  66  89 125 169 210 252 306 379
#     4  10  22  40  63  94 127 160 207 266 312 360
#     4  11  23  40  60  90 127 158 203 258 305 364
#     4  11  22  40  65  91 122 164 204 248 307 372
#     4  11  24  43  63  90 124 169 209 247 310 381
#     4  10  21  40  63  88 120 165 210 249 306 377
#
# _framework density 26.116074999999999
#
# number of rings (size 3 to 8) (size 9 to 14) (size 15 to 20)
#    0.000    1.500    0.000    6.750    0.000    7.000 
#    0.000   20.625    0.000    0.000    0.000    0.000 
#    0.000    0.000    0.000    0.000    0.000    0.000 
#
# Total GULP energy -89416.727972 kJ/mol
# GULP energy per Si atom -5588.545498 kJ/mol
# Density = 2.605663 g / cm^3
# Si number density = 26.116075 Si / 1000 Ang^3
#
#
#
# Elastic Constant Matrix: (Units=GPa)
#
#
# Indices 1 2 3 4 5 6 
#
# 1 150.3528 13.2284 48.5258 -4.9282 38.4027 1.9742
# 2 13.2284 99.7993 8.9521 -0.6277 -7.0289 -4.6674
# 3 48.5258 8.9521 39.1557 12.2296 15.7887 2.6143
# 4 -4.9282 -0.6277 12.2296 23.1009 7.1073 -2.3848
# 5 38.4027 -7.0289 15.7887 7.1073 60.9935 -3.6122
# 6 1.9742 -4.6674 2.6143 -2.3848 -3.6122 40.7707
#
#
#
# Elastic Compliance Matrix: (Units=1/GPa)
#
#
# Indices 1 2 3 4 5 6 
#
# 1 0.016436 -0.000359 -0.023412 0.017965 -0.006354 0.001152
# 2 -0.000359 0.010635 -0.003507 0.001548 0.002283 0.001753
# 3 -0.023412 -0.003507 0.068509 -0.042344 0.001179 -0.006033
# 4 0.017965 0.001548 -0.042344 0.072710 -0.008316 0.005539
# 5 -0.006354 0.002283 0.001179 -0.008316 0.021436 0.001906
# 6 0.001152 0.001753 -0.006033 0.005539 0.001906 0.025552
#
#
# Mechanical properties :
#
#
# Convention : Reuss Voigt Hill
#
# Bulk Modulus (GPa) = 24.37750 47.85782 36.11766
# Shear Modulus (GPa) = 17.63615 39.54644 28.59129
#
# Velocity S-wave (km/s) = 2.60147 3.89557 3.31233
# Velocity P-wave (km/s) = 4.28697 6.21279 5.33745
#
# Compressibility (1/GPa) = 0.04102144
#
# Stress axis : x y z
#
# Youngs Moduli (GPa) = 60.84368 94.03076 14.59668
#
# Poissons Ratio (x) = 0.03376 0.34174
# Poissons Ratio (y) = 0.02185 0.05120
# Poissons Ratio (z) = 1.42449 0.32980
#
# Static dielectric constant tensor:
#      x y z
#    x 2.128970 0.047950 0.191140 
#    y 0.047950 2.001620 -0.035230 
#    z 0.191140 -0.035230 2.309760 
# 
# From -- ./inp_files/605933.got.cif
#   From: 2010.05.17/outbox.cif.g08.bks.cpg/sg2_303_cif.got.tgz:605933.got - 2010.06.03 11:33:40.
