data_PCOD9089381
_publ_section_title
;
Structure prediction by ZEFSAII (Michael W. Deem and Ramdas Pophale) SiO2 
 PCOD9089381
Probable space group: P -1
;
_chemical_formula_sum "Si O2"
_cell_formula_units_Z 14
_cell_length_a 18.932020
_cell_length_b 9.271365
_cell_length_c 22.438682
_cell_angle_alpha 149.531714
_cell_angle_beta 161.629132
_cell_angle_gamma 40.306684
_cell_volume 590.399613
_symmetry_space_group_name_H-M "P -1"
_symmetry_group_IT_number 2
_symmetry_cell_setting 'triclinic'
loop_
_space_group_symop_operation_xyz
x,y,z
-x,-y,-z
loop_
_atom_site_type_symbol
_atom_site_label
_atom_site_fract_x
_atom_site_fract_y
_atom_site_fract_z
Si Si1 0.000423 0.327051 0.139946
Si Si2 0.469997 0.445225 0.386553
Si Si3 0.288142 0.946071 0.429411
Si Si4 0.680267 0.772425 0.322538
Si Si5 0.039116 0.809021 0.806217
Si Si6 0.857510 0.746198 0.097210
Si Si7 0.369217 0.825882 0.981061
O O1 0.272900 0.544394 0.424910
O O2 0.825261 0.451388 0.005712
O O3 0.041453 0.669122 0.822141
O O4 0.000000 0.000000 0.000000
O O5 0.500000 0.500000 0.500000
O O6 0.413944 0.739225 0.424886
O O7 0.247773 0.139639 0.092998
O O8 0.409082 0.121789 0.649349
O O9 0.211109 0.154594 0.396304
O O10 0.032767 0.730247 0.177080
O O11 0.622693 0.413031 0.147263
O O12 0.564650 0.840182 0.193204
O O13 0.962055 0.965370 0.619413
O O14 0.122058 0.671001 0.765593
O O15 0.647919 0.860795 0.947143
#
# Coordination Sequence:
#
# PCOD9089381 Si02
#       7
#     2   2   2   2   2   2   2
#     4  12  24  38  61  95 132 168 214 259 316 375
#     4  12  20  39  63  86 129 169 208 268 311 374
#     4   9  20  37  62  88 126 166 214 255 316 381
#     4   9  19  37  68  95 118 169 214 257 319 379
#     4  11  23  37  63  95 125 170 210 258 322 374
#     4   9  19  36  59  88 125 163 205 261 308 377
#     4  10  19  37  69  93 124 165 214 260 321 376
#
# _framework density 23.712754
#
# number of rings (size 3 to 8) (size 9 to 14) (size 15 to 20)
#    0.857    0.857    2.857    2.571    0.000    1.714 
#    0.000    2.143    0.000    1.714    0.000    1.000 
#    0.000    0.000    0.000    0.000    0.000    0.000 
#
# Total GULP energy -78116.292008 kJ/mol
# GULP energy per Si atom -5579.735143 kJ/mol
# Density = 2.365878 g / cm^3
# Si number density = 23.712754 Si / 1000 Ang^3
#
#
#
# Elastic Constant Matrix: (Units=GPa)
#
#
# Indices 1 2 3 4 5 6 
#
# 1 59.2704 28.1490 7.5496 6.0334 0.8835 13.3465
# 2 28.1490 135.0302 19.3201 -9.2258 -8.6244 21.2423
# 3 7.5496 19.3201 68.5162 -7.5152 -7.5070 -0.9134
# 4 6.0334 -9.2258 -7.5152 39.3987 -0.2231 -10.1929
# 5 0.8835 -8.6244 -7.5070 -0.2231 22.7851 0.9034
# 6 13.3465 21.2423 -0.9134 -10.1929 0.9034 42.2627
#
#
#
# Elastic Compliance Matrix: (Units=1/GPa)
#
#
# Indices 1 2 3 4 5 6 
#
# 1 0.020983 -0.003651 -0.002346 -0.006153 -0.002780 -0.006267
# 2 -0.003651 0.009231 -0.001718 0.001580 0.003212 -0.003212
# 3 -0.002346 -0.001718 0.016313 0.003813 0.004742 0.002775
# 4 -0.006153 0.001580 0.003813 0.029586 0.002053 0.008323
# 5 -0.002780 0.003212 0.004742 0.002053 0.046840 -0.001140
# 6 -0.006267 -0.003212 0.002775 0.008323 -0.001140 0.029346
#
#
# Mechanical properties :
#
#
# Convention : Reuss Voigt Hill
#
# Bulk Modulus (GPa) = 32.15641 41.42825 36.79233
# Shear Modulus (GPa) = 28.07497 34.74252 31.40874
#
# Velocity S-wave (km/s) = 3.44461 3.83187 3.64339
# Velocity P-wave (km/s) = 5.42316 6.08986 5.76615
#
# Compressibility (1/GPa) = 0.03109799
#
# Stress axis : x y z
#
# Youngs Moduli (GPa) = 47.65693 108.33069 61.30101
#
# Poissons Ratio (x) = 0.39549 0.14379
# Poissons Ratio (y) = 0.17398 0.10533
# Poissons Ratio (z) = 0.11179 0.18614
#
# Static dielectric constant tensor:
#      x y z
#    x 1.915470 -0.028710 -0.012470 
#    y -0.028710 2.050080 -0.001190 
#    z -0.012470 -0.001190 1.948670 
# 
# From -- ./inp_files/613643.got.cif
#   From: 2010.05.17/outbox.cif.g08.bks.cpg/sg2_307_cif.got.tgz:613643.got - 2010.06.03 11:33:40.
