data_PCOD9089722
_publ_section_title
;
Structure prediction by ZEFSAII (Michael W. Deem and Ramdas Pophale) SiO2 
 PCOD9089722
Probable space group: P -1
;
_chemical_formula_sum "Si O2"
_cell_formula_units_Z 16
_cell_length_a 14.050574
_cell_length_b 7.982477
_cell_length_c 7.081520
_cell_angle_alpha 93.086526
_cell_angle_beta 113.188947
_cell_angle_gamma 119.872996
_cell_volume 601.142698
_symmetry_space_group_name_H-M "P -1"
_symmetry_group_IT_number 2
_symmetry_cell_setting 'triclinic'
loop_
_space_group_symop_operation_xyz
x,y,z
-x,-y,-z
loop_
_atom_site_type_symbol
_atom_site_label
_atom_site_fract_x
_atom_site_fract_y
_atom_site_fract_z
Si Si1 0.414421 0.261582 0.898921
Si Si2 0.634653 0.275404 0.535810
Si Si3 0.101735 0.524880 0.310178
Si Si4 0.637130 0.647936 0.520567
Si Si5 0.853093 0.926107 0.242344
Si Si6 0.147210 0.680800 0.769138
Si Si7 0.100875 0.139618 0.292745
Si Si8 0.571790 0.129379 0.867223
O O1 0.372275 0.228118 0.647018
O O2 0.294399 0.196229 0.927382
O O3 0.491330 0.159384 0.960735
O O4 0.500000 0.500000 0.000000
O O5 0.763389 0.284949 0.643011
O O6 0.656692 0.471884 0.459668
O O7 0.608748 0.291139 0.735011
O O8 0.518285 0.078558 0.333247
O O9 0.126740 0.556342 0.557369
O O10 0.092974 0.324310 0.231410
O O11 0.961802 0.472439 0.177286
O O12 0.500000 0.500000 0.500000
O O13 0.776968 0.821997 0.716373
O O14 0.867290 0.851819 0.454700
O O15 0.881310 0.151485 0.296595
O O16 0.955997 0.945305 0.179400
O O17 0.291394 0.801301 0.950478
#
# Coordination Sequence:
#
# PCOD9089722 Si02
#       8
#     2   2   2   2   2   2   2   2
#     4  11  24  36  58  88 116 151 194 246 300 344
#     4  10  22  40  59  82 118 159 199 237 290 357
#     4   9  19  37  59  84 112 154 195 239 293 349
#     4  10  19  38  61  84 114 154 195 241 292 351
#     4   9  18  34  52  82 114 145 187 236 288 344
#     4  10  21  35  58  87 117 149 194 244 294 344
#     4   8  17  33  58  79 110 150 188 234 287 342
#     4  11  24  38  57  87 119 156 196 242 296 348
#
# _framework density 26.615976
#
# number of rings (size 3 to 8) (size 9 to 14) (size 15 to 20)
#    0.000    2.250    1.250    0.750    7.000    1.500 
#    0.000    0.000    0.000    2.250    0.000    0.000 
#    0.000    0.000    0.000    0.000    0.000    0.000 
#
# Total GULP energy -89163.420090 kJ/mol
# GULP energy per Si atom -5572.713756 kJ/mol
# Density = 2.655540 g / cm^3
# Si number density = 26.615976 Si / 1000 Ang^3
#
#
#
# Elastic Constant Matrix: (Units=GPa)
#
#
# Indices 1 2 3 4 5 6 
#
# 1 185.6887 22.0774 53.7235 26.5019 48.1820 58.0284
# 2 22.0774 62.1928 23.7828 11.5874 16.6193 9.4519
# 3 53.7235 23.7828 93.1808 14.8060 31.6189 14.6126
# 4 26.5019 11.5874 14.8060 39.7157 15.9636 14.2991
# 5 48.1820 16.6193 31.6189 15.9636 51.6612 9.9096
# 6 58.0284 9.4519 14.6126 14.2991 9.9096 64.8123
#
#
#
# Elastic Compliance Matrix: (Units=1/GPa)
#
#
# Indices 1 2 3 4 5 6 
#
# 1 0.010155 0.000318 -0.002483 -0.000684 -0.006414 -0.007447
# 2 0.000318 0.018772 -0.003241 -0.002736 -0.003279 -0.001187
# 3 -0.002483 -0.003241 0.014973 -0.000856 -0.005612 0.000367
# 4 -0.000684 -0.002736 -0.000856 0.031108 -0.006681 -0.004637
# 5 -0.006414 -0.003279 -0.005612 -0.006681 0.031086 0.004207
# 6 -0.007447 -0.001187 0.000367 -0.004637 0.004207 0.022567
#
#
# Mechanical properties :
#
#
# Convention : Reuss Voigt Hill
#
# Bulk Modulus (GPa) = 30.22293 60.02551 45.12422
# Shear Modulus (GPa) = 33.22205 47.33640 40.27922
#
# Velocity S-wave (km/s) = 3.53682 4.22180 3.89440
# Velocity P-wave (km/s) = 5.29704 6.80927 6.10020
#
# Compressibility (1/GPa) = 0.03308747
#
# Stress axis : x y z
#
# Youngs Moduli (GPa) = 98.47259 53.27150 66.78509
#
# Poissons Ratio (x) = -0.01693 0.16584
# Poissons Ratio (y) = -0.03130 0.21646
# Poissons Ratio (z) = 0.24452 0.17266
#
# Static dielectric constant tensor:
#      x y z
#    x 2.257120 0.121030 0.064280 
#    y 0.121030 2.119420 -0.041840 
#    z 0.064280 -0.041840 2.275930 
# 
# From -- ./inp_files/295612.got.cif
#   From: 2010.05.17/outbox.cif.g08.bks.cpg/sg2_148_cif.got.tgz:295612.got - 2010.06.03 11:33:40.
