data_PCOD9089943
_publ_section_title
;
Structure prediction by ZEFSAII (Michael W. Deem and Ramdas Pophale) SiO2 
 PCOD9089943
Probable space group: P -1
;
_chemical_formula_sum "Si O2"
_cell_formula_units_Z 14
_cell_length_a 5.394602
_cell_length_b 13.776326
_cell_length_c 13.149546
_cell_angle_alpha 41.139739
_cell_angle_beta 61.686554
_cell_angle_gamma 70.779388
_cell_volume 565.350272
_symmetry_space_group_name_H-M "P -1"
_symmetry_group_IT_number 2
_symmetry_cell_setting 'triclinic'
loop_
_space_group_symop_operation_xyz
x,y,z
-x,-y,-z
loop_
_atom_site_type_symbol
_atom_site_label
_atom_site_fract_x
_atom_site_fract_y
_atom_site_fract_z
Si Si1 0.375291 0.984507 0.675050
Si Si2 0.355733 0.838832 0.363567
Si Si3 0.221052 0.522228 0.607618
Si Si4 0.839795 0.973904 0.919146
Si Si5 0.150322 0.572610 0.812656
Si Si6 0.090399 0.244633 0.762894
Si Si7 0.342603 0.241701 0.331201
O O1 0.641763 0.079275 0.594065
O O2 0.248705 0.097308 0.530147
O O3 0.148219 0.952560 0.830967
O O4 0.460722 0.832961 0.730961
O O5 0.162997 0.696763 0.477541
O O6 0.336639 0.971564 0.183474
O O7 0.660385 0.763175 0.361966
O O8 0.500000 0.500000 0.500000
O O9 0.005427 0.405541 0.685198
O O10 0.219419 0.491341 0.754707
O O11 0.864317 0.117862 0.873821
O O12 0.763353 0.825321 0.110908
O O13 0.913129 0.682383 0.733198
O O14 0.449227 0.646445 0.734184
O O15 0.000000 0.500000 0.000000
#
# Coordination Sequence:
#
# PCOD9089943 Si02
#       7
#     2   2   2   2   2   2   2
#     4  10  23  38  68  95 132 177 234 292 358 413
#     4  10  19  38  62  93 130 176 231 290 344 426
#     4  10  22  44  67  97 138 181 235 284 358 418
#     4  10  20  37  61  92 132 171 233 291 348 417
#     4  12  27  49  72 105 147 188 237 294 355 428
#     4   9  21  37  56  94 129 176 228 289 351 417
#     4  11  26  46  70 103 141 185 240 290 356 423
#
# _framework density 24.763408999999999
#
# number of rings (size 3 to 8) (size 9 to 14) (size 15 to 20)
#    0.000    1.714    1.429    1.714    4.000    1.714 
#    5.143    1.429    0.000    0.000    0.000    0.000 
#    0.000    0.000    0.000    0.000    0.000    0.000 
#
# Total GULP energy -78038.008009 kJ/mol
# GULP energy per Si atom -5574.143429 kJ/mol
# Density = 2.470705 g / cm^3
# Si number density = 24.763409 Si / 1000 Ang^3
#
#
#
# Elastic Constant Matrix: (Units=GPa)
#
#
# Indices 1 2 3 4 5 6 
#
# 1 94.8524 13.6815 12.2357 -2.5581 18.8888 -2.3807
# 2 13.6815 142.9842 12.6790 7.5099 0.3227 18.3169
# 3 12.2357 12.6790 76.7717 28.9380 7.3048 -3.5507
# 4 -2.5581 7.5099 28.9380 39.3296 1.1734 -2.5730
# 5 18.8888 0.3227 7.3048 1.1734 37.0922 0.0980
# 6 -2.3807 18.3169 -3.5507 -2.5730 0.0980 25.9175
#
#
#
# Elastic Compliance Matrix: (Units=1/GPa)
#
#
# Indices 1 2 3 4 5 6 
#
# 1 0.012349 -0.001406 -0.002207 0.003013 -0.005943 0.002147
# 2 -0.001406 0.008064 -0.000968 -0.001345 0.000895 -0.006098
# 3 -0.002207 -0.000968 0.019016 -0.013772 -0.002181 0.001728
# 4 0.003013 -0.001345 -0.013772 0.036203 0.000036 0.002934
# 5 -0.005943 0.000895 -0.002181 0.000036 0.030411 -0.001589
# 6 0.002147 -0.006098 0.001728 0.002934 -0.001589 0.043625
#
#
# Mechanical properties :
#
#
# Convention : Reuss Voigt Hill
#
# Bulk Modulus (GPa) = 33.03952 43.53340 38.28646
# Shear Modulus (GPa) = 29.60018 38.86867 34.23442
#
# Velocity S-wave (km/s) = 3.46109 3.96612 3.72218
# Velocity P-wave (km/s) = 5.41694 6.21219 5.82815
#
# Compressibility (1/GPa) = 0.03026678
#
# Stress axis : x y z
#
# Youngs Moduli (GPa) = 80.98009 124.00986 52.58740
#
# Poissons Ratio (x) = 0.17433 0.11606
# Poissons Ratio (y) = 0.11384 0.05091
# Poissons Ratio (z) = 0.17872 0.12005
#
# Static dielectric constant tensor:
#      x y z
#    x 2.018670 -0.015940 -0.067130 
#    y -0.015940 1.999600 0.082540 
#    z -0.067130 0.082540 2.113740 
# 
# From -- ./inp_files/368859.got.cif
#   From: 2010.05.17/outbox.cif.g08.bks.cpg/sg2_185_cif.got.tgz:368859.got - 2010.06.03 11:33:40.
