data_PCOD9089633
_publ_section_title
;
Structure prediction by ZEFSAII (Michael W. Deem and Ramdas Pophale) SiO2 
 PCOD9089633
Probable space group: P -1
;
_chemical_formula_sum "Si O2"
_cell_formula_units_Z 16
_cell_length_a 14.068267
_cell_length_b 10.149324
_cell_length_c 8.598580
_cell_angle_alpha 69.764525
_cell_angle_beta 60.276734
_cell_angle_gamma 116.723766
_cell_volume 647.427995
_symmetry_space_group_name_H-M "P -1"
_symmetry_group_IT_number 2
_symmetry_cell_setting 'triclinic'
loop_
_space_group_symop_operation_xyz
x,y,z
-x,-y,-z
loop_
_atom_site_type_symbol
_atom_site_label
_atom_site_fract_x
_atom_site_fract_y
_atom_site_fract_z
Si Si1 0.330338 0.990501 0.606427
Si Si2 0.196591 0.960503 0.431425
Si Si3 0.694365 0.643891 0.803756
Si Si4 0.733575 0.245004 0.712366
Si Si5 0.894269 0.273781 0.846964
Si Si6 0.596293 0.223974 0.536365
Si Si7 0.999817 0.938155 0.200472
Si Si8 0.837133 0.626606 0.961112
O O1 0.283233 0.058330 0.490357
O O2 0.403066 0.932014 0.473234
O O3 0.441610 0.144637 0.601193
O O4 0.157090 0.771103 0.914479
O O5 0.283931 0.926598 0.276188
O O6 0.215225 0.132973 0.281397
O O7 0.004331 0.725234 0.707956
O O8 0.816042 0.733772 0.518348
O O9 0.500000 0.500000 0.000000
O O10 0.709117 0.531103 0.961149
O O11 0.754963 0.231288 0.883283
O O12 0.612077 0.222219 0.711079
O O13 0.919716 0.485441 0.426745
O O14 0.907548 0.122860 0.847159
O O15 0.756028 0.460335 0.234801
O O16 0.000000 0.000000 0.000000
O O17 0.093868 0.158303 0.118829
#
# Coordination Sequence:
#
# PCOD9089633 Si02
#       8
#     2   2   2   2   2   2   2   2
#     4  10  21  36  60  83 117 149 191 246 292 346
#     4  10  19  38  60  85 110 150 198 238 283 340
#     4  11  23  40  63  89 118 154 197 246 292 345
#     4  10  21  36  58  80 115 150 195 242 285 348
#     4  11  21  37  57  86 114 155 196 236 294 349
#     4  10  21  38  56  87 115 152 195 242 293 335
#     4  11  23  40  62  88 121 156 196 243 293 353
#     4  11  21  37  62  85 115 155 201 239 281 354
#
# _framework density 24.713173000000001
#
# number of rings (size 3 to 8) (size 9 to 14) (size 15 to 20)
#    0.000    1.500    0.000    7.500    0.000    3.500 
#    0.000    6.250    0.000    0.000    0.000    0.000 
#    0.000    0.000    0.000    0.000    0.000    0.000 
#
# Total GULP energy -89308.593146 kJ/mol
# GULP energy per Si atom -5581.787072 kJ/mol
# Density = 2.465692 g / cm^3
# Si number density = 24.713173 Si / 1000 Ang^3
#
#
#
# Elastic Constant Matrix: (Units=GPa)
#
#
# Indices 1 2 3 4 5 6 
#
# 1 137.3606 28.7228 46.6280 9.8998 9.5182 31.0869
# 2 28.7228 51.5098 15.5216 3.6372 3.4315 5.0212
# 3 46.6280 15.5216 101.6371 17.2305 3.4676 6.9145
# 4 9.8998 3.6372 17.2305 27.7145 4.3718 4.6100
# 5 9.5182 3.4315 3.4676 4.3718 45.4566 3.1192
# 6 31.0869 5.0212 6.9145 4.6100 3.1192 40.6355
#
#
#
# Elastic Compliance Matrix: (Units=1/GPa)
#
#
# Indices 1 2 3 4 5 6 
#
# 1 0.011274 -0.004297 -0.004053 0.000481 -0.001268 -0.007361
# 2 -0.004297 0.022219 -0.001362 -0.000575 -0.000679 0.000891
# 3 -0.004053 -0.001362 0.012917 -0.006782 0.000495 0.001803
# 4 0.000481 -0.000575 -0.006782 0.041313 -0.003268 -0.003579
# 5 -0.001268 -0.000679 0.000495 -0.003268 0.022620 -0.000396
# 6 -0.007361 0.000891 0.001803 -0.003579 -0.000396 0.030260
#
#
# Mechanical properties :
#
#
# Convention : Reuss Voigt Hill
#
# Bulk Modulus (GPa) = 37.05712 52.47247 44.76480
# Shear Modulus (GPa) = 29.58206 36.07033 32.82619
#
# Velocity S-wave (km/s) = 3.46354 3.82456 3.64852
# Velocity P-wave (km/s) = 5.56977 6.38606 5.99183
#
# Compressibility (1/GPa) = 0.02698537
#
# Stress axis : x y z
#
# Youngs Moduli (GPa) = 88.70202 45.00606 77.41940
#
# Poissons Ratio (x) = 0.19339 0.31381
# Poissons Ratio (y) = 0.38115 0.10543
# Poissons Ratio (z) = 0.35954 0.06129
#
# Static dielectric constant tensor:
#      x y z
#    x 2.069400 0.036500 -0.022500 
#    y 0.036500 1.977220 -0.005560 
#    z -0.022500 -0.005560 1.977730 
# 
# From -- ./inp_files/203159.got.cif
#   From: 2010.05.17/outbox.cif.g08.bks.cpg/sg2_102_cif.got.tgz:203159.got - 2010.06.03 11:33:40.
