data_PCOD9089478
_publ_section_title
;
Structure prediction by ZEFSAII (Michael W. Deem and Ramdas Pophale) SiO2 
 PCOD9089478
Probable space group: P -1
;
_chemical_formula_sum "Si O2"
_cell_formula_units_Z 14
_cell_length_a 6.434781
_cell_length_b 14.243175
_cell_length_c 7.566664
_cell_angle_alpha 72.174204
_cell_angle_beta 117.549930
_cell_angle_gamma 79.354466
_cell_volume 539.826327
_symmetry_space_group_name_H-M "P -1"
_symmetry_group_IT_number 2
_symmetry_cell_setting 'triclinic'
loop_
_space_group_symop_operation_xyz
x,y,z
-x,-y,-z
loop_
_atom_site_type_symbol
_atom_site_label
_atom_site_fract_x
_atom_site_fract_y
_atom_site_fract_z
Si Si1 0.968783 0.712990 0.803134
Si Si2 0.705039 0.578714 0.874768
Si Si3 0.828013 0.702216 0.385708
Si Si4 0.863045 0.124513 0.362404
Si Si5 0.523483 0.571474 0.206376
Si Si6 0.644379 0.097979 0.951764
Si Si7 0.997410 0.853885 0.207861
O O1 0.727940 0.691465 0.787107
O O2 0.010215 0.665117 0.646560
O O3 0.952237 0.830836 0.694745
O O4 0.231449 0.654820 0.042954
O O5 0.516805 0.538916 0.710299
O O6 0.625143 0.572177 0.047218
O O7 0.000000 0.500000 0.000000
O O8 0.702823 0.616137 0.358918
O O9 0.947261 0.744106 0.245455
O O10 0.612823 0.818817 0.283529
O O11 0.636582 0.140413 0.126449
O O12 0.845241 0.160420 0.537895
O O13 0.000000 0.000000 0.500000
O O14 0.853373 0.125551 0.908139
O O15 0.749703 0.967995 0.060080
#
# Coordination Sequence:
#
# PCOD9089478 Si02
#       7
#     2   2   2   2   2   2   2
#     4  10  21  38  58  88 118 154 199 245 296 361
#     4   9  21  41  63  85 117 153 194 247 304 365
#     4  11  22  35  61  88 115 157 201 244 298 361
#     4   9  18  35  57  84 122 158 197 248 291 344
#     4  10  21  40  61  87 118 151 195 252 301 351
#     4  10  19  38  57  82 125 162 200 253 297 345
#     4   9  21  35  56  87 119 161 209 247 293 358
#
# _framework density 25.934263000000001
#
# number of rings (size 3 to 8) (size 9 to 14) (size 15 to 20)
#    0.000    2.286    1.429    0.429    2.000    2.857 
#    0.000    6.429    0.000   10.286    0.000    0.000 
#    0.000    0.000    0.000    0.000    0.000    0.000 
#
# Total GULP energy -78077.473362 kJ/mol
# GULP energy per Si atom -5576.962383 kJ/mol
# Density = 2.587524 g / cm^3
# Si number density = 25.934263 Si / 1000 Ang^3
#
#
#
# Elastic Constant Matrix: (Units=GPa)
#
#
# Indices 1 2 3 4 5 6 
#
# 1 85.3249 43.4024 7.8008 -16.3534 -8.8538 10.6598
# 2 43.4024 112.2861 19.4801 5.1394 -6.4164 49.0662
# 3 7.8008 19.4801 74.2367 8.1806 1.5101 -2.7972
# 4 -16.3534 5.1394 8.1806 41.1051 3.7446 -1.9786
# 5 -8.8538 -6.4164 1.5101 3.7446 32.4929 -10.0820
# 6 10.6598 49.0662 -2.7972 -1.9786 -10.0820 59.1183
#
#
#
# Elastic Compliance Matrix: (Units=1/GPa)
#
#
# Indices 1 2 3 4 5 6 
#
# 1 0.017808 -0.009428 -0.000172 0.008220 0.003765 0.005523
# 2 -0.009428 0.020469 -0.004274 -0.005995 -0.002646 -0.016142
# 3 -0.000172 -0.004274 0.015025 -0.002320 -0.000016 0.004209
# 4 0.008220 -0.005995 -0.002320 0.029093 -0.000884 0.004207
# 5 0.003765 -0.002646 -0.000016 -0.000884 0.033622 0.007221
# 6 0.005523 -0.016142 0.004209 0.004207 0.007221 0.030888
#
#
# Mechanical properties :
#
#
# Convention : Reuss Voigt Hill
#
# Bulk Modulus (GPa) = 39.13392 45.91271 42.52331
# Shear Modulus (GPa) = 27.29713 39.95422 33.62567
#
# Velocity S-wave (km/s) = 3.24782 3.92930 3.60470
# Velocity P-wave (km/s) = 5.40249 6.19094 5.81011
#
# Compressibility (1/GPa) = 0.02555328
#
# Stress axis : x y z
#
# Youngs Moduli (GPa) = 56.15594 48.85528 66.55770
#
# Poissons Ratio (x) = 0.46061 0.01142
# Poissons Ratio (y) = 0.52944 0.28447
# Poissons Ratio (z) = 0.00964 0.20881
#
# Static dielectric constant tensor:
#      x y z
#    x 2.061730 0.061430 -0.016320 
#    y 0.061430 2.165300 -0.028300 
#    z -0.016320 -0.028300 2.143820 
# 
# From -- ./inp_files/45697.got.cif
#   From: 2010.05.17/outbox.cif.g08.bks.cpg/sg2_23_cif.got.tgz:45697.got - 2010.06.03 11:33:40.
