data_PCOD9089137
_publ_section_title
;
Structure prediction by ZEFSAII (Michael W. Deem and Ramdas Pophale) SiO2 
 PCOD9089137
Probable space group: P -1
;
_chemical_formula_sum "Si O2"
_cell_formula_units_Z 16
_cell_length_a 8.885162
_cell_length_b 13.448542
_cell_length_c 8.278607
_cell_angle_alpha 82.921772
_cell_angle_beta 86.609569
_cell_angle_gamma 135.873631
_cell_volume 667.720773
_symmetry_space_group_name_H-M "P -1"
_symmetry_group_IT_number 2
_symmetry_cell_setting 'triclinic'
loop_
_space_group_symop_operation_xyz
x,y,z
-x,-y,-z
loop_
_atom_site_type_symbol
_atom_site_label
_atom_site_fract_x
_atom_site_fract_y
_atom_site_fract_z
Si Si1 0.154751 0.512518 0.677566
Si Si2 0.951133 0.618167 0.634801
Si Si3 0.716289 0.535728 0.004939
Si Si4 0.649505 0.222122 0.856611
Si Si5 0.981381 0.847194 0.049620
Si Si6 0.226641 0.101743 0.766779
Si Si7 0.413262 0.030834 0.171054
Si Si8 0.720289 0.036658 0.477425
O O1 0.145773 0.627946 0.627522
O O2 0.181026 0.470544 0.508107
O O3 0.897085 0.365594 0.765194
O O4 0.292477 0.543358 0.821418
O O5 0.074206 0.786131 0.588298
O O6 0.805024 0.539092 0.824746
O O7 0.500000 0.500000 0.000000
O O8 0.896360 0.703104 0.017981
O O9 0.462609 0.210264 0.822918
O O10 0.578073 0.084776 0.797415
O O11 0.629439 0.187509 0.055570
O O12 0.840973 0.816256 0.218003
O O13 0.233154 0.957588 0.059154
O O14 0.004835 0.940465 0.888584
O O15 0.266147 0.052210 0.620655
O O16 0.302610 0.022366 0.333942
O O17 0.500000 0.000000 0.500000
#
# Coordination Sequence:
#
# PCOD9089137 Si02
#       8
#     2   2   2   2   2   2   2   2
#     4  11  24  47  69 100 141 174 228 286 334 396
#     4  11  25  44  72  99 137 180 227 282 333 402
#     4  12  26  45  70  97 134 188 228 275 338 405
#     4  10  19  37  65  95 124 174 212 271 338 397
#     4  10  21  41  59  88 131 173 212 269 333 397
#     4  10  21  36  64  91 130 166 210 271 333 399
#     4  10  20  35  65  97 127 174 213 273 347 391
#     4  12  21  38  65 103 128 165 224 282 333 396
#
# _framework density 23.962112000000001
#
# number of rings (size 3 to 8) (size 9 to 14) (size 15 to 20)
#    0.000    1.250    5.000    0.375    3.500    1.000 
#    0.000    0.000    0.000    0.000    0.000    0.000 
#    0.000    0.000    0.000    0.000    0.000    0.000 
#
# Total GULP energy -89160.256200 kJ/mol
# GULP energy per Si atom -5572.516013 kJ/mol
# Density = 2.390757 g / cm^3
# Si number density = 23.962112 Si / 1000 Ang^3
#
#
#
# Elastic Constant Matrix: (Units=GPa)
#
#
# Indices 1 2 3 4 5 6 
#
# 1 83.1990 9.8514 37.1393 21.1813 -16.8482 6.0510
# 2 9.8514 57.4804 44.0118 12.0889 -10.2395 -12.7694
# 3 37.1393 44.0118 130.7140 23.3247 -11.3981 -13.5981
# 4 21.1813 12.0889 23.3247 25.1161 -10.0248 -8.1194
# 5 -16.8482 -10.2395 -11.3981 -10.0248 35.4210 8.1756
# 6 6.0510 -12.7694 -13.5981 -8.1194 8.1756 26.8647
#
#
#
# Elastic Compliance Matrix: (Units=1/GPa)
#
#
# Indices 1 2 3 4 5 6 
#
# 1 0.019830 0.001367 -0.004147 -0.014705 0.007230 -0.012560
# 2 0.001367 0.025501 -0.007486 -0.003197 0.003312 0.006050
# 3 -0.004147 -0.007486 0.012209 -0.004105 -0.002048 0.002938
# 4 -0.014705 -0.003197 -0.004105 0.065411 0.005136 0.017920
# 5 0.007230 0.003312 -0.002048 0.005136 0.035834 -0.010444
# 6 -0.012560 0.006050 0.002938 0.017920 -0.010444 0.053010
#
#
# Mechanical properties :
#
#
# Convention : Reuss Voigt Hill
#
# Bulk Modulus (GPa) = 27.02118 50.37760 38.69939
# Shear Modulus (GPa) = 20.43637 29.50642 24.97140
#
# Velocity S-wave (km/s) = 2.92355 3.51291 3.23169
# Velocity P-wave (km/s) = 4.76417 6.12564 5.48729
#
# Compressibility (1/GPa) = 0.03700801
#
# Stress axis : x y z
#
# Youngs Moduli (GPa) = 50.42900 39.21365 81.90928
#
# Poissons Ratio (x) = -0.05359 0.33965
# Poissons Ratio (y) = -0.06892 0.61317
# Poissons Ratio (z) = 0.20911 0.29355
#
# Static dielectric constant tensor:
#      x y z
#    x 1.982330 -0.031130 0.082030 
#    y -0.031130 1.964290 0.010770 
#    z 0.082030 0.010770 2.294500 
# 
# From -- ./inp_files/206894.got.cif
#   From: 2010.05.17/outbox.cif.g08.bks.cpg/sg2_104_cif.got.tgz:206894.got - 2010.06.03 11:33:40.
