data_PCOD9089628
_publ_section_title
;
Structure prediction by ZEFSAII (Michael W. Deem and Ramdas Pophale) SiO2 
 PCOD9089628
Probable space group: P -1
;
_chemical_formula_sum "Si O2"
_cell_formula_units_Z 14
_cell_length_a 18.362837
_cell_length_b 8.443486
_cell_length_c 8.441351
_cell_angle_alpha 107.242078
_cell_angle_beta 67.214209
_cell_angle_gamma 49.234924
_cell_volume 564.275407
_symmetry_space_group_name_H-M "P -1"
_symmetry_group_IT_number 2
_symmetry_cell_setting 'triclinic'
loop_
_space_group_symop_operation_xyz
x,y,z
-x,-y,-z
loop_
_atom_site_type_symbol
_atom_site_label
_atom_site_fract_x
_atom_site_fract_y
_atom_site_fract_z
Si Si1 0.683034 0.430965 0.771940
Si Si2 0.186786 0.676353 0.699167
Si Si3 0.251450 0.892111 0.857002
Si Si4 0.931525 0.899671 0.654225
Si Si5 0.454428 0.585798 0.318264
Si Si6 0.214968 0.479447 0.092343
Si Si7 0.614276 0.926910 0.465845
O O1 0.782138 0.319614 0.503516
O O2 0.552746 0.546002 0.842110
O O3 0.650555 0.660576 0.965762
O O4 0.800360 0.104727 0.687501
O O5 0.272733 0.655902 0.733891
O O6 0.279149 0.339705 0.561618
O O7 0.000000 0.000000 0.000000
O O8 0.284533 0.890873 0.649960
O O9 0.393519 0.717781 0.784893
O O10 0.099377 0.155661 0.181880
O O11 0.107170 0.576102 0.335449
O O12 0.889677 0.174745 0.790237
O O13 0.468917 0.752186 0.314066
O O14 0.268282 0.266132 0.842589
O O15 0.500000 0.000000 0.500000
#
# Coordination Sequence:
#
# PCOD9089628 Si02
#       7
#     2   2   2   2   2   2   2
#     4   9  19  34  57  90 114 156 199 242 283 360
#     4  11  19  35  63  87 115 159 205 234 286 362
#     4  10  19  38  60  84 116 170 194 230 300 371
#     4   9  16  35  61  83 113 163 201 231 283 364
#     4  10  22  36  59  90 121 149 204 246 294 350
#     4   9  18  35  61  84 117 153 204 232 291 355
#     4  12  22  40  61  91 120 156 194 252 302 342
#
# _framework density 24.810580999999999
#
# number of rings (size 3 to 8) (size 9 to 14) (size 15 to 20)
#    0.857    1.143    2.857    1.714    0.000    0.571 
#    0.000    9.286    0.000    0.000    0.000    2.000 
#    0.000    0.000    0.000    0.000    0.000    0.000 
#
# Total GULP energy -78000.400154 kJ/mol
# GULP energy per Si atom -5571.457154 kJ/mol
# Density = 2.475411 g / cm^3
# Si number density = 24.810581 Si / 1000 Ang^3
#
#
#
# Elastic Constant Matrix: (Units=GPa)
#
#
# Indices 1 2 3 4 5 6 
#
# 1 127.0412 7.3494 8.0882 0.1096 15.2725 -14.9947
# 2 7.3494 38.1826 8.9071 -3.6013 1.2679 -1.6888
# 3 8.0882 8.9071 95.4986 -33.2650 -7.2955 9.1917
# 4 0.1096 -3.6013 -33.2650 38.2735 2.4841 -2.1478
# 5 15.2725 1.2679 -7.2955 2.4841 33.5153 -8.5009
# 6 -14.9947 -1.6888 9.1917 -2.1478 -8.5009 28.9862
#
#
#
# Elastic Compliance Matrix: (Units=1/GPa)
#
#
# Indices 1 2 3 4 5 6 
#
# 1 0.008917 -0.001144 -0.001693 -0.001166 -0.003279 0.004035
# 2 -0.001144 0.027127 -0.002442 0.000567 -0.000671 0.001608
# 3 -0.001693 -0.002442 0.016103 0.013374 0.002243 -0.004476
# 4 -0.001166 0.000567 0.013374 0.037689 0.000125 -0.001982
# 5 -0.003279 -0.000671 0.002243 0.000125 0.033726 0.007454
# 6 0.004035 0.001608 -0.004476 -0.001982 0.007454 0.040139
#
#
# Mechanical properties :
#
#
# Convention : Reuss Voigt Hill
#
# Bulk Modulus (GPa) = 24.04481 34.37910 29.21195
# Shear Modulus (GPa) = 26.57847 35.91351 31.24599
#
# Velocity S-wave (km/s) = 3.27655 3.80874 3.55263
# Velocity P-wave (km/s) = 4.90171 5.76444 5.35049
#
# Compressibility (1/GPa) = 0.04158902
#
# Stress axis : x y z
#
# Youngs Moduli (GPa) = 112.14663 36.86420 62.09869
#
# Poissons Ratio (x) = 0.04217 0.10516
# Poissons Ratio (y) = 0.12828 0.15162
# Poissons Ratio (z) = 0.18992 0.09001
#
# Static dielectric constant tensor:
#      x y z
#    x 1.988330 0.011960 -0.037980 
#    y 0.011960 1.973950 -0.073280 
#    z -0.037980 -0.073280 2.103130 
# 
# From -- ./inp_files/343633.got.cif
#   From: 2010.05.17/outbox.cif.g08.bks.cpg/sg2_172_cif.got.tgz:343633.got - 2010.06.03 11:33:40.
