data_PCOD9089238
_publ_section_title
;
Structure prediction by ZEFSAII (Michael W. Deem and Ramdas Pophale) SiO2 
 PCOD9089238
Probable space group: P -1
;
_chemical_formula_sum "Si O2"
_cell_formula_units_Z 16
_cell_length_a 9.622608
_cell_length_b 12.705493
_cell_length_c 12.940085
_cell_angle_alpha 87.182532
_cell_angle_beta 124.949846
_cell_angle_gamma 52.519642
_cell_volume 814.241185
_symmetry_space_group_name_H-M "P -1"
_symmetry_group_IT_number 2
_symmetry_cell_setting 'triclinic'
loop_
_space_group_symop_operation_xyz
x,y,z
-x,-y,-z
loop_
_atom_site_type_symbol
_atom_site_label
_atom_site_fract_x
_atom_site_fract_y
_atom_site_fract_z
Si Si1 0.038662 0.357253 0.521841
Si Si2 0.740432 0.031938 0.157850
Si Si3 0.404450 0.213358 0.199716
Si Si4 0.520155 0.439735 0.627828
Si Si5 0.136066 0.938995 0.176012
Si Si6 0.854171 0.471229 0.818334
Si Si7 0.190794 0.238513 0.800830
Si Si8 0.517728 0.951027 0.393221
O O1 0.251976 0.233810 0.709824
O O2 0.000000 0.500000 0.500000
O O3 0.768917 0.432398 0.445379
O O4 0.181912 0.240938 0.488999
O O5 0.651970 0.111354 0.230318
O O6 0.886819 0.847221 0.224969
O O7 0.458213 0.136733 0.980807
O O8 0.901703 0.035729 0.157015
O O9 0.342781 0.338994 0.244886
O O10 0.464334 0.077458 0.291757
O O11 0.124062 0.340604 0.009347
O O12 0.500000 0.500000 0.500000
O O13 0.662570 0.257162 0.708023
O O14 0.700257 0.436167 0.767295
O O15 0.303008 0.964079 0.270484
O O16 0.000000 0.000000 0.000000
O O17 0.960141 0.420140 0.747523
O O18 0.500000 0.000000 0.500000
#
# Coordination Sequence:
#
# PCOD9089238 Si02
#       8
#     2   2   2   2   2   2   2   2
#     4  12  24  41  62  94 133 177 216 267 340 398
#     4  10  20  38  69  95 121 170 224 276 315 394
#     4  10  23  43  67  92 133 178 217 263 342 404
#     4  12  24  40  69  99 128 169 227 276 319 388
#     4  12  25  44  70 103 134 171 230 285 331 391
#     4  10  21  40  68  96 125 167 223 274 317 392
#     4  10  19  37  66  95 125 163 228 268 319 386
#     4  12  28  45  64  98 144 178 212 278 354 397
#
# _framework density 19.650196999999999
#
# number of rings (size 3 to 8) (size 9 to 14) (size 15 to 20)
#    0.000    1.000    5.000    1.500    5.250    1.000 
#    0.000    1.250    0.000    4.500    0.000    0.000 
#    0.000    0.000    0.000    0.000    0.000    0.000 
#
# Total GULP energy -89238.450540 kJ/mol
# GULP energy per Si atom -5577.403159 kJ/mol
# Density = 1.960547 g / cm^3
# Si number density = 19.650197 Si / 1000 Ang^3
#
#
#
# Elastic Constant Matrix: (Units=GPa)
#
#
# Indices 1 2 3 4 5 6 
#
# 1 132.5198 69.8781 22.8802 2.6283 -2.3286 -18.5597
# 2 69.8781 165.7322 32.6443 2.7563 -2.5579 -23.2727
# 3 22.8802 32.6443 41.2547 1.3890 -8.8389 -6.2491
# 4 2.6283 2.7563 1.3890 25.6494 1.9168 -2.6956
# 5 -2.3286 -2.5579 -8.8389 1.9168 29.0503 -2.1794
# 6 -18.5597 -23.2727 -6.2491 -2.6956 -2.1794 36.8584
#
#
#
# Elastic Compliance Matrix: (Units=1/GPa)
#
#
# Indices 1 2 3 4 5 6 
#
# 1 0.010143 -0.003422 -0.002543 -0.000268 -0.000057 0.002493
# 2 -0.003422 0.008830 -0.004793 0.000031 -0.000732 0.002999
# 3 -0.002543 -0.004793 0.031698 -0.001472 0.009229 0.001505
# 4 -0.000268 0.000031 -0.001472 0.039555 -0.002900 0.002357
# 5 -0.000057 -0.000732 0.009229 -0.002900 0.037585 0.003084
# 6 0.002493 0.002999 0.001505 0.002357 0.003084 0.030889
#
#
# Mechanical properties :
#
#
# Convention : Reuss Voigt Hill
#
# Bulk Modulus (GPa) = 34.30052 65.59020 49.94536
# Shear Modulus (GPa) = 26.32490 32.58521 29.45506
#
# Velocity S-wave (km/s) = 3.66413 4.07660 3.87585
# Velocity P-wave (km/s) = 5.94933 7.45718 6.74552
#
# Compressibility (1/GPa) = 0.02915408
#
# Stress axis : x y z
#
# Youngs Moduli (GPa) = 98.58997 113.25028 31.54822
#
# Poissons Ratio (x) = 0.38755 0.08024
# Poissons Ratio (y) = 0.33739 0.15121
# Poissons Ratio (z) = 0.25074 0.54279
#
# Static dielectric constant tensor:
#      x y z
#    x 1.709290 -0.018030 0.004160 
#    y -0.018030 1.726340 -0.018820 
#    z 0.004160 -0.018820 1.732230 
# 
# From -- ./inp_files/392621.got.cif
#   From: 2010.05.17/outbox.cif.g08.bks.cpg/sg2_197_cif.got.tgz:392621.got - 2010.06.03 11:33:40.
