data_PCOD9089626
_publ_section_title
;
Structure prediction by ZEFSAII (Michael W. Deem and Ramdas Pophale) SiO2 
 PCOD9089626
Probable space group: P -1
;
_chemical_formula_sum "Si O2"
_cell_formula_units_Z 16
_cell_length_a 14.501528
_cell_length_b 8.070769
_cell_length_c 8.966372
_cell_angle_alpha 52.002829
_cell_angle_beta 62.194411
_cell_angle_gamma 55.534319
_cell_volume 670.459635
_symmetry_space_group_name_H-M "P -1"
_symmetry_group_IT_number 2
_symmetry_cell_setting 'triclinic'
loop_
_space_group_symop_operation_xyz
x,y,z
-x,-y,-z
loop_
_atom_site_type_symbol
_atom_site_label
_atom_site_fract_x
_atom_site_fract_y
_atom_site_fract_z
Si Si1 0.445501 0.837611 0.468896
Si Si2 0.099098 0.078029 0.835372
Si Si3 0.545213 0.734771 0.152309
Si Si4 0.920030 0.755217 0.562424
Si Si5 0.904882 0.529785 0.180453
Si Si6 0.568325 0.518870 0.792883
Si Si7 0.710053 0.646168 0.807152
Si Si8 0.770182 0.252959 0.321724
O O1 0.499593 0.235299 0.370323
O O2 0.360759 0.705819 0.587897
O O3 0.364469 0.097722 0.344464
O O4 0.546121 0.745197 0.324328
O O5 0.058610 0.247920 0.629034
O O6 0.133744 0.215878 0.860157
O O7 0.195033 0.853766 0.812416
O O8 0.000000 0.000000 0.000000
O O9 0.651623 0.626667 0.018044
O O10 0.445805 0.655487 0.217646
O O11 0.500000 0.000000 0.000000
O O12 0.029889 0.648489 0.639392
O O13 0.836483 0.629540 0.735311
O O14 0.845824 0.028670 0.489229
O O15 0.810684 0.450829 0.227922
O O16 0.000000 0.500000 0.000000
O O17 0.689912 0.488476 0.781589
O O18 0.500000 0.500000 0.000000
#
# Coordination Sequence:
#
# PCOD9089626 Si02
#       8
#     2   2   2   2   2   2   2   2
#     4  10  19  38  60  83 118 154 188 245 290 343
#     4  10  21  41  60  86 123 154 200 248 295 345
#     4   9  19  35  58  81 118 149 190 241 290 335
#     4   9  21  39  60  88 123 153 196 247 294 352
#     4  12  21  37  66  88 119 162 194 242 303 352
#     4  10  20  34  59  84 115 155 196 233 289 349
#     4   9  19  38  60  85 115 153 190 242 290 346
#     4   9  22  38  63  86 123 151 202 241 296 351
#
# _framework density 23.864225999999999
#
# number of rings (size 3 to 8) (size 9 to 14) (size 15 to 20)
#    0.750    1.500    1.250    1.500    0.000    3.000 
#    0.000    1.250   19.250    0.000    0.000    0.000 
#    0.000    0.000    0.000    0.000    0.000    0.000 
#
# Total GULP energy -89313.033052 kJ/mol
# GULP energy per Si atom -5582.064566 kJ/mol
# Density = 2.380991 g / cm^3
# Si number density = 23.864226 Si / 1000 Ang^3
#
#
#
# Elastic Constant Matrix: (Units=GPa)
#
#
# Indices 1 2 3 4 5 6 
#
# 1 127.9872 35.1533 32.7966 -2.5159 -12.1451 25.8690
# 2 35.1533 97.0835 18.0099 -2.9825 -7.1506 13.2399
# 3 32.7966 18.0099 130.2892 16.4128 -2.5885 14.7415
# 4 -2.5159 -2.9825 16.4128 34.3588 9.4463 -6.2578
# 5 -12.1451 -7.1506 -2.5885 9.4463 45.2475 -7.2958
# 6 25.8690 13.2399 14.7415 -6.2578 -7.2958 35.3871
#
#
#
# Elastic Compliance Matrix: (Units=1/GPa)
#
#
# Indices 1 2 3 4 5 6 
#
# 1 0.010157 -0.002536 -0.001530 -0.000138 0.001367 -0.005581
# 2 -0.002536 0.011706 -0.000838 0.000698 0.000667 -0.001916
# 3 -0.001530 -0.000838 0.009227 -0.005341 0.000578 -0.003237
# 4 -0.000138 0.000698 -0.005341 0.034712 -0.006368 0.006890
# 5 0.001367 0.000667 0.000578 -0.006368 0.024322 0.002399
# 6 -0.005581 -0.001916 -0.003237 0.006890 0.002399 0.036117
#
#
# Mechanical properties :
#
#
# Convention : Reuss Voigt Hill
#
# Bulk Modulus (GPa) = 46.98922 58.58664 52.78793
# Shear Modulus (GPa) = 34.93000 40.95868 37.94434
#
# Velocity S-wave (km/s) = 3.82998 4.14735 3.99182
# Velocity P-wave (km/s) = 6.26828 6.89473 6.58895
#
# Compressibility (1/GPa) = 0.02128148
#
# Stress axis : x y z
#
# Youngs Moduli (GPa) = 98.45304 85.42612 108.38127
#
# Poissons Ratio (x) = 0.21667 0.16584
# Poissons Ratio (y) = 0.24971 0.09079
# Poissons Ratio (z) = 0.15065 0.07156
#
# Static dielectric constant tensor:
#      x y z
#    x 1.865800 0.000910 0.043860 
#    y 0.000910 1.994840 -0.081050 
#    z 0.043860 -0.081050 1.962270 
# 
# From -- ./inp_files/460346.got.cif
#   From: 2010.05.17/outbox.cif.g08.bks.cpg/sg2_231_cif.got.tgz:460346.got - 2010.06.03 11:33:40.
