data_PCOD9089903
_publ_section_title
;
Structure prediction by ZEFSAII (Michael W. Deem and Ramdas Pophale) SiO2 
 PCOD9089903
Probable space group: P -1
;
_chemical_formula_sum "Si O2"
_cell_formula_units_Z 16
_cell_length_a 18.171922
_cell_length_b 7.679082
_cell_length_c 9.464375
_cell_angle_alpha 55.554356
_cell_angle_beta 48.245720
_cell_angle_gamma 52.456362
_cell_volume 752.134939
_symmetry_space_group_name_H-M "P -1"
_symmetry_group_IT_number 2
_symmetry_cell_setting 'triclinic'
loop_
_space_group_symop_operation_xyz
x,y,z
-x,-y,-z
loop_
_atom_site_type_symbol
_atom_site_label
_atom_site_fract_x
_atom_site_fract_y
_atom_site_fract_z
Si Si1 0.548772 0.803299 0.729838
Si Si2 0.491520 0.598331 0.171612
Si Si3 0.920907 0.988757 0.488508
Si Si4 0.773133 0.786279 0.495023
Si Si5 0.719682 0.266961 0.492182
Si Si6 0.396219 0.307664 0.749633
Si Si7 0.195728 0.337166 0.168606
Si Si8 0.995174 0.781412 0.185753
O O1 0.499817 0.651304 0.772238
O O2 0.672213 0.760816 0.559629
O O3 0.476374 0.069726 0.693696
O O4 0.542062 0.714918 0.938958
O O5 0.365203 0.740925 0.279403
O O6 0.539705 0.601526 0.261818
O O7 0.833938 0.224950 0.433075
O O8 0.850961 0.857276 0.701764
O O9 0.979689 0.845193 0.342585
O O10 0.000000 0.000000 0.500000
O O11 0.789174 0.653568 0.685384
O O12 0.890113 0.727313 0.304815
O O13 0.738403 0.053359 0.461505
O O14 0.663653 0.502256 0.375411
O O15 0.304423 0.275266 0.975297
O O16 0.105557 0.570522 0.123426
O O17 0.000000 0.000000 0.000000
#
# Coordination Sequence:
#
# PCOD9089903 Si02
#       8
#     2   2   2   2   2   2   2   2
#     4  11  23  39  64  94 126 170 219 260 312 381
#     4  11  23  39  62  94 130 170 218 255 313 389
#     4  10  22  42  67  92 125 164 217 272 315 386
#     4  10  19  38  62  89 123 169 214 258 311 385
#     4  10  22  39  63  90 128 171 203 264 334 369
#     4  12  22  42  64  92 137 169 208 267 320 380
#     4  10  20  38  66  87 120 175 209 251 323 383
#     4  10  21  40  64  94 125 164 216 264 326 383
#
# _framework density 21.272780000000001
#
# number of rings (size 3 to 8) (size 9 to 14) (size 15 to 20)
#    0.000    1.750    2.500    5.250    0.000    2.500 
#    2.250    3.750    0.000    0.000    0.000    0.000 
#    0.000    0.000    0.000    0.000    0.000    0.000 
#
# Total GULP energy -89409.770892 kJ/mol
# GULP energy per Si atom -5588.110681 kJ/mol
# Density = 2.122436 g / cm^3
# Si number density = 21.272780 Si / 1000 Ang^3
#
#
#
# Elastic Constant Matrix: (Units=GPa)
#
#
# Indices 1 2 3 4 5 6 
#
# 1 82.5196 47.4974 6.9746 -11.5190 -14.2055 -14.7879
# 2 47.4974 93.0657 -3.2300 -19.7174 0.6685 -23.2679
# 3 6.9746 -3.2300 62.9516 -5.8557 -8.0703 -9.3781
# 4 -11.5190 -19.7174 -5.8557 39.9009 -10.4512 3.7001
# 5 -14.2055 0.6685 -8.0703 -10.4512 23.2319 2.7975
# 6 -14.7879 -23.2679 -9.3781 3.7001 2.7975 22.9892
#
#
#
# Elastic Compliance Matrix: (Units=1/GPa)
#
#
# Indices 1 2 3 4 5 6 
#
# 1 0.021236 -0.009524 -0.000185 0.005331 0.015448 0.001207
# 2 -0.009524 0.021225 0.004640 0.005740 -0.004269 0.016845
# 3 -0.000185 0.004640 0.019305 0.006191 0.007982 0.010485
# 4 0.005331 0.005740 0.006191 0.035460 0.020772 0.003529
# 5 0.015448 -0.004269 0.007982 0.020772 0.065017 -0.002383
# 6 0.001207 0.016845 0.010485 0.003529 -0.002383 0.065323
#
#
# Mechanical properties :
#
#
# Convention : Reuss Voigt Hill
#
# Bulk Modulus (GPa) = 19.36956 37.89121 28.63038
# Shear Modulus (GPa) = 19.61452 29.71071 24.66262
#
# Velocity S-wave (km/s) = 3.03982 3.74124 3.40862
# Velocity P-wave (km/s) = 4.63096 6.04262 5.38326
#
# Compressibility (1/GPa) = 0.05162741
#
# Stress axis : x y z
#
# Youngs Moduli (GPa) = 47.09054 47.11415 51.80022
#
# Poissons Ratio (x) = 0.44872 0.00960
# Poissons Ratio (y) = 0.44849 -0.24037
# Poissons Ratio (z) = 0.00873 -0.21862
#
# Static dielectric constant tensor:
#      x y z
#    x 1.794810 -0.008840 -0.003820 
#    y -0.008840 1.792190 0.012320 
#    z -0.003820 0.012320 1.802900 
# 
# From -- ./inp_files/347583.got.cif
#   From: 2010.05.17/outbox.cif.g08.bks.cpg/sg2_174_cif.got.tgz:347583.got - 2010.06.03 11:33:40.
