data_PCOD9089773
_publ_section_title
;
Structure prediction by ZEFSAII (Michael W. Deem and Ramdas Pophale) SiO2 
 PCOD9089773
Probable space group: P -1
;
_chemical_formula_sum "Si O2"
_cell_formula_units_Z 16
_cell_length_a 9.556231
_cell_length_b 21.053285
_cell_length_c 9.521250
_cell_angle_alpha 119.433100
_cell_angle_beta 102.530392
_cell_angle_gamma 128.102937
_cell_volume 854.716553
_symmetry_space_group_name_H-M "P -1"
_symmetry_group_IT_number 2
_symmetry_cell_setting 'triclinic'
loop_
_space_group_symop_operation_xyz
x,y,z
-x,-y,-z
loop_
_atom_site_type_symbol
_atom_site_label
_atom_site_fract_x
_atom_site_fract_y
_atom_site_fract_z
Si Si1 0.219276 0.146272 0.784384
Si Si2 0.803092 0.859207 0.889563
Si Si3 0.248900 0.662882 0.065880
Si Si4 0.273444 0.825704 0.119828
Si Si5 0.769282 0.179474 0.406009
Si Si6 0.864101 0.139085 0.107559
Si Si7 0.739978 0.333766 0.600069
Si Si8 0.135696 0.875433 0.379219
O O1 0.511713 0.258188 0.900840
O O2 0.121620 0.185374 0.766199
O O3 0.204885 0.130034 0.932472
O O4 0.000000 0.000000 0.500000
O O5 0.506660 0.743027 0.630934
O O6 0.920271 0.828643 0.854669
O O7 0.000000 0.000000 0.000000
O O8 0.167917 0.708460 0.045565
O O9 0.344930 0.708515 0.299181
O O10 0.996636 0.498604 0.826355
O O11 0.215332 0.873448 0.247800
O O12 0.603485 0.964643 0.336231
O O13 0.139801 0.787509 0.901927
O O14 0.887201 0.175933 0.311449
O O15 0.819056 0.286538 0.517115
O O16 0.886094 0.200122 0.599521
O O17 0.439615 0.026085 0.162149
#
# Coordination Sequence:
#
# PCOD9089773 Si02
#       8
#     2   2   2   2   2   2   2   2
#     4  12  25  39  65 101 127 164 217 264 316 377
#     4  12  25  40  65  97 134 163 209 271 320 370
#     4  11  25  44  66  91 131 175 215 253 319 388
#     4  10  19  38  61  89 123 167 206 257 314 372
#     4  10  21  38  63  92 126 164 209 258 320 373
#     4  10  22  37  62  96 124 160 208 268 318 368
#     4  11  25  45  64  92 132 176 208 260 321 383
#     4  10  20  35  64  90 123 159 210 266 308 367
#
# _framework density 18.719656000000001
#
# number of rings (size 3 to 8) (size 9 to 14) (size 15 to 20)
#    0.000    1.250    5.000    0.750    5.250    0.500 
#    0.000    2.500    0.000    0.000    0.000    0.000 
#    0.000    0.000    0.000    0.000    0.000    0.000 
#
# Total GULP energy -89296.177553 kJ/mol
# GULP energy per Si atom -5581.011097 kJ/mol
# Density = 1.867705 g / cm^3
# Si number density = 18.719656 Si / 1000 Ang^3
#
#
#
# Elastic Constant Matrix: (Units=GPa)
#
#
# Indices 1 2 3 4 5 6 
#
# 1 93.8533 33.0335 28.9224 2.5140 -2.1726 -0.7121
# 2 33.0335 82.2988 30.0102 -4.3066 -2.0307 1.4659
# 3 28.9224 30.0102 68.5762 -9.4303 0.0127 0.2558
# 4 2.5140 -4.3066 -9.4303 23.0627 -3.2648 -7.0402
# 5 -2.1726 -2.0307 0.0127 -3.2648 18.8519 -2.3050
# 6 -0.7121 1.4659 0.2558 -7.0402 -2.3050 38.0718
#
#
#
# Elastic Compliance Matrix: (Units=1/GPa)
#
#
# Indices 1 2 3 4 5 6 
#
# 1 0.013578 -0.003994 -0.004545 -0.004121 0.000387 -0.000300
# 2 -0.003994 0.015687 -0.004981 0.001444 0.001447 -0.000291
# 3 -0.004545 -0.004981 0.019801 0.008202 0.000533 0.001523
# 4 -0.004121 0.001444 0.008202 0.051886 0.009884 0.010005
# 5 0.000387 0.001447 0.000533 0.009884 0.055586 0.005141
# 6 -0.000300 -0.000291 0.001523 0.010005 0.005141 0.028423
#
#
# Mechanical properties :
#
#
# Convention : Reuss Voigt Hill
#
# Bulk Modulus (GPa) = 45.39846 47.62894 46.51370
# Shear Modulus (GPa) = 22.79552 26.18142 24.48847
#
# Velocity S-wave (km/s) = 3.49339 3.74385 3.62079
# Velocity P-wave (km/s) = 6.36994 6.64734 6.51011
#
# Compressibility (1/GPa) = 0.02202718
#
# Stress axis : x y z
#
# Youngs Moduli (GPa) = 73.64783 63.74857 50.50256
#
# Poissons Ratio (x) = 0.25459 0.22951
# Poissons Ratio (y) = 0.29412 0.25156
# Poissons Ratio (z) = 0.33470 0.31753
#
# Static dielectric constant tensor:
#      x y z
#    x 1.640700 -0.001370 0.000460 
#    y -0.001370 1.658740 -0.011530 
#    z 0.000460 -0.011530 1.622850 
# 
# From -- ./inp_files/223868.got.cif
#   From: 2010.05.17/outbox.cif.g08.bks.cpg/sg2_112_cif.got.tgz:223868.got - 2010.06.03 11:33:40.
