data_PCOD9089237
_publ_section_title
;
Structure prediction by ZEFSAII (Michael W. Deem and Ramdas Pophale) SiO2 
 PCOD9089237
Probable space group: P -1
;
_chemical_formula_sum "Si O2"
_cell_formula_units_Z 16
_cell_length_a 12.421194
_cell_length_b 14.363988
_cell_length_c 9.519335
_cell_angle_alpha 38.127574
_cell_angle_beta 54.024978
_cell_angle_gamma 74.602278
_cell_volume 780.190149
_symmetry_space_group_name_H-M "P -1"
_symmetry_group_IT_number 2
_symmetry_cell_setting 'triclinic'
loop_
_space_group_symop_operation_xyz
x,y,z
-x,-y,-z
loop_
_atom_site_type_symbol
_atom_site_label
_atom_site_fract_x
_atom_site_fract_y
_atom_site_fract_z
Si Si1 0.575886 0.372560 0.566544
Si Si2 0.445506 0.132604 0.197028
Si Si3 0.561093 0.198548 0.344263
Si Si4 0.092702 0.400271 0.997694
Si Si5 0.834093 0.811798 0.577715
Si Si6 0.350595 0.238712 0.665656
Si Si7 0.327227 0.449456 0.214705
Si Si8 0.049159 0.108240 0.191825
O O1 0.500000 0.500000 0.500000
O O2 0.744383 0.472936 0.303573
O O3 0.495126 0.289215 0.585744
O O4 0.541201 0.234766 0.875372
O O5 0.530431 0.173063 0.231450
O O6 0.312582 0.188363 0.242252
O O7 0.391861 0.936809 0.461630
O O8 0.404581 0.169867 0.569284
O O9 0.680188 0.384554 0.035636
O O10 0.100079 0.286410 0.256448
O O11 0.043904 0.280075 0.041702
O O12 0.000000 0.500000 0.000000
O O13 0.781416 0.706340 0.602112
O O14 0.945173 0.001517 0.273776
O O15 0.315069 0.391981 0.453886
O O16 0.211746 0.135739 0.986791
O O17 0.500000 0.500000 0.000000
O O18 0.000000 0.000000 0.500000
#
# Coordination Sequence:
#
# PCOD9089237 Si02
#       8
#     2   2   2   2   2   2   2   2
#     4  12  21  38  73 100 128 176 230 272 342 402
#     4  11  22  40  63 100 136 174 219 287 339 398
#     4  10  23  38  64  99 137 165 225 293 330 391
#     4  11  24  41  66 101 138 177 222 282 338 407
#     4  11  21  40  65  90 134 185 215 273 350 398
#     4  11  21  40  69 100 126 178 233 279 328 406
#     4  10  19  37  66  95 124 170 230 281 327 401
#     4  10  23  39  61  93 138 174 219 275 339 398
#
# _framework density 20.507819000000001
#
# number of rings (size 3 to 8) (size 9 to 14) (size 15 to 20)
#    0.000    1.250    5.000    3.000    0.000    5.000 
#    0.000    0.000    0.000    1.500    0.000    0.000 
#    0.000    0.000    0.000    0.000    0.000    0.000 
#
# Total GULP energy -89146.072812 kJ/mol
# GULP energy per Si atom -5571.629551 kJ/mol
# Density = 2.046114 g / cm^3
# Si number density = 20.507819 Si / 1000 Ang^3
#
#
#
# Elastic Constant Matrix: (Units=GPa)
#
#
# Indices 1 2 3 4 5 6 
#
# 1 68.9733 46.1913 39.0569 -15.6329 -2.4621 4.8679
# 2 46.1913 84.0284 46.3492 -17.3355 -0.9194 4.9187
# 3 39.0569 46.3492 117.9939 -3.6828 0.2101 6.1923
# 4 -15.6329 -17.3355 -3.6828 26.8233 5.2531 -4.1825
# 5 -2.4621 -0.9194 0.2101 5.2531 39.1460 -6.7887
# 6 4.8679 4.9187 6.1923 -4.1825 -6.7887 40.6898
#
#
#
# Elastic Compliance Matrix: (Units=1/GPa)
#
#
# Indices 1 2 3 4 5 6 
#
# 1 0.025349 -0.010027 -0.004197 0.007603 0.000300 -0.000350
# 2 -0.010027 0.021746 -0.004976 0.007740 -0.001144 -0.000067
# 3 -0.004197 -0.004976 0.011747 -0.004210 -0.000075 -0.001129
# 4 0.007603 0.007740 -0.004210 0.047598 -0.005216 0.002818
# 5 0.000300 -0.001144 -0.000075 -0.005216 0.026944 0.004073
# 6 -0.000350 -0.000067 -0.001129 0.002818 0.004073 0.025767
#
#
# Mechanical properties :
#
#
# Convention : Reuss Voigt Hill
#
# Bulk Modulus (GPa) = 48.91926 59.35449 54.13687
# Shear Modulus (GPa) = 24.46627 30.62503 27.54565
#
# Velocity S-wave (km/s) = 3.45776 3.86856 3.66892
# Velocity P-wave (km/s) = 6.31247 6.99711 6.66359
#
# Compressibility (1/GPa) = 0.02044185
#
# Stress axis : x y z
#
# Youngs Moduli (GPa) = 39.44965 45.98629 85.13078
#
# Poissons Ratio (x) = 0.46112 0.35727
# Poissons Ratio (y) = 0.39557 0.42358
# Poissons Ratio (z) = 0.16556 0.22881
#
# Static dielectric constant tensor:
#      x y z
#    x 1.743230 0.040570 0.018540 
#    y 0.040570 1.859030 -0.046150 
#    z 0.018540 -0.046150 1.764990 
# 
# From -- ./inp_files/269425.got.cif
#   From: 2010.05.17/outbox.cif.g08.bks.cpg/sg2_135_cif.got.tgz:269425.got - 2010.06.03 11:33:40.
