data_PCOD9089959
_publ_section_title
;
Structure prediction by ZEFSAII (Michael W. Deem and Ramdas Pophale) SiO2 
 PCOD9089959
Probable space group: P -1
;
_chemical_formula_sum "Si O2"
_cell_formula_units_Z 16
_cell_length_a 8.941333
_cell_length_b 14.477994
_cell_length_c 12.243938
_cell_angle_alpha 75.424332
_cell_angle_beta 38.998523
_cell_angle_gamma 54.002898
_cell_volume 738.595467
_symmetry_space_group_name_H-M "P -1"
_symmetry_group_IT_number 2
_symmetry_cell_setting 'triclinic'
loop_
_space_group_symop_operation_xyz
x,y,z
-x,-y,-z
loop_
_atom_site_type_symbol
_atom_site_label
_atom_site_fract_x
_atom_site_fract_y
_atom_site_fract_z
Si Si1 0.177678 0.424743 0.032382
Si Si2 0.872081 0.741820 0.740002
Si Si3 0.212835 0.993177 0.969727
Si Si4 0.126168 0.680442 0.387897
Si Si5 0.850792 0.941934 0.788510
Si Si6 0.870736 0.411454 0.811406
Si Si7 0.782047 0.862220 0.249927
Si Si8 0.898642 0.935479 0.374096
O O1 0.146326 0.324568 0.125956
O O2 0.053732 0.516262 0.180625
O O3 0.533635 0.364809 0.821887
O O4 0.000000 0.500000 0.000000
O O5 0.993201 0.816278 0.682686
O O6 0.072221 0.655306 0.547933
O O7 0.517799 0.853545 0.867869
O O8 0.298431 0.069860 0.839434
O O9 0.014166 0.074029 0.163427
O O10 0.000000 0.000000 0.000000
O O11 0.042612 0.627839 0.353710
O O12 0.909861 0.830803 0.459274
O O13 0.882551 0.042273 0.698806
O O14 0.500000 0.000000 0.000000
O O15 0.020305 0.283358 0.826781
O O16 0.500000 0.500000 0.000000
O O17 0.960306 0.884364 0.229764
O O18 0.444830 0.932444 0.471117
#
# Coordination Sequence:
#
# PCOD9089959 Si02
#       8
#     2   2   2   2   2   2   2   2
#     4  11  26  46  66  90 130 182 226 271 322 392
#     4  11  25  43  64  99 135 174 224 270 337 396
#     4  11  21  37  64  99 134 169 209 279 335 395
#     4  10  21  44  69  93 130 169 218 284 331 386
#     4  10  22  37  56  94 138 174 208 256 336 405
#     4   9  22  41  66  93 126 177 224 267 324 386
#     4  10  20  35  67  98 126 163 217 269 332 390
#     4  10  19  38  62  99 134 160 209 275 334 396
#
# _framework density 21.662738000000001
#
# number of rings (size 3 to 8) (size 9 to 14) (size 15 to 20)
#    0.000    1.750    2.500    1.500    5.250    2.500 
#    0.000    0.000    0.000    0.000    0.000    0.000 
#    0.000    0.000    0.000    0.000    0.000    0.000 
#
# Total GULP energy -89089.605624 kJ/mol
# GULP energy per Si atom -5568.100352 kJ/mol
# Density = 2.161343 g / cm^3
# Si number density = 21.662738 Si / 1000 Ang^3
#
#
#
# Elastic Constant Matrix: (Units=GPa)
#
#
# Indices 1 2 3 4 5 6 
#
# 1 86.7385 19.2302 14.9474 -0.2656 13.3836 14.8289
# 2 19.2302 86.1182 20.1615 9.0194 2.0027 -3.9915
# 3 14.9474 20.1615 77.6940 -4.5977 17.7067 -0.4517
# 4 -0.2656 9.0194 -4.5977 31.6049 -5.2504 7.5672
# 5 13.3836 2.0027 17.7067 -5.2504 36.4318 -0.6584
# 6 14.8289 -3.9915 -0.4517 7.5672 -0.6584 41.6411
#
#
#
# Elastic Compliance Matrix: (Units=1/GPa)
#
#
# Indices 1 2 3 4 5 6 
#
# 1 0.014058 -0.003281 -0.000771 0.001557 -0.004487 -0.005683
# 2 -0.003281 0.013836 -0.003585 -0.005059 0.001519 0.003399
# 3 -0.000771 -0.003585 0.015630 0.002261 -0.006798 -0.000418
# 4 0.001557 -0.005059 0.002261 0.035818 0.003634 -0.007467
# 5 -0.004487 0.001519 -0.006798 0.003634 0.032869 0.001529
# 6 -0.005683 0.003399 -0.000418 -0.007467 0.001529 0.027741
#
#
# Mechanical properties :
#
#
# Convention : Reuss Voigt Hill
#
# Bulk Modulus (GPa) = 35.39860 39.91430 37.65645
# Shear Modulus (GPa) = 30.36880 35.01634 32.69257
#
# Velocity S-wave (km/s) = 3.74825 4.02485 3.88901
# Velocity P-wave (km/s) = 5.92526 6.32966 6.13079
#
# Compressibility (1/GPa) = 0.02824970
#
# Stress axis : x y z
#
# Youngs Moduli (GPa) = 71.13438 72.27578 63.97783
#
# Poissons Ratio (x) = 0.23711 0.04936
# Poissons Ratio (y) = 0.23337 0.22937
# Poissons Ratio (z) = 0.05488 0.25912
#
# Static dielectric constant tensor:
#      x y z
#    x 1.879900 0.066790 -0.009780 
#    y 0.066790 1.956110 -0.135630 
#    z -0.009780 -0.135630 1.944030 
# 
# From -- ./inp_files/399028.got.cif
#   From: 2010.05.17/outbox.cif.g08.bks.cpg/sg2_200_cif.got.tgz:399028.got - 2010.06.03 11:33:40.
