data_PCOD9089394
_publ_section_title
;
Structure prediction by ZEFSAII (Michael W. Deem and Ramdas Pophale) SiO2 
 PCOD9089394
Probable space group: P -1
;
_chemical_formula_sum "Si O2"
_cell_formula_units_Z 14
_cell_length_a 9.903493
_cell_length_b 8.056389
_cell_length_c 12.367799
_cell_angle_alpha 61.173743
_cell_angle_beta 126.521434
_cell_angle_gamma 114.443423
_cell_volume 683.376659
_symmetry_space_group_name_H-M "P -1"
_symmetry_group_IT_number 2
_symmetry_cell_setting 'triclinic'
loop_
_space_group_symop_operation_xyz
x,y,z
-x,-y,-z
loop_
_atom_site_type_symbol
_atom_site_label
_atom_site_fract_x
_atom_site_fract_y
_atom_site_fract_z
Si Si1 0.395043 0.125436 0.838296
Si Si2 0.467094 0.926618 0.717709
Si Si3 0.700092 0.506402 0.565133
Si Si4 0.730682 0.846952 0.603677
Si Si5 0.942219 0.980946 0.159429
Si Si6 0.165562 0.828111 0.146108
Si Si7 0.456882 0.569875 0.701784
O O1 0.479461 0.350657 0.799724
O O2 0.385798 0.018613 0.752062
O O3 0.214129 0.118068 0.811948
O O4 0.500000 0.000000 0.000000
O O5 0.426304 0.697327 0.750889
O O6 0.392762 0.020193 0.548134
O O7 0.670333 0.003439 0.804421
O O8 0.500000 0.500000 0.500000
O O9 0.785930 0.720087 0.571732
O O10 0.771919 0.360649 0.722773
O O11 0.694238 0.449160 0.454715
O O12 0.621065 0.700159 0.682358
O O13 0.894784 0.956703 0.707533
O O14 0.883652 0.153680 0.008027
O O15 0.004371 0.852824 0.134832
#
# Coordination Sequence:
#
# PCOD9089394 Si02
#       7
#     2   2   2   2   2   2   2
#     4  12  27  47  64  97 148 181 217 281 352 408
#     4  12  21  44  78  94 133 185 230 271 337 416
#     4  10  19  37  70 103 129 171 232 277 328 397
#     4  11  21  41  73 105 126 175 239 279 325 400
#     4  11  26  42  66 101 145 170 222 296 338 386
#     4  11  21  44  68 101 135 181 226 283 333 402
#     4  11  22  41  73  99 125 182 232 270 331 412
#
# _framework density 20.486505999999999
#
# number of rings (size 3 to 8) (size 9 to 14) (size 15 to 20)
#    0.000    0.857    7.143    2.143    0.000    1.714 
#    2.571    1.429    0.000    0.000    0.000    0.000 
#    0.000    0.000    0.000    0.000    0.000    0.000 
#
# Total GULP energy -78128.638343 kJ/mol
# GULP energy per Si atom -5580.617025 kJ/mol
# Density = 2.043988 g / cm^3
# Si number density = 20.486506 Si / 1000 Ang^3
#
#
#
# Elastic Constant Matrix: (Units=GPa)
#
#
# Indices 1 2 3 4 5 6 
#
# 1 100.1897 16.8321 17.7517 0.3873 -7.0085 -1.2098
# 2 16.8321 70.7662 17.2723 -4.1912 -14.9308 -21.8016
# 3 17.7517 17.2723 113.3038 -10.7309 4.8215 2.1190
# 4 0.3873 -4.1912 -10.7309 34.0066 -4.0102 4.0899
# 5 -7.0085 -14.9308 4.8215 -4.0102 21.1895 3.8824
# 6 -1.2098 -21.8016 2.1190 4.0899 3.8824 31.9273
#
#
#
# Elastic Compliance Matrix: (Units=1/GPa)
#
#
# Indices 1 2 3 4 5 6 
#
# 1 0.010757 -0.002012 -0.001507 -0.000401 0.002615 -0.001133
# 2 -0.002012 0.022919 -0.003887 0.001614 0.014126 0.013907
# 3 -0.001507 -0.003887 0.010150 0.002595 -0.004474 -0.003173
# 4 -0.000401 0.001614 0.002595 0.031757 0.007162 -0.004024
# 5 0.002615 0.014126 -0.004474 0.007162 0.060051 0.001822
# 6 -0.001133 0.013907 -0.003173 -0.004024 0.001822 0.041279
#
#
# Mechanical properties :
#
#
# Convention : Reuss Voigt Hill
#
# Bulk Modulus (GPa) = 34.46553 43.10800 38.78677
# Shear Modulus (GPa) = 24.82678 32.91824 28.87251
#
# Velocity S-wave (km/s) = 3.48496 4.01287 3.75819
# Velocity P-wave (km/s) = 5.74920 6.52370 6.14866
#
# Compressibility (1/GPa) = 0.02901450
#
# Stress axis : x y z
#
# Youngs Moduli (GPa) = 92.96437 43.63237 98.52290
#
# Poissons Ratio (x) = 0.08778 0.14844
# Poissons Ratio (y) = 0.18704 0.38295
# Poissons Ratio (z) = 0.14007 0.16959
#
# Static dielectric constant tensor:
#      x y z
#    x 1.775280 -0.053930 -0.032330 
#    y -0.053930 1.779180 0.023310 
#    z -0.032330 0.023310 1.779140 
# 
# From -- ./inp_files/203002.got.cif
#   From: 2010.05.17/outbox.cif.g08.bks.cpg/sg2_102_cif.got.tgz:203002.got - 2010.06.03 11:33:40.
