data_PCOD9089878
_publ_section_title
;
Structure prediction by ZEFSAII (Michael W. Deem and Ramdas Pophale) SiO2 
 PCOD9089878
Probable space group: P -1
;
_chemical_formula_sum "Si O2"
_cell_formula_units_Z 14
_cell_length_a 15.797785
_cell_length_b 12.971227
_cell_length_c 7.208905
_cell_angle_alpha 117.156592
_cell_angle_beta 53.171222
_cell_angle_gamma 152.782633
_cell_volume 528.817653
_symmetry_space_group_name_H-M "P -1"
_symmetry_group_IT_number 2
_symmetry_cell_setting 'triclinic'
loop_
_space_group_symop_operation_xyz
x,y,z
-x,-y,-z
loop_
_atom_site_type_symbol
_atom_site_label
_atom_site_fract_x
_atom_site_fract_y
_atom_site_fract_z
Si Si1 0.121324 0.369388 0.976318
Si Si2 0.511480 0.378661 0.811770
Si Si3 0.197478 0.237538 0.547782
Si Si4 0.953876 0.309760 0.764758
Si Si5 0.418564 0.210622 0.208499
Si Si6 0.328783 0.802539 0.750516
Si Si7 0.719014 0.051969 0.376826
O O1 0.129935 0.238020 0.826357
O O2 0.363630 0.630813 0.869600
O O3 0.007352 0.301284 0.884055
O O4 0.971048 0.283098 0.258763
O O5 0.700142 0.573496 0.576246
O O6 0.346773 0.144647 0.719878
O O7 0.500000 0.500000 0.000000
O O8 0.488899 0.291647 0.966865
O O9 0.354966 0.280215 0.410383
O O10 0.000000 0.000000 0.500000
O O11 0.186438 0.578085 0.629216
O O12 0.787972 0.060729 0.696996
O O13 0.814964 0.293693 0.967772
O O14 0.553338 0.965501 0.646907
O O15 0.340438 0.929225 0.714965
#
# Coordination Sequence:
#
# PCOD9089878 Si02
#       7
#     2   2   2   2   2   2   2
#     4  11  21  38  63  93 130 161 206 258 308 375
#     4  10  20  38  63  87 121 165 202 254 312 370
#     4  11  21  39  64  91 125 167 206 251 317 374
#     4  10  19  40  63  88 125 163 212 256 315 358
#     4  11  22  39  63  94 127 161 210 259 310 372
#     4   9  19  35  67  87 117 177 205 254 309 367
#     4  10  19  38  62  87 125 165 213 247 314 373
#
# _framework density 26.474156000000001
#
# number of rings (size 3 to 8) (size 9 to 14) (size 15 to 20)
#    0.000    1.714    4.286    2.143    0.000    0.000 
#    0.000   16.429    0.000    0.000    0.000    0.000 
#    0.000    0.000    0.000    0.000    0.000    0.000 
#
# Total GULP energy -77972.082340 kJ/mol
# GULP energy per Si atom -5569.434453 kJ/mol
# Density = 2.641390 g / cm^3
# Si number density = 26.474156 Si / 1000 Ang^3
#
#
#
# Elastic Constant Matrix: (Units=GPa)
#
#
# Indices 1 2 3 4 5 6 
#
# 1 79.1949 36.6960 39.0612 -13.8742 -21.8357 2.7230
# 2 36.6960 153.1523 21.2780 -6.9808 -16.3856 -17.2884
# 3 39.0612 21.2780 118.7821 -24.3272 -45.7797 -1.1790
# 4 -13.8742 -6.9808 -24.3272 44.5635 -0.0541 -5.5235
# 5 -21.8357 -16.3856 -45.7797 -0.0541 48.5542 -8.5619
# 6 2.7230 -17.2884 -1.1790 -5.5235 -8.5619 38.1696
#
#
#
# Elastic Compliance Matrix: (Units=1/GPa)
#
#
# Indices 1 2 3 4 5 6 
#
# 1 0.017261 -0.003402 -0.003244 0.002860 0.003254 -0.001729
# 2 -0.003402 0.008147 0.001307 0.001547 0.003325 0.004943
# 3 -0.003244 0.001307 0.017883 0.009797 0.017020 0.006611
# 4 0.002860 0.001547 0.009797 0.029919 0.012477 0.007928
# 5 0.003254 0.003325 0.017020 0.012477 0.041521 0.012919
# 6 -0.001729 0.004943 0.006611 0.007928 0.012919 0.032810
#
#
# Mechanical properties :
#
#
# Convention : Reuss Voigt Hill
#
# Bulk Modulus (GPa) = 30.66242 60.57776 45.62009
# Shear Modulus (GPa) = 29.56986 43.19709 36.38348
#
# Velocity S-wave (km/s) = 3.34568 4.04378 3.71118
# Velocity P-wave (km/s) = 5.15092 6.68837 5.96935
#
# Compressibility (1/GPa) = 0.03261321
#
# Stress axis : x y z
#
# Youngs Moduli (GPa) = 57.93356 122.74147 55.91753
#
# Poissons Ratio (x) = 0.41753 0.18140
# Poissons Ratio (y) = 0.19707 -0.07306
# Poissons Ratio (z) = 0.18794 -0.16037
#
# Static dielectric constant tensor:
#      x y z
#    x 2.088630 -0.013170 0.066390 
#    y -0.013170 2.153280 -0.007030 
#    z 0.066390 -0.007030 2.315800 
# 
# From -- ./inp_files/308272.got.cif
#   From: 2010.05.17/outbox.cif.g08.bks.cpg/sg2_155_cif.got.tgz:308272.got - 2010.06.03 11:33:40.
