data_PCOD9089477
_publ_section_title
;
Structure prediction by ZEFSAII (Michael W. Deem and Ramdas Pophale) SiO2 
 PCOD9089477
Probable space group: P -1
;
_chemical_formula_sum "Si O2"
_cell_formula_units_Z 16
_cell_length_a 14.314905
_cell_length_b 7.549161
_cell_length_c 7.911863
_cell_angle_alpha 125.336463
_cell_angle_beta 53.425405
_cell_angle_gamma 105.143963
_cell_volume 555.579273
_symmetry_space_group_name_H-M "P -1"
_symmetry_group_IT_number 2
_symmetry_cell_setting 'triclinic'
loop_
_space_group_symop_operation_xyz
x,y,z
-x,-y,-z
loop_
_atom_site_type_symbol
_atom_site_label
_atom_site_fract_x
_atom_site_fract_y
_atom_site_fract_z
Si Si1 0.856665 0.945916 0.960082
Si Si2 0.241454 0.196175 0.672998
Si Si3 0.821188 0.502023 0.566761
Si Si4 0.621973 0.017461 0.186555
Si Si5 0.522205 0.618439 0.223031
Si Si6 0.951640 0.457207 0.848191
Si Si7 0.898350 0.100698 0.475134
Si Si8 0.405307 0.258365 0.257395
O O1 0.848405 0.707681 0.760387
O O2 0.987389 0.987045 0.808529
O O3 0.803405 0.950234 0.208628
O O4 0.751026 0.086518 0.053883
O O5 0.367247 0.200802 0.456966
O O6 0.174735 0.099182 0.532417
O O7 0.181238 0.428791 0.927566
O O8 0.812325 0.301053 0.591431
O O9 0.709459 0.577821 0.608096
O O10 0.949101 0.437928 0.308048
O O11 0.618164 0.780615 0.160529
O O12 0.565009 0.198691 0.480162
O O13 0.579455 0.938804 0.005614
O O14 0.513902 0.401612 0.224447
O O15 0.500000 0.500000 0.000000
O O16 0.946208 0.218914 0.649329
O O17 0.000000 0.500000 0.000000
#
# Coordination Sequence:
#
# PCOD9089477 Si02
#       8
#     2   2   2   2   2   2   2   2
#     4  10  20  38  59  84 120 162 204 243 285 349
#     4  12  23  36  54  89 125 161 200 240 294 344
#     4  10  19  38  57  82 118 167 208 235 279 348
#     4   9  20  39  64  91 110 147 203 246 292 362
#     4   9  19  40  67  87 112 145 195 248 303 359
#     4  11  21  38  55  79 122 166 204 249 286 325
#     4  11  23  37  57  83 126 167 207 238 275 349
#     4  10  22  36  58  91 122 152 195 247 298 343
#
# _framework density 28.798772
#
# number of rings (size 3 to 8) (size 9 to 14) (size 15 to 20)
#    0.000    1.750    3.750    1.125    1.750    1.500 
#    0.000    0.625    0.000    6.750    0.000    0.000 
#    0.000    0.000    0.000    0.000    0.000    0.000 
#
# Total GULP energy -89273.586698 kJ/mol
# GULP energy per Si atom -5579.599169 kJ/mol
# Density = 2.873322 g / cm^3
# Si number density = 28.798772 Si / 1000 Ang^3
#
#
#
# Elastic Constant Matrix: (Units=GPa)
#
#
# Indices 1 2 3 4 5 6 
#
# 1 89.4164 11.4518 30.9014 1.7854 2.3188 6.6955
# 2 11.4518 118.6240 42.6117 14.6964 7.1432 20.7217
# 3 30.9014 42.6117 186.7651 5.4933 0.4667 3.9649
# 4 1.7854 14.6964 5.4933 62.3599 3.7099 6.7895
# 5 2.3188 7.1432 0.4667 3.7099 40.6523 -3.4380
# 6 6.6955 20.7217 3.9649 6.7895 -3.4380 39.6209
#
#
#
# Elastic Compliance Matrix: (Units=1/GPa)
#
#
# Indices 1 2 3 4 5 6 
#
# 1 0.012022 -0.000105 -0.001926 0.000102 -0.000813 -0.001872
# 2 -0.000105 0.010453 -0.002207 -0.001582 -0.002096 -0.005139
# 3 -0.001926 -0.002207 0.006158 -0.000099 0.000514 0.000925
# 4 0.000102 -0.001582 -0.000099 0.016737 -0.001438 -0.002173
# 5 -0.000813 -0.002096 0.000514 -0.001438 0.025446 0.003636
# 6 -0.001872 -0.005139 0.000925 -0.002173 0.003636 0.028838
#
#
# Mechanical properties :
#
#
# Convention : Reuss Voigt Hill
#
# Bulk Modulus (GPa) = 49.61151 62.74837 56.17994
# Shear Modulus (GPa) = 43.53509 49.18267 46.35888
#
# Velocity S-wave (km/s) = 3.89228 4.13704 4.01652
# Velocity P-wave (km/s) = 6.12079 6.68252 6.40781
#
# Compressibility (1/GPa) = 0.02015661
#
# Stress axis : x y z
#
# Youngs Moduli (GPa) = 83.18061 95.66962 162.37823
#
# Poissons Ratio (x) = 0.01008 0.31279
# Poissons Ratio (y) = 0.00877 0.35829
# Poissons Ratio (z) = 0.16023 0.21110
#
# Static dielectric constant tensor:
#      x y z
#    x 2.602300 -0.221950 0.082050 
#    y -0.221950 2.249110 -0.071480 
#    z 0.082050 -0.071480 2.216240 
# 
# From -- ./inp_files/313413.got.cif
#   From: 2010.05.17/outbox.cif.g08.bks.cpg/sg2_157_cif.got.tgz:313413.got - 2010.06.03 11:33:40.
