data_PCOD9089523
_publ_section_title
;
Structure prediction by ZEFSAII (Michael W. Deem and Ramdas Pophale) SiO2 
 PCOD9089523
Probable space group: P -1
;
_chemical_formula_sum "Si O2"
_cell_formula_units_Z 16
_cell_length_a 11.894461
_cell_length_b 16.145238
_cell_length_c 16.093886
_cell_angle_alpha 26.438934
_cell_angle_beta 146.366374
_cell_angle_gamma 135.153288
_cell_volume 753.788084
_symmetry_space_group_name_H-M "P -1"
_symmetry_group_IT_number 2
_symmetry_cell_setting 'triclinic'
loop_
_space_group_symop_operation_xyz
x,y,z
-x,-y,-z
loop_
_atom_site_type_symbol
_atom_site_label
_atom_site_fract_x
_atom_site_fract_y
_atom_site_fract_z
Si Si1 0.722086 0.684587 0.195814
Si Si2 0.041013 0.404220 0.747734
Si Si3 0.162819 0.926909 0.095036
Si Si4 0.408436 0.220441 0.523355
Si Si5 0.802285 0.386378 0.910837
Si Si6 0.460048 0.214746 0.753570
Si Si7 0.006404 0.601483 0.710974
Si Si8 0.750636 0.170549 0.224995
O O1 0.849622 0.527102 0.472337
O O2 0.794491 0.648815 0.176800
O O3 0.478198 0.709934 0.027799
O O4 0.785531 0.883896 0.084853
O O5 0.950181 0.221905 0.889451
O O6 0.111403 0.514646 0.769945
O O7 0.379970 0.822769 0.358765
O O8 0.000000 0.000000 0.000000
O O9 0.270520 0.422408 0.253008
O O10 0.492369 0.216819 0.672937
O O11 0.288029 0.043648 0.598673
O O12 0.611534 0.332729 0.788400
O O13 0.968464 0.441919 0.898304
O O14 0.853621 0.217817 0.159012
O O15 0.223277 0.302677 0.540851
O O16 0.500000 0.000000 0.000000
O O17 0.123894 0.751772 0.693805
#
# Coordination Sequence:
#
# PCOD9089523 Si02
#       8
#     2   2   2   2   2   2   2   2
#     4   9  20  35  63  83 109 152 182 236 285 328
#     4  10  19  38  58  86 113 141 196 235 273 333
#     4   9  17  31  55  85 107 136 184 231 279 323
#     4  10  20  35  59  80 114 150 183 237 277 333
#     4  11  22  40  59  81 112 153 192 230 285 332
#     4  11  21  37  59  82 106 145 190 239 277 324
#     4  11  24  37  57  85 118 151 188 236 279 341
#     4  11  22  39  55  85 119 152 190 223 288 343
#
# _framework density 21.226125
#
# number of rings (size 3 to 8) (size 9 to 14) (size 15 to 20)
#    0.000    1.750    1.250    4.875    1.750    2.500 
#    2.250    0.000    0.000    0.000    0.000   13.125 
#    0.000    0.000    0.000    0.000    0.000    0.000 
#
# Total GULP energy -89387.204601 kJ/mol
# GULP energy per Si atom -5586.700288 kJ/mol
# Density = 2.117781 g / cm^3
# Si number density = 21.226125 Si / 1000 Ang^3
#
#
#
# Elastic Constant Matrix: (Units=GPa)
#
#
# Indices 1 2 3 4 5 6 
#
# 1 84.1849 30.0685 19.8425 0.9677 6.6954 -4.2752
# 2 30.0685 166.5522 12.6025 -7.4832 -17.0966 -7.1036
# 3 19.8425 12.6025 19.8865 -1.7269 1.5755 3.0009
# 4 0.9677 -7.4832 -1.7269 32.0308 5.4530 -3.3156
# 5 6.6954 -17.0966 1.5755 5.4530 25.2114 -3.4108
# 6 -4.2752 -7.1036 3.0009 -3.3156 -3.4108 27.6032
#
#
#
# Elastic Compliance Matrix: (Units=1/GPa)
#
#
# Indices 1 2 3 4 5 6 
#
# 1 0.016869 -0.002222 -0.015610 -0.000797 -0.004420 0.003096
# 2 -0.002222 0.007432 -0.003313 0.000888 0.006021 0.002779
# 3 -0.015610 -0.003313 0.070280 0.003132 -0.004673 -0.011112
# 4 -0.000797 0.000888 0.003132 0.032968 -0.006111 0.002969
# 5 -0.004420 0.006021 -0.004673 -0.006111 0.047414 0.006498
# 6 0.003096 0.002779 -0.011112 0.002969 0.006498 0.039790
#
#
# Mechanical properties :
#
#
# Convention : Reuss Voigt Hill
#
# Bulk Modulus (GPa) = 19.12341 43.96115 31.54228
# Shear Modulus (GPa) = 18.21665 30.84310 24.52988
#
# Velocity S-wave (km/s) = 2.93271 3.81605 3.40317
# Velocity P-wave (km/s) = 4.52733 6.33815 5.50767
#
# Compressibility (1/GPa) = 0.05229193
#
# Stress axis : x y z
#
# Youngs Moduli (GPa) = 59.27860 134.54625 14.22887
#
# Poissons Ratio (x) = 0.29894 0.22212
# Poissons Ratio (y) = 0.13171 0.04713
# Poissons Ratio (z) = 0.92537 0.44569
#
# Static dielectric constant tensor:
#      x y z
#    x 1.824710 0.008770 0.021620 
#    y 0.008770 1.757900 -0.026770 
#    z 0.021620 -0.026770 1.799150 
# 
# From -- ./inp_files/189213.got.cif
#   From: 2010.05.17/outbox.cif.g08.bks.cpg/sg2_95_cif.got.tgz:189213.got - 2010.06.03 11:33:40.
