data_PCOD9089946
_publ_section_title
;
Structure prediction by ZEFSAII (Michael W. Deem and Ramdas Pophale) SiO2 
 PCOD9089946
Probable space group: P -1
;
_chemical_formula_sum "Si O2"
_cell_formula_units_Z 16
_cell_length_a 19.777224
_cell_length_b 4.792722
_cell_length_c 9.560672
_cell_angle_alpha 61.574458
_cell_angle_beta 62.844556
_cell_angle_gamma 79.068883
_cell_volume 708.676626
_symmetry_space_group_name_H-M "P -1"
_symmetry_group_IT_number 2
_symmetry_cell_setting 'triclinic'
loop_
_space_group_symop_operation_xyz
x,y,z
-x,-y,-z
loop_
_atom_site_type_symbol
_atom_site_label
_atom_site_fract_x
_atom_site_fract_y
_atom_site_fract_z
Si Si1 0.926493 0.547540 0.379986
Si Si2 0.852484 0.175020 0.789056
Si Si3 0.256093 0.329516 0.121659
Si Si4 0.989970 0.790243 0.833175
Si Si5 0.413752 0.918772 0.564433
Si Si6 0.669229 0.717264 0.224078
Si Si7 0.696077 0.729036 0.600656
Si Si8 0.778286 0.367387 0.391418
O O1 0.899022 0.428418 0.586500
O O2 0.860006 0.459922 0.352272
O O3 0.995941 0.349181 0.301560
O O4 0.950704 0.916380 0.266043
O O5 0.793962 0.355176 0.900485
O O6 0.806232 0.955047 0.773969
O O7 0.908846 0.952896 0.872200
O O8 0.299561 0.335351 0.225673
O O9 0.314383 0.266404 0.957813
O O10 0.000000 0.500000 0.000000
O O11 0.395027 0.559117 0.623901
O O12 0.500000 0.000000 0.500000
O O13 0.360354 0.987246 0.733128
O O14 0.380609 0.138200 0.421252
O O15 0.747328 0.594926 0.246332
O O16 0.719757 0.430841 0.558728
O O17 0.761650 0.006626 0.446228
#
# Coordination Sequence:
#
# PCOD9089946 Si02
#       8
#     2   2   2   2   2   2   2   2
#     4  12  22  44  70  86 125 169 228 264 338 399
#     4  12  25  43  67  93 126 176 219 270 339 396
#     4  12  22  41  65  97 130 162 221 278 326 375
#     4  12  28  45  60  94 131 168 217 283 337 399
#     4  10  21  41  65  93 132 176 211 248 315 393
#     4  10  23  38  63  96 131 163 210 271 321 363
#     4  10  19  38  62  94 125 160 214 262 306 387
#     4  10  20  38  63  91 117 166 215 261 319 384
#
# _framework density 22.577292
#
# number of rings (size 3 to 8) (size 9 to 14) (size 15 to 20)
#    0.000    1.000    2.500    4.500    1.750    0.000 
#    0.000    1.250    0.000    0.000    0.000    0.000 
#    0.000    0.000    0.000    0.000    0.000    0.000 
#
# Total GULP energy -89531.766563 kJ/mol
# GULP energy per Si atom -5595.735410 kJ/mol
# Density = 2.252590 g / cm^3
# Si number density = 22.577292 Si / 1000 Ang^3
#
#
#
# Elastic Constant Matrix: (Units=GPa)
#
#
# Indices 1 2 3 4 5 6 
#
# 1 133.0153 17.7377 30.4390 -15.7739 10.0234 -0.2782
# 2 17.7377 100.7562 4.6059 -5.2879 -2.9165 5.6122
# 3 30.4390 4.6059 63.7306 5.3618 6.2668 -8.3920
# 4 -15.7739 -5.2879 5.3618 38.9850 4.3337 1.1996
# 5 10.0234 -2.9165 6.2668 4.3337 19.8233 1.7871
# 6 -0.2782 5.6122 -8.3920 1.1996 1.7871 28.8881
#
#
#
# Elastic Compliance Matrix: (Units=1/GPa)
#
#
# Indices 1 2 3 4 5 6 
#
# 1 0.009676 -0.001319 -0.004604 0.004911 -0.004623 -0.000906
# 2 -0.001319 0.010441 -0.000758 0.000785 0.002492 -0.002448
# 3 -0.004604 -0.000758 0.019477 -0.004442 -0.003525 0.006164
# 4 0.004911 0.000785 -0.004442 0.029218 -0.007156 -0.002166
# 5 -0.004623 0.002492 -0.003525 -0.007156 0.056256 -0.004736
# 6 -0.000906 -0.002448 0.006164 -0.002166 -0.004736 0.037257
#
#
# Mechanical properties :
#
#
# Convention : Reuss Voigt Hill
#
# Bulk Modulus (GPa) = 38.12071 44.78525 41.45298
# Shear Modulus (GPa) = 27.11040 33.85393 30.48216
#
# Velocity S-wave (km/s) = 3.46899 3.87650 3.67839
# Velocity P-wave (km/s) = 5.74163 6.31789 6.03664
#
# Compressibility (1/GPa) = 0.02623246
#
# Stress axis : x y z
#
# Youngs Moduli (GPa) = 103.34528 95.77211 51.34286
#
# Poissons Ratio (x) = 0.12628 0.23639
# Poissons Ratio (y) = 0.13627 0.03893
# Poissons Ratio (z) = 0.47582 0.07263
#
# Static dielectric constant tensor:
#      x y z
#    x 1.823790 -0.017140 0.004460 
#    y -0.017140 1.831710 -0.020000 
#    z 0.004460 -0.020000 1.870880 
# 
# From -- ./inp_files/226579.got.cif
#   From: 2010.05.17/outbox.cif.g08.bks.cpg/sg2_114_cif.got.tgz:226579.got - 2010.06.03 11:33:40.
