data_PCOD9089745
_publ_section_title
;
Structure prediction by ZEFSAII (Michael W. Deem and Ramdas Pophale) SiO2 
 PCOD9089745
Probable space group: P -1
;
_chemical_formula_sum "Si O2"
_cell_formula_units_Z 16
_cell_length_a 12.248513
_cell_length_b 12.907675
_cell_length_c 7.785017
_cell_angle_alpha 103.174897
_cell_angle_beta 145.921612
_cell_angle_gamma 87.822259
_cell_volume 645.348032
_symmetry_space_group_name_H-M "P -1"
_symmetry_group_IT_number 2
_symmetry_cell_setting 'triclinic'
loop_
_space_group_symop_operation_xyz
x,y,z
-x,-y,-z
loop_
_atom_site_type_symbol
_atom_site_label
_atom_site_fract_x
_atom_site_fract_y
_atom_site_fract_z
Si Si1 0.556604 0.355470 0.792162
Si Si2 0.029063 0.876543 0.631447
Si Si3 0.635111 0.947865 0.028816
Si Si4 0.298630 0.731778 0.380441
Si Si5 0.817410 0.699613 0.523644
Si Si6 0.427207 0.393824 0.179852
Si Si7 0.878684 0.469007 0.507787
Si Si8 0.051184 0.296558 0.845917
O O1 0.679007 0.301799 0.798908
O O2 0.339330 0.277031 0.535173
O O3 0.552119 0.476723 0.762563
O O4 0.674205 0.385737 0.138377
O O5 0.826097 0.918986 0.363042
O O6 0.994928 0.802849 0.730109
O O7 0.031584 0.799100 0.439370
O O8 0.240084 0.970846 0.925868
O O9 0.475284 0.840850 0.701603
O O10 0.500000 0.000000 0.000000
O O11 0.361402 0.634233 0.531779
O O12 0.082434 0.740020 0.172138
O O13 0.854072 0.583837 0.587397
O O14 0.697731 0.662049 0.171401
O O15 0.292059 0.332190 0.141911
O O16 0.001760 0.408128 0.761529
O O17 0.000000 0.500000 0.500000
#
# Coordination Sequence:
#
# PCOD9089745 Si02
#       8
#     2   2   2   2   2   2   2   2
#     4  11  23  36  56  91 130 159 191 244 306 360
#     4  10  21  38  64  91 107 148 219 251 289 343
#     4  11  22  39  65  89 112 155 206 260 296 350
#     4  12  23  38  58  92 125 157 196 254 312 345
#     4  10  19  38  61  87 117 161 202 242 284 361
#     4  10  20  39  59  87 121 165 201 236 292 365
#     4  11  19  36  61  90 121 159 210 230 282 372
#     4  11  20  37  64  90 119 159 206 243 287 366
#
# _framework density 24.792826000000002
#
# number of rings (size 3 to 8) (size 9 to 14) (size 15 to 20)
#    0.000    1.250    7.500    3.375    0.000    0.500 
#    2.250    0.625    0.000    3.000    0.000    0.000 
#    0.000    0.000    0.000    0.000    0.000    0.000 
#
# Total GULP energy -89512.277751 kJ/mol
# GULP energy per Si atom -5594.517359 kJ/mol
# Density = 2.473640 g / cm^3
# Si number density = 24.792826 Si / 1000 Ang^3
#
#
#
# Elastic Constant Matrix: (Units=GPa)
#
#
# Indices 1 2 3 4 5 6 
#
# 1 187.0187 54.3813 30.5562 9.6433 32.2083 0.9013
# 2 54.3813 84.7532 18.6041 -1.4648 8.8149 1.0769
# 3 30.5562 18.6041 62.1130 9.5623 17.1766 1.3516
# 4 9.6433 -1.4648 9.5623 28.5972 -1.9399 4.7357
# 5 32.2083 8.8149 17.1766 -1.9399 50.0126 -5.4543
# 6 0.9013 1.0769 1.3516 4.7357 -5.4543 25.2136
#
#
#
# Elastic Compliance Matrix: (Units=1/GPa)
#
#
# Indices 1 2 3 4 5 6 
#
# 1 0.007561 -0.004278 -0.000930 -0.002660 -0.003942 -0.000391
# 2 -0.004278 0.015213 -0.003336 0.003541 0.001280 -0.000706
# 3 -0.000930 -0.003336 0.020350 -0.006923 -0.006175 -0.000951
# 4 -0.002660 0.003541 -0.006923 0.039683 0.004330 -0.006202
# 5 -0.003942 0.001280 -0.006175 0.004330 0.025146 0.005044
# 6 -0.000391 -0.000706 -0.000951 -0.006202 0.005044 0.042012
#
#
# Mechanical properties :
#
#
# Convention : Reuss Voigt Hill
#
# Bulk Modulus (GPa) = 38.40757 60.10757 49.25757
# Shear Modulus (GPa) = 28.45224 36.12091 32.28658
#
# Velocity S-wave (km/s) = 3.39130 3.82109 3.61259
# Velocity P-wave (km/s) = 5.55514 6.61545 6.10835
#
# Compressibility (1/GPa) = 0.02603654
#
# Stress axis : x y z
#
# Youngs Moduli (GPa) = 132.25836 65.73143 49.13911
#
# Poissons Ratio (x) = 0.28122 0.04570
# Poissons Ratio (y) = 0.56585 0.16391
# Poissons Ratio (z) = 0.12301 0.21926
#
# Static dielectric constant tensor:
#      x y z
#    x 2.030830 0.047910 0.013030 
#    y 0.047910 1.978230 -0.045020 
#    z 0.013030 -0.045020 2.087850 
# 
# From -- ./inp_files/268449.got.cif
#   From: 2010.05.17/outbox.cif.g08.bks.cpg/sg2_135_cif.got.tgz:268449.got - 2010.06.03 11:33:40.
