data_PCOD9089966
_publ_section_title
;
Structure prediction by ZEFSAII (Michael W. Deem and Ramdas Pophale) SiO2 
 PCOD9089966
Probable space group: P -1
;
_chemical_formula_sum "Si O2"
_cell_formula_units_Z 16
_cell_length_a 18.065278
_cell_length_b 7.930881
_cell_length_c 10.236722
_cell_angle_alpha 93.983734
_cell_angle_beta 34.142416
_cell_angle_gamma 85.992550
_cell_volume 799.636250
_symmetry_space_group_name_H-M "P -1"
_symmetry_group_IT_number 2
_symmetry_cell_setting 'triclinic'
loop_
_space_group_symop_operation_xyz
x,y,z
-x,-y,-z
loop_
_atom_site_type_symbol
_atom_site_label
_atom_site_fract_x
_atom_site_fract_y
_atom_site_fract_z
Si Si1 0.669473 0.758914 0.266574
Si Si2 0.103922 0.831264 0.074837
Si Si3 0.667693 0.223108 0.484531
Si Si4 0.557236 0.499246 0.268443
Si Si5 0.886769 0.180798 0.386586
Si Si6 0.240130 0.839418 0.149125
Si Si7 0.955414 0.538307 0.917586
Si Si8 0.546047 0.014970 0.255009
O O1 0.651527 0.634451 0.167382
O O2 0.549315 0.800795 0.551154
O O3 0.637502 0.940620 0.244494
O O4 0.808777 0.671944 0.126470
O O5 0.142690 0.874164 0.167409
O O6 0.053558 0.649977 0.137176
O O7 0.233749 0.798632 0.786898
O O8 0.996702 0.000796 0.189355
O O9 0.570427 0.413709 0.628152
O O10 0.762924 0.192704 0.468645
O O11 0.563154 0.096501 0.626200
O O12 0.500000 0.500000 0.500000
O O13 0.656259 0.339133 0.049882
O O14 0.837276 0.171280 0.605899
O O15 0.946908 0.351188 0.285292
O O16 0.341922 0.970050 0.013919
O O17 0.000000 0.500000 0.000000
#
# Coordination Sequence:
#
# PCOD9089966 Si02
#       8
#     2   2   2   2   2   2   2   2
#     4  10  19  38  63 102 122 158 235 279 315 390
#     4  12  24  47  73  96 134 182 229 272 327 407
#     4  11  23  43  68 101 128 171 230 278 332 392
#     4  11  19  39  68  94 128 167 224 280 323 396
#     4  12  29  45  62 103 146 175 220 278 334 405
#     4  12  24  44  67 100 135 178 219 279 343 393
#     4  12  25  42  72  98 130 181 224 277 333 389
#     4  10  21  36  71  95 129 173 214 282 337 383
#
# _framework density 20.009098999999999
#
# number of rings (size 3 to 8) (size 9 to 14) (size 15 to 20)
#    0.000    0.750    5.000    3.750    1.750    1.500 
#    4.500    0.000    0.000    0.000    0.000    0.000 
#    0.000    0.000    0.000    0.000    0.000    0.000 
#
# Total GULP energy -89212.438791 kJ/mol
# GULP energy per Si atom -5575.777424 kJ/mol
# Density = 1.996356 g / cm^3
# Si number density = 20.009099 Si / 1000 Ang^3
#
#
#
# Elastic Constant Matrix: (Units=GPa)
#
#
# Indices 1 2 3 4 5 6 
#
# 1 125.6221 45.4763 31.8608 -9.4406 -18.4682 -22.4866
# 2 45.4763 88.7279 30.1903 -5.0101 -22.8981 0.7618
# 3 31.8608 30.1903 76.2721 -22.1186 -7.4606 -3.7144
# 4 -9.4406 -5.0101 -22.1186 41.4190 -5.3433 -14.3167
# 5 -18.4682 -22.8981 -7.4606 -5.3433 25.2592 1.6539
# 6 -22.4866 0.7618 -3.7144 -14.3167 1.6539 46.9768
#
#
#
# Elastic Compliance Matrix: (Units=1/GPa)
#
#
# Indices 1 2 3 4 5 6 
#
# 1 0.012209 -0.004308 -0.001155 0.004771 0.005225 0.007093
# 2 -0.004308 0.018112 -0.004632 -0.000907 0.011934 -0.003418
# 3 -0.001155 -0.004632 0.019179 0.011284 0.002721 0.004382
# 4 0.004771 -0.000907 0.011284 0.037752 0.013053 0.014236
# 5 0.005225 0.011934 0.002721 0.013053 0.057500 0.004476
# 6 0.007093 -0.003418 0.004382 0.014236 0.004476 0.029265
#
#
# Mechanical properties :
#
#
# Convention : Reuss Voigt Hill
#
# Bulk Modulus (GPa) = 34.11701 56.18631 45.15166
# Shear Modulus (GPa) = 24.51269 34.93730 29.72500
#
# Velocity S-wave (km/s) = 3.50391 4.18313 3.85850
# Velocity P-wave (km/s) = 5.78425 7.17446 6.51653
#
# Compressibility (1/GPa) = 0.02931090
#
# Stress axis : x y z
#
# Youngs Moduli (GPa) = 81.90683 55.21159 52.14114
#
# Poissons Ratio (x) = 0.23783 0.06022
# Poissons Ratio (y) = 0.35282 0.24151
# Poissons Ratio (z) = 0.09460 0.25573
#
# Static dielectric constant tensor:
#      x y z
#    x 1.766240 0.065200 -0.041130 
#    y 0.065200 1.877890 -0.063350 
#    z -0.041130 -0.063350 1.697460 
# 
# From -- ./inp_files/328815.got.cif
#   From: 2010.05.17/outbox.cif.g08.bks.cpg/sg2_165_cif.got.tgz:328815.got - 2010.06.03 11:33:40.
