data_PCOD9089938
_publ_section_title
;
Structure prediction by ZEFSAII (Michael W. Deem and Ramdas Pophale) SiO2 
 PCOD9089938
Probable space group: P -1
;
_chemical_formula_sum "Si O2"
_cell_formula_units_Z 16
_cell_length_a 8.784324
_cell_length_b 12.995129
_cell_length_c 9.588435
_cell_angle_alpha 70.098286
_cell_angle_beta 86.041064
_cell_angle_gamma 45.595229
_cell_volume 711.572035
_symmetry_space_group_name_H-M "P -1"
_symmetry_group_IT_number 2
_symmetry_cell_setting 'triclinic'
loop_
_space_group_symop_operation_xyz
x,y,z
-x,-y,-z
loop_
_atom_site_type_symbol
_atom_site_label
_atom_site_fract_x
_atom_site_fract_y
_atom_site_fract_z
Si Si1 0.912067 0.400437 0.156515
Si Si2 0.938807 0.017441 0.838473
Si Si3 0.151953 0.732875 0.435221
Si Si4 0.829203 0.516699 0.417433
Si Si5 0.501904 0.864528 0.195970
Si Si6 0.866746 0.167741 0.343679
Si Si7 0.350322 0.266969 0.062875
Si Si8 0.374912 0.019914 0.636566
O O1 0.928936 0.441947 0.292085
O O2 0.914978 0.268863 0.240540
O O3 0.117600 0.330206 0.082834
O O4 0.701537 0.576602 0.026107
O O5 0.757804 0.017060 0.829999
O O6 0.836841 0.186230 0.723930
O O7 0.136630 0.887373 0.781218
O O8 0.000000 0.000000 0.000000
O O9 0.219770 0.575467 0.471527
O O10 0.277409 0.718848 0.567404
O O11 0.886011 0.859599 0.429122
O O12 0.613422 0.698858 0.327331
O O13 0.000000 0.500000 0.500000
O O14 0.591427 0.914166 0.266131
O O15 0.563367 0.828715 0.044747
O O16 0.000000 0.000000 0.500000
O O17 0.503691 0.151217 0.235124
O O18 0.500000 0.000000 0.500000
#
# Coordination Sequence:
#
# PCOD9089938 Si02
#       8
#     2   2   2   2   2   2   2   2
#     4   9  19  37  59  89 121 166 196 255 320 366
#     4  11  23  40  58  87 122 166 208 251 302 370
#     4  10  21  38  63  88 121 162 201 253 314 369
#     4  10  19  38  62  93 127 151 202 260 317 371
#     4  11  23  38  61  88 127 163 205 257 313 368
#     4   9  19  39  63  82 116 167 207 246 304 373
#     4  10  21  35  56  86 126 158 200 250 312 367
#     4  12  22  36  61  95 123 159 212 262 309 372
#
# _framework density 22.485426
#
# number of rings (size 3 to 8) (size 9 to 14) (size 15 to 20)
#    0.000    1.750    1.250    4.125    0.000    1.500 
#    2.250    0.000    0.000   20.250    0.000    0.000 
#    0.000    0.000    0.000    0.000    0.000    0.000 
#
# Total GULP energy -89072.756964 kJ/mol
# GULP energy per Si atom -5567.047310 kJ/mol
# Density = 2.243425 g / cm^3
# Si number density = 22.485426 Si / 1000 Ang^3
#
#
#
# Elastic Constant Matrix: (Units=GPa)
#
#
# Indices 1 2 3 4 5 6 
#
# 1 55.1847 35.3924 28.9520 4.6117 -10.7152 5.0881
# 2 35.3924 103.6308 50.9993 -10.0757 -5.6185 19.0394
# 3 28.9520 50.9993 144.0909 -10.1827 -11.5351 10.7378
# 4 4.6117 -10.0757 -10.1827 30.7552 9.3653 -6.4959
# 5 -10.7152 -5.6185 -11.5351 9.3653 30.3412 -5.2278
# 6 5.0881 19.0394 10.7378 -6.4959 -5.2278 43.7736
#
#
#
# Elastic Compliance Matrix: (Units=1/GPa)
#
#
# Indices 1 2 3 4 5 6 
#
# 1 0.028203 -0.009099 -0.002427 -0.011153 0.010955 0.000928
# 2 -0.009099 0.015522 -0.003256 0.005662 -0.004108 -0.004545
# 3 -0.002427 -0.003256 0.008817 0.001804 0.001329 -0.000038
# 4 -0.011153 0.005662 0.001804 0.041678 -0.014581 0.002835
# 5 0.010955 -0.004108 0.001329 -0.014581 0.041588 0.002990
# 6 0.000928 -0.004545 -0.000038 0.002835 0.002990 0.025501
#
#
# Mechanical properties :
#
#
# Convention : Reuss Voigt Hill
#
# Bulk Modulus (GPa) = 43.51648 59.28823 51.40235
# Shear Modulus (GPa) = 25.18489 33.47818 29.33153
#
# Velocity S-wave (km/s) = 3.35035 3.86279 3.61566
# Velocity P-wave (km/s) = 5.86188 6.80584 6.35142
#
# Compressibility (1/GPa) = 0.02297980
#
# Stress axis : x y z
#
# Youngs Moduli (GPa) = 35.45690 64.42378 113.42165
#
# Poissons Ratio (x) = 0.58617 0.27525
# Poissons Ratio (y) = 0.32261 0.36926
# Poissons Ratio (z) = 0.08605 0.20974
#
# Static dielectric constant tensor:
#      x y z
#    x 1.787450 -0.228010 -0.188830 
#    y -0.228010 1.484570 -0.401570 
#    z -0.188830 -0.401570 1.508160 
# 
# From -- ./inp_files/186695.got.cif
#   From: 2010.05.17/outbox.cif.g08.bks.cpg/sg2_94_cif.got.tgz:186695.got - 2010.06.03 11:33:40.
