data_PCOD9089004
_publ_section_title
;
Structure prediction by ZEFSAII (Michael W. Deem and Ramdas Pophale) SiO2 
 PCOD9089004
Probable space group: P -1
;
_chemical_formula_sum "Si O2"
_cell_formula_units_Z 16
_cell_length_a 10.550197
_cell_length_b 6.524036
_cell_length_c 12.861665
_cell_angle_alpha 133.267638
_cell_angle_beta 71.336486
_cell_angle_gamma 116.482738
_cell_volume 576.835237
_symmetry_space_group_name_H-M "P -1"
_symmetry_group_IT_number 2
_symmetry_cell_setting 'triclinic'
loop_
_space_group_symop_operation_xyz
x,y,z
-x,-y,-z
loop_
_atom_site_type_symbol
_atom_site_label
_atom_site_fract_x
_atom_site_fract_y
_atom_site_fract_z
Si Si1 0.972655 0.595733 0.154186
Si Si2 0.397671 0.158611 0.902240
Si Si3 0.944617 0.119976 0.447973
Si Si4 0.613746 0.895411 0.656011
Si Si5 0.303804 0.478854 0.888317
Si Si6 0.316658 0.100740 0.138192
Si Si7 0.390421 0.184955 0.593851
Si Si8 0.133131 0.484334 0.257341
O O1 0.804286 0.502672 0.167425
O O2 0.033199 0.432706 0.166642
O O3 0.016231 0.947812 0.290000
O O4 0.000000 0.500000 0.000000
O O5 0.472837 0.970032 0.750284
O O6 0.270224 0.203648 0.882987
O O7 0.500000 0.500000 0.000000
O O8 0.388617 0.084233 0.000315
O O9 0.956086 0.449295 0.599262
O O10 0.776965 0.009741 0.418814
O O11 0.000000 0.000000 0.500000
O O12 0.735275 0.210368 0.698836
O O13 0.651644 0.760660 0.705579
O O14 0.604822 0.704654 0.487563
O O15 0.424229 0.419735 0.762667
O O16 0.302685 0.760963 0.054674
O O17 0.198231 0.228838 0.171804
O O18 0.500000 0.000000 0.500000
#
# Coordination Sequence:
#
# PCOD9089004 Si02
#       8
#     2   2   2   2   2   2   2   2
#     4  10  19  37  64  92 121 159 205 256 312 364
#     4  12  22  39  62  88 122 162 209 254 303 369
#     4   8  18  36  62  86 116 164 210 247 301 369
#     4  11  22  39  63  89 120 163 212 251 304 366
#     4  11  24  40  62  94 127 163 204 256 319 372
#     4  12  23  37  62  94 123 163 209 254 308 372
#     4  10  20  39  63  89 127 165 202 260 318 367
#     4  10  21  40  62  87 121 164 208 253 302 366
#
# _framework density 27.737553999999999
#
# number of rings (size 3 to 8) (size 9 to 14) (size 15 to 20)
#    0.000    1.500    3.750    1.875    0.000    0.500 
#    0.000    6.875    0.000   30.750    0.000    0.000 
#    0.000    0.000    0.000    0.000    0.000    0.000 
#
# Total GULP energy -89152.986873 kJ/mol
# GULP energy per Si atom -5572.061680 kJ/mol
# Density = 2.767442 g / cm^3
# Si number density = 27.737554 Si / 1000 Ang^3
#
#
#
# Elastic Constant Matrix: (Units=GPa)
#
#
# Indices 1 2 3 4 5 6 
#
# 1 113.7708 36.8781 25.6795 -0.5591 -8.2682 -55.4282
# 2 36.8781 84.0029 38.5012 -15.5011 -2.2981 -26.2661
# 3 25.6795 38.5012 256.1808 -17.4446 -12.8883 -32.5280
# 4 -0.5591 -15.5011 -17.4446 55.1203 -15.1149 -7.9504
# 5 -8.2682 -2.2981 -12.8883 -15.1149 51.1103 3.6385
# 6 -55.4282 -26.2661 -32.5280 -7.9504 3.6385 59.3643
#
#
#
# Elastic Compliance Matrix: (Units=1/GPa)
#
#
# Indices 1 2 3 4 5 6 
#
# 1 0.017260 -0.002517 0.000967 0.002762 0.002619 0.015741
# 2 -0.002517 0.015982 -0.001143 0.005115 0.001201 0.004706
# 3 0.000967 -0.001143 0.004592 0.002038 0.001646 0.003085
# 4 0.002762 0.005115 0.002038 0.023571 0.007545 0.008653
# 5 0.002619 0.001201 0.001646 0.007545 0.022439 0.003514
# 6 0.015741 0.004706 0.003085 0.008653 0.003514 0.036258
#
#
# Mechanical properties :
#
#
# Convention : Reuss Voigt Hill
#
# Bulk Modulus (GPa) = 30.82085 72.89691 51.85888
# Shear Modulus (GPa) = 36.68256 56.64536 46.66396
#
# Velocity S-wave (km/s) = 3.64055 4.52396 4.10608
# Velocity P-wave (km/s) = 5.36723 7.32300 6.42003
#
# Compressibility (1/GPa) = 0.03244557
#
# Stress axis : x y z
#
# Youngs Moduli (GPa) = 57.93700 62.57194 217.78665
#
# Poissons Ratio (x) = 0.15751 -0.21052
# Poissons Ratio (y) = 0.14584 0.24900
# Poissons Ratio (z) = -0.05600 0.07154
#
# Static dielectric constant tensor:
#      x y z
#    x 2.447090 0.162420 0.138420 
#    y 0.162420 2.360750 0.002480 
#    z 0.138420 0.002480 2.227200 
# 
# From -- ./inp_files/70342.got.cif
#   From: 2010.05.17/outbox.cif.g08.bks.cpg/sg2_36_cif.got.tgz:70342.got - 2010.06.03 11:33:40.
