data_PCOD9089450
_publ_section_title
;
Structure prediction by ZEFSAII (Michael W. Deem and Ramdas Pophale) SiO2 
 PCOD9089450
Probable space group: P -1
;
_chemical_formula_sum "Si O2"
_cell_formula_units_Z 16
_cell_length_a 5.296203
_cell_length_b 9.010495
_cell_length_c 16.408469
_cell_angle_alpha 63.174568
_cell_angle_beta 99.598952
_cell_angle_gamma 91.072059
_cell_volume 687.562076
_symmetry_space_group_name_H-M "P -1"
_symmetry_group_IT_number 2
_symmetry_cell_setting 'triclinic'
loop_
_space_group_symop_operation_xyz
x,y,z
-x,-y,-z
loop_
_atom_site_type_symbol
_atom_site_label
_atom_site_fract_x
_atom_site_fract_y
_atom_site_fract_z
Si Si1 0.926767 0.269819 0.951467
Si Si2 0.613614 0.262554 0.076156
Si Si3 0.709470 0.016104 0.910482
Si Si4 0.355608 0.412763 0.696926
Si Si5 0.303562 0.480684 0.866422
Si Si6 0.861976 0.194831 0.719389
Si Si7 0.705943 0.204385 0.400670
Si Si8 0.189693 0.043594 0.379469
O O1 0.686041 0.178142 0.925440
O O2 0.007467 0.433559 0.871155
O O3 0.883691 0.287843 0.040549
O O4 0.149261 0.124847 0.990984
O O5 0.627476 0.336747 0.147871
O O6 0.530372 0.074524 0.115132
O O7 0.429106 0.376094 0.976594
O O8 0.874241 0.077970 0.829079
O O9 0.381693 0.439769 0.789246
O O10 0.605448 0.316666 0.693417
O O11 0.307754 0.603876 0.618479
O O12 0.109170 0.303598 0.698007
O O13 0.838842 0.070886 0.672967
O O14 0.435426 0.154252 0.361824
O O15 0.937486 0.159876 0.361009
O O16 0.761355 0.085455 0.511012
#
# Coordination Sequence:
#
# PCOD9089450 Si02
#       8
#     2   2   2   2   2   2   2   2
#     4  10  19  38  56  79 117 164 215 273 320 379
#     4  10  21  36  58  80 115 169 222 269 321 380
#     4  10  22  34  56  86 116 167 214 267 314 379
#     4  12  26  43  65  99 138 176 210 275 330 391
#     4  10  22  37  54  86 120 163 218 270 325 378
#     4  12  26  42  66 100 138 172 220 267 328 388
#     4  10  23  46  73 102 133 172 213 264 332 381
#     4  10  23  46  74 101 133 169 218 268 313 405
#
# _framework density 23.270627000000001
#
# number of rings (size 3 to 8) (size 9 to 14) (size 15 to 20)
#    0.000    1.500    1.250    3.000    3.500    2.000 
#    0.000    0.000    0.000    0.000    0.000    0.000 
#    0.000    0.000    0.000    0.000    0.000    0.000 
#
# Total GULP energy -89280.851281 kJ/mol
# GULP energy per Si atom -5580.053205 kJ/mol
# Density = 2.321766 g / cm^3
# Si number density = 23.270627 Si / 1000 Ang^3
#
#
#
# Elastic Constant Matrix: (Units=GPa)
#
#
# Indices 1 2 3 4 5 6 
#
# 1 120.8607 44.1062 17.9511 2.0921 -13.6399 -0.5049
# 2 44.1062 107.1909 13.3203 23.3768 -6.4671 14.9229
# 3 17.9511 13.3203 43.7650 -2.3158 -1.8876 4.2898
# 4 2.0921 23.3768 -2.3158 41.9974 0.3995 -5.8719
# 5 -13.6399 -6.4671 -1.8876 0.3995 18.3262 -2.2983
# 6 -0.5049 14.9229 4.2898 -5.8719 -2.2983 30.5347
#
#
#
# Elastic Compliance Matrix: (Units=1/GPa)
#
#
# Indices 1 2 3 4 5 6 
#
# 1 0.011283 -0.004965 -0.003087 0.002532 0.006779 0.004044
# 2 -0.004965 0.014959 -0.002126 -0.009441 0.000457 -0.008875
# 3 -0.003087 -0.002126 0.025065 0.002430 -0.000785 -0.002125
# 4 0.002532 -0.009441 0.002430 0.030497 -0.000590 0.010135
# 5 0.006779 0.000457 -0.000785 -0.000590 0.060260 0.004421
# 6 0.004044 -0.008875 -0.002125 0.010135 0.004421 0.039734
#
#
# Mechanical properties :
#
#
# Convention : Reuss Voigt Hill
#
# Bulk Modulus (GPa) = 32.30940 46.95243 39.63091
# Shear Modulus (GPa) = 23.53269 31.26759 27.40014
#
# Velocity S-wave (km/s) = 3.18348 3.66956 3.43513
# Velocity P-wave (km/s) = 5.23709 6.17857 5.72721
#
# Compressibility (1/GPa) = 0.03095075
#
# Stress axis : x y z
#
# Youngs Moduli (GPa) = 88.63258 66.85109 39.89559
#
# Poissons Ratio (x) = 0.33193 0.12314
# Poissons Ratio (y) = 0.44008 0.08483
# Poissons Ratio (z) = 0.27357 0.14214
#
# Static dielectric constant tensor:
#      x y z
#    x 2.041660 0.000050 0.012950 
#    y 0.000050 1.919030 0.004980 
#    z 0.012950 0.004980 1.869580 
# 
# From -- ./inp_files/547900.got.cif
#   From: 2010.05.17/outbox.cif.g08.bks.cpg/sg2_274_cif.got.tgz:547900.got - 2010.06.03 11:33:40.
