data_PCOD9089861
_publ_section_title
;
Structure prediction by ZEFSAII (Michael W. Deem and Ramdas Pophale) SiO2 
 PCOD9089861
Probable space group: P -1
;
_chemical_formula_sum "Si O2"
_cell_formula_units_Z 16
_cell_length_a 9.876153
_cell_length_b 9.540224
_cell_length_c 9.232197
_cell_angle_alpha 65.035921
_cell_angle_beta 56.557481
_cell_angle_gamma 74.497045
_cell_volume 657.342018
_symmetry_space_group_name_H-M "P -1"
_symmetry_group_IT_number 2
_symmetry_cell_setting 'triclinic'
loop_
_space_group_symop_operation_xyz
x,y,z
-x,-y,-z
loop_
_atom_site_type_symbol
_atom_site_label
_atom_site_fract_x
_atom_site_fract_y
_atom_site_fract_z
Si Si1 0.147580 0.381961 0.924224
Si Si2 0.974656 0.890936 0.420615
Si Si3 0.360927 0.989990 0.802496
Si Si4 0.639957 0.843757 0.959799
Si Si5 0.365782 0.211562 0.423231
Si Si6 0.323507 0.810051 0.282248
Si Si7 0.368891 0.642826 0.633871
Si Si8 0.906222 0.156402 0.110586
O O1 0.295165 0.474860 0.733701
O O2 0.219925 0.289127 0.061653
O O3 0.000000 0.500000 0.000000
O O4 0.057406 0.256990 0.936413
O O5 0.812618 0.791776 0.541745
O O6 0.137961 0.781469 0.365715
O O7 0.960899 0.018559 0.245879
O O8 0.000000 0.000000 0.500000
O O9 0.677269 0.001255 0.787773
O O10 0.508555 0.867440 0.731811
O O11 0.192946 0.904984 0.937561
O O12 0.358462 0.098230 0.615193
O O13 0.634333 0.908400 0.101569
O O14 0.460067 0.776747 0.093073
O O15 0.463703 0.352118 0.375307
O O16 0.370954 0.726919 0.440856
O O17 0.231293 0.741912 0.763162
#
# Coordination Sequence:
#
# PCOD9089861 Si02
#       8
#     2   2   2   2   2   2   2   2
#     4  10  22  39  59  88 121 166 208 243 292 369
#     4  11  18  31  60  92 119 147 198 258 298 346
#     4   9  17  33  57  88 120 149 196 260 299 340
#     4  11  22  37  58  91 126 156 203 253 306 355
#     4   9  18  34  59  92 120 154 203 247 299 360
#     4  11  22  35  57  93 124 158 194 257 308 345
#     4  10  19  38  62  86 123 163 203 239 298 369
#     4   9  18  34  59  91 115 150 203 253 296 344
#
# _framework density 24.340449
#
# number of rings (size 3 to 8) (size 9 to 14) (size 15 to 20)
#    0.000    2.000    3.750    1.500    0.000    1.000 
#    0.000    0.000    0.000    5.250    0.000    1.750 
#    0.000    0.000    0.000    0.000    0.000    0.000 
#
# Total GULP energy -89305.267433 kJ/mol
# GULP energy per Si atom -5581.579215 kJ/mol
# Density = 2.428505 g / cm^3
# Si number density = 24.340449 Si / 1000 Ang^3
#
#
#
# Elastic Constant Matrix: (Units=GPa)
#
#
# Indices 1 2 3 4 5 6 
#
# 1 182.1003 29.7863 61.8442 -0.4841 -50.8359 -4.6261
# 2 29.7863 53.7395 19.7914 3.6852 -9.1923 -13.0430
# 3 61.8442 19.7914 115.5048 -13.2735 -20.3280 21.7672
# 4 -0.4841 3.6852 -13.2735 35.7506 5.3125 -0.8729
# 5 -50.8359 -9.1923 -20.3280 5.3125 51.3703 -0.0499
# 6 -4.6261 -13.0430 21.7672 -0.8729 -0.0499 39.4201
#
#
#
# Elastic Compliance Matrix: (Units=1/GPa)
#
#
# Indices 1 2 3 4 5 6 
#
# 1 0.009349 -0.001456 -0.004246 -0.002352 0.007557 0.002918
# 2 -0.001456 0.024838 -0.005924 -0.004677 0.001154 0.011216
# 3 -0.004246 -0.005924 0.014536 0.005714 -0.000111 -0.010358
# 4 -0.002352 -0.004677 0.005714 0.031050 -0.004118 -0.004296
# 5 0.007557 0.001154 -0.000111 -0.004118 0.027535 0.001274
# 6 0.002918 0.011216 -0.010358 -0.004296 0.001274 0.035048
#
#
# Mechanical properties :
#
#
# Convention : Reuss Voigt Hill
#
# Bulk Modulus (GPa) = 39.26420 63.79873 51.53147
# Shear Modulus (GPa) = 28.71934 41.30305 35.01120
#
# Velocity S-wave (km/s) = 3.43870 4.12380 3.79673
# Velocity P-wave (km/s) = 5.65088 6.99587 6.35904
#
# Compressibility (1/GPa) = 0.02546849
#
# Stress axis : x y z
#
# Youngs Moduli (GPa) = 106.95859 40.26146 68.79699
#
# Poissons Ratio (x) = 0.05862 0.29215
# Poissons Ratio (y) = 0.15574 0.40758
# Poissons Ratio (z) = 0.45420 0.23853
#
# Static dielectric constant tensor:
#      x y z
#    x 2.088120 -0.036770 -0.052900 
#    y -0.036770 1.993630 0.016640 
#    z -0.052900 0.016640 1.969260 
# 
# From -- ./inp_files/388984.got.cif
#   From: 2010.05.17/outbox.cif.g08.bks.cpg/sg2_195_cif.got.tgz:388984.got - 2010.06.03 11:33:40.
