data_PCOD9089806
_publ_section_title
;
Structure prediction by ZEFSAII (Michael W. Deem and Ramdas Pophale) SiO2 
 PCOD9089806
Probable space group: P -1
;
_chemical_formula_sum "Si O2"
_cell_formula_units_Z 16
_cell_length_a 22.003618
_cell_length_b 8.173069
_cell_length_c 9.926434
_cell_angle_alpha 94.893053
_cell_angle_beta 138.244635
_cell_angle_gamma 116.324393
_cell_volume 763.930573
_symmetry_space_group_name_H-M "P -1"
_symmetry_group_IT_number 2
_symmetry_cell_setting 'triclinic'
loop_
_space_group_symop_operation_xyz
x,y,z
-x,-y,-z
loop_
_atom_site_type_symbol
_atom_site_label
_atom_site_fract_x
_atom_site_fract_y
_atom_site_fract_z
Si Si1 0.650531 0.765298 0.712037
Si Si2 0.839690 0.474321 0.377116
Si Si3 0.820482 0.431237 0.835015
Si Si4 0.928453 0.746075 0.796049
Si Si5 0.658346 0.167927 0.805558
Si Si6 0.090581 0.960584 0.670773
Si Si7 0.771747 0.999175 0.657958
Si Si8 0.851651 0.139494 0.511160
O O1 0.500000 0.500000 0.500000
O O2 0.673851 0.990630 0.805853
O O3 0.670070 0.776142 0.583610
O O4 0.778739 0.842148 0.997850
O O5 0.859087 0.649351 0.527818
O O6 0.824195 0.287441 0.426333
O O7 0.982304 0.678324 0.536747
O O8 0.712617 0.302716 0.049203
O O9 0.813262 0.535595 0.700894
O O10 0.751376 0.380977 0.857992
O O11 0.755028 0.169623 0.663196
O O12 0.986937 0.641782 0.154159
O O13 0.065598 0.815492 0.015777
O O14 0.000000 0.000000 0.000000
O O15 0.500000 0.000000 0.500000
O O16 0.152750 0.980422 0.634977
O O17 0.000000 0.000000 0.500000
O O18 0.761917 0.955939 0.478894
#
# Coordination Sequence:
#
# PCOD9089806 Si02
#       8
#     2   2   2   2   2   2   2   2
#     4  11  25  44  67  95 137 179 219 282 352 398
#     4  12  21  41  66  95 131 171 233 269 332 397
#     4  10  19  38  61  92 126 169 218 271 328 402
#     4  11  22  34  62 101 135 161 214 287 341 387
#     4  11  25  42  67  93 131 184 234 271 334 410
#     4  12  26  39  65 104 135 169 229 284 334 396
#     4  10  20  38  63  91 127 174 218 263 338 410
#     4  11  19  38  67  95 125 169 222 275 330 401
#
# _framework density 20.944310000000002
#
# number of rings (size 3 to 8) (size 9 to 14) (size 15 to 20)
#    0.000    1.000    6.250    1.875    5.250    1.000 
#    0.000    1.250    0.000    0.000    0.000    0.000 
#    0.000    0.000    0.000    0.000    0.000    0.000 
#
# Total GULP energy -89334.447824 kJ/mol
# GULP energy per Si atom -5583.402989 kJ/mol
# Density = 2.089664 g / cm^3
# Si number density = 20.944310 Si / 1000 Ang^3
#
#
#
# Elastic Constant Matrix: (Units=GPa)
#
#
# Indices 1 2 3 4 5 6 
#
# 1 93.3759 63.1566 46.0532 -12.5854 -30.2749 26.7537
# 2 63.1566 98.7625 40.9472 -1.1329 -5.3339 37.7600
# 3 46.0532 40.9472 101.3430 -12.4381 -7.5414 21.4992
# 4 -12.5854 -1.1329 -12.4381 23.1841 4.6740 -3.6876
# 5 -30.2749 -5.3339 -7.5414 4.6740 42.3663 -6.1935
# 6 26.7537 37.7600 21.4992 -3.6876 -6.1935 48.8271
#
#
#
# Elastic Compliance Matrix: (Units=1/GPa)
#
#
# Indices 1 2 3 4 5 6 
#
# 1 0.032899 -0.018396 -0.005144 0.010570 0.019363 0.001720
# 2 -0.018396 0.026376 -0.001783 -0.009321 -0.010811 -0.011608
# 3 -0.005144 -0.001783 0.013704 0.004641 -0.002232 -0.001769
# 4 0.010570 -0.009321 0.004641 0.051041 0.002086 0.003492
# 5 0.019363 -0.010811 -0.002232 0.002086 0.035957 0.003452
# 6 0.001720 -0.011608 -0.001769 0.003492 0.003452 0.029996
#
#
# Mechanical properties :
#
#
# Convention : Reuss Voigt Hill
#
# Bulk Modulus (GPa) = 44.77733 65.97725 55.37729
# Shear Modulus (GPa) = 20.15619 32.43047 26.29333
#
# Velocity S-wave (km/s) = 3.10558 3.93926 3.54700
# Velocity P-wave (km/s) = 5.85535 7.22911 6.57819
#
# Compressibility (1/GPa) = 0.02233273
#
# Stress axis : x y z
#
# Youngs Moduli (GPa) = 30.39618 37.91364 72.96876
#
# Poissons Ratio (x) = 0.69745 0.37535
# Poissons Ratio (y) = 0.55916 0.13012
# Poissons Ratio (z) = 0.15636 0.06761
#
# Static dielectric constant tensor:
#      x y z
#    x 1.824460 -0.014940 -0.030990 
#    y -0.014940 1.828980 -0.019260 
#    z -0.030990 -0.019260 1.727400 
# 
# From -- ./inp_files/337386.got.cif
#   From: 2010.05.17/outbox.cif.g08.bks.cpg/sg2_169_cif.got.tgz:337386.got - 2010.06.03 11:33:40.
