data_PCOD9089854
_publ_section_title
;
Structure prediction by ZEFSAII (Michael W. Deem and Ramdas Pophale) SiO2 
 PCOD9089854
Probable space group: P -1
;
_chemical_formula_sum "Si O2"
_cell_formula_units_Z 16
_cell_length_a 14.699145
_cell_length_b 13.029303
_cell_length_c 13.616909
_cell_angle_alpha 138.996424
_cell_angle_beta 29.238177
_cell_angle_gamma 148.445768
_cell_volume 665.963085
_symmetry_space_group_name_H-M "P -1"
_symmetry_group_IT_number 2
_symmetry_cell_setting 'triclinic'
loop_
_space_group_symop_operation_xyz
x,y,z
-x,-y,-z
loop_
_atom_site_type_symbol
_atom_site_label
_atom_site_fract_x
_atom_site_fract_y
_atom_site_fract_z
Si Si1 0.670820 0.947914 0.722895
Si Si2 0.757392 0.125324 0.983713
Si Si3 0.143829 0.102773 0.156203
Si Si4 0.179062 0.381096 0.170310
Si Si5 0.274789 0.678383 0.449818
Si Si6 0.775572 0.846897 0.170486
Si Si7 0.236364 0.355453 0.612280
Si Si8 0.927164 0.670547 0.461296
O O1 0.797835 0.848998 0.515418
O O2 0.679613 0.990851 0.861256
O O3 0.415855 0.817108 0.819229
O O4 0.805759 0.159812 0.696348
O O5 0.028735 0.304648 0.842356
O O6 0.737160 0.001755 0.007272
O O7 0.248697 0.276882 0.104127
O O8 0.145671 0.208013 0.327319
O O9 0.881844 0.930856 0.238429
O O10 0.269404 0.585483 0.283246
O O11 0.895544 0.259065 0.352343
O O12 0.261657 0.356479 0.969826
O O13 0.538043 0.815335 0.341977
O O14 0.131789 0.497828 0.531279
O O15 0.000000 0.000000 0.000000
O O16 0.500000 0.500000 0.500000
O O17 0.202192 0.414738 0.581052
#
# Coordination Sequence:
#
# PCOD9089854 Si02
#       8
#     2   2   2   2   2   2   2   2
#     4  10  20  40  64  84 120 156 203 243 291 356
#     4  10  20  39  62  89 114 160 203 235 293 358
#     4  10  19  38  62  86 117 157 201 240 297 353
#     4   9  21  42  59  88 119 157 195 248 300 343
#     4  10  21  40  64  88 123 154 201 244 296 360
#     4  10  22  39  59  87 119 157 198 247 297 347
#     4  11  22  38  63  87 127 153 192 250 301 351
#     4  10  20  40  61  88 117 161 199 244 299 352
#
# _framework density 24.025355000000001
#
# number of rings (size 3 to 8) (size 9 to 14) (size 15 to 20)
#    0.000    2.000    2.500    1.125    1.750    2.500 
#   22.500    0.000    0.000    0.000    0.000    0.000 
#    0.000    0.000    0.000    0.000    0.000    0.000 
#
# Total GULP energy -89274.059736 kJ/mol
# GULP energy per Si atom -5579.628733 kJ/mol
# Density = 2.397067 g / cm^3
# Si number density = 24.025355 Si / 1000 Ang^3
#
#
#
# Elastic Constant Matrix: (Units=GPa)
#
#
# Indices 1 2 3 4 5 6 
#
# 1 73.4588 25.8586 14.5356 -13.4630 -24.7823 -7.2613
# 2 25.8586 70.2093 9.0931 -18.2476 -5.7532 13.4216
# 3 14.5356 9.0931 75.3004 -16.7587 -30.3219 2.0259
# 4 -13.4630 -18.2476 -16.7587 32.9218 12.1495 -12.7799
# 5 -24.7823 -5.7532 -30.3219 12.1495 37.7396 -7.0886
# 6 -7.2613 13.4216 2.0259 -12.7799 -7.0886 32.9669
#
#
#
# Elastic Compliance Matrix: (Units=1/GPa)
#
#
# Indices 1 2 3 4 5 6 
#
# 1 0.025981 -0.010026 0.005724 0.006618 0.021111 0.016557
# 2 -0.010026 0.020959 -0.002903 0.005458 -0.009446 -0.010478
# 3 0.005724 -0.002903 0.022179 0.007855 0.020198 0.008468
# 4 0.006618 0.005458 0.007855 0.046779 -0.000415 0.016798
# 5 0.021111 -0.009446 0.020198 -0.000415 0.058997 0.019779
# 6 0.016557 -0.010478 0.008468 0.016798 0.019779 0.048491
#
#
# Mechanical properties :
#
#
# Convention : Reuss Voigt Hill
#
# Bulk Modulus (GPa) = 18.27795 35.32700 26.80248
# Shear Modulus (GPa) = 19.52873 32.02442 25.77658
#
# Velocity S-wave (km/s) = 2.85413 3.65491 3.27905
# Velocity P-wave (km/s) = 4.29950 5.70501 5.05138
#
# Compressibility (1/GPa) = 0.05471072
#
# Stress axis : x y z
#
# Youngs Moduli (GPa) = 38.48923 47.71183 45.08676
#
# Poissons Ratio (x) = 0.47834 -0.25806
# Poissons Ratio (y) = 0.38588 0.13087
# Poissons Ratio (z) = -0.22030 0.13849
#
# Static dielectric constant tensor:
#      x y z
#    x 1.928380 0.035000 0.023690 
#    y 0.035000 2.037310 -0.017810 
#    z 0.023690 -0.017810 1.940890 
# 
# From -- ./inp_files/533808.got.cif
#   From: 2010.05.17/outbox.cif.g08.bks.cpg/sg2_267_cif.got.tgz:533808.got - 2010.06.03 11:33:40.
