data_PCOD9089412
_publ_section_title
;
Structure prediction by ZEFSAII (Michael W. Deem and Ramdas Pophale) SiO2 
 PCOD9089412
Probable space group: P -1
;
_chemical_formula_sum "Si O2"
_cell_formula_units_Z 16
_cell_length_a 8.359152
_cell_length_b 13.463541
_cell_length_c 15.074744
_cell_angle_alpha 53.346043
_cell_angle_beta 90.645009
_cell_angle_gamma 45.759189
_cell_volume 651.267824
_symmetry_space_group_name_H-M "P -1"
_symmetry_group_IT_number 2
_symmetry_cell_setting 'triclinic'
loop_
_space_group_symop_operation_xyz
x,y,z
-x,-y,-z
loop_
_atom_site_type_symbol
_atom_site_label
_atom_site_fract_x
_atom_site_fract_y
_atom_site_fract_z
Si Si1 0.246066 0.107094 0.007939
Si Si2 0.695684 0.317208 0.923643
Si Si3 0.217033 0.859761 0.664730
Si Si4 0.215522 0.895782 0.305067
Si Si5 0.045970 0.615303 0.463477
Si Si6 0.269506 0.421169 0.747602
Si Si7 0.302065 0.238777 0.313246
Si Si8 0.688070 0.880036 0.810434
O O1 0.496269 0.822213 0.183000
O O2 0.140534 0.241925 0.027559
O O3 0.500000 0.000000 0.000000
O O4 0.915827 0.259732 0.892420
O O5 0.426073 0.590283 0.822478
O O6 0.498318 0.352047 0.845836
O O7 0.951005 0.082011 0.121540
O O8 0.466005 0.802474 0.679244
O O9 0.977752 0.038899 0.651555
O O10 0.000000 0.000000 0.500000
O O11 0.283833 0.993143 0.280365
O O12 0.592570 0.586876 0.460378
O O13 0.049556 0.636842 0.557439
O O14 0.000000 0.500000 0.500000
O O15 0.685647 0.912573 0.275920
O O16 0.018816 0.516569 0.757615
O O17 0.195061 0.264586 0.201104
O O18 0.500000 0.000000 0.500000
#
# Coordination Sequence:
#
# PCOD9089412 Si02
#       8
#     2   2   2   2   2   2   2   2
#     4  11  24  42  67 100 141 181 225 280 337 408
#     4  11  24  44  68 100 138 181 227 276 347 402
#     4  12  27  43  66 103 138 179 227 287 339 408
#     4  10  22  43  68  97 140 177 222 278 344 404
#     4  10  19  37  71  97 127 178 223 277 339 396
#     4  12  22  41  71  98 129 184 225 274 337 408
#     4  12  25  42  69  98 137 177 229 280 344 405
#     4  10  21  42  67  99 131 182 225 274 344 399
#
# _framework density 24.567463
#
# number of rings (size 3 to 8) (size 9 to 14) (size 15 to 20)
#    0.000    1.000    5.000    3.750    1.750    3.000 
#    0.000    4.375    0.000    0.000    0.000    0.000 
#    0.000    0.000    0.000    0.000    0.000    0.000 
#
# Total GULP energy -89355.022113 kJ/mol
# GULP energy per Si atom -5584.688882 kJ/mol
# Density = 2.451155 g / cm^3
# Si number density = 24.567463 Si / 1000 Ang^3
#
#
#
# Elastic Constant Matrix: (Units=GPa)
#
#
# Indices 1 2 3 4 5 6 
#
# 1 103.3185 47.0561 30.8704 20.0529 30.4482 -29.5053
# 2 47.0561 151.2468 26.6186 4.8355 17.2741 -28.1878
# 3 30.8704 26.6186 82.1547 4.7519 23.3068 -10.6220
# 4 20.0529 4.8355 4.7519 38.8316 3.3883 4.5020
# 5 30.4482 17.2741 23.3068 3.3883 38.6671 -3.7694
# 6 -29.5053 -28.1878 -10.6220 4.5020 -3.7694 50.3883
#
#
#
# Elastic Compliance Matrix: (Units=1/GPa)
#
#
# Indices 1 2 3 4 5 6 
#
# 1 0.019089 -0.002299 -0.001407 -0.009518 -0.011388 0.009594
# 2 -0.002299 0.008171 -0.001167 0.000050 -0.000858 0.002910
# 3 -0.001407 -0.001167 0.015393 -0.000504 -0.007483 0.001254
# 4 -0.009518 0.000050 -0.000504 0.031295 0.004242 -0.008131
# 5 -0.011388 -0.000858 -0.007483 0.004242 0.038746 -0.006206
# 6 0.009594 0.002910 0.001254 -0.008131 -0.006206 0.027618
#
#
# Mechanical properties :
#
#
# Convention : Reuss Voigt Hill
#
# Bulk Modulus (GPa) = 30.38729 60.64558 45.51644
# Shear Modulus (GPa) = 31.05087 41.05572 36.05330
#
# Velocity S-wave (km/s) = 3.55900 4.09240 3.83498
# Velocity P-wave (km/s) = 5.41150 6.86070 6.17874
#
# Compressibility (1/GPa) = 0.03290850
#
# Stress axis : x y z
#
# Youngs Moduli (GPa) = 52.38624 122.38421 64.96497
#
# Poissons Ratio (x) = 0.28130 0.09138
# Poissons Ratio (y) = 0.12041 0.07582
# Poissons Ratio (z) = 0.07369 0.14283
#
# Static dielectric constant tensor:
#      x y z
#    x 2.094230 0.065550 -0.055950 
#    y 0.065550 1.948090 -0.029900 
#    z -0.055950 -0.029900 2.035600 
# 
# From -- ./inp_files/504063.got.cif
#   From: 2010.05.17/outbox.cif.g08.bks.cpg/sg2_253_cif.got.tgz:504063.got - 2010.06.03 11:33:40.
