data_PCOD9089003
_publ_section_title
;
Structure prediction by ZEFSAII (Michael W. Deem and Ramdas Pophale) SiO2 
 PCOD9089003
Probable space group: P -1
;
_chemical_formula_sum "Si O2"
_cell_formula_units_Z 15
_cell_length_a 9.419930
_cell_length_b 11.836692
_cell_length_c 11.034987
_cell_angle_alpha 56.250225
_cell_angle_beta 103.359621
_cell_angle_gamma 133.207696
_cell_volume 722.695229
_symmetry_space_group_name_H-M "P -1"
_symmetry_group_IT_number 2
_symmetry_cell_setting 'triclinic'
loop_
_space_group_symop_operation_xyz
x,y,z
-x,-y,-z
loop_
_atom_site_type_symbol
_atom_site_label
_atom_site_fract_x
_atom_site_fract_y
_atom_site_fract_z
Si Si1 0.595452 0.252693 0.464520
Si Si2 0.436844 0.081259 0.271293
Si Si3 0.605765 0.714378 0.389620
Si Si4 0.027538 0.231567 0.303389
Si Si5 0.732408 0.373744 0.764364
Si Si6 0.071674 0.981979 0.346827
Si Si7 0.805377 0.283411 0.060780
Si Si8 0.000000 0.500000 0.500000
O O1 0.531852 0.194082 0.348770
O O2 0.442765 0.245440 0.515497
O O3 0.821408 0.448948 0.407598
O O4 0.606157 0.106821 0.610061
O O5 0.601228 0.207425 0.125957
O O6 0.224802 0.021354 0.255794
O O7 0.500000 0.500000 0.500000
O O8 0.493025 0.735634 0.256058
O O9 0.841664 0.844512 0.341622
O O10 0.926798 0.117879 0.476944
O O11 0.864287 0.185578 0.204170
O O12 0.183759 0.446463 0.246882
O O13 0.127172 0.165634 0.299152
O O14 0.862459 0.448952 0.623432
O O15 0.766293 0.264575 0.921119
O O16 0.000000 0.500000 0.000000
#
# Coordination Sequence:
#
# PCOD9089003 Si02
#       8
#     2   2   2   2   2   2   2   1
#     4  10  21  36  61  92 122 159 209 257 300 357
#     4  11  21  37  61  91 121 159 211 258 298 358
#     4  11  22  37  59  89 124 161 202 253 313 362
#     4  10  19  37  64  92 121 159 202 255 308 359
#     4  10  21  39  62  88 123 161 205 251 307 373
#     4  11  21  35  62  94 123 159 206 257 304 359
#     4  10  21  39  63  86 125 161 204 255 310 366
#     4  10  20  36  62  92 116 154 208 254 298 358
#
# _framework density 20.755637
#
# number of rings (size 3 to 8) (size 9 to 14) (size 15 to 20)
#    0.000    1.600    1.333    6.400    1.867    0.000 
#    0.000    9.333    5.867    0.000    0.000    2.800 
#    0.000    0.000    0.000    0.000    0.000    0.000 
#
# Total GULP energy -83530.904183 kJ/mol
# GULP energy per Si atom -5568.726946 kJ/mol
# Density = 2.070840 g / cm^3
# Si number density = 20.755637 Si / 1000 Ang^3
#
#
#
# Elastic Constant Matrix: (Units=GPa)
#
#
# Indices 1 2 3 4 5 6 
#
# 1 130.2424 34.3990 36.8466 -3.1871 -11.3282 21.4757
# 2 34.3990 55.4704 10.9734 15.1985 7.9442 5.6266
# 3 36.8466 10.9734 61.2513 12.4739 12.0750 1.7902
# 4 -3.1871 15.1985 12.4739 23.4821 12.8238 3.0056
# 5 -11.3282 7.9442 12.0750 12.8238 28.5325 8.6940
# 6 21.4757 5.6266 1.7902 3.0056 8.6940 40.1884
#
#
#
# Elastic Compliance Matrix: (Units=1/GPa)
#
#
# Indices 1 2 3 4 5 6 
#
# 1 0.018471 -0.012830 -0.013772 0.011322 0.015178 -0.011591
# 2 -0.012830 0.031106 0.008258 -0.022026 -0.009102 0.005750
# 3 -0.013772 0.008258 0.029116 -0.015033 -0.016241 0.009544
# 4 0.011322 -0.022026 -0.015033 0.075422 -0.015512 -0.004582
# 5 0.015178 -0.009102 -0.016241 -0.015512 0.063123 -0.018608
# 6 -0.011591 0.005750 0.009544 -0.004582 -0.018608 0.034215
#
#
# Mechanical properties :
#
#
# Convention : Reuss Voigt Hill
#
# Bulk Modulus (GPa) = 23.80781 45.71135 34.75958
# Shear Modulus (GPa) = 16.54842 29.42361 22.98601
#
# Velocity S-wave (km/s) = 2.82671 3.76921 3.33146
# Velocity P-wave (km/s) = 4.70629 6.40422 5.61975
#
# Compressibility (1/GPa) = 0.04200302
#
# Stress axis : x y z
#
# Youngs Moduli (GPa) = 54.13778 32.14819 34.34547
#
# Poissons Ratio (x) = 0.41247 0.47301
# Poissons Ratio (y) = 0.69461 -0.28361
# Poissons Ratio (z) = 0.74560 -0.26546
#
# Static dielectric constant tensor:
#      x y z
#    x 1.749400 0.017390 0.031550 
#    y 0.017390 1.828390 -0.028840 
#    z 0.031550 -0.028840 1.761750 
# 
# From -- ./inp_files/389448.got.cif
#   From: 2010.05.17/outbox.cif.g08.bks.cpg/sg2_195_cif.got.tgz:389448.got - 2010.06.03 11:33:40.
