data_PCOD9089510
_publ_section_title
;
Structure prediction by ZEFSAII (Michael W. Deem and Ramdas Pophale) SiO2 
 PCOD9089510
Probable space group: P -1
;
_chemical_formula_sum "Si O2"
_cell_formula_units_Z 16
_cell_length_a 12.290055
_cell_length_b 9.397140
_cell_length_c 7.257283
_cell_angle_alpha 70.790046
_cell_angle_beta 90.999692
_cell_angle_gamma 69.503033
_cell_volume 732.990869
_symmetry_space_group_name_H-M "P -1"
_symmetry_group_IT_number 2
_symmetry_cell_setting 'triclinic'
loop_
_space_group_symop_operation_xyz
x,y,z
-x,-y,-z
loop_
_atom_site_type_symbol
_atom_site_label
_atom_site_fract_x
_atom_site_fract_y
_atom_site_fract_z
Si Si1 0.447852 0.044180 0.738434
Si Si2 0.133824 0.925248 0.593512
Si Si3 0.395428 0.552307 0.618873
Si Si4 0.857478 0.373804 0.458627
Si Si5 0.627754 0.726201 0.034114
Si Si6 0.047402 0.121713 0.843892
Si Si7 0.891268 0.611114 0.076269
Si Si8 0.645072 0.089075 0.528355
O O1 0.378686 0.036461 0.556629
O O2 0.366243 0.162477 0.837358
O O3 0.556462 0.102732 0.684995
O O4 0.518161 0.855756 0.870565
O O5 0.154639 0.735853 0.669004
O O6 0.215606 0.963445 0.427878
O O7 0.000000 0.000000 0.500000
O O8 0.143655 0.006984 0.751039
O O9 0.500000 0.500000 0.500000
O O10 0.276133 0.564518 0.501272
O O11 0.404127 0.422081 0.831263
O O12 0.386433 0.726925 0.620944
O O13 0.947303 0.258034 0.658226
O O14 0.892839 0.512269 0.308764
O O15 0.757574 0.658618 0.976762
O O16 0.092158 0.223621 0.941829
O O17 0.000000 0.000000 0.000000
O O18 0.000000 0.500000 0.000000
#
# Coordination Sequence:
#
# PCOD9089510 Si02
#       8
#     2   2   2   2   2   2   2   2
#     4  10  21  38  58  89 115 152 200 245 298 345
#     4   9  19  37  60  85 116 152 196 243 294 352
#     4  10  19  38  58  82 113 153 190 236 293 346
#     4   9  21  39  60  85 118 154 198 242 293 356
#     4  10  22  39  59  85 118 153 200 245 292 350
#     4  11  22  38  59  89 119 157 198 240 297 350
#     4  11  23  40  60  86 124 160 198 244 300 356
#     4  10  20  36  60  85 116 151 195 243 293 356
#
# _framework density 21.828375000000001
#
# number of rings (size 3 to 8) (size 9 to 14) (size 15 to 20)
#    0.000    2.000    1.250    1.875    0.000    5.500 
#    4.500    0.000    0.000    0.000    0.000    0.000 
#    0.000    0.000    0.000    0.000    0.000    0.000 
#
# Total GULP energy -89132.884343 kJ/mol
# GULP energy per Si atom -5570.805271 kJ/mol
# Density = 2.177869 g / cm^3
# Si number density = 21.828375 Si / 1000 Ang^3
#
#
#
# Elastic Constant Matrix: (Units=GPa)
#
#
# Indices 1 2 3 4 5 6 
#
# 1 99.6897 34.3069 18.3304 0.3553 -39.2152 -9.9046
# 2 34.3069 70.0026 14.8465 -4.0893 -16.4454 4.1545
# 3 18.3304 14.8465 42.5618 -22.1744 -14.1479 4.4141
# 4 0.3553 -4.0893 -22.1744 41.4535 1.9853 -6.6079
# 5 -39.2152 -16.4454 -14.1479 1.9853 28.3196 -1.2639
# 6 -9.9046 4.1545 4.4141 -6.6079 -1.2639 38.1044
#
#
#
# Elastic Compliance Matrix: (Units=1/GPa)
#
#
# Indices 1 2 3 4 5 6 
#
# 1 0.025572 -0.005444 0.000644 -0.000694 0.032982 0.008140
# 2 -0.005444 0.018121 -0.003643 -0.000651 0.001074 -0.003046
# 3 0.000644 -0.003643 0.041345 0.020890 0.017966 -0.000006
# 4 -0.000694 -0.000651 0.020890 0.035530 0.006778 0.003857
# 5 0.032982 0.001074 0.017966 0.006778 0.090579 0.010555
# 6 0.008140 -0.003046 -0.000006 0.003857 0.010555 0.029711
#
#
# Mechanical properties :
#
#
# Convention : Reuss Voigt Hill
#
# Bulk Modulus (GPa) = 14.67311 38.58020 26.62666
# Shear Modulus (GPa) = 17.82781 31.22684 24.52733
#
# Velocity S-wave (km/s) = 2.86094 3.78638 3.35572
# Velocity P-wave (km/s) = 4.20118 6.06863 5.21911
#
# Compressibility (1/GPa) = 0.06815186
#
# Stress axis : x y z
#
# Youngs Moduli (GPa) = 39.10564 55.18506 24.18665
#
# Poissons Ratio (x) = 0.30042 -0.01557
# Poissons Ratio (y) = 0.21289 0.08810
# Poissons Ratio (z) = -0.02517 0.20102
#
# Static dielectric constant tensor:
#      x y z
#    x 1.581550 -0.064380 -0.514160 
#    y -0.064380 1.860270 -0.026360 
#    z -0.514160 -0.026360 0.855100 
# 
# From -- ./inp_files/225493.got.cif
#   From: 2010.05.17/outbox.cif.g08.bks.cpg/sg2_113_cif.got.tgz:225493.got - 2010.06.03 11:33:40.
