data_PCOD9089980
_publ_section_title
;
Structure prediction by ZEFSAII (Michael W. Deem and Ramdas Pophale) SiO2 
 PCOD9089980
Probable space group: P -1
;
_chemical_formula_sum "Si O2"
_cell_formula_units_Z 10
_cell_length_a 11.837586
_cell_length_b 13.132755
_cell_length_c 5.097126
_cell_angle_alpha 126.137562
_cell_angle_beta 109.339743
_cell_angle_gamma 39.205036
_cell_volume 392.031775
_symmetry_space_group_name_H-M "P -1"
_symmetry_group_IT_number 2
_symmetry_cell_setting 'triclinic'
loop_
_space_group_symop_operation_xyz
x,y,z
-x,-y,-z
loop_
_atom_site_type_symbol
_atom_site_label
_atom_site_fract_x
_atom_site_fract_y
_atom_site_fract_z
Si Si1 0.066186 0.239884 0.655566
Si Si2 0.749166 0.333192 0.387822
Si Si3 0.820474 0.060594 0.378364
Si Si4 0.830857 0.623679 0.351151
Si Si5 0.426664 0.392395 0.822114
O O1 0.209358 0.207567 0.550067
O O2 0.957863 0.220285 0.381273
O O3 0.125910 0.126372 0.800363
O O4 0.910898 0.466616 0.950923
O O5 0.756591 0.181106 0.246589
O O6 0.664622 0.446735 0.225620
O O7 0.637580 0.493995 0.780401
O O8 0.642666 0.215071 0.663853
O O9 0.000000 0.000000 0.500000
O O10 0.657952 0.680060 0.399056
O O11 0.000000 0.500000 0.500000
#
# Coordination Sequence:
#
# PCOD9089980 Si02
#       5
#     2   2   2   2   2
#     4   9  20  39  60  89 121 157 200 249 299 350
#     4  10  21  41  63  89 123 159 198 242 302 363
#     4  10  22  41  60  91 122 155 200 255 297 353
#     4  10  19  38  63  84 120 161 202 242 298 361
#     4  11  22  40  65  89 120 164 198 241 302 360
#
# _framework density 25.508139
#
# number of rings (size 3 to 8) (size 9 to 14) (size 15 to 20)
#    0.000    2.000    2.000    1.200    0.000    0.800 
#    7.200    8.000    0.000    0.000    0.000    0.000 
#    0.000    0.000    0.000    0.000    0.000    0.000 
#
# Total GULP energy -55868.858042 kJ/mol
# GULP energy per Si atom -5586.885804 kJ/mol
# Density = 2.545008 g / cm^3
# Si number density = 25.508139 Si / 1000 Ang^3
#
#
#
# Elastic Constant Matrix: (Units=GPa)
#
#
# Indices 1 2 3 4 5 6 
#
# 1 232.0667 70.3423 26.8961 15.1253 0.7177 26.4071
# 2 70.3423 118.4437 23.9993 -7.0463 -3.2253 29.1623
# 3 26.8961 23.9993 58.6266 -5.1042 -12.6653 -4.5006
# 4 15.1253 -7.0463 -5.1042 39.2682 2.9928 -0.2798
# 5 0.7177 -3.2253 -12.6653 2.9928 28.1315 13.1351
# 6 26.4071 29.1623 -4.5006 -0.2798 13.1351 59.3415
#
#
#
# Elastic Compliance Matrix: (Units=1/GPa)
#
#
# Indices 1 2 3 4 5 6 
#
# 1 0.005742 -0.002930 -0.001884 -0.002955 -0.000471 -0.001168
# 2 -0.002930 0.012483 -0.003470 0.002705 0.002262 -0.005582
# 3 -0.001884 -0.003470 0.021441 0.002303 0.007925 0.002426
# 4 -0.002955 0.002705 0.002303 0.027533 -0.001831 0.000695
# 5 -0.000471 0.002262 0.007925 -0.001831 0.044305 -0.010117
# 6 -0.001168 -0.005582 0.002426 0.000695 -0.010117 0.022541
#
#
# Mechanical properties :
#
#
# Convention : Reuss Voigt Hill
#
# Bulk Modulus (GPa) = 43.29252 72.40138 57.84695
# Shear Modulus (GPa) = 31.58313 44.54154 38.06234
#
# Velocity S-wave (km/s) = 3.52257 4.18325 3.86705
# Velocity P-wave (km/s) = 5.79254 7.19570 6.53191
#
# Compressibility (1/GPa) = 0.02309868
#
# Stress axis : x y z
#
# Youngs Moduli (GPa) = 174.14260 80.11112 46.64009
#
# Poissons Ratio (x) = 0.23469 0.08786
# Poissons Ratio (y) = 0.51017 0.16185
# Poissons Ratio (z) = 0.32805 0.27800
#
# Static dielectric constant tensor:
#      x y z
#    x 2.150650 -0.001790 0.001430 
#    y -0.001790 2.022150 -0.012070 
#    z 0.001430 -0.012070 2.092400 
# 
# From -- ./inp_files/19365.got.cif
#   From: 2010.05.17/outbox.cif.g08.bks.cpg/sg2_10_cif.got.tgz:19365.got - 2010.06.03 11:33:40.
