data_PCOD9089950
_publ_section_title
;
Structure prediction by ZEFSAII (Michael W. Deem and Ramdas Pophale) SiO2 
 PCOD9089950
Probable space group: P -1
;
_chemical_formula_sum "Si O2"
_cell_formula_units_Z 13
_cell_length_a 6.515107
_cell_length_b 12.000885
_cell_length_c 13.377920
_cell_angle_alpha 124.358636
_cell_angle_beta 117.669846
_cell_angle_gamma 35.333806
_cell_volume 499.366251
_symmetry_space_group_name_H-M "P -1"
_symmetry_group_IT_number 2
_symmetry_cell_setting 'triclinic'
loop_
_space_group_symop_operation_xyz
x,y,z
-x,-y,-z
loop_
_atom_site_type_symbol
_atom_site_label
_atom_site_fract_x
_atom_site_fract_y
_atom_site_fract_z
Si Si1 0.146439 0.554633 0.811423
Si Si2 0.318085 0.308581 0.901847
Si Si3 0.500000 0.500000 0.500000
Si Si4 0.211363 0.073396 0.646614
Si Si5 0.198771 0.033861 0.997293
Si Si6 0.447383 0.324724 0.553649
Si Si7 0.661513 0.174187 0.261604
O O1 0.362284 0.405381 0.879034
O O2 0.315570 0.436147 0.685607
O O3 0.088063 0.739007 0.905832
O O4 0.750415 0.666591 0.780353
O O5 0.255264 0.204212 0.763629
O O6 0.609593 0.132129 0.956756
O O7 0.000000 0.500000 0.000000
O O8 0.286051 0.459282 0.484691
O O9 0.695306 0.312659 0.371262
O O10 0.837932 0.227314 0.582189
O O11 0.483816 0.866340 0.535034
O O12 0.218309 0.977085 0.698311
O O13 0.500000 0.000000 0.000000
O O14 0.113709 0.972433 0.856034
#
# Coordination Sequence:
#
# PCOD9089950 Si02
#       7
#     2   2   1   2   2   2   2
#     4  11  22  40  66  97 120 161 209 261 293 369
#     4  12  20  37  70  90 123 169 206 241 319 359
#     4  10  22  40  64  84 116 174 194 246 320 366
#     4  10  21  41  61  89 125 165 201 259 306 374
#     4  10  19  38  62  95 123 157 207 254 294 373
#     4  10  24  42  61  90 127 160 210 255 313 355
#     4  10  19  40  66  87 125 159 207 247 306 365
#
# _framework density 26.032997000000002
#
# number of rings (size 3 to 8) (size 9 to 14) (size 15 to 20)
#    0.000    1.538    6.154    0.923    0.000    3.077 
#    8.308    3.846    0.000    0.000    0.000    0.000 
#    0.000    0.000    0.000    0.000    0.000    0.000 
#
# Total GULP energy -72523.995737 kJ/mol
# GULP energy per Si atom -5578.768903 kJ/mol
# Density = 2.597374 g / cm^3
# Si number density = 26.032997 Si / 1000 Ang^3
#
#
#
# Elastic Constant Matrix: (Units=GPa)
#
#
# Indices 1 2 3 4 5 6 
#
# 1 61.1778 15.9977 40.7314 20.5060 -10.1617 18.9066
# 2 15.9977 98.0249 85.2608 17.4258 6.0788 11.1404
# 3 40.7314 85.2608 268.4601 54.2055 -8.2209 17.8359
# 4 20.5060 17.4258 54.2055 63.3940 5.9263 6.4127
# 5 -10.1617 6.0788 -8.2209 5.9263 65.4212 6.9518
# 6 18.9066 11.1404 17.8359 6.4127 6.9518 38.6787
#
#
#
# Elastic Compliance Matrix: (Units=1/GPa)
#
#
# Indices 1 2 3 4 5 6 
#
# 1 0.023472 -0.000812 -0.001291 -0.005676 0.005204 -0.010638
# 2 -0.000812 0.014475 -0.004538 0.000488 -0.001935 -0.001413
# 3 -0.001291 -0.004538 0.006189 -0.003701 0.001393 -0.000552
# 4 -0.005676 0.000488 -0.003701 0.020809 -0.003437 0.001508
# 5 0.005204 -0.001935 0.001393 -0.003437 0.017309 -0.005170
# 6 -0.010638 -0.001413 -0.000552 0.001508 -0.005170 0.032395
#
#
# Mechanical properties :
#
#
# Convention : Reuss Voigt Hill
#
# Bulk Modulus (GPa) = 32.41159 79.07142 55.74150
# Shear Modulus (GPa) = 36.17519 52.54364 44.35942
#
# Velocity S-wave (km/s) = 3.73176 4.49748 4.13239
# Velocity P-wave (km/s) = 5.57183 7.57689 6.65036
#
# Compressibility (1/GPa) = 0.03085316
#
# Stress axis : x y z
#
# Youngs Moduli (GPa) = 42.60341 69.08575 161.58723
#
# Poissons Ratio (x) = 0.05612 0.20864
# Poissons Ratio (y) = 0.03461 0.73324
# Poissons Ratio (z) = 0.05501 0.31349
#
# Static dielectric constant tensor:
#      x y z
#    x 2.277740 -0.078420 -0.065010 
#    y -0.078420 0.900080 0.277900 
#    z -0.065010 0.277900 1.997590 
# 
# From -- ./inp_files/431918.got.cif
#   From: 2010.05.17/outbox.cif.g08.bks.cpg/sg2_216_cif.got.tgz:431918.got - 2010.06.03 11:33:40.
