data_PCOD9089769
_publ_section_title
;
Structure prediction by ZEFSAII (Michael W. Deem and Ramdas Pophale) SiO2 
 PCOD9089769
Probable space group: P -1
;
_chemical_formula_sum "Si O2"
_cell_formula_units_Z 16
_cell_length_a 14.511717
_cell_length_b 8.785531
_cell_length_c 10.496913
_cell_angle_alpha 125.341458
_cell_angle_beta 104.080606
_cell_angle_gamma 46.521738
_cell_volume 764.605992
_symmetry_space_group_name_H-M "P -1"
_symmetry_group_IT_number 2
_symmetry_cell_setting 'triclinic'
loop_
_space_group_symop_operation_xyz
x,y,z
-x,-y,-z
loop_
_atom_site_type_symbol
_atom_site_label
_atom_site_fract_x
_atom_site_fract_y
_atom_site_fract_z
Si Si1 0.638329 0.609060 0.591439
Si Si2 0.406585 0.056952 0.881805
Si Si3 0.917568 0.937702 0.998862
Si Si4 0.878812 0.927107 0.717106
Si Si5 0.792359 0.431550 0.825367
Si Si6 0.250397 0.901379 0.736206
Si Si7 0.144017 0.445908 0.484597
Si Si8 0.004908 0.404666 0.763677
O O1 0.494904 0.887883 0.707239
O O2 0.710021 0.518240 0.709527
O O3 0.653358 0.381271 0.430820
O O4 0.726250 0.617379 0.532744
O O5 0.331738 0.967057 0.847628
O O6 0.500000 0.000000 0.000000
O O7 0.297487 0.367071 0.993287
O O8 0.824521 0.016794 0.885386
O O9 0.999148 0.633931 0.896960
O O10 0.835300 0.073084 0.165902
O O11 0.000000 0.000000 0.000000
O O12 0.825005 0.806670 0.585228
O O13 0.037316 0.682559 0.655763
O O14 0.851343 0.151992 0.742852
O O15 0.903514 0.432812 0.834219
O O16 0.146243 0.123238 0.704951
O O17 0.058195 0.547934 0.373680
#
# Coordination Sequence:
#
# PCOD9089769 Si02
#       8
#     2   2   2   2   2   2   2   2
#     4  10  21  38  62  84 113 154 201 240 285 334
#     4  10  23  39  61  82 114 155 203 247 281 330
#     4  11  22  32  52  89 127 150 177 229 300 361
#     4  10  20  33  57  87 120 155 186 226 301 349
#     4  10  19  38  61  89 115 151 195 243 285 350
#     4  12  22  37  62  88 118 151 195 246 287 346
#     4   9  19  37  57  88 123 150 185 240 290 358
#     4  10  20  34  59  89 117 146 190 242 299 333
#
# _framework density 20.925809999999998
#
# number of rings (size 3 to 8) (size 9 to 14) (size 15 to 20)
#    0.000    1.750    1.250    3.750    3.500    2.000 
#    0.000    0.625    0.000    0.750    0.000    0.000 
#    0.000    0.000    0.000    0.000    0.000    0.000 
#
# Total GULP energy -89252.258469 kJ/mol
# GULP energy per Si atom -5578.266154 kJ/mol
# Density = 2.087818 g / cm^3
# Si number density = 20.925810 Si / 1000 Ang^3
#
#
#
# Elastic Constant Matrix: (Units=GPa)
#
#
# Indices 1 2 3 4 5 6 
#
# 1 100.0701 35.5683 35.2402 20.7786 12.9087 19.2047
# 2 35.5683 42.1683 21.3556 15.3765 2.9912 20.6325
# 3 35.2402 21.3556 121.9739 26.8990 2.2910 10.5551
# 4 20.7786 15.3765 26.8990 39.4023 4.5607 9.6708
# 5 12.9087 2.9912 2.2910 4.5607 35.4080 1.8688
# 6 19.2047 20.6325 10.5551 9.6708 1.8688 31.3102
#
#
#
# Elastic Compliance Matrix: (Units=1/GPa)
#
#
# Indices 1 2 3 4 5 6 
#
# 1 0.015670 -0.010646 -0.002064 -0.001938 -0.004375 -0.001041
# 2 -0.010646 0.046272 -0.001847 -0.006122 0.002019 -0.021569
# 3 -0.002064 -0.001847 0.010247 -0.005453 0.000913 0.000659
# 4 -0.001938 -0.006122 -0.005453 0.033588 -0.002583 -0.003158
# 5 -0.004375 0.002019 0.000913 -0.002583 0.029937 0.000057
# 6 -0.001041 -0.021569 0.000659 -0.003158 0.000057 0.047540
#
#
# Mechanical properties :
#
#
# Convention : Reuss Voigt Hill
#
# Bulk Modulus (GPa) = 23.21502 49.83784 36.52643
# Shear Modulus (GPa) = 22.05297 32.69398 27.37347
#
# Velocity S-wave (km/s) = 3.24985 3.95698 3.62072
# Velocity P-wave (km/s) = 5.01997 6.68917 5.91376
#
# Compressibility (1/GPa) = 0.04307556
#
# Stress axis : x y z
#
# Youngs Moduli (GPa) = 63.81460 21.61116 97.59338
#
# Poissons Ratio (x) = 0.23008 0.20141
# Poissons Ratio (y) = 0.67938 0.18025
# Poissons Ratio (z) = 0.13170 0.03991
#
# Static dielectric constant tensor:
#      x y z
#    x 1.769720 -0.010210 0.009670 
#    y -0.010210 1.755530 -0.026190 
#    z 0.009670 -0.026190 1.830720 
# 
# From -- ./inp_files/209020.got.cif
#   From: 2010.05.17/outbox.cif.g08.bks.cpg/sg2_105_cif.got.tgz:209020.got - 2010.06.03 11:33:40.
