data_PCOD9089870
_publ_section_title
;
Structure prediction by ZEFSAII (Michael W. Deem and Ramdas Pophale) SiO2 
 PCOD9089870
Probable space group: P -1
;
_chemical_formula_sum "Si O2"
_cell_formula_units_Z 16
_cell_length_a 13.654261
_cell_length_b 10.948271
_cell_length_c 14.115781
_cell_angle_alpha 139.756601
_cell_angle_beta 139.597885
_cell_angle_gamma 32.087054
_cell_volume 682.441314
_symmetry_space_group_name_H-M "P -1"
_symmetry_group_IT_number 2
_symmetry_cell_setting 'triclinic'
loop_
_space_group_symop_operation_xyz
x,y,z
-x,-y,-z
loop_
_atom_site_type_symbol
_atom_site_label
_atom_site_fract_x
_atom_site_fract_y
_atom_site_fract_z
Si Si1 0.362857 0.970012 0.323003
Si Si2 0.790999 0.865611 0.960432
Si Si3 0.178781 0.082183 0.590470
Si Si4 0.602550 0.703119 0.166981
Si Si5 0.646790 0.264443 0.647953
Si Si6 0.192115 0.587839 0.018418
Si Si7 0.713902 0.892275 0.126995
Si Si8 0.232692 0.415327 0.372233
O O1 0.506317 0.745127 0.222998
O O2 0.274022 0.911900 0.304702
O O3 0.500000 0.000000 0.500000
O O4 0.227500 0.220706 0.312677
O O5 0.765645 0.672089 0.784693
O O6 0.585273 0.124725 0.937489
O O7 0.826033 0.846275 0.086267
O O8 0.972564 0.823075 0.018447
O O9 0.287854 0.179237 0.680238
O O10 0.277310 0.966760 0.697133
O O11 0.952861 0.311543 0.576695
O O12 0.216405 0.883210 0.427935
O O13 0.739772 0.447667 0.061121
O O14 0.659205 0.458410 0.818862
O O15 0.432752 0.361725 0.517000
O O16 0.189861 0.364862 0.903193
O O17 0.500000 0.000000 0.000000
#
# Coordination Sequence:
#
# PCOD9089870 Si02
#       8
#     2   2   2   2   2   2   2   2
#     4   9  18  37  63  85 116 160 195 237 282 353
#     4  11  19  39  66  85 110 154 206 236 284 356
#     4  11  20  36  62  86 117 153 201 237 284 352
#     4  10  19  38  62  87 116 150 206 240 274 355
#     4  11  23  42  54  90 129 147 190 254 295 331
#     4  11  24  36  62  89 121 151 191 250 299 331
#     4  11  20  39  66  84 110 161 201 236 285 357
#     4  10  20  37  64  87 112 162 198 234 283 355
#
# _framework density 23.445236999999999
#
# number of rings (size 3 to 8) (size 9 to 14) (size 15 to 20)
#    0.000    1.500    8.750    0.375    0.000    2.000 
#    0.000    5.625    0.000    0.000    0.000    0.000 
#    0.000    0.000    0.000    0.000    0.000    0.000 
#
# Total GULP energy -89277.959476 kJ/mol
# GULP energy per Si atom -5579.872467 kJ/mol
# Density = 2.339187 g / cm^3
# Si number density = 23.445237 Si / 1000 Ang^3
#
#
#
# Elastic Constant Matrix: (Units=GPa)
#
#
# Indices 1 2 3 4 5 6 
#
# 1 62.4132 18.5602 47.3428 4.4015 -35.5257 -16.5779
# 2 18.5602 49.2324 -0.6622 -5.7647 -5.9682 -28.9091
# 3 47.3428 -0.6622 126.0086 1.0599 -33.0874 -18.1338
# 4 4.4015 -5.7647 1.0599 21.6982 -6.0903 -2.6709
# 5 -35.5257 -5.9682 -33.0874 -6.0903 51.9376 -0.4517
# 6 -16.5779 -28.9091 -18.1338 -2.6709 -0.4517 33.3627
#
#
#
# Elastic Compliance Matrix: (Units=1/GPa)
#
#
# Indices 1 2 3 4 5 6 
#
# 1 0.037794 -0.007714 -0.007932 -0.002852 0.019645 0.007821
# 2 -0.007714 0.071251 0.018171 0.033661 0.019049 0.070736
# 3 -0.007932 0.018171 0.016251 0.010676 0.008455 0.021606
# 4 -0.002852 0.033661 0.010676 0.064547 0.016626 0.038946
# 5 0.019645 0.019049 0.008455 0.016626 0.042502 0.032770
# 6 0.007821 0.070736 0.021606 0.038946 0.032770 0.110459
#
#
# Mechanical properties :
#
#
# Convention : Reuss Voigt Hill
#
# Bulk Modulus (GPa) = 7.67189 40.90400 24.28795
# Shear Modulus (GPa) = 13.11637 32.89391 23.00514
#
# Velocity S-wave (km/s) = 2.36783 3.74974 3.13586
# Velocity P-wave (km/s) = 3.27946 6.01929 4.84700
#
# Compressibility (1/GPa) = 0.13034592
#
# Stress axis : x y z
#
# Youngs Moduli (GPa) = 26.45945 14.03486 61.53316
#
# Poissons Ratio (x) = 0.10827 0.48808
# Poissons Ratio (y) = 0.20412 -1.11813
# Poissons Ratio (z) = 0.20988 -0.25503
#
# Static dielectric constant tensor:
#      x y z
#    x 2.013540 0.040040 0.037240 
#    y 0.040040 1.926930 0.075070 
#    z 0.037240 0.075070 1.976820 
# 
# From -- ./inp_files/296712.got.cif
#   From: 2010.05.17/outbox.cif.g08.bks.cpg/sg2_149_cif.got.tgz:296712.got - 2010.06.03 11:33:40.
