data_PCOD9089850
_publ_section_title
;
Structure prediction by ZEFSAII (Michael W. Deem and Ramdas Pophale) SiO2 
 PCOD9089850
Probable space group: P -1
;
_chemical_formula_sum "Si O2"
_cell_formula_units_Z 16
_cell_length_a 7.923711
_cell_length_b 13.981720
_cell_length_c 14.344450
_cell_angle_alpha 143.268835
_cell_angle_beta 138.475714
_cell_angle_gamma 42.195714
_cell_volume 588.986468
_symmetry_space_group_name_H-M "P -1"
_symmetry_group_IT_number 2
_symmetry_cell_setting 'triclinic'
loop_
_space_group_symop_operation_xyz
x,y,z
-x,-y,-z
loop_
_atom_site_type_symbol
_atom_site_label
_atom_site_fract_x
_atom_site_fract_y
_atom_site_fract_z
Si Si1 0.322380 0.836059 0.874319
Si Si2 0.797268 0.619014 0.683343
Si Si3 0.048074 0.680820 0.177848
Si Si4 0.923903 0.798521 0.029589
Si Si5 0.233571 0.704315 0.469740
Si Si6 0.535775 0.099228 0.816358
Si Si7 0.862933 0.705479 0.575796
Si Si8 0.341194 0.186031 0.615730
O O1 0.637411 0.780066 0.931508
O O2 0.163410 0.711773 0.688028
O O3 0.304976 0.867504 0.002922
O O4 0.157636 0.008845 0.886341
O O5 0.990420 0.688036 0.877263
O O6 0.482822 0.750087 0.647756
O O7 0.771621 0.464960 0.612608
O O8 0.874472 0.598328 0.590993
O O9 0.772089 0.832883 0.216171
O O10 0.250708 0.667969 0.337616
O O11 0.118546 0.736905 0.150149
O O12 0.000000 0.500000 0.000000
O O13 0.938400 0.830685 0.473378
O O14 0.492831 0.213133 0.792942
O O15 0.678696 0.902371 0.689381
O O16 0.733105 0.692644 0.410975
O O17 0.500000 0.000000 0.500000
#
# Coordination Sequence:
#
# PCOD9089850 Si02
#       8
#     2   2   2   2   2   2   2   2
#     4  10  20  36  61  89 121 150 198 245 293 354
#     4  11  22  37  62  89 119 157 201 245 298 350
#     4  10  19  38  62  85 117 155 195 249 295 349
#     4  10  20  36  60  92 116 154 197 243 298 351
#     4  10  22  41  61  87 121 156 202 247 291 359
#     4   9  19  35  58  85 117 152 195 241 291 352
#     4  11  21  38  60  88 119 157 197 242 298 348
#     4   9  20  40  60  82 119 163 190 243 297 350
#
# _framework density 27.165308
#
# number of rings (size 3 to 8) (size 9 to 14) (size 15 to 20)
#    0.000    2.000    2.500    1.125    0.000    0.500 
#    6.750    3.125    0.000    4.500    0.000    0.000 
#    0.000    0.000    0.000    0.000    0.000    0.000 
#
# Total GULP energy -89511.174620 kJ/mol
# GULP energy per Si atom -5594.448414 kJ/mol
# Density = 2.710348 g / cm^3
# Si number density = 27.165308 Si / 1000 Ang^3
#
#
#
# Elastic Constant Matrix: (Units=GPa)
#
#
# Indices 1 2 3 4 5 6 
#
# 1 119.5479 37.7025 45.8519 -22.7372 -25.7965 40.6157
# 2 37.7025 115.6590 46.1296 -42.2699 -16.0245 57.3917
# 3 45.8519 46.1296 132.7250 -41.2660 -37.8906 38.1501
# 4 -22.7372 -42.2699 -41.2660 46.7043 19.2661 -14.5402
# 5 -25.7965 -16.0245 -37.8906 19.2661 56.0561 -18.8777
# 6 40.6157 57.3917 38.1501 -14.5402 -18.8777 58.1424
#
#
#
# Elastic Compliance Matrix: (Units=1/GPa)
#
#
# Indices 1 2 3 4 5 6 
#
# 1 0.011941 0.002453 -0.000829 0.004032 0.001290 -0.008792
# 2 0.002453 0.027634 0.002608 0.022603 -0.006078 -0.027023
# 3 -0.000829 0.002608 0.012926 0.009824 0.003396 -0.006918
# 4 0.004032 0.022603 0.009824 0.049517 -0.009571 -0.022298
# 5 0.001290 -0.006078 0.003396 -0.009571 0.025195 0.008657
# 6 -0.008792 -0.027023 -0.006918 -0.022298 0.008657 0.051789
#
#
# Mechanical properties :
#
#
# Convention : Reuss Voigt Hill
#
# Bulk Modulus (GPa) = 16.40251 69.69998 43.05124
# Shear Modulus (GPa) = 26.19702 48.06375 37.13038
#
# Velocity S-wave (km/s) = 3.10878 4.21088 3.70108
# Velocity P-wave (km/s) = 4.35168 7.02534 5.84348
#
# Compressibility (1/GPa) = 0.06096630
#
# Stress axis : x y z
#
# Youngs Moduli (GPa) = 83.74260 36.18701 77.36065
#
# Poissons Ratio (x) = -0.08877 0.06413
# Poissons Ratio (y) = -0.20542 -0.20177
# Poissons Ratio (z) = 0.06942 -0.09438
#
# Static dielectric constant tensor:
#      x y z
#    x 2.201730 -0.046550 -0.034020 
#    y -0.046550 2.198940 -0.020630 
#    z -0.034020 -0.020630 2.068650 
# 
# From -- ./inp_files/504550.got.cif
#   From: 2010.05.17/outbox.cif.g08.bks.cpg/sg2_253_cif.got.tgz:504550.got - 2010.06.03 11:33:40.
