data_PCOD9089917
_publ_section_title
;
Structure prediction by ZEFSAII (Michael W. Deem and Ramdas Pophale) SiO2 
 PCOD9089917
Probable space group: P -1
;
_chemical_formula_sum "Si O2"
_cell_formula_units_Z 16
_cell_length_a 11.263188
_cell_length_b 20.269662
_cell_length_c 14.471004
_cell_angle_alpha 149.826843
_cell_angle_beta 30.837175
_cell_angle_gamma 146.690280
_cell_volume 793.249540
_symmetry_space_group_name_H-M "P -1"
_symmetry_group_IT_number 2
_symmetry_cell_setting 'triclinic'
loop_
_space_group_symop_operation_xyz
x,y,z
-x,-y,-z
loop_
_atom_site_type_symbol
_atom_site_label
_atom_site_fract_x
_atom_site_fract_y
_atom_site_fract_z
Si Si1 0.697423 0.072518 0.373260
Si Si2 0.143885 0.646471 0.482615
Si Si3 0.282045 0.604672 0.627691
Si Si4 0.268257 0.429619 0.799516
Si Si5 0.946593 0.207772 0.098100
Si Si6 0.589037 0.561322 0.915016
Si Si7 0.718174 0.352640 0.106885
Si Si8 0.254594 0.080573 0.033878
O O1 0.688289 0.226497 0.541267
O O2 0.992233 0.104780 0.234095
O O3 0.500000 0.000000 0.500000
O O4 0.667922 0.973568 0.181204
O O5 0.097046 0.735150 0.704394
O O6 0.248504 0.537276 0.329851
O O7 0.901719 0.547954 0.470048
O O8 0.543044 0.645138 0.448800
O O9 0.153013 0.715386 0.820370
O O10 0.306928 0.601219 0.716321
O O11 0.386111 0.524488 0.926102
O O12 0.272857 0.529367 0.830949
O O13 0.985340 0.335302 0.897200
O O14 0.244631 0.275950 0.983778
O O15 0.807965 0.042984 0.997573
O O16 0.500000 0.500000 0.000000
O O17 0.482778 0.216002 0.075337
#
# Coordination Sequence:
#
# PCOD9089917 Si02
#       8
#     2   2   2   2   2   2   2   2
#     4  10  23  39  66  90 119 162 202 254 305 368
#     4  10  19  38  62  91 119 150 205 262 311 346
#     4  11  20  40  63  89 121 164 202 249 315 357
#     4  11  22  40  61  87 126 157 208 259 293 363
#     4  10  20  39  64  87 121 159 199 263 310 351
#     4  11  21  34  65  95 116 152 204 266 311 348
#     4  11  26  39  58  92 124 170 203 240 308 375
#     4  10  24  42  58  90 130 161 200 249 308 363
#
# _framework density 20.170197000000002
#
# number of rings (size 3 to 8) (size 9 to 14) (size 15 to 20)
#    0.000    1.500    2.500    3.375    5.250    3.500 
#    0.000    0.625    0.000    0.000    0.000    0.000 
#    0.000    0.000    0.000    0.000    0.000    0.000 
#
# Total GULP energy -89185.486461 kJ/mol
# GULP energy per Si atom -5574.092904 kJ/mol
# Density = 2.012429 g / cm^3
# Si number density = 20.170197 Si / 1000 Ang^3
#
#
#
# Elastic Constant Matrix: (Units=GPa)
#
#
# Indices 1 2 3 4 5 6 
#
# 1 106.9362 28.8946 17.7555 -12.2407 13.1975 8.1091
# 2 28.8946 109.0118 16.4332 -12.4502 4.6556 5.7675
# 3 17.7555 16.4332 53.0638 -19.7994 1.8575 8.7487
# 4 -12.2407 -12.4502 -19.7994 30.6771 -6.3201 -1.2373
# 5 13.1975 4.6556 1.8575 -6.3201 26.9676 -5.2171
# 6 8.1091 5.7675 8.7487 -1.2373 -5.2171 38.9134
#
#
#
# Elastic Compliance Matrix: (Units=1/GPa)
#
#
# Indices 1 2 3 4 5 6 
#
# 1 0.011221 -0.002196 -0.002139 0.001058 -0.005140 -0.002187
# 2 -0.002196 0.010283 -0.001482 0.002272 -0.000199 -0.000688
# 3 -0.002139 -0.001482 0.026674 0.016065 0.002359 -0.004505
# 4 0.001058 0.002272 0.016065 0.045990 0.008457 -0.001573
# 5 -0.005140 -0.000199 0.002359 0.008457 0.042721 0.006567
# 6 -0.002187 -0.000688 -0.004505 -0.001573 0.006567 0.028099
#
#
# Mechanical properties :
#
#
# Convention : Reuss Voigt Hill
#
# Bulk Modulus (GPa) = 27.36305 43.90872 35.63589
# Shear Modulus (GPa) = 26.48250 33.04018 29.76134
#
# Velocity S-wave (km/s) = 3.62740 4.05170 3.84540
# Velocity P-wave (km/s) = 5.58028 6.61095 6.11736
#
# Compressibility (1/GPa) = 0.03654563
#
# Stress axis : x y z
#
# Youngs Moduli (GPa) = 89.11657 97.24731 37.48913
#
# Poissons Ratio (x) = 0.21352 0.08020
# Poissons Ratio (y) = 0.19567 0.05555
# Poissons Ratio (z) = 0.19064 0.14409
#
# Static dielectric constant tensor:
#      x y z
#    x 1.718540 -0.009920 -0.056050 
#    y -0.009920 1.749460 -0.030440 
#    z -0.056050 -0.030440 1.768420 
# 
# From -- ./inp_files/426714.got.cif
#   From: 2010.05.17/outbox.cif.g08.bks.cpg/sg2_214_cif.got.tgz:426714.got - 2010.06.03 11:33:40.
