data_PCOD9089787
_publ_section_title
;
Structure prediction by ZEFSAII (Michael W. Deem and Ramdas Pophale) SiO2 
 PCOD9089787
Probable space group: P -1
;
_chemical_formula_sum "Si O2"
_cell_formula_units_Z 16
_cell_length_a 12.698019
_cell_length_b 11.368972
_cell_length_c 8.038736
_cell_angle_alpha 57.491927
_cell_angle_beta 130.126975
_cell_angle_gamma 132.792178
_cell_volume 640.809578
_symmetry_space_group_name_H-M "P -1"
_symmetry_group_IT_number 2
_symmetry_cell_setting 'triclinic'
loop_
_space_group_symop_operation_xyz
x,y,z
-x,-y,-z
loop_
_atom_site_type_symbol
_atom_site_label
_atom_site_fract_x
_atom_site_fract_y
_atom_site_fract_z
Si Si1 0.242730 0.176743 0.449113
Si Si2 0.643982 0.885923 0.728648
Si Si3 0.638619 0.493742 0.758852
Si Si4 0.168269 0.489879 0.532511
Si Si5 0.292256 0.794184 0.561564
Si Si6 0.139612 0.839050 0.658124
Si Si7 0.367251 0.319857 0.829067
Si Si8 0.824703 0.344205 0.904104
O O1 0.350879 0.181179 0.398716
O O2 0.213066 0.321171 0.255602
O O3 0.309573 0.218644 0.674110
O O4 0.112701 0.986655 0.479015
O O5 0.466724 0.838372 0.643127
O O6 0.749117 0.082680 0.673353
O O7 0.690312 0.798277 0.982462
O O8 0.500000 0.500000 0.500000
O O9 0.557907 0.435703 0.900285
O O10 0.694594 0.374931 0.838782
O O11 0.184582 0.596807 0.626595
O O12 0.301428 0.441685 0.684416
O O13 0.200802 0.635944 0.328561
O O14 0.010101 0.323813 0.446594
O O15 0.293646 0.862929 0.695591
O O16 0.170361 0.807349 0.901496
O O17 0.000000 0.500000 0.000000
#
# Coordination Sequence:
#
# PCOD9089787 Si02
#       8
#     2   2   2   2   2   2   2   2
#     4  10  22  41  63  94 131 162 211 276 307 386
#     4  10  23  41  63  98 122 166 210 263 331 374
#     4  10  19  38  61  90 126 161 212 262 315 376
#     4  11  22  40  62  91 125 168 216 261 312 390
#     4  10  22  42  61  89 132 157 213 270 311 385
#     4  10  23  41  61  91 126 173 213 257 327 378
#     4  11  23  40  66  95 126 166 213 261 326 376
#     4  10  21  38  59  93 123 164 215 251 314 383
#
# _framework density 24.968416999999999
#
# number of rings (size 3 to 8) (size 9 to 14) (size 15 to 20)
#    0.000    1.750    2.500    1.875    3.500    3.500 
#    0.000    6.875    0.000    0.000    0.000    0.000 
#    0.000    0.000    0.000    0.000    0.000    0.000 
#
# Total GULP energy -89165.732365 kJ/mol
# GULP energy per Si atom -5572.858273 kJ/mol
# Density = 2.491159 g / cm^3
# Si number density = 24.968417 Si / 1000 Ang^3
#
#
#
# Elastic Constant Matrix: (Units=GPa)
#
#
# Indices 1 2 3 4 5 6 
#
# 1 74.2689 3.9200 15.5969 7.9691 -5.6909 -9.4961
# 2 3.9200 124.2715 37.9561 -33.4036 -11.9486 -9.6809
# 3 15.5969 37.9561 75.5814 -20.4952 -22.0234 1.8372
# 4 7.9691 -33.4036 -20.4952 36.5228 6.8601 -4.6131
# 5 -5.6909 -11.9486 -22.0234 6.8601 29.0941 -0.7341
# 6 -9.4961 -9.6809 1.8372 -4.6131 -0.7341 23.6047
#
#
#
# Elastic Compliance Matrix: (Units=1/GPa)
#
#
# Indices 1 2 3 4 5 6 
#
# 1 0.015828 -0.000053 -0.004573 -0.005555 0.001065 0.005649
# 2 -0.000053 0.012526 -0.003610 0.010353 0.000148 0.007425
# 3 -0.004573 -0.003610 0.021534 0.007086 0.012171 -0.003233
# 4 -0.005555 0.010353 0.007086 0.043572 -0.001494 0.009929
# 5 0.001065 0.000148 0.012171 -0.001494 0.044222 0.000625
# 6 0.005649 0.007425 -0.003233 0.009929 0.000625 0.049893
#
#
# Mechanical properties :
#
#
# Convention : Reuss Voigt Hill
#
# Bulk Modulus (GPa) = 29.92546 43.22975 36.57761
# Shear Modulus (GPa) = 23.23586 32.28757 27.76171
#
# Velocity S-wave (km/s) = 3.05390 3.59992 3.33809
# Velocity P-wave (km/s) = 4.94433 5.88478 5.43493
#
# Compressibility (1/GPa) = 0.03341636
#
# Stress axis : x y z
#
# Youngs Moduli (GPa) = 63.18082 79.83096 46.43890
#
# Poissons Ratio (x) = 0.00425 0.21235
# Poissons Ratio (y) = 0.00337 0.16763
# Poissons Ratio (z) = 0.28890 0.28817
#
# Static dielectric constant tensor:
#      x y z
#    x 2.064250 -0.067280 -0.097560 
#    y -0.067280 2.299570 0.103750 
#    z -0.097560 0.103750 2.065640 
# 
# From -- ./inp_files/306588.got.cif
#   From: 2010.05.17/outbox.cif.g08.bks.cpg/sg2_154_cif.got.tgz:306588.got - 2010.06.03 11:33:40.
