data_PCOD9089116
_publ_section_title
;
Structure prediction by ZEFSAII (Michael W. Deem and Ramdas Pophale) SiO2 
 PCOD9089116
Probable space group: P -1
;
_chemical_formula_sum "Si O2"
_cell_formula_units_Z 16
_cell_length_a 23.113187
_cell_length_b 9.105929
_cell_length_c 11.661736
_cell_angle_alpha 126.585902
_cell_angle_beta 158.086965
_cell_angle_gamma 56.404352
_cell_volume 735.501302
_symmetry_space_group_name_H-M "P -1"
_symmetry_group_IT_number 2
_symmetry_cell_setting 'triclinic'
loop_
_space_group_symop_operation_xyz
x,y,z
-x,-y,-z
loop_
_atom_site_type_symbol
_atom_site_label
_atom_site_fract_x
_atom_site_fract_y
_atom_site_fract_z
Si Si1 0.144125 0.360761 0.703298
Si Si2 0.152079 0.119665 0.824273
Si Si3 0.756712 0.676503 0.483309
Si Si4 0.674993 0.653812 0.565739
Si Si5 0.535638 0.035397 0.713547
Si Si6 0.347898 0.893858 0.498430
Si Si7 0.451442 0.388540 0.144131
Si Si8 0.010447 0.804943 0.866136
O O1 0.142543 0.280309 0.789376
O O2 0.000000 0.500000 0.500000
O O3 0.092817 0.206459 0.443792
O O4 0.314861 0.425549 0.004012
O O5 0.211923 0.206133 0.094270
O O6 0.000000 0.000000 0.500000
O O7 0.283823 0.988111 0.952516
O O8 0.754219 0.587014 0.562871
O O9 0.927661 0.665910 0.736441
O O10 0.708595 0.894566 0.497165
O O11 0.637057 0.601802 0.135287
O O12 0.531372 0.765433 0.297572
O O13 0.596137 0.524544 0.454864
O O14 0.500000 0.000000 0.500000
O O15 0.441814 0.893194 0.552115
O O16 0.467936 0.806647 0.769214
O O17 0.190227 0.777328 0.155031
O O18 0.000000 0.000000 0.000000
#
# Coordination Sequence:
#
# PCOD9089116 Si02
#       8
#     2   2   2   2   2   2   2   2
#     4  11  26  41  64  97 134 168 210 274 328 374
#     4  11  25  41  62  90 127 166 220 253 323 392
#     4   9  20  41  62  91 126 168 215 259 325 381
#     4  10  23  40  64  89 128 168 205 267 325 377
#     4   9  20  39  58  87 118 169 209 249 312 383
#     4  10  19  37  65  92 123 165 221 261 311 381
#     4  11  22  40  64  94 128 162 220 265 322 382
#     4   9  21  39  67  89 127 170 215 260 320 376
#
# _framework density 21.753869999999999
#
# number of rings (size 3 to 8) (size 9 to 14) (size 15 to 20)
#    0.000    2.000    1.250    0.750   10.500    1.500 
#    0.000    0.625    0.000    0.000    0.000    0.000 
#    0.000    0.000    0.000    0.000    0.000    0.000 
#
# Total GULP energy -89140.806683 kJ/mol
# GULP energy per Si atom -5571.300418 kJ/mol
# Density = 2.170436 g / cm^3
# Si number density = 21.753870 Si / 1000 Ang^3
#
#
#
# Elastic Constant Matrix: (Units=GPa)
#
#
# Indices 1 2 3 4 5 6 
#
# 1 122.7625 17.3134 62.5735 6.3053 24.1430 26.2933
# 2 17.3134 44.7282 23.6613 -2.4901 9.4458 20.1380
# 3 62.5735 23.6613 112.7332 12.3282 34.0276 18.9102
# 4 6.3053 -2.4901 12.3282 29.8157 3.0730 -2.2826
# 5 24.1430 9.4458 34.0276 3.0730 42.9750 3.4251
# 6 26.2933 20.1380 18.9102 -2.2826 3.4251 22.0522
#
#
#
# Elastic Compliance Matrix: (Units=1/GPa)
#
#
# Indices 1 2 3 4 5 6 
#
# 1 0.014545 0.005830 -0.004892 -0.001529 -0.004035 -0.018003
# 2 0.005830 0.041858 -0.003182 0.001113 -0.006745 -0.041284
# 3 -0.004892 -0.003182 0.016173 -0.005362 -0.008629 -0.004345
# 4 -0.001529 0.001113 -0.005362 0.036702 0.001521 0.008967
# 5 -0.004035 -0.006745 -0.008629 0.001521 0.032670 0.013453
# 6 -0.018003 -0.041284 -0.004345 0.008967 0.013453 0.107078
#
#
# Mechanical properties :
#
#
# Convention : Reuss Voigt Hill
#
# Bulk Modulus (GPa) = 14.68677 54.14670 34.41674
# Shear Modulus (GPa) = 18.10215 30.74698 24.42457
#
# Velocity S-wave (km/s) = 2.88780 3.76360 3.35441
# Velocity P-wave (km/s) = 4.22909 6.62049 5.55500
#
# Compressibility (1/GPa) = 0.06808849
#
# Stress axis : x y z
#
# Youngs Moduli (GPa) = 68.75179 23.89043 61.82955
#
# Poissons Ratio (x) = -0.13929 0.30248
# Poissons Ratio (y) = -0.40085 0.19676
# Poissons Ratio (z) = 0.33634 0.07603
#
# Static dielectric constant tensor:
#      x y z
#    x 1.916280 -0.063620 0.063220 
#    y -0.063620 1.918980 -0.031800 
#    z 0.063220 -0.031800 1.826470 
# 
# From -- ./inp_files/399557.got.cif
#   From: 2010.05.17/outbox.cif.g08.bks.cpg/sg2_200_cif.got.tgz:399557.got - 2010.06.03 11:33:40.
