data_PCOD9089388
_publ_section_title
;
Structure prediction by ZEFSAII (Michael W. Deem and Ramdas Pophale) SiO2 
 PCOD9089388
Probable space group: P -1
;
_chemical_formula_sum "Si O2"
_cell_formula_units_Z 16
_cell_length_a 9.000233
_cell_length_b 21.438628
_cell_length_c 10.964493
_cell_angle_alpha 43.430150
_cell_angle_beta 126.143011
_cell_angle_gamma 150.916157
_cell_volume 700.588512
_symmetry_space_group_name_H-M "P -1"
_symmetry_group_IT_number 2
_symmetry_cell_setting 'triclinic'
loop_
_space_group_symop_operation_xyz
x,y,z
-x,-y,-z
loop_
_atom_site_type_symbol
_atom_site_label
_atom_site_fract_x
_atom_site_fract_y
_atom_site_fract_z
Si Si1 0.042020 0.363856 0.119080
Si Si2 0.018188 0.068562 0.290486
Si Si3 0.206373 0.071210 0.877932
Si Si4 0.455914 0.362725 0.621504
Si Si5 0.690836 0.525134 0.250461
Si Si6 0.684661 0.373390 0.258792
Si Si7 0.977699 0.656596 0.586642
Si Si8 0.257714 0.850051 0.948409
O O1 0.390424 0.462205 0.150917
O O2 0.916357 0.305852 0.276172
O O3 0.848058 0.227428 0.125452
O O4 0.073330 0.477834 0.921642
O O5 0.358330 0.245834 0.214590
O O6 0.778205 0.056636 0.197010
O O7 0.000000 0.000000 0.500000
O O8 0.969676 0.997946 0.238897
O O9 0.427288 0.245986 0.747771
O O10 0.409337 0.060539 0.993942
O O11 0.000000 0.000000 0.000000
O O12 0.633048 0.475899 0.431285
O O13 0.657383 0.473203 0.676769
O O14 0.124259 0.281943 0.582802
O O15 0.686551 0.432372 0.298844
O O16 0.002541 0.703558 0.122568
O O17 0.780833 0.307727 0.421319
#
# Coordination Sequence:
#
# PCOD9089388 Si02
#       8
#     2   2   2   2   2   2   2   2
#     4  10  19  37  69  99 126 158 214 291 333 390
#     4  12  27  45  69  97 137 186 230 275 320 417
#     4  12  30  46  67  95 144 192 226 270 327 419
#     4  10  23  44  61 100 137 172 222 274 353 391
#     4  10  19  39  73  99 129 163 218 302 333 396
#     4  11  20  37  63  97 123 164 223 267 340 383
#     4  10  23  35  67  96 130 165 207 292 338 394
#     4  11  23  46  72  98 131 177 233 278 346 391
#
# _framework density 22.83794
#
# number of rings (size 3 to 8) (size 9 to 14) (size 15 to 20)
#    0.000    1.250    2.500    3.750    5.250    5.000 
#    0.000    1.250    0.000    0.000    0.000    0.000 
#    0.000    0.000    0.000    0.000    0.000    0.000 
#
# Total GULP energy -89469.291293 kJ/mol
# GULP energy per Si atom -5591.830706 kJ/mol
# Density = 2.278596 g / cm^3
# Si number density = 22.837940 Si / 1000 Ang^3
#
#
#
# Elastic Constant Matrix: (Units=GPa)
#
#
# Indices 1 2 3 4 5 6 
#
# 1 95.4313 20.3041 48.5655 14.6786 18.9098 1.7959
# 2 20.3041 57.4484 26.0298 10.1552 -15.1211 -16.4628
# 3 48.5655 26.0298 75.3958 12.1759 3.1892 -10.2090
# 4 14.6786 10.1552 12.1759 24.4510 -1.5228 8.3382
# 5 18.9098 -15.1211 3.1892 -1.5228 34.6146 14.6728
# 6 1.7959 -16.4628 -10.2090 8.3382 14.6728 38.7374
#
#
#
# Elastic Compliance Matrix: (Units=1/GPa)
#
#
# Indices 1 2 3 4 5 6 
#
# 1 0.019700 -0.004683 -0.009457 -0.006177 -0.012490 0.000665
# 2 -0.004683 0.028116 -0.004574 -0.008825 0.011225 0.008608
# 3 -0.009457 -0.004574 0.022928 -0.006235 -0.002038 0.006651
# 4 -0.006177 -0.008825 -0.006235 0.059875 0.012337 -0.022668
# 5 -0.012490 0.011225 -0.002038 0.012337 0.048166 -0.016087
# 6 0.000665 0.008608 0.006651 -0.022668 -0.016087 0.042168
#
#
# Mechanical properties :
#
#
# Convention : Reuss Voigt Hill
#
# Bulk Modulus (GPa) = 30.01627 46.45270 38.23448
# Shear Modulus (GPa) = 18.55370 28.45233 23.50301
#
# Velocity S-wave (km/s) = 2.85337 3.53347 3.21147
# Velocity P-wave (km/s) = 4.90177 6.08535 5.52534
#
# Compressibility (1/GPa) = 0.03331526
#
# Stress axis : x y z
#
# Youngs Moduli (GPa) = 50.76028 35.56701 43.61446
#
# Poissons Ratio (x) = 0.16656 0.41247
# Poissons Ratio (y) = 0.23771 0.19951
# Poissons Ratio (z) = 0.48005 0.16270
#
# Static dielectric constant tensor:
#      x y z
#    x 1.876300 0.030850 0.006060 
#    y 0.030850 1.862810 0.016250 
#    z 0.006060 0.016250 1.886990 
# 
# From -- ./inp_files/405441.got.cif
#   From: 2010.05.17/outbox.cif.g08.bks.cpg/sg2_203_cif.got.tgz:405441.got - 2010.06.03 11:33:40.
