data_PCOD9089618
_publ_section_title
;
Structure prediction by ZEFSAII (Michael W. Deem and Ramdas Pophale) SiO2 
 PCOD9089618
Probable space group: P -1
;
_chemical_formula_sum "Si O2"
_cell_formula_units_Z 16
_cell_length_a 7.721003
_cell_length_b 25.638609
_cell_length_c 8.019170
_cell_angle_alpha 47.975832
_cell_angle_beta 84.800883
_cell_angle_gamma 121.357139
_cell_volume 726.958874
_symmetry_space_group_name_H-M "P -1"
_symmetry_group_IT_number 2
_symmetry_cell_setting 'triclinic'
loop_
_space_group_symop_operation_xyz
x,y,z
-x,-y,-z
loop_
_atom_site_type_symbol
_atom_site_label
_atom_site_fract_x
_atom_site_fract_y
_atom_site_fract_z
Si Si1 0.800894 0.421330 0.030449
Si Si2 0.021844 0.608262 0.408432
Si Si3 0.407060 0.076294 0.506512
Si Si4 0.199710 0.899749 0.148106
Si Si5 0.615904 0.163721 0.938525
Si Si6 0.981498 0.041356 0.747971
Si Si7 0.130779 0.701870 0.836157
Si Si8 0.549287 0.561646 0.026508
O O1 0.522125 0.380665 0.141987
O O2 0.982127 0.514628 0.664068
O O3 0.749355 0.322599 0.235266
O O4 0.000000 0.500000 0.000000
O O5 0.101360 0.653783 0.119133
O O6 0.709845 0.539630 0.613266
O O7 0.236173 0.716487 0.281563
O O8 0.538675 0.105211 0.251775
O O9 0.223772 0.090170 0.499182
O O10 0.219492 0.956029 0.861293
O O11 0.655976 0.168589 0.419543
O O12 0.180484 0.817189 0.241087
O O13 0.005029 0.875395 0.356929
O O14 0.500000 0.000000 0.000000
O O15 0.317061 0.069465 0.073913
O O16 0.000000 0.000000 0.000000
O O17 0.840152 0.637459 0.927035
O O18 0.500000 0.500000 0.000000
#
# Coordination Sequence:
#
# PCOD9089618 Si02
#       8
#     2   2   2   2   2   2   2   2
#     4  10  21  37  59  86 115 151 194 234 291 340
#     4   9  22  37  60  85 114 155 191 239 291 342
#     4  10  21  36  59  83 113 153 186 236 289 343
#     4   9  19  35  56  83 110 145 187 234 281 338
#     4  10  19  38  60  81 115 149 189 237 286 341
#     4   9  19  35  55  83 112 145 187 233 282 335
#     4  11  20  41  60  83 121 150 195 241 288 344
#     4  10  21  37  59  86 117 151 194 239 289 342
#
# _framework density 22.009497
#
# number of rings (size 3 to 8) (size 9 to 14) (size 15 to 20)
#    0.750    1.500    1.250    1.500    0.000    6.000 
#    6.750    2.500   11.000    0.000    0.000    0.000 
#    0.000    0.000    0.000    0.000    0.000    0.000 
#
# Total GULP energy -89188.162364 kJ/mol
# GULP energy per Si atom -5574.260148 kJ/mol
# Density = 2.195940 g / cm^3
# Si number density = 22.009497 Si / 1000 Ang^3
#
#
#
# Elastic Constant Matrix: (Units=GPa)
#
#
# Indices 1 2 3 4 5 6 
#
# 1 74.5837 49.2316 8.2115 -12.0410 -12.8521 2.9002
# 2 49.2316 127.0593 16.9450 -16.5427 -6.1476 4.2161
# 3 8.2115 16.9450 50.1995 -3.3818 1.8816 2.0048
# 4 -12.0410 -16.5427 -3.3818 40.3463 5.0901 -7.2458
# 5 -12.8521 -6.1476 1.8816 5.0901 28.6247 4.5229
# 6 2.9002 4.2161 2.0048 -7.2458 4.5229 34.0620
#
#
#
# Elastic Compliance Matrix: (Units=1/GPa)
#
#
# Indices 1 2 3 4 5 6 
#
# 1 0.019637 -0.006842 -0.001001 0.001807 0.007306 -0.001352
# 2 -0.006842 0.011116 -0.002433 0.002432 -0.000956 -0.000006
# 3 -0.001001 -0.002433 0.021059 0.000706 -0.002421 -0.000381
# 4 0.001807 0.002432 0.000706 0.028064 -0.004666 0.006093
# 5 0.007306 -0.000956 -0.002421 -0.004666 0.040053 -0.006672
# 6 -0.001352 -0.000006 -0.000381 0.006093 -0.006672 0.031679
#
#
# Mechanical properties :
#
#
# Convention : Reuss Voigt Hill
#
# Bulk Modulus (GPa) = 31.98886 44.51318 38.25102
# Shear Modulus (GPa) = 27.38523 32.43690 29.91106
#
# Velocity S-wave (km/s) = 3.53121 3.84313 3.69047
# Velocity P-wave (km/s) = 5.58495 6.32150 5.96460
#
# Compressibility (1/GPa) = 0.03126089
#
# Stress axis : x y z
#
# Youngs Moduli (GPa) = 50.92349 89.95736 47.48532
#
# Poissons Ratio (x) = 0.61547 0.04753
# Poissons Ratio (y) = 0.34841 0.11555
# Poissons Ratio (z) = 0.05097 0.21890
#
# Static dielectric constant tensor:
#      x y z
#    x 1.730880 0.003100 -0.067550 
#    y 0.003100 1.797440 0.064710 
#    z -0.067550 0.064710 1.791100 
# 
# From -- ./inp_files/227437.got.cif
#   From: 2010.05.17/outbox.cif.g08.bks.cpg/sg2_114_cif.got.tgz:227437.got - 2010.06.03 11:33:40.
