data_PCOD9089406
_publ_section_title
;
Structure prediction by ZEFSAII (Michael W. Deem and Ramdas Pophale) SiO2 
 PCOD9089406
Probable space group: P -1
;
_chemical_formula_sum "Si O2"
_cell_formula_units_Z 14
_cell_length_a 8.185750
_cell_length_b 14.186207
_cell_length_c 21.301262
_cell_angle_alpha 159.126079
_cell_angle_beta 136.895347
_cell_angle_gamma 40.043346
_cell_volume 565.866324
_symmetry_space_group_name_H-M "P -1"
_symmetry_group_IT_number 2
_symmetry_cell_setting 'triclinic'
loop_
_space_group_symop_operation_xyz
x,y,z
-x,-y,-z
loop_
_atom_site_type_symbol
_atom_site_label
_atom_site_fract_x
_atom_site_fract_y
_atom_site_fract_z
Si Si1 0.131639 0.767710 0.221094
Si Si2 0.753019 0.704841 0.399931
Si Si3 0.382543 0.137670 0.855167
Si Si4 0.274396 0.364715 0.285006
Si Si5 0.173219 0.680494 0.933117
Si Si6 0.880756 0.836820 0.059003
Si Si7 0.542104 0.398294 0.257425
O O1 0.878936 0.840089 0.238555
O O2 0.009227 0.852144 0.170566
O O3 0.283829 0.966852 0.406861
O O4 0.281113 0.436811 0.050560
O O5 0.710059 0.581417 0.243351
O O6 0.636152 0.591998 0.356718
O O7 0.068683 0.562644 0.398602
O O8 0.489103 0.856873 0.751917
O O9 0.637114 0.147869 0.901041
O O10 0.376530 0.503169 0.341204
O O11 0.105017 0.188323 0.096745
O O12 0.104099 0.622362 0.946861
O O13 0.787400 0.146987 0.195066
O O14 0.639388 0.735449 0.915565
#
# Coordination Sequence:
#
# PCOD9089406 Si02
#       7
#     2   2   2   2   2   2   2
#     4  11  25  39  61  96 133 169 201 261 334 382
#     4  10  23  40  62 102 126 160 212 271 323 353
#     4  11  21  42  64  87 130 178 208 251 318 395
#     4   9  20  39  68  98 113 163 228 260 298 374
#     4   9  21  38  68  92 119 165 223 264 295 378
#     4  10  20  38  62  99 121 164 220 256 312 383
#     4  10  19  37  71  88 128 164 215 268 301 375
#
# _framework density 24.740824
#
# number of rings (size 3 to 8) (size 9 to 14) (size 15 to 20)
#    0.857    1.143    1.429    2.143    4.000    2.286 
#    2.571    0.000    0.000    5.143    0.000    0.000 
#    0.000    0.000    0.000    0.000    0.000    0.000 
#
# Total GULP energy -77944.107614 kJ/mol
# GULP energy per Si atom -5567.436258 kJ/mol
# Density = 2.468451 g / cm^3
# Si number density = 24.740824 Si / 1000 Ang^3
#
#
#
# Elastic Constant Matrix: (Units=GPa)
#
#
# Indices 1 2 3 4 5 6 
#
# 1 145.5873 17.3802 25.8548 3.1953 24.5049 2.0427
# 2 17.3802 32.3924 -13.4950 1.2914 4.6031 18.1630
# 3 25.8548 -13.4950 74.3536 -8.6382 32.5463 10.3527
# 4 3.1953 1.2914 -8.6382 34.8522 -8.1620 9.5067
# 5 24.5049 4.6031 32.5463 -8.1620 34.0395 4.2470
# 6 2.0427 18.1630 10.3527 9.5067 4.2470 38.2519
#
#
#
# Elastic Compliance Matrix: (Units=1/GPa)
#
#
# Indices 1 2 3 4 5 6 
#
# 1 0.009798 -0.013035 -0.007333 -0.004786 -0.000538 0.008900
# 2 -0.013035 0.095460 0.048938 0.016306 -0.039224 -0.057573
# 3 -0.007333 0.048938 0.048973 0.010627 -0.041355 -0.034150
# 4 -0.004786 0.016306 0.010627 0.037160 0.002469 -0.019873
# 5 -0.000538 -0.039224 -0.041355 0.002469 0.072560 0.021176
# 6 0.008900 -0.057573 -0.034150 -0.019873 0.021176 0.064835
#
#
# Mechanical properties :
#
#
# Convention : Reuss Voigt Hill
#
# Bulk Modulus (GPa) = 4.73100 34.64592 19.68846
# Shear Modulus (GPa) = 14.61556 36.26827 25.44191
#
# Velocity S-wave (km/s) = 2.43316 3.83290 3.21025
# Velocity P-wave (km/s) = 3.13211 5.79846 4.66005
#
# Compressibility (1/GPa) = 0.21137177
#
# Stress axis : x y z
#
# Youngs Moduli (GPa) = 102.06438 10.47558 20.41952
#
# Poissons Ratio (x) = 0.13655 0.14973
# Poissons Ratio (y) = 1.33041 -0.99930
# Poissons Ratio (z) = 0.74841 -0.51266
#
# Static dielectric constant tensor:
#      x y z
#    x 2.243930 -0.064950 0.008210 
#    y -0.064950 2.020140 -0.007030 
#    z 0.008210 -0.007030 1.984590 
# 
# From -- ./inp_files/608142.got.cif
#   From: 2010.05.17/outbox.cif.g08.bks.cpg/sg2_305_cif.got.tgz:608142.got - 2010.06.03 11:33:40.
