data_PCOD9089492
_publ_section_title
;
Structure prediction by ZEFSAII (Michael W. Deem and Ramdas Pophale) SiO2 
 PCOD9089492
Probable space group: P -1
;
_chemical_formula_sum "Si O2"
_cell_formula_units_Z 16
_cell_length_a 22.453217
_cell_length_b 15.981786
_cell_length_c 7.328494
_cell_angle_alpha 59.063341
_cell_angle_beta 58.195588
_cell_angle_gamma 20.853263
_cell_volume 793.548715
_symmetry_space_group_name_H-M "P -1"
_symmetry_group_IT_number 2
_symmetry_cell_setting 'triclinic'
loop_
_space_group_symop_operation_xyz
x,y,z
-x,-y,-z
loop_
_atom_site_type_symbol
_atom_site_label
_atom_site_fract_x
_atom_site_fract_y
_atom_site_fract_z
Si Si1 0.168539 0.194717 0.765281
Si Si2 0.179537 0.299554 0.272321
Si Si3 0.517973 0.789850 0.213660
Si Si4 0.545427 0.743583 0.661089
Si Si5 0.354424 0.601497 0.151014
Si Si6 0.148332 0.017481 0.848329
Si Si7 0.521664 0.374753 0.494842
Si Si8 0.223045 0.451594 0.213965
O O1 0.161187 0.232849 0.517598
O O2 0.164018 0.083305 0.901113
O O3 0.995256 0.460095 0.821219
O O4 0.350754 0.000253 0.752155
O O5 0.205674 0.360436 0.291879
O O6 0.347528 0.068059 0.145542
O O7 0.546089 0.755957 0.426284
O O8 0.484335 0.720762 0.288275
O O9 0.675011 0.631230 0.027056
O O10 0.601557 0.560561 0.817200
O O11 0.666933 0.664038 0.656526
O O12 0.366647 0.569821 0.382540
O O13 0.500000 0.500000 0.000000
O O14 0.188635 0.861615 0.045821
O O15 0.962437 0.265925 0.788775
O O16 0.299975 0.845862 0.653486
O O17 0.500000 0.500000 0.500000
#
# Coordination Sequence:
#
# PCOD9089492 Si02
#       8
#     2   2   2   2   2   2   2   2
#     4   9  16  33  63  81 109 155 193 233 284 337
#     4   9  18  36  59  83 114 153 192 236 285 336
#     4  10  21  40  58  85 117 152 191 236 287 343
#     4  10  20  38  57  85 119 150 188 236 291 341
#     4   9  17  34  59  78 111 152 187 232 279 337
#     4  10  19  38  57  87 111 151 195 230 284 346
#     4  10  20  36  60  85 113 150 194 238 280 337
#     4  11  24  35  61  87 118 152 188 238 293 338
#
# _framework density 20.162592
#
# number of rings (size 3 to 8) (size 9 to 14) (size 15 to 20)
#    0.000    2.250    5.000    0.375    3.500    2.500 
#    2.250    1.875    0.000    0.000    0.000    0.000 
#    0.000    0.000    0.000    0.000    0.000    0.000 
#
# Total GULP energy -89190.887551 kJ/mol
# GULP energy per Si atom -5574.430472 kJ/mol
# Density = 2.011670 g / cm^3
# Si number density = 20.162592 Si / 1000 Ang^3
#
#
#
# Elastic Constant Matrix: (Units=GPa)
#
#
# Indices 1 2 3 4 5 6 
#
# 1 76.1043 38.2868 10.3480 -1.7963 -1.4896 2.1037
# 2 38.2868 117.6766 29.2408 -20.5116 -10.0232 -4.7067
# 3 10.3480 29.2408 42.4138 3.2867 -8.1472 7.7636
# 4 -1.7963 -20.5116 3.2867 19.9606 0.0437 -10.4042
# 5 -1.4896 -10.0232 -8.1472 0.0437 18.5314 -4.3376
# 6 2.1037 -4.7067 7.7636 -10.4042 -4.3376 28.4938
#
#
#
# Elastic Compliance Matrix: (Units=1/GPa)
#
#
# Indices 1 2 3 4 5 6 
#
# 1 0.017660 -0.010824 0.005604 -0.016323 -0.004572 -0.011275
# 2 -0.010824 0.029363 -0.025292 0.050368 0.011420 0.032670
# 3 0.005604 -0.025292 0.050823 -0.053649 0.000353 -0.037975
# 4 -0.016323 0.050368 -0.053649 0.152480 0.021431 0.083081
# 5 -0.004572 0.011420 0.000353 0.021431 0.064505 0.019773
# 6 -0.011275 0.032670 -0.037975 0.083081 0.019773 0.085017
#
#
# Mechanical properties :
#
#
# Convention : Reuss Voigt Hill
#
# Bulk Modulus (GPa) = 27.15759 43.54951 35.35355
# Shear Modulus (GPa) = 10.56756 23.95177 17.25967
#
# Velocity S-wave (km/s) = 2.29184 3.45038 2.92896
# Velocity P-wave (km/s) = 4.52791 6.12532 5.38616
#
# Compressibility (1/GPa) = 0.03682212
#
# Stress axis : x y z
#
# Youngs Moduli (GPa) = 56.62492 34.05649 19.67617
#
# Poissons Ratio (x) = 0.36862 -0.11026
# Poissons Ratio (y) = 0.61289 0.49765
# Poissons Ratio (z) = -0.31732 0.86136
#
# Static dielectric constant tensor:
#      x y z
#    x 1.726110 0.003080 0.004410 
#    y 0.003080 1.753870 -0.024730 
#    z 0.004410 -0.024730 1.754690 
# 
# From -- ./inp_files/203387.got.cif
#   From: 2010.05.17/outbox.cif.g08.bks.cpg/sg2_102_cif.got.tgz:203387.got - 2010.06.03 11:33:40.
