data_PCOD9089666
_publ_section_title
;
Structure prediction by ZEFSAII (Michael W. Deem and Ramdas Pophale) SiO2 
 PCOD9089666
Probable space group: P -1
;
_chemical_formula_sum "Si O2"
_cell_formula_units_Z 16
_cell_length_a 15.897337
_cell_length_b 9.067160
_cell_length_c 8.760526
_cell_angle_alpha 76.477215
_cell_angle_beta 97.559796
_cell_angle_gamma 44.392495
_cell_volume 771.686189
_symmetry_space_group_name_H-M "P -1"
_symmetry_group_IT_number 2
_symmetry_cell_setting 'triclinic'
loop_
_space_group_symop_operation_xyz
x,y,z
-x,-y,-z
loop_
_atom_site_type_symbol
_atom_site_label
_atom_site_fract_x
_atom_site_fract_y
_atom_site_fract_z
Si Si1 0.664182 0.576989 0.876237
Si Si2 0.999443 0.895937 0.179223
Si Si3 0.742849 0.140411 0.924257
Si Si4 0.326682 0.289943 0.722389
Si Si5 0.747898 0.677566 0.634937
Si Si6 0.550905 0.144364 0.975537
Si Si7 0.901890 0.288609 0.246333
Si Si8 0.902651 0.733988 0.810660
O O1 0.690072 0.385025 0.837719
O O2 0.649104 0.737303 0.719298
O O3 0.545117 0.714150 0.933844
O O4 0.794968 0.434603 0.044518
O O5 0.126534 0.612499 0.273801
O O6 0.986449 0.021981 0.292050
O O7 0.000000 0.000000 0.000000
O O8 0.863998 0.985177 0.112400
O O9 0.811391 0.971479 0.833822
O O10 0.626142 0.193061 0.941642
O O11 0.315204 0.233255 0.568314
O O12 0.193916 0.566777 0.666483
O O13 0.343266 0.133065 0.889580
O O14 0.455514 0.217162 0.799564
O O15 0.807957 0.752125 0.689921
O O16 0.999767 0.296277 0.258713
O O17 0.000000 0.500000 0.000000
#
# Coordination Sequence:
#
# PCOD9089666 Si02
#       8
#     2   2   2   2   2   2   2   2
#     4  10  20  39  66  87 116 159 208 246 295 359
#     4  11  18  37  65  93 121 157 191 242 306 369
#     4  11  20  37  66  92 116 158 206 240 295 374
#     4  10  25  41  60  88 124 159 205 254 297 350
#     4  12  23  37  63  96 121 154 203 255 298 352
#     4  10  23  43  63  82 118 170 205 245 302 354
#     4  10  19  38  60  88 123 163 193 233 309 366
#     4  12  19  32  61  93 120 158 193 242 299 365
#
# _framework density 20.733817999999999
#
# number of rings (size 3 to 8) (size 9 to 14) (size 15 to 20)
#    0.000    1.250    6.250    1.125    3.500    1.500 
#    0.000    0.625    8.250    0.000    0.000    0.000 
#    0.000    0.000    0.000    0.000    0.000    0.000 
#
# Total GULP energy -89400.485467 kJ/mol
# GULP energy per Si atom -5587.530342 kJ/mol
# Density = 2.068663 g / cm^3
# Si number density = 20.733818 Si / 1000 Ang^3
#
#
#
# Elastic Constant Matrix: (Units=GPa)
#
#
# Indices 1 2 3 4 5 6 
#
# 1 155.4528 19.8995 46.0250 9.5646 32.7989 3.7101
# 2 19.8995 105.1020 22.8589 14.3656 13.3178 3.8943
# 3 46.0250 22.8589 84.4689 14.5297 21.5383 2.7484
# 4 9.5646 14.3656 14.5297 25.7277 6.6393 2.1929
# 5 32.7989 13.3178 21.5383 6.6393 13.4076 7.6411
# 6 3.7101 3.8943 2.7484 2.1929 7.6411 30.3072
#
#
#
# Elastic Compliance Matrix: (Units=1/GPa)
#
#
# Indices 1 2 3 4 5 6 
#
# 1 0.016787 0.002362 0.004093 0.004309 -0.058842 0.011794
# 2 0.002362 0.011596 0.000821 -0.003233 -0.018790 0.003118
# 3 0.004093 0.000821 0.022794 -0.002232 -0.052444 0.010710
# 4 0.004309 -0.003233 -0.002232 0.047642 -0.029687 0.004128
# 5 -0.058842 -0.018790 -0.052444 -0.029687 0.381548 -0.079675
# 6 0.011794 0.003118 0.010710 0.004128 -0.079675 0.049969
#
#
# Mechanical properties :
#
#
# Convention : Reuss Voigt Hill
#
# Bulk Modulus (GPa) = 15.21407 58.06563 36.63985
# Shear Modulus (GPa) = 9.29894 30.97117 20.13506
#
# Velocity S-wave (km/s) = 2.12006 3.86910 3.11966
# Velocity P-wave (km/s) = 3.65330 6.93008 5.53952
#
# Compressibility (1/GPa) = 0.06572864
#
# Stress axis : x y z
#
# Youngs Moduli (GPa) = 59.56929 86.23486 43.87086
#
# Poissons Ratio (x) = -0.20364 -0.17956
# Poissons Ratio (y) = -0.14067 -0.03602
# Poissons Ratio (z) = -0.24382 -0.07080
#
# Static dielectric constant tensor:
#      x y z
#    x 1.722140 -0.011310 -0.009220 
#    y -0.011310 1.803070 0.004880 
#    z -0.009220 0.004880 1.751730 
# 
# From -- ./inp_files/244681.got.cif
#   From: 2010.05.17/outbox.cif.g08.bks.cpg/sg2_123_cif.got.tgz:244681.got - 2010.06.03 11:33:40.
