data_PCOD9089848
_publ_section_title
;
Structure prediction by ZEFSAII (Michael W. Deem and Ramdas Pophale) SiO2 
 PCOD9089848
Probable space group: P -1
;
_chemical_formula_sum "Si O2"
_cell_formula_units_Z 16
_cell_length_a 11.268568
_cell_length_b 19.703693
_cell_length_c 5.044474
_cell_angle_alpha 93.668059
_cell_angle_beta 116.283482
_cell_angle_gamma 48.878810
_cell_volume 712.414810
_symmetry_space_group_name_H-M "P -1"
_symmetry_group_IT_number 2
_symmetry_cell_setting 'triclinic'
loop_
_space_group_symop_operation_xyz
x,y,z
-x,-y,-z
loop_
_atom_site_type_symbol
_atom_site_label
_atom_site_fract_x
_atom_site_fract_y
_atom_site_fract_z
Si Si1 0.774829 0.274886 0.131549
Si Si2 0.487178 0.328767 0.463422
Si Si3 0.140056 0.872151 0.471955
Si Si4 0.470698 0.558822 0.735083
Si Si5 0.388370 0.895014 0.803142
Si Si6 0.613363 0.772059 0.484680
Si Si7 0.848218 0.812224 0.603545
Si Si8 0.778261 0.922651 0.042723
O O1 0.853163 0.172402 0.257963
O O2 0.728680 0.334650 0.365480
O O3 0.934341 0.256801 0.130442
O O4 0.581812 0.333829 0.803877
O O5 0.669340 0.223568 0.502432
O O6 0.415767 0.412816 0.215445
O O7 0.350052 0.318058 0.407919
O O8 0.185500 0.935450 0.553743
O O9 0.954409 0.910037 0.165589
O O10 0.500000 0.500000 0.500000
O O11 0.500000 0.500000 0.000000
O O12 0.506831 0.847978 0.641263
O O13 0.372225 0.974317 0.941509
O O14 0.481342 0.816144 0.106630
O O15 0.780526 0.760292 0.561532
O O16 0.825902 0.848577 0.292351
O O17 0.738424 0.900742 0.721339
#
# Coordination Sequence:
#
# PCOD9089848 Si02
#       8
#     2   2   2   2   2   2   2   2
#     4  10  19  38  62  85 115 150 189 233 276 345
#     4  10  19  38  62  85 115 150 189 233 276 345
#     4   9  19  34  55  86 112 152 200 244 291 336
#     4  11  22  36  63  98 119 138 175 232 289 340
#     4  11  22  36  56  81 116 155 201 254 298 332
#     4  11  24  39  57  83 115 158 201 237 286 342
#     4  11  24  39  57  83 115 158 201 237 286 342
#     4  11  22  36  56  81 116 155 201 254 298 332
#
# _framework density 22.458828
#
# number of rings (size 3 to 8) (size 9 to 14) (size 15 to 20)
#    0.000    1.500    3.750    1.875    0.000    3.000 
#    0.000    3.750    0.000    1.500    0.000    0.000 
#    0.000    0.000    0.000    0.000    0.000    0.000 
#
# Total GULP energy -89252.850580 kJ/mol
# GULP energy per Si atom -5578.303161 kJ/mol
# Density = 2.240771 g / cm^3
# Si number density = 22.458828 Si / 1000 Ang^3
#
#
#
# Elastic Constant Matrix: (Units=GPa)
#
#
# Indices 1 2 3 4 5 6 
#
# 1 140.9313 36.0533 22.5104 12.5020 3.1906 30.0313
# 2 36.0533 71.7768 7.6980 15.9866 -2.0792 13.7684
# 3 22.5104 7.6980 58.3149 16.5067 -16.4999 -4.0728
# 4 12.5020 15.9866 16.5067 27.5324 2.4738 -12.7820
# 5 3.1906 -2.0792 -16.4999 2.4738 36.9001 9.4761
# 6 30.0313 13.7684 -4.0728 -12.7820 9.4761 34.9250
#
#
#
# Elastic Compliance Matrix: (Units=1/GPa)
#
#
# Indices 1 2 3 4 5 6 
#
# 1 0.011524 -0.000009 -0.001282 -0.011810 0.003132 -0.015228
# 2 -0.000009 0.025172 0.007668 -0.031611 0.013173 -0.024165
# 3 -0.001282 0.007668 0.029790 -0.030443 0.019742 -0.014945
# 4 -0.011810 -0.031611 -0.030443 0.115564 -0.040715 0.072409
# 5 0.003132 0.013173 0.019742 -0.040715 0.047714 -0.033431
# 6 -0.015228 -0.024165 -0.014945 0.072409 -0.033431 0.085081
#
#
# Mechanical properties :
#
#
# Convention : Reuss Voigt Hill
#
# Bulk Modulus (GPa) = 12.61973 44.83848 28.72910
# Shear Modulus (GPa) = 15.22046 33.52225 24.37136
#
# Velocity S-wave (km/s) = 2.60610 3.86762 3.29775
# Velocity P-wave (km/s) = 3.83235 6.32082 5.22684
#
# Compressibility (1/GPa) = 0.07924102
#
# Stress axis : x y z
#
# Youngs Moduli (GPa) = 86.77297 39.72707 33.56806
#
# Poissons Ratio (x) = 0.00036 0.04302
# Poissons Ratio (y) = 0.00078 -0.25740
# Poissons Ratio (z) = 0.11121 -0.30462
#
# Static dielectric constant tensor:
#      x y z
#    x 1.890680 0.015320 -0.004450 
#    y 0.015320 1.918950 0.022070 
#    z -0.004450 0.022070 1.917800 
# 
# From -- ./inp_files/80752.got.cif
#   From: 2010.05.17/outbox.cif.g08.bks.cpg/sg2_41_cif.got.tgz:80752.got - 2010.06.03 11:33:40.
