data_PCOD9089990
_publ_section_title
;
Structure prediction by ZEFSAII (Michael W. Deem and Ramdas Pophale) SiO2 
 PCOD9089990
Probable space group: P -1
;
_chemical_formula_sum "Si O2"
_cell_formula_units_Z 16
_cell_length_a 13.931654
_cell_length_b 13.219742
_cell_length_c 9.131908
_cell_angle_alpha 88.478163
_cell_angle_beta 71.786854
_cell_angle_gamma 149.863306
_cell_volume 627.753305
_symmetry_space_group_name_H-M "P -1"
_symmetry_group_IT_number 2
_symmetry_cell_setting 'triclinic'
loop_
_space_group_symop_operation_xyz
x,y,z
-x,-y,-z
loop_
_atom_site_type_symbol
_atom_site_label
_atom_site_fract_x
_atom_site_fract_y
_atom_site_fract_z
Si Si1 0.576363 0.067776 0.632227
Si Si2 0.169802 0.004083 0.764719
Si Si3 0.141862 0.930617 0.302047
Si Si4 0.431665 0.504158 0.890909
Si Si5 0.014233 0.687069 0.646801
Si Si6 0.271858 0.961845 0.946118
Si Si7 0.174108 0.561702 0.961284
Si Si8 0.211263 0.223075 0.518540
O O1 0.470534 0.062967 0.779392
O O2 0.448053 0.847443 0.764468
O O3 0.500000 0.000000 0.500000
O O4 0.870462 0.309535 0.472563
O O5 0.190053 0.919935 0.660150
O O6 0.318328 0.111933 0.838151
O O7 0.868435 0.748319 0.949749
O O8 0.247477 0.166571 0.617176
O O9 0.390740 0.230650 0.207319
O O10 0.992466 0.740864 0.516438
O O11 0.923371 0.804126 0.344623
O O12 0.240160 0.943259 0.133539
O O13 0.526180 0.527443 0.705744
O O14 0.500000 0.500000 0.000000
O O15 0.819813 0.465971 0.871184
O O16 0.984413 0.667437 0.041549
O O17 0.000000 0.500000 0.000000
O O18 0.000000 0.000000 0.500000
#
# Coordination Sequence:
#
# PCOD9089990 Si02
#       8
#     2   2   2   2   2   2   2   2
#     4  11  20  41  68  89 122 166 214 252 301 377
#     4  11  20  38  66  92 113 168 214 246 303 377
#     4  11  23  41  61  95 132 159 204 268 314 356
#     4  11  20  38  67  87 120 167 213 249 299 381
#     4  11  21  36  68  89 122 169 211 248 309 369
#     4  10  24  40  62  93 131 158 206 268 313 350
#     4   9  19  38  63  86 114 161 212 246 294 375
#     4  10  19  38  63  85 125 158 208 248 303 376
#
# _framework density 25.487719999999999
#
# number of rings (size 3 to 8) (size 9 to 14) (size 15 to 20)
#    0.000    1.500    8.750    0.000    3.500    1.000 
#    0.000    5.625    0.000    0.000    0.000    0.000 
#    0.000    0.000    0.000    0.000    0.000    0.000 
#
# Total GULP energy -89321.186551 kJ/mol
# GULP energy per Si atom -5582.574159 kJ/mol
# Density = 2.542971 g / cm^3
# Si number density = 25.487720 Si / 1000 Ang^3
#
#
#
# Elastic Constant Matrix: (Units=GPa)
#
#
# Indices 1 2 3 4 5 6 
#
# 1 90.4103 11.0081 44.9148 -3.2834 18.2084 -15.0861
# 2 11.0081 61.9808 42.9466 10.8945 1.9662 -5.8966
# 3 44.9148 42.9466 183.7347 -1.3660 14.9644 -15.5479
# 4 -3.2834 10.8945 -1.3660 23.6144 -4.4269 -2.8540
# 5 18.2084 1.9662 14.9644 -4.4269 72.3158 -3.8830
# 6 -15.0861 -5.8966 -15.5479 -2.8540 -3.8830 17.8114
#
#
#
# Elastic Compliance Matrix: (Units=1/GPa)
#
#
# Indices 1 2 3 4 5 6 
#
# 1 0.014571 -0.000387 -0.002402 0.002819 -0.002450 0.010034
# 2 -0.000387 0.021484 -0.004928 -0.010156 -0.000043 0.000847
# 3 -0.002402 -0.004928 0.007513 0.002673 -0.000480 0.003216
# 4 0.002819 -0.010156 0.002673 0.049243 0.002554 0.009806
# 5 -0.002450 -0.000043 -0.000480 0.002554 0.014762 0.001119
# 6 0.010034 0.000847 0.003216 0.009806 0.001119 0.069546
#
#
# Mechanical properties :
#
#
# Convention : Reuss Voigt Hill
#
# Bulk Modulus (GPa) = 35.54225 59.31831 47.43028
# Shear Modulus (GPa) = 24.76106 38.56539 31.66322
#
# Velocity S-wave (km/s) = 3.12025 3.89407 3.52844
# Velocity P-wave (km/s) = 5.19196 6.59865 5.93712
#
# Compressibility (1/GPa) = 0.02813553
#
# Stress axis : x y z
#
# Youngs Moduli (GPa) = 68.62842 46.54590 133.10899
#
# Poissons Ratio (x) = 0.01800 0.31973
# Poissons Ratio (y) = 0.02654 0.65590
# Poissons Ratio (z) = 0.16484 0.22936
#
# Static dielectric constant tensor:
#      x y z
#    x 2.102890 -0.004990 0.019320 
#    y -0.004990 2.106530 -0.049470 
#    z 0.019320 -0.049470 2.053080 
# 
# From -- ./inp_files/313116.got.cif
#   From: 2010.05.17/outbox.cif.g08.bks.cpg/sg2_157_cif.got.tgz:313116.got - 2010.06.03 11:33:40.
