data_PCOD9089840
_publ_section_title
;
Structure prediction by ZEFSAII (Michael W. Deem and Ramdas Pophale) SiO2 
 PCOD9089840
Probable space group: P -1
;
_chemical_formula_sum "Si O2"
_cell_formula_units_Z 16
_cell_length_a 20.746333
_cell_length_b 21.564771
_cell_length_c 8.324742
_cell_angle_alpha 42.240958
_cell_angle_beta 134.992166
_cell_angle_gamma 161.595826
_cell_volume 790.291790
_symmetry_space_group_name_H-M "P -1"
_symmetry_group_IT_number 2
_symmetry_cell_setting 'triclinic'
loop_
_space_group_symop_operation_xyz
x,y,z
-x,-y,-z
loop_
_atom_site_type_symbol
_atom_site_label
_atom_site_fract_x
_atom_site_fract_y
_atom_site_fract_z
Si Si1 0.682447 0.998694 0.922482
Si Si2 0.085929 0.314803 0.625039
Si Si3 0.259426 0.289340 0.430867
Si Si4 0.431427 0.511792 0.985767
Si Si5 0.964290 0.742225 0.728653
Si Si6 0.238693 0.097282 0.957987
Si Si7 0.763847 0.369786 0.187561
Si Si8 0.987076 0.580473 0.497380
O O1 0.634495 0.866194 0.981915
O O2 0.468269 0.855096 0.844883
O O3 0.838433 0.207065 0.704381
O O4 0.812122 0.075743 0.151874
O O5 0.064027 0.400337 0.480428
O O6 0.031876 0.246336 0.477588
O O7 0.938739 0.119531 0.851512
O O8 0.311614 0.484366 0.738007
O O9 0.500000 0.500000 0.500000
O O10 0.283289 0.330948 0.204424
O O11 0.146392 0.271178 0.356257
O O12 0.170687 0.112489 0.679457
O O13 0.500000 0.500000 0.000000
O O14 0.624042 0.727274 0.005863
O O15 0.832297 0.532376 0.940034
O O16 0.916797 0.431031 0.270892
O O17 0.801376 0.400489 0.388336
#
# Coordination Sequence:
#
# PCOD9089840 Si02
#       8
#     2   2   2   2   2   2   2   2
#     4  10  20  37  59  85 112 149 197 235 285 352
#     4  11  23  39  55  86 121 148 195 241 283 340
#     4  10  20  38  58  82 112 150 194 231 280 345
#     4  11  23  38  60  87 115 149 191 237 287 342
#     4  11  24  37  56  85 118 155 195 237 284 347
#     4  10  22  38  60  82 114 156 188 238 288 331
#     4  10  19  38  62  84 112 151 191 241 297 338
#     4   9  20  37  62  87 111 146 194 244 290 346
#
# _framework density 20.245687
#
# number of rings (size 3 to 8) (size 9 to 14) (size 15 to 20)
#    0.000    1.750    0.000    6.375    0.000    6.500 
#    0.000    0.625    0.000    0.000    0.000    0.000 
#    0.000    0.000    0.000    0.000    0.000    0.000 
#
# Total GULP energy -89361.598359 kJ/mol
# GULP energy per Si atom -5585.099897 kJ/mol
# Density = 2.019961 g / cm^3
# Si number density = 20.245687 Si / 1000 Ang^3
#
#
#
# Elastic Constant Matrix: (Units=GPa)
#
#
# Indices 1 2 3 4 5 6 
#
# 1 128.0830 21.5634 41.5361 10.1514 8.7560 -7.8753
# 2 21.5634 73.6012 8.2161 23.6833 5.3106 -1.4080
# 3 41.5361 8.2161 75.9007 11.7188 16.3040 5.3919
# 4 10.1514 23.6833 11.7188 33.3228 -4.9667 7.3715
# 5 8.7560 5.3106 16.3040 -4.9667 30.4480 1.8561
# 6 -7.8753 -1.4080 5.3919 7.3715 1.8561 26.9460
#
#
#
# Elastic Compliance Matrix: (Units=1/GPa)
#
#
# Indices 1 2 3 4 5 6 
#
# 1 0.010285 -0.002137 -0.005627 -0.000544 0.000086 0.004163
# 2 -0.002137 0.019887 0.002827 -0.016666 -0.007386 0.004917
# 3 -0.005627 0.002827 0.019675 -0.008254 -0.010608 -0.002445
# 4 -0.000544 -0.016666 -0.008254 0.050574 0.016608 -0.014357
# 5 0.000086 -0.007386 -0.010608 0.016608 0.042845 -0.005733
# 6 0.004163 0.004917 -0.002445 -0.014357 -0.005733 0.043397
#
#
# Mechanical properties :
#
#
# Convention : Reuss Voigt Hill
#
# Bulk Modulus (GPa) = 25.01656 46.69069 35.85362
# Shear Modulus (GPa) = 23.82506 31.89465 27.85986
#
# Velocity S-wave (km/s) = 3.43417 3.97341 3.71359
# Velocity P-wave (km/s) = 5.30170 6.64551 6.01127
#
# Compressibility (1/GPa) = 0.03997352
#
# Stress axis : x y z
#
# Youngs Moduli (GPa) = 97.22594 50.28427 50.82468
#
# Poissons Ratio (x) = 0.10744 0.28601
# Poissons Ratio (y) = 0.20774 -0.14369
# Poissons Ratio (z) = 0.54714 -0.14216
#
# Static dielectric constant tensor:
#      x y z
#    x 1.701670 0.013480 0.005770 
#    y 0.013480 1.779380 0.014060 
#    z 0.005770 0.014060 1.728450 
# 
# From -- ./inp_files/315574.got.cif
#   From: 2010.05.17/outbox.cif.g08.bks.cpg/sg2_158_cif.got.tgz:315574.got - 2010.06.03 11:33:40.
