data_PCOD9089574
_publ_section_title
;
Structure prediction by ZEFSAII (Michael W. Deem and Ramdas Pophale) SiO2 
 PCOD9089574
Probable space group: P -1
;
_chemical_formula_sum "Si O2"
_cell_formula_units_Z 16
_cell_length_a 11.934455
_cell_length_b 9.444971
_cell_length_c 9.954865
_cell_angle_alpha 125.077815
_cell_angle_beta 88.105314
_cell_angle_gamma 128.451445
_cell_volume 620.291158
_symmetry_space_group_name_H-M "P -1"
_symmetry_group_IT_number 2
_symmetry_cell_setting 'triclinic'
loop_
_space_group_symop_operation_xyz
x,y,z
-x,-y,-z
loop_
_atom_site_type_symbol
_atom_site_label
_atom_site_fract_x
_atom_site_fract_y
_atom_site_fract_z
Si Si1 0.003226 0.755650 0.260110
Si Si2 0.165986 0.923673 0.081787
Si Si3 0.266625 0.317648 0.667686
Si Si4 0.524163 0.273893 0.335077
Si Si5 0.307723 0.898097 0.806296
Si Si6 0.544249 0.755634 0.233463
Si Si7 0.176285 0.691457 0.420087
Si Si8 0.250562 0.393269 0.235999
O O1 0.021641 0.726719 0.088014
O O2 0.066614 0.685198 0.324784
O O3 0.821780 0.615732 0.230318
O O4 0.125132 0.059139 0.444485
O O5 0.330101 0.078484 0.252387
O O6 0.161077 0.113557 0.126842
O O7 0.218170 0.862010 0.921816
O O8 0.414481 0.530775 0.678191
O O9 0.332202 0.258406 0.741878
O O10 0.587862 0.158844 0.222231
O O11 0.621148 0.426920 0.549510
O O12 0.172349 0.721965 0.596847
O O13 0.435497 0.180432 0.889357
O O14 0.363058 0.513068 0.163943
O O15 0.631893 0.021489 0.449438
O O16 0.149586 0.458021 0.269688
#
# Coordination Sequence:
#
# PCOD9089574 Si02
#       8
#     2   2   2   2   2   2   2   2
#     4  10  21  36  64  83 115 147 201 230 284 331
#     4  12  22  36  57  93 112 149 194 242 275 340
#     4  10  19  38  59  88 108 154 192 241 272 341
#     4  11  20  37  59  87 115 150 193 239 280 335
#     4   9  23  36  54  84 126 149 179 237 302 332
#     4   9  18  35  55  81 119 150 180 230 296 331
#     4   8  19  37  55  84 115 154 177 238 288 340
#     4  11  19  32  60  88 113 143 195 237 279 331
#
# _framework density 25.794339999999998
#
# number of rings (size 3 to 8) (size 9 to 14) (size 15 to 20)
#    0.750    1.250    2.500    2.625    1.750    0.500 
#    0.000    5.000    0.000    0.000    0.000    0.000 
#    0.000    0.000    0.000    0.000    0.000    0.000 
#
# Total GULP energy -89571.063252 kJ/mol
# GULP energy per Si atom -5598.191453 kJ/mol
# Density = 2.573563 g / cm^3
# Si number density = 25.794340 Si / 1000 Ang^3
#
#
#
# Elastic Constant Matrix: (Units=GPa)
#
#
# Indices 1 2 3 4 5 6 
#
# 1 111.8680 19.7461 27.8144 -16.4924 -28.9981 -12.2102
# 2 19.7461 49.6633 24.6781 1.3526 -8.6915 -12.3740
# 3 27.8144 24.6781 100.9392 -20.2747 -19.3563 -9.0639
# 4 -16.4924 1.3526 -20.2747 38.0361 0.7685 -8.3184
# 5 -28.9981 -8.6915 -19.3563 0.7685 35.2863 2.5952
# 6 -12.2102 -12.3740 -9.0639 -8.3184 2.5952 41.3919
#
#
#
# Elastic Compliance Matrix: (Units=1/GPa)
#
#
# Indices 1 2 3 4 5 6 
#
# 1 0.013418 -0.003144 0.000801 0.007016 0.010248 0.003961
# 2 -0.003144 0.025572 -0.005799 -0.004375 0.000294 0.004550
# 3 0.000801 -0.005799 0.014424 0.008762 0.006731 0.003000
# 4 0.007016 -0.004375 0.008762 0.036058 0.008017 0.009425
# 5 0.010248 0.000294 0.006731 0.008017 0.040081 0.003683
# 6 0.003961 0.004550 0.003000 0.009425 0.003683 0.029008
#
#
# Mechanical properties :
#
#
# Convention : Reuss Voigt Hill
#
# Bulk Modulus (GPa) = 26.93225 45.21642 36.07433
# Shear Modulus (GPa) = 26.70642 35.62499 31.16571
#
# Velocity S-wave (km/s) = 3.22119 3.72037 3.47974
# Velocity P-wave (km/s) = 4.92936 6.00188 5.49186
#
# Compressibility (1/GPa) = 0.03713021
#
# Stress axis : x y z
#
# Youngs Moduli (GPa) = 74.52698 39.10597 69.32817
#
# Poissons Ratio (x) = 0.12294 -0.05556
# Poissons Ratio (y) = 0.23430 0.40205
# Poissons Ratio (z) = -0.05972 0.22679
#
# Static dielectric constant tensor:
#      x y z
#    x 1.977580 -0.001100 0.032110 
#    y -0.001100 2.006450 0.057010 
#    z 0.032110 0.057010 2.145870 
# 
# From -- ./inp_files/420006.got.cif
#   From: 2010.05.17/outbox.cif.g08.bks.cpg/sg2_211_cif.got.tgz:420006.got - 2010.06.03 11:33:40.
