data_PCOD9089360
_publ_section_title
;
Structure prediction by ZEFSAII (Michael W. Deem and Ramdas Pophale) SiO2 
 PCOD9089360
Probable space group: P -1
;
_chemical_formula_sum "Si O2"
_cell_formula_units_Z 16
_cell_length_a 9.782061
_cell_length_b 8.103756
_cell_length_c 13.961176
_cell_angle_alpha 111.453845
_cell_angle_beta 135.597073
_cell_angle_gamma 86.064682
_cell_volume 688.451276
_symmetry_space_group_name_H-M "P -1"
_symmetry_group_IT_number 2
_symmetry_cell_setting 'triclinic'
loop_
_space_group_symop_operation_xyz
x,y,z
-x,-y,-z
loop_
_atom_site_type_symbol
_atom_site_label
_atom_site_fract_x
_atom_site_fract_y
_atom_site_fract_z
Si Si1 0.222340 0.446238 0.334427
Si Si2 0.014531 0.799378 0.990678
Si Si3 0.802184 0.739380 0.328376
Si Si4 0.419150 0.413261 0.244612
Si Si5 0.812680 0.143472 0.594098
Si Si6 0.210610 0.626752 0.684935
Si Si7 0.068246 0.173331 0.365707
Si Si8 0.531969 0.183974 0.734268
O O1 0.397661 0.405525 0.347214
O O2 0.221403 0.657408 0.367018
O O3 0.195052 0.345504 0.401282
O O4 0.022048 0.326018 0.150051
O O5 0.236636 0.813426 0.141610
O O6 0.810798 0.697565 0.928309
O O7 0.000000 0.000000 0.000000
O O8 0.748384 0.517152 0.248585
O O9 0.864515 0.798031 0.482770
O O10 0.599838 0.805570 0.233092
O O11 0.000801 0.818752 0.380900
O O12 0.596936 0.332168 0.280307
O O13 0.460046 0.624213 0.275410
O O14 0.402059 0.997388 0.576892
O O15 0.891008 0.018365 0.684835
O O16 0.000000 0.500000 0.500000
O O17 0.157163 0.802756 0.738313
#
# Coordination Sequence:
#
# PCOD9089360 Si02
#       8
#     2   2   2   2   2   2   2   2
#     4  10  24  43  64 101 144 161 220 286 335 382
#     4  10  24  45  64  90 133 186 224 260 334 404
#     4   9  19  37  66  97 131 177 217 270 334 390
#     4   9  22  41  66  93 130 182 219 269 332 389
#     4  11  22  40  70 104 133 174 217 281 339 380
#     4   9  17  35  64  93 127 169 218 266 322 396
#     4  10  19  37  68  97 138 167 218 271 335 391
#     4  10  20  41  67  94 128 179 233 259 317 422
#
# _framework density 23.240568
#
# number of rings (size 3 to 8) (size 9 to 14) (size 15 to 20)
#    0.750    1.500    1.250    2.625    0.000    4.500 
#    4.500   15.000    0.000    5.250    0.000    0.000 
#    0.000    0.000    0.000    0.000    0.000    0.000 
#
# Total GULP energy -89161.584734 kJ/mol
# GULP energy per Si atom -5572.599046 kJ/mol
# Density = 2.318767 g / cm^3
# Si number density = 23.240568 Si / 1000 Ang^3
#
#
#
# Elastic Constant Matrix: (Units=GPa)
#
#
# Indices 1 2 3 4 5 6 
#
# 1 147.5551 40.2137 39.4416 -7.8704 45.8401 -6.5358
# 2 40.2137 173.0578 31.5352 12.1903 12.9286 -25.1446
# 3 39.4416 31.5352 58.2110 9.2223 31.1409 -16.1045
# 4 -7.8704 12.1903 9.2223 29.9815 -1.6038 12.1617
# 5 45.8401 12.9286 31.1409 -1.6038 28.6424 -7.8390
# 6 -6.5358 -25.1446 -16.1045 12.1617 -7.8390 28.6590
#
#
#
# Elastic Compliance Matrix: (Units=1/GPa)
#
#
# Indices 1 2 3 4 5 6 
#
# 1 0.016248 -0.003925 0.004270 0.006329 -0.030835 -0.008459
# 2 -0.003925 0.008702 -0.000072 -0.009135 0.005204 0.011999
# 3 0.004270 -0.000072 0.073244 -0.041003 -0.078318 0.038047
# 4 0.006329 -0.009135 -0.041003 0.074578 0.028086 -0.053578
# 5 -0.030835 0.005204 -0.078318 0.028086 0.165006 -0.013260
# 6 -0.008459 0.011999 0.038047 -0.053578 -0.013260 0.083981
#
#
# Mechanical properties :
#
#
# Convention : Reuss Voigt Hill
#
# Bulk Modulus (GPa) = 10.12761 66.80055 38.46408
# Shear Modulus (GPa) = 11.01021 35.29882 23.15451
#
# Velocity S-wave (km/s) = 2.17894 3.90146 3.15984
# Velocity P-wave (km/s) = 3.27071 7.00719 5.46801
#
# Compressibility (1/GPa) = 0.09873997
#
# Stress axis : x y z
#
# Youngs Moduli (GPa) = 61.54784 114.92029 13.65304
#
# Poissons Ratio (x) = 0.45105 -0.05830
# Poissons Ratio (y) = 0.24157 0.00098
# Poissons Ratio (z) = -0.26282 0.00826
#
# Static dielectric constant tensor:
#      x y z
#    x 1.991200 -0.040680 0.025350 
#    y -0.040680 1.969060 -0.042890 
#    z 0.025350 -0.042890 2.038930 
# 
# From -- ./inp_files/495506.got.cif
#   From: 2010.05.17/outbox.cif.g08.bks.cpg/sg2_248_cif.got.tgz:495506.got - 2010.06.03 11:33:40.
