data_PCOD9089887
_publ_section_title
;
Structure prediction by ZEFSAII (Michael W. Deem and Ramdas Pophale) SiO2 
 PCOD9089887
Probable space group: P -1
;
_chemical_formula_sum "Si O2"
_cell_formula_units_Z 14
_cell_length_a 16.038662
_cell_length_b 16.005732
_cell_length_c 9.120079
_cell_angle_alpha 34.852600
_cell_angle_beta 35.813127
_cell_angle_gamma 29.892038
_cell_volume 624.785231
_symmetry_space_group_name_H-M "P -1"
_symmetry_group_IT_number 2
_symmetry_cell_setting 'triclinic'
loop_
_space_group_symop_operation_xyz
x,y,z
-x,-y,-z
loop_
_atom_site_type_symbol
_atom_site_label
_atom_site_fract_x
_atom_site_fract_y
_atom_site_fract_z
Si Si1 0.651509 0.943856 0.099683
Si Si2 0.849180 0.577723 0.481495
Si Si3 0.997337 0.349874 0.311484
Si Si4 0.355679 0.757303 0.486644
Si Si5 0.329005 0.951270 0.505894
Si Si6 0.541638 0.203875 0.144391
Si Si7 0.288837 0.622723 0.509262
O O1 0.820059 0.753378 0.193908
O O2 0.522212 0.905338 0.265049
O O3 0.548317 0.073878 0.199764
O O4 0.693878 0.055518 0.780111
O O5 0.899249 0.440170 0.475594
O O6 0.659024 0.654563 0.713911
O O7 0.000000 0.500000 0.500000
O O8 0.886812 0.309527 0.424160
O O9 0.183505 0.160037 0.364092
O O10 0.000000 0.500000 0.000000
O O11 0.263199 0.690081 0.616782
O O12 0.566466 0.596986 0.390917
O O13 0.314019 0.809359 0.640758
O O14 0.333992 0.913104 0.726216
O O15 0.614502 0.302907 0.818556
#
# Coordination Sequence:
#
# PCOD9089887 Si02
#       7
#     2   2   2   2   2   2   2
#     4  10  19  38  62  88 121 156 198 240 294 355
#     4  11  22  38  64  92 119 154 198 249 293 346
#     4  12  25  40  60  89 122 155 201 250 294 350
#     4  10  21  38  61  84 116 161 199 240 294 353
#     4  11  21  36  60  89 120 158 198 241 292 350
#     4  10  22  40  62  88 122 159 196 242 300 356
#     4  10  23  42  61  86 119 159 200 244 299 354
#
# _framework density 22.407699000000001
#
# number of rings (size 3 to 8) (size 9 to 14) (size 15 to 20)
#    0.000    1.429    0.000    7.286    0.000    5.714 
#    0.000    2.857    0.000    0.000    0.000    0.000 
#    0.000    0.000    0.000    0.000    0.000    0.000 
#
# Total GULP energy -78289.260997 kJ/mol
# GULP energy per Si atom -5592.090071 kJ/mol
# Density = 2.235670 g / cm^3
# Si number density = 22.407699 Si / 1000 Ang^3
#
#
#
# Elastic Constant Matrix: (Units=GPa)
#
#
# Indices 1 2 3 4 5 6 
#
# 1 156.1544 54.6858 20.7432 4.0804 10.1194 -1.1385
# 2 54.6858 102.8687 10.7930 -11.9723 7.1391 -3.0760
# 3 20.7432 10.7930 46.5939 -11.3313 3.0530 -5.2923
# 4 4.0804 -11.9723 -11.3313 30.1879 0.7071 16.5039
# 5 10.1194 7.1391 3.0530 0.7071 25.3557 -1.7597
# 6 -1.1385 -3.0760 -5.2923 16.5039 -1.7597 58.7134
#
#
#
# Elastic Compliance Matrix: (Units=1/GPa)
#
#
# Indices 1 2 3 4 5 6 
#
# 1 0.008802 -0.004723 -0.003829 -0.004973 -0.001519 0.000930
# 2 -0.004723 0.013065 0.000739 0.006881 -0.002168 -0.001340
# 3 -0.003829 0.000739 0.025709 0.010987 -0.002143 -0.000871
# 4 -0.004973 0.006881 0.010987 0.047384 -0.003441 -0.012168
# 5 -0.001519 -0.002168 -0.002143 -0.003441 0.041139 0.001864
# 6 0.000930 -0.001340 -0.000871 -0.012168 0.001864 0.020378
#
#
# Mechanical properties :
#
#
# Convention : Reuss Voigt Hill
#
# Bulk Modulus (GPa) = 31.29751 53.11788 42.20769
# Shear Modulus (GPa) = 27.35972 37.47772 32.41872
#
# Velocity S-wave (km/s) = 3.49807 4.09410 3.80777
# Velocity P-wave (km/s) = 5.50572 6.79011 6.18136
#
# Compressibility (1/GPa) = 0.03195143
#
# Stress axis : x y z
#
# Youngs Moduli (GPa) = 113.61568 76.53778 38.89743
#
# Poissons Ratio (x) = 0.36148 0.14892
# Poissons Ratio (y) = 0.53659 -0.02876
# Poissons Ratio (z) = 0.43499 -0.05658
#
# Static dielectric constant tensor:
#      x y z
#    x 1.828270 0.030630 0.030960 
#    y 0.030630 1.833060 -0.001610 
#    z 0.030960 -0.001610 1.845180 
# 
# From -- ./inp_files/158199.got.cif
#   From: 2010.05.17/outbox.cif.g08.bks.cpg/sg2_80_cif.got.tgz:158199.got - 2010.06.03 11:33:40.
