data_PCOD9089928
_publ_section_title
;
Structure prediction by ZEFSAII (Michael W. Deem and Ramdas Pophale) SiO2 
 PCOD9089928
Probable space group: P -1
;
_chemical_formula_sum "Si O2"
_cell_formula_units_Z 16
_cell_length_a 18.215902
_cell_length_b 11.632595
_cell_length_c 21.011329
_cell_angle_alpha 37.392841
_cell_angle_beta 19.775051
_cell_angle_gamma 30.466655
_cell_volume 760.176445
_symmetry_space_group_name_H-M "P -1"
_symmetry_group_IT_number 2
_symmetry_cell_setting 'triclinic'
loop_
_space_group_symop_operation_xyz
x,y,z
-x,-y,-z
loop_
_atom_site_type_symbol
_atom_site_label
_atom_site_fract_x
_atom_site_fract_y
_atom_site_fract_z
Si Si1 0.454512 0.476134 0.257443
Si Si2 0.258971 0.861579 0.042249
Si Si3 0.026743 0.474429 0.880268
Si Si4 0.057260 0.904048 0.923505
Si Si5 0.364737 0.238206 0.819815
Si Si6 0.265755 0.479426 0.277920
Si Si7 0.719272 0.753033 0.903820
Si Si8 0.088583 0.121462 0.422600
O O1 0.627710 0.274080 0.254899
O O2 0.432940 0.386241 0.246859
O O3 0.164103 0.673703 0.427409
O O4 0.609259 0.596117 0.067577
O O5 0.214549 0.721893 0.192570
O O6 0.553172 0.693596 0.849097
O O7 0.062427 0.927730 0.113321
O O8 0.244910 0.082830 0.981854
O O9 0.258125 0.397699 0.774670
O O10 0.969333 0.641369 0.795485
O O11 0.062147 0.247907 0.922546
O O12 0.764014 0.608406 0.079647
O O13 0.000000 0.000000 0.000000
O O14 0.674674 0.072343 0.643315
O O15 0.000000 0.500000 0.500000
O O16 0.787812 0.775006 0.767291
O O17 0.500000 0.000000 0.000000
O O18 0.000000 0.000000 0.500000
#
# Coordination Sequence:
#
# PCOD9089928 Si02
#       8
#     2   2   2   2   2   2   2   2
#     4  11  23  39  63  89 123 163 206 261 305 371
#     4  10  22  40  66  85 123 170 205 256 316 366
#     4   9  20  35  62  93 120 160 209 251 302 379
#     4  10  19  41  64  88 123 168 207 256 312 369
#     4  10  19  38  62  92 124 161 205 253 316 367
#     4  11  23  40  59  94 123 158 217 253 307 378
#     4  11  20  39  63  90 125 162 204 249 315 372
#     4  12  22  36  61  93 126 159 202 254 310 369
#
# _framework density 21.047744999999999
#
# number of rings (size 3 to 8) (size 9 to 14) (size 15 to 20)
#    0.000    1.500    3.750    2.250    0.000    1.000 
#    0.000    6.250    0.000    0.000    0.000    0.000 
#    0.000    0.000    0.000    0.000    0.000    0.000 
#
# Total GULP energy -89332.868093 kJ/mol
# GULP energy per Si atom -5583.304256 kJ/mol
# Density = 2.099984 g / cm^3
# Si number density = 21.047745 Si / 1000 Ang^3
#
#
#
# Elastic Constant Matrix: (Units=GPa)
#
#
# Indices 1 2 3 4 5 6 
#
# 1 79.1288 11.1563 12.0650 6.4804 -14.8517 -7.5112
# 2 11.1563 52.6446 15.3941 10.5414 -6.6052 -10.5631
# 3 12.0650 15.3941 87.5354 12.6776 -3.6103 -12.3752
# 4 6.4804 10.5414 12.6776 30.9298 -5.0714 -7.7735
# 5 -14.8517 -6.6052 -3.6103 -5.0714 27.4963 13.5917
# 6 -7.5112 -10.5631 -12.3752 -7.7735 13.5917 52.6011
#
#
#
# Elastic Compliance Matrix: (Units=1/GPa)
#
#
# Indices 1 2 3 4 5 6 
#
# 1 0.014481 -0.001701 -0.001358 -0.000844 0.007389 -0.000627
# 2 -0.001701 0.021810 -0.002446 -0.005183 0.001905 0.002303
# 3 -0.001358 -0.002446 0.012841 -0.003839 -0.001396 0.002129
# 4 -0.000844 -0.005183 -0.003839 0.037039 0.003372 0.002538
# 5 0.007389 0.001905 -0.001396 0.003372 0.046386 -0.010378
# 6 -0.000627 0.002303 0.002129 0.002538 -0.010378 0.022942
#
#
# Mechanical properties :
#
#
# Convention : Reuss Voigt Hill
#
# Bulk Modulus (GPa) = 26.23324 32.94884 29.59104
# Shear Modulus (GPa) = 27.89917 34.25167 31.07542
#
# Velocity S-wave (km/s) = 3.64472 4.03840 3.84660
# Velocity P-wave (km/s) = 5.49570 6.11827 5.81532
#
# Compressibility (1/GPa) = 0.03811958
#
# Stress axis : x y z
#
# Youngs Moduli (GPa) = 69.05586 45.85036 77.87698
#
# Poissons Ratio (x) = 0.07801 0.10579
# Poissons Ratio (y) = 0.11749 0.19051
# Poissons Ratio (z) = 0.09381 0.11216
#
# Static dielectric constant tensor:
#      x y z
#    x 1.795820 -0.007970 -0.038600 
#    y -0.007970 1.807650 0.054050 
#    z -0.038600 0.054050 1.751550 
# 
# From -- ./inp_files/531522.got.cif
#   From: 2010.05.17/outbox.cif.g08.bks.cpg/sg2_266_cif.got.tgz:531522.got - 2010.06.03 11:33:40.
