data_PCOD9089102
_publ_section_title
;
Structure prediction by ZEFSAII (Michael W. Deem and Ramdas Pophale) SiO2 
 PCOD9089102
Probable space group: P -1
;
_chemical_formula_sum "Si O2"
_cell_formula_units_Z 16
_cell_length_a 9.358824
_cell_length_b 14.296331
_cell_length_c 16.151298
_cell_angle_alpha 43.987817
_cell_angle_beta 137.080464
_cell_angle_gamma 101.117241
_cell_volume 723.421382
_symmetry_space_group_name_H-M "P -1"
_symmetry_group_IT_number 2
_symmetry_cell_setting 'triclinic'
loop_
_space_group_symop_operation_xyz
x,y,z
-x,-y,-z
loop_
_atom_site_type_symbol
_atom_site_label
_atom_site_fract_x
_atom_site_fract_y
_atom_site_fract_z
Si Si1 0.557027 0.871776 0.480896
Si Si2 0.723118 0.276059 0.256630
Si Si3 0.655952 0.200818 0.814983
Si Si4 0.797890 0.005994 0.581462
Si Si5 0.415504 0.766162 0.954056
Si Si6 0.729503 0.230351 0.643625
Si Si7 0.401965 0.051630 0.725553
Si Si8 0.255725 0.495937 0.604181
O O1 0.810700 0.858470 0.630004
O O2 0.560998 0.714573 0.552367
O O3 0.459246 0.988963 0.280422
O O4 0.351429 0.957553 0.418748
O O5 0.707034 0.205012 0.207717
O O6 0.050236 0.184244 0.477088
O O7 0.645023 0.196363 0.342757
O O8 0.500000 0.500000 0.000000
O O9 0.672436 0.277940 0.686850
O O10 0.464469 0.155056 0.739096
O O11 0.497069 0.340875 0.736074
O O12 0.990368 0.997271 0.100563
O O13 0.127059 0.906711 0.798731
O O14 0.552339 0.852213 0.955625
O O15 0.613249 0.564028 0.208742
O O16 0.817561 0.321695 0.572213
O O17 0.000000 0.500000 0.500000
#
# Coordination Sequence:
#
# PCOD9089102 Si02
#       8
#     2   2   2   2   2   2   2   2
#     4  10  19  37  65  91 117 159 207 256 303 366
#     4  11  23  38  60  93 127 164 201 253 311 369
#     4  10  23  45  68  91 125 171 210 258 322 365
#     4  10  20  39  65  89 124 162 208 253 308 376
#     4  11  22  41  62  88 126 164 203 253 312 369
#     4  10  23  44  68  91 126 168 214 260 314 379
#     4  10  20  42  66  86 122 163 208 251 308 379
#     4  12  27  41  64  98 129 162 215 265 312 377
#
# _framework density 22.117122999999999
#
# number of rings (size 3 to 8) (size 9 to 14) (size 15 to 20)
#    0.000    1.500    2.500    2.625    3.500    3.000 
#    0.000   10.000    0.000    0.000    0.000    0.000 
#    0.000    0.000    0.000    0.000    0.000    0.000 
#
# Total GULP energy -89155.671225 kJ/mol
# GULP energy per Si atom -5572.229452 kJ/mol
# Density = 2.206678 g / cm^3
# Si number density = 22.117123 Si / 1000 Ang^3
#
#
#
# Elastic Constant Matrix: (Units=GPa)
#
#
# Indices 1 2 3 4 5 6 
#
# 1 106.4507 13.4283 22.4201 -5.8316 -16.0202 19.4626
# 2 13.4283 52.2062 23.0650 11.2956 -11.3370 10.9593
# 3 22.4201 23.0650 71.7762 -0.2664 -14.9902 15.0814
# 4 -5.8316 11.2956 -0.2664 27.3505 -0.5050 -3.8621
# 5 -16.0202 -11.3370 -14.9902 -0.5050 22.2315 -9.2486
# 6 19.4626 10.9593 15.0814 -3.8621 -9.2486 42.8233
#
#
#
# Elastic Compliance Matrix: (Units=1/GPa)
#
#
# Indices 1 2 3 4 5 6 
#
# 1 0.011332 -0.001001 -0.001433 0.002497 0.005508 -0.002974
# 2 -0.001001 0.027025 -0.006134 -0.011847 0.007055 -0.003846
# 3 -0.001433 -0.006134 0.018399 0.002189 0.007257 -0.002494
# 4 0.002497 -0.011847 0.002189 0.042727 0.000303 0.005045
# 5 0.005508 0.007055 0.007257 0.000303 0.059994 0.006120
# 6 -0.002974 -0.003846 -0.002494 0.005045 0.006120 0.028343
#
#
# Mechanical properties :
#
#
# Convention : Reuss Voigt Hill
#
# Bulk Modulus (GPa) = 25.24102 38.69554 31.96828
# Shear Modulus (GPa) = 22.91862 29.91571 26.41716
#
# Velocity S-wave (km/s) = 3.22256 3.68177 3.45979
# Velocity P-wave (km/s) = 5.02829 5.96721 5.51776
#
# Compressibility (1/GPa) = 0.03961805
#
# Stress axis : x y z
#
# Youngs Moduli (GPa) = 88.24772 37.00260 54.35127
#
# Poissons Ratio (x) = 0.03705 0.07790
# Poissons Ratio (y) = 0.08837 0.33340
# Poissons Ratio (z) = 0.12648 0.22698
#
# Static dielectric constant tensor:
#      x y z
#    x 1.837310 0.019010 0.037310 
#    y 0.019010 1.882920 0.015400 
#    z 0.037310 0.015400 1.881960 
# 
# From -- ./inp_files/345404.got.cif
#   From: 2010.05.17/outbox.cif.g08.bks.cpg/sg2_173_cif.got.tgz:345404.got - 2010.06.03 11:33:40.
