data_PCOD9089231
_publ_section_title
;
Structure prediction by ZEFSAII (Michael W. Deem and Ramdas Pophale) SiO2 
 PCOD9089231
Probable space group: P -1
;
_chemical_formula_sum "Si O2"
_cell_formula_units_Z 13
_cell_length_a 12.296576
_cell_length_b 11.642033
_cell_length_c 14.311750
_cell_angle_alpha 151.856098
_cell_angle_beta 149.589380
_cell_angle_gamma 35.648430
_cell_volume 477.375438
_symmetry_space_group_name_H-M "P -1"
_symmetry_group_IT_number 2
_symmetry_cell_setting 'triclinic'
loop_
_space_group_symop_operation_xyz
x,y,z
-x,-y,-z
loop_
_atom_site_type_symbol
_atom_site_label
_atom_site_fract_x
_atom_site_fract_y
_atom_site_fract_z
Si Si1 0.580612 0.200165 0.270820
Si Si2 0.410243 0.956922 0.129056
Si Si3 0.000000 0.500000 0.500000
Si Si4 0.216095 0.600766 0.205966
Si Si5 0.225069 0.120304 0.300989
Si Si6 0.443891 0.589056 0.168432
Si Si7 0.057597 0.866541 0.649655
O O1 0.397595 0.453126 0.305463
O O2 0.807722 0.231140 0.414551
O O3 0.583647 0.072448 0.281441
O O4 0.500000 0.000000 0.000000
O O5 0.314251 0.122315 0.265139
O O6 0.514200 0.676273 0.040430
O O7 0.228493 0.947799 0.908070
O O8 0.021510 0.764678 0.771275
O O9 0.034675 0.334517 0.505579
O O10 0.329532 0.535852 0.141942
O O11 0.127061 0.894595 0.340331
O O12 0.000000 0.500000 0.000000
O O13 0.312469 0.349550 0.585525
O O14 0.315987 0.851552 0.220581
#
# Coordination Sequence:
#
# PCOD9089231 Si02
#       7
#     2   2   1   2   2   2   2
#     4  10  19  37  66  94 127 170 214 264 326 385
#     4  11  21  42  68  95 124 176 221 265 327 391
#     4  12  22  42  60  92 136 170 210 268 322 390
#     4  12  19  36  69  95 125 177 212 262 335 383
#     4  11  25  40  67  94 131 176 216 271 326 386
#     4  11  22  43  62  96 131 171 218 271 330 379
#     4  11  22  39  66  97 130 174 215 265 331 383
#
# _framework density 27.232234999999999
#
# number of rings (size 3 to 8) (size 9 to 14) (size 15 to 20)
#    0.000    0.923    9.231    0.462    0.000    0.615 
#    0.000    3.077    0.000    2.769    0.000    0.000 
#    0.000    0.000    0.000    0.000    0.000    0.000 
#
# Total GULP energy -72649.033506 kJ/mol
# GULP energy per Si atom -5588.387193 kJ/mol
# Density = 2.717025 g / cm^3
# Si number density = 27.232235 Si / 1000 Ang^3
#
#
#
# Elastic Constant Matrix: (Units=GPa)
#
#
# Indices 1 2 3 4 5 6 
#
# 1 253.5615 51.8359 40.6118 19.1506 14.2704 4.7424
# 2 51.8359 198.6973 51.2556 54.5072 -11.4043 4.5086
# 3 40.6118 51.2556 70.6332 27.9866 0.9947 7.6291
# 4 19.1506 54.5072 27.9866 51.5967 5.0976 6.8058
# 5 14.2704 -11.4043 0.9947 5.0976 29.0489 7.3637
# 6 4.7424 4.5086 7.6291 6.8058 7.3637 47.3609
#
#
#
# Elastic Compliance Matrix: (Units=1/GPa)
#
#
# Indices 1 2 3 4 5 6 
#
# 1 0.004598 -0.001016 -0.002221 0.000807 -0.002803 0.000314
# 2 -0.001016 0.008320 -0.002535 -0.007548 0.005177 -0.000002
# 3 -0.002221 -0.002535 0.020411 -0.007431 0.001193 -0.001942
# 4 0.000807 -0.007548 -0.007431 0.032107 -0.008365 -0.001479
# 5 -0.002803 0.005177 0.001193 -0.008365 0.040662 -0.005524
# 6 0.000314 -0.000002 -0.001942 -0.001479 -0.005524 0.022467
#
#
# Mechanical properties :
#
#
# Convention : Reuss Voigt Hill
#
# Bulk Modulus (GPa) = 45.90158 90.03317 67.96738
# Shear Modulus (GPa) = 33.92820 50.88053 42.40437
#
# Velocity S-wave (km/s) = 3.53354 4.32718 3.95034
# Velocity P-wave (km/s) = 5.79138 7.62227 6.76901
#
# Compressibility (1/GPa) = 0.02178574
#
# Stress axis : x y z
#
# Youngs Moduli (GPa) = 217.48008 120.19934 48.99296
#
# Poissons Ratio (x) = 0.12212 0.10879
# Poissons Ratio (y) = 0.22096 0.12419
# Poissons Ratio (z) = 0.48292 0.30470
#
# Static dielectric constant tensor:
#      x y z
#    x 2.934220 -0.721290 0.094860 
#    y -0.721290 2.913560 -0.353070 
#    z 0.094860 -0.353070 2.440450 
# 
# From -- ./inp_files/518481.got.cif
#   From: 2010.05.17/outbox.cif.g08.bks.cpg/sg2_260_cif.got.tgz:518481.got - 2010.06.03 11:33:40.
