data_PCOD9089429
_publ_section_title
;
Structure prediction by ZEFSAII (Michael W. Deem and Ramdas Pophale) SiO2 
 PCOD9089429
Probable space group: P -1
;
_chemical_formula_sum "Si O2"
_cell_formula_units_Z 16
_cell_length_a 13.883781
_cell_length_b 14.969188
_cell_length_c 21.086065
_cell_angle_alpha 151.270054
_cell_angle_beta 151.819278
_cell_angle_gamma 27.259306
_cell_volume 855.126074
_symmetry_space_group_name_H-M "P -1"
_symmetry_group_IT_number 2
_symmetry_cell_setting 'triclinic'
loop_
_space_group_symop_operation_xyz
x,y,z
-x,-y,-z
loop_
_atom_site_type_symbol
_atom_site_label
_atom_site_fract_x
_atom_site_fract_y
_atom_site_fract_z
Si Si1 0.864712 0.367787 0.826365
Si Si2 0.870853 0.432564 0.615789
Si Si3 0.724799 0.635491 0.792567
Si Si4 0.212379 0.953743 0.701228
Si Si5 0.698567 0.277929 0.940964
Si Si6 0.316123 0.164501 0.787358
Si Si7 0.239505 0.572691 0.060995
Si Si8 0.776043 0.859942 0.789487
O O1 0.733101 0.471765 0.749006
O O2 0.718800 0.392768 0.820598
O O3 0.053955 0.121319 0.766933
O O4 0.000000 0.500000 0.000000
O O5 0.730362 0.541831 0.667839
O O6 0.824539 0.247636 0.450543
O O7 0.800914 0.627547 0.647356
O O8 0.146715 0.311355 0.723155
O O9 0.491287 0.858407 0.811908
O O10 0.957903 0.656266 0.943943
O O11 0.168242 0.078993 0.686748
O O12 0.696391 0.057811 0.817402
O O13 0.500000 0.500000 0.000000
O O14 0.685411 0.325726 0.888258
O O15 0.962284 0.212854 0.077523
O O16 0.353358 0.321186 0.952958
O O17 0.566855 0.976637 0.792241
#
# Coordination Sequence:
#
# PCOD9089429 Si02
#       8
#     2   2   2   2   2   2   2   2
#     4  10  21  35  49  74 110 146 181 213 257 316
#     4  11  21  33  51  82 115 140 175 220 263 313
#     4  10  20  34  50  81 111 139 181 211 260 320
#     4  12  21  32  55  78 111 152 175 208 267 318
#     4  11  20  36  57  80 106 137 177 224 275 311
#     4  11  19  34  53  79 113 143 169 214 265 321
#     4  10  19  38  51  76 113 137 178 221 263 311
#     4  11  21  33  54  84 109 135 174 224 272 314
#
# _framework density 18.710692000000002
#
# number of rings (size 3 to 8) (size 9 to 14) (size 15 to 20)
#    0.000    1.250    8.750    0.750    0.000    2.000 
#    2.250    0.000    0.000    0.750    0.000    4.375 
#    0.000    0.000    0.000    0.000    0.000    0.000 
#
# Total GULP energy -89132.008740 kJ/mol
# GULP energy per Si atom -5570.750546 kJ/mol
# Density = 1.866811 g / cm^3
# Si number density = 18.710692 Si / 1000 Ang^3
#
#
#
# Elastic Constant Matrix: (Units=GPa)
#
#
# Indices 1 2 3 4 5 6 
#
# 1 124.4247 32.6324 39.2925 24.5128 7.9581 12.8600
# 2 32.6324 100.6630 20.0823 28.9006 -0.5360 -3.1682
# 3 39.2925 20.0823 67.3937 31.6146 12.9167 11.1247
# 4 24.5128 28.9006 31.6146 27.6113 8.2939 11.5459
# 5 7.9581 -0.5360 12.9167 8.2939 19.3752 9.6549
# 6 12.8600 -3.1682 11.1247 11.5459 9.6549 23.8308
#
#
#
# Elastic Compliance Matrix: (Units=1/GPa)
#
#
# Indices 1 2 3 4 5 6 
#
# 1 0.010660 -0.002988 -0.005493 0.001682 0.000844 -0.004743
# 2 -0.002988 0.020511 0.010454 -0.038805 0.002929 0.017073
# 3 -0.005493 0.010454 0.040390 -0.056643 -0.008249 0.016284
# 4 0.001682 -0.038805 -0.056643 0.166195 -0.006483 -0.057518
# 5 0.000844 0.002929 -0.008249 -0.006483 0.070379 -0.021588
# 6 -0.004743 0.017073 0.016284 -0.057518 -0.021588 0.075803
#
#
# Mechanical properties :
#
#
# Convention : Reuss Voigt Hill
#
# Bulk Modulus (GPa) = 13.24373 52.94399 33.09386
# Shear Modulus (GPa) = 12.34081 27.52842 19.93461
#
# Velocity S-wave (km/s) = 2.57097 3.83987 3.26761
# Velocity P-wave (km/s) = 3.98833 6.92943 5.65348
#
# Compressibility (1/GPa) = 0.07550746
#
# Stress axis : x y z
#
# Youngs Moduli (GPa) = 93.80946 48.75434 24.75861
#
# Poissons Ratio (x) = 0.14566 0.13600
# Poissons Ratio (y) = 0.28027 -0.25882
# Poissons Ratio (z) = 0.51528 -0.50967
#
# Static dielectric constant tensor:
#      x y z
#    x 1.714690 0.051360 0.025110 
#    y 0.051360 1.725200 -0.010690 
#    z 0.025110 -0.010690 1.657440 
# 
# From -- ./inp_files/595548.got.cif
#   From: 2010.05.17/outbox.cif.g08.bks.cpg/sg2_298_cif.got.tgz:595548.got - 2010.06.03 11:33:40.
