data_PCOD9089020
_publ_section_title
;
Structure prediction by ZEFSAII (Michael W. Deem and Ramdas Pophale) SiO2 
 PCOD9089020
Probable space group: P -1
;
_chemical_formula_sum "Si O2"
_cell_formula_units_Z 16
_cell_length_a 16.484190
_cell_length_b 10.749532
_cell_length_c 9.670374
_cell_angle_alpha 51.509485
_cell_angle_beta 84.369340
_cell_angle_gamma 44.259567
_cell_volume 722.053838
_symmetry_space_group_name_H-M "P -1"
_symmetry_group_IT_number 2
_symmetry_cell_setting 'triclinic'
loop_
_space_group_symop_operation_xyz
x,y,z
-x,-y,-z
loop_
_atom_site_type_symbol
_atom_site_label
_atom_site_fract_x
_atom_site_fract_y
_atom_site_fract_z
Si Si1 0.691254 0.799090 0.420685
Si Si2 0.106124 0.620456 0.804157
Si Si3 0.906068 0.556809 0.333178
Si Si4 0.880319 0.040247 0.148118
Si Si5 0.863049 0.648913 0.751741
Si Si6 0.360405 0.449073 0.966806
Si Si7 0.168283 0.773964 0.277436
Si Si8 0.769036 0.150962 0.513038
O O1 0.773974 0.784527 0.309795
O O2 0.752918 0.733930 0.608938
O O3 0.739494 0.540330 0.550011
O O4 0.515584 0.118901 0.215149
O O5 0.155476 0.458699 0.764879
O O6 0.240127 0.513937 0.898431
O O7 0.089947 0.525642 0.000880
O O8 0.932477 0.954184 0.573280
O O9 0.992878 0.543959 0.234883
O O10 0.036864 0.252015 0.608767
O O11 0.723111 0.320016 0.056982
O O12 0.854149 0.096572 0.951082
O O13 0.001237 0.982868 0.202104
O O14 0.787308 0.935556 0.622695
O O15 0.363858 0.559372 0.757798
O O16 0.239487 0.769688 0.384816
#
# Coordination Sequence:
#
# PCOD9089020 Si02
#       8
#     2   2   2   2   2   2   2   2
#     4  11  26  41  65 101 138 171 216 273 332 386
#     4  11  22  39  69 100 131 167 223 276 327 380
#     4  10  21  42  64  97 126 175 220 269 322 387
#     4  10  19  37  64  94 126 168 221 266 314 387
#     4  11  24  44  66  99 136 172 218 271 335 389
#     4  12  22  41  70  96 134 177 218 267 327 398
#     4  10  22  38  64  98 131 167 220 275 316 380
#     4  11  22  41  68  98 128 176 221 266 326 395
#
# _framework density 22.159012000000001
#
# number of rings (size 3 to 8) (size 9 to 14) (size 15 to 20)
#    0.000    1.250    3.750    4.500    3.500    4.500 
#    2.250    0.000    0.000    6.000    0.000    0.000 
#    0.000    0.000    0.000    0.000    0.000    0.000 
#
# Total GULP energy -89431.719659 kJ/mol
# GULP energy per Si atom -5589.482479 kJ/mol
# Density = 2.210858 g / cm^3
# Si number density = 22.159012 Si / 1000 Ang^3
#
#
#
# Elastic Constant Matrix: (Units=GPa)
#
#
# Indices 1 2 3 4 5 6 
#
# 1 48.9101 24.2907 19.5809 -5.0172 -0.8657 15.7731
# 2 24.2907 84.1004 52.7296 1.2450 9.8677 14.4396
# 3 19.5809 52.7296 113.0940 -0.1853 0.7505 -6.7121
# 4 -5.0172 1.2450 -0.1853 49.9025 -5.2252 1.7906
# 5 -0.8657 9.8677 0.7505 -5.2252 29.0385 8.1969
# 6 15.7731 14.4396 -6.7121 1.7906 8.1969 31.1985
#
#
#
# Elastic Compliance Matrix: (Units=1/GPa)
#
#
# Indices 1 2 3 4 5 6 
#
# 1 0.030212 -0.004160 -0.004323 0.004553 0.007938 -0.016626
# 2 -0.004160 0.021152 -0.009610 -0.001194 -0.004908 -0.008396
# 3 -0.004323 -0.009610 0.014655 -0.000506 -0.000112 0.009845
# 4 0.004553 -0.001194 -0.000506 0.021283 0.005674 -0.004570
# 5 0.007938 -0.004908 -0.000112 0.005674 0.040996 -0.012863
# 6 -0.016626 -0.008396 0.009845 -0.004570 -0.012863 0.050104
#
#
# Mechanical properties :
#
#
# Convention : Reuss Voigt Hill
#
# Bulk Modulus (GPa) = 33.51867 48.81188 41.16527
# Shear Modulus (GPa) = 22.26844 31.99478 27.13161
#
# Velocity S-wave (km/s) = 3.17352 3.80395 3.50295
# Velocity P-wave (km/s) = 5.34673 6.43189 5.91425
#
# Compressibility (1/GPa) = 0.02983412
#
# Stress axis : x y z
#
# Youngs Moduli (GPa) = 33.09977 47.27624 68.23408
#
# Poissons Ratio (x) = 0.19665 0.29500
# Poissons Ratio (y) = 0.13768 0.65571
# Poissons Ratio (z) = 0.14310 0.45431
#
# Static dielectric constant tensor:
#      x y z
#    x 1.897810 0.043900 -0.051550 
#    y 0.043900 1.828590 0.010880 
#    z -0.051550 0.010880 1.776710 
# 
# From -- ./inp_files/332884.got.cif
#   From: 2010.05.17/outbox.cif.g08.bks.cpg/sg2_167_cif.got.tgz:332884.got - 2010.06.03 11:33:40.
