data_PCOD9089177
_publ_section_title
;
Structure prediction by ZEFSAII (Michael W. Deem and Ramdas Pophale) SiO2 
 PCOD9089177
Probable space group: P -1
;
_chemical_formula_sum "Si O2"
_cell_formula_units_Z 14
_cell_length_a 8.919479
_cell_length_b 23.196107
_cell_length_c 12.650926
_cell_angle_alpha 155.518161
_cell_angle_beta 145.093563
_cell_angle_gamma 46.436812
_cell_volume 602.366923
_symmetry_space_group_name_H-M "P -1"
_symmetry_group_IT_number 2
_symmetry_cell_setting 'triclinic'
loop_
_space_group_symop_operation_xyz
x,y,z
-x,-y,-z
loop_
_atom_site_type_symbol
_atom_site_label
_atom_site_fract_x
_atom_site_fract_y
_atom_site_fract_z
Si Si1 0.737926 0.825740 0.353956
Si Si2 0.924946 0.758309 0.663803
Si Si3 0.951119 0.507939 0.609225
Si Si4 0.155211 0.504654 0.927846
Si Si5 0.459482 0.976829 0.273778
Si Si6 0.373433 0.517482 0.293038
Si Si7 0.660146 0.989626 0.970271
O O1 0.653265 0.898017 0.318738
O O2 0.055792 0.891061 0.665365
O O3 0.566633 0.882437 0.441243
O O4 0.683195 0.655427 0.031760
O O5 0.073318 0.657936 0.649331
O O6 0.757925 0.642324 0.292209
O O7 0.156585 0.876553 0.940404
O O8 0.746747 0.839283 0.762655
O O9 0.162184 0.580394 0.944677
O O10 0.688766 0.567111 0.578116
O O11 0.000000 0.500000 0.500000
O O12 0.841197 0.453709 0.698875
O O13 0.308651 0.574911 0.236766
O O14 0.506230 0.999930 0.215437
O O15 0.500000 0.000000 0.000000
#
# Coordination Sequence:
#
# PCOD9089177 Si02
#       7
#     2   2   2   2   2   2   2
#     4  10  20  36  63  87 110 153 195 232 285 344
#     4   9  19  42  57  84 114 157 194 229 286 345
#     4  10  22  39  57  86 121 153 188 239 290 333
#     4   9  21  36  60  84 113 152 199 230 283 337
#     4  10  19  37  66  83 111 154 197 230 286 345
#     4  11  19  38  62  87 114 149 201 237 274 347
#     4  11  23  39  57  90 120 147 187 244 293 342
#
# _framework density 23.241648999999999
#
# number of rings (size 3 to 8) (size 9 to 14) (size 15 to 20)
#    0.857    1.143    1.429    3.857    0.000    1.143 
#   10.286    1.429    0.000    0.000    0.000    0.000 
#    0.000    0.000    0.000    0.000    0.000    0.000 
#
# Total GULP energy -78127.664924 kJ/mol
# GULP energy per Si atom -5580.547495 kJ/mol
# Density = 2.318875 g / cm^3
# Si number density = 23.241649 Si / 1000 Ang^3
#
#
#
# Elastic Constant Matrix: (Units=GPa)
#
#
# Indices 1 2 3 4 5 6 
#
# 1 109.2664 49.7975 29.9666 -5.2570 -41.3461 9.9616
# 2 49.7975 106.7945 19.8635 -25.2769 -22.5505 11.6193
# 3 29.9666 19.8635 36.8705 -15.4542 -16.2436 6.4771
# 4 -5.2570 -25.2769 -15.4542 30.0375 6.0948 -13.4161
# 5 -41.3461 -22.5505 -16.2436 6.0948 29.4016 -9.9382
# 6 9.9616 11.6193 6.4771 -13.4161 -9.9382 34.0454
#
#
#
# Elastic Compliance Matrix: (Units=1/GPa)
#
#
# Indices 1 2 3 4 5 6 
#
# 1 0.023981 -0.006715 -0.009305 -0.011449 0.025830 0.000074
# 2 -0.006715 0.015404 0.003727 0.014266 0.002242 0.002275
# 3 -0.009305 0.003727 0.048601 0.026778 0.013319 0.006645
# 4 -0.011449 0.014266 0.026778 0.065427 0.002832 0.019996
# 5 0.025830 0.002242 0.013319 0.002832 0.083803 0.014722
# 6 0.000074 0.002275 0.006645 0.019996 0.014722 0.039488
#
#
# Mechanical properties :
#
#
# Convention : Reuss Voigt Hill
#
# Bulk Modulus (GPa) = 15.77291 50.24296 33.00793
# Shear Modulus (GPa) = 15.50754 28.91713 22.21234
#
# Velocity S-wave (km/s) = 2.58588 3.53114 3.09481
# Velocity P-wave (km/s) = 3.96446 6.18788 5.19648
#
# Compressibility (1/GPa) = 0.06339986
#
# Stress axis : x y z
#
# Youngs Moduli (GPa) = 41.70032 64.91657 20.57552
#
# Poissons Ratio (x) = 0.43591 0.19145
# Poissons Ratio (y) = 0.28002 -0.07668
# Poissons Ratio (z) = 0.38802 -0.24192
#
# Static dielectric constant tensor:
#      x y z
#    x 1.867930 0.026090 -0.001210 
#    y 0.026090 1.896010 -0.040300 
#    z -0.001210 -0.040300 1.926880 
# 
# From -- ./inp_files/406452.got.cif
#   From: 2010.05.17/outbox.cif.g08.bks.cpg/sg2_204_cif.got.tgz:406452.got - 2010.06.03 11:33:40.
