data_PCOD9089688
_publ_section_title
;
Structure prediction by ZEFSAII (Michael W. Deem and Ramdas Pophale) SiO2 
 PCOD9089688
Probable space group: P -1
;
_chemical_formula_sum "Si O2"
_cell_formula_units_Z 16
_cell_length_a 15.520661
_cell_length_b 9.989552
_cell_length_c 21.805221
_cell_angle_alpha 33.035443
_cell_angle_beta 24.484723
_cell_angle_gamma 46.127577
_cell_volume 726.394514
_symmetry_space_group_name_H-M "P -1"
_symmetry_group_IT_number 2
_symmetry_cell_setting 'triclinic'
loop_
_space_group_symop_operation_xyz
x,y,z
-x,-y,-z
loop_
_atom_site_type_symbol
_atom_site_label
_atom_site_fract_x
_atom_site_fract_y
_atom_site_fract_z
Si Si1 0.594981 0.806976 0.976299
Si Si2 0.496200 0.118980 0.821553
Si Si3 0.951393 0.236862 0.300455
Si Si4 0.098244 0.642866 0.945272
Si Si5 0.843926 0.540841 0.787952
Si Si6 0.380787 0.126221 0.273342
Si Si7 0.418773 0.386572 0.339947
Si Si8 0.996714 0.882610 0.220920
O O1 0.844776 0.861070 0.811507
O O2 0.572815 0.889131 0.890207
O O3 0.454844 0.524353 0.197447
O O4 0.500000 0.000000 0.000000
O O5 0.584911 0.386714 0.696308
O O6 0.567786 0.100526 0.713023
O O7 0.237189 0.037498 0.029032
O O8 0.020397 0.341221 0.284812
O O9 0.970190 0.462976 0.152865
O O10 0.726067 0.010513 0.542232
O O11 0.357604 0.679081 0.767205
O O12 0.066415 0.923386 0.859193
O O13 0.000000 0.500000 0.000000
O O14 0.789281 0.746381 0.698324
O O15 0.964995 0.367975 0.738872
O O16 0.613283 0.348782 0.036290
O O17 0.189123 0.177194 0.583470
#
# Coordination Sequence:
#
# PCOD9089688 Si02
#       8
#     2   2   2   2   2   2   2   2
#     4   9  20  34  56  93 124 156 202 245 296 377
#     4  10  19  38  60  90 129 151 199 253 302 373
#     4  11  22  41  65  86 125 167 201 248 313 354
#     4  11  24  47  61  85 125 165 214 256 290 362
#     4  10  22  39  62  98 126 152 203 255 303 372
#     4  10  21  38  62  95 127 158 193 252 314 366
#     4  10  21  39  62  87 118 165 206 248 310 352
#     4  11  23  39  64  88 119 167 204 249 305 353
#
# _framework density 22.026599000000001
#
# number of rings (size 3 to 8) (size 9 to 14) (size 15 to 20)
#    0.000    1.750    2.500    1.500    3.500    1.000 
#    6.750    2.500    0.000    0.000    0.000    0.000 
#    0.000    0.000    0.000    0.000    0.000    0.000 
#
# Total GULP energy -89349.397750 kJ/mol
# GULP energy per Si atom -5584.337359 kJ/mol
# Density = 2.197647 g / cm^3
# Si number density = 22.026599 Si / 1000 Ang^3
#
#
#
# Elastic Constant Matrix: (Units=GPa)
#
#
# Indices 1 2 3 4 5 6 
#
# 1 24.6924 0.3292 14.2853 1.3702 -1.8371 -8.7363
# 2 0.3292 83.0174 16.3873 8.7998 0.0495 -12.1845
# 3 14.2853 16.3873 135.6971 13.1738 4.0423 -10.2856
# 4 1.3702 8.7998 13.1738 17.8287 3.1396 3.5462
# 5 -1.8371 0.0495 4.0423 3.1396 20.1868 -0.4474
# 6 -8.7363 -12.1845 -10.2856 3.5462 -0.4474 35.2446
#
#
#
# Elastic Compliance Matrix: (Units=1/GPa)
#
#
# Indices 1 2 3 4 5 6 
#
# 1 0.048022 0.003049 -0.004114 -0.005744 0.006355 0.012416
# 2 0.003049 0.013954 -0.000808 -0.008070 0.001797 0.006179
# 3 -0.004114 -0.000808 0.008635 -0.005818 -0.001157 0.001792
# 4 -0.005744 -0.008070 -0.005818 0.069231 -0.010393 -0.013010
# 5 0.006355 0.001797 -0.001157 -0.010393 0.052038 0.003565
# 6 0.012416 0.006179 0.001792 -0.013010 0.003565 0.035464
#
#
# Mechanical properties :
#
#
# Convention : Reuss Voigt Hill
#
# Bulk Modulus (GPa) = 14.95535 33.93449 24.44492
# Shear Modulus (GPa) = 19.73321 28.81235 24.27278
#
# Velocity S-wave (km/s) = 2.99637 3.62065 3.32320
# Velocity P-wave (km/s) = 4.33306 5.73746 5.08399
#
# Compressibility (1/GPa) = 0.06686570
#
# Stress axis : x y z
#
# Youngs Moduli (GPa) = 20.82369 71.66233 115.80552
#
# Poissons Ratio (x) = -0.21851 0.47645
# Poissons Ratio (y) = -0.06349 0.09355
# Poissons Ratio (z) = 0.08567 0.05789
#
# Static dielectric constant tensor:
#      x y z
#    x 1.875750 0.026380 0.033310 
#    y 0.026380 1.805160 -0.007870 
#    z 0.033310 -0.007870 1.841540 
# 
# From -- ./inp_files/271723.got.cif
#   From: 2010.05.17/outbox.cif.g08.bks.cpg/sg2_136_cif.got.tgz:271723.got - 2010.06.03 11:33:40.
