data_PCOD9089160
_publ_section_title
;
Structure prediction by ZEFSAII (Michael W. Deem and Ramdas Pophale) SiO2 
 PCOD9089160
Probable space group: P -1
;
_chemical_formula_sum "Si O2"
_cell_formula_units_Z 14
_cell_length_a 8.798825
_cell_length_b 10.841311
_cell_length_c 14.938107
_cell_angle_alpha 30.315659
_cell_angle_beta 70.761787
_cell_angle_gamma 56.749208
_cell_volume 565.512990
_symmetry_space_group_name_H-M "P -1"
_symmetry_group_IT_number 2
_symmetry_cell_setting 'triclinic'
loop_
_space_group_symop_operation_xyz
x,y,z
-x,-y,-z
loop_
_atom_site_type_symbol
_atom_site_label
_atom_site_fract_x
_atom_site_fract_y
_atom_site_fract_z
Si Si1 0.289313 0.087622 0.456012
Si Si2 0.380593 0.054167 0.768805
Si Si3 0.982195 0.290331 0.787579
Si Si4 0.079513 0.453027 0.115615
Si Si5 0.340857 0.124434 0.030451
Si Si6 0.814683 0.111821 0.238931
Si Si7 0.228946 0.666334 0.378607
O O1 0.145123 0.421142 0.310213
O O2 0.233732 0.140759 0.327852
O O3 0.500000 0.000000 0.500000
O O4 0.253834 0.872050 0.655849
O O5 0.568250 0.821490 0.933488
O O6 0.392165 0.334137 0.576298
O O7 0.198279 0.187410 0.787548
O O8 0.317856 0.953459 0.757032
O O9 0.869573 0.365789 0.669478
O O10 0.000000 0.000000 0.000000
O O11 0.000000 0.500000 0.000000
O O12 0.174883 0.643167 0.971817
O O13 0.876012 0.600756 0.116274
O O14 0.304646 0.869826 0.216834
O O15 0.500000 0.000000 0.000000
O O16 0.041492 0.843333 0.367758
#
# Coordination Sequence:
#
# PCOD9089160 Si02
#       7
#     2   2   2   2   2   2   2
#     4  12  25  44  74 104 137 188 249 282 344 437
#     4  11  19  38  68  98 132 174 230 288 349 411
#     4  11  20  39  68 100 135 175 235 291 344 408
#     4  11  28  50  67  98 147 190 230 293 369 424
#     4  11  24  40  66 102 137 178 231 295 353 413
#     4  10  22  45  72  96 139 188 235 288 353 421
#     4  10  19  37  65  97 136 175 218 295 350 401
#
# _framework density 24.756284999999998
#
# number of rings (size 3 to 8) (size 9 to 14) (size 15 to 20)
#    0.000    1.143    2.857    5.571    2.000    1.143 
#    5.143    0.000    0.000    0.000    0.000    0.000 
#    0.000    0.000    0.000    0.000    0.000    0.000 
#
# Total GULP energy -78219.245996 kJ/mol
# GULP energy per Si atom -5587.089000 kJ/mol
# Density = 2.469994 g / cm^3
# Si number density = 24.756285 Si / 1000 Ang^3
#
#
#
# Elastic Constant Matrix: (Units=GPa)
#
#
# Indices 1 2 3 4 5 6 
#
# 1 137.4142 26.7132 45.8191 4.7599 26.0375 -18.9531
# 2 26.7132 68.5694 21.4213 10.4586 11.8254 -20.2069
# 3 45.8191 21.4213 101.0582 9.9617 16.8667 -17.8456
# 4 4.7599 10.4586 9.9617 33.3204 1.8874 1.2232
# 5 26.0375 11.8254 16.8667 1.8874 48.5332 -5.8026
# 6 -18.9531 -20.2069 -17.8456 1.2232 -5.8026 29.6270
#
#
#
# Elastic Compliance Matrix: (Units=1/GPa)
#
#
# Indices 1 2 3 4 5 6 
#
# 1 0.009570 -0.001424 -0.003001 0.000073 -0.003428 0.002669
# 2 -0.001424 0.020329 -0.000445 -0.006373 -0.002292 0.012500
# 3 -0.003001 -0.000445 0.012962 -0.003388 -0.002017 0.005329
# 4 0.000073 -0.006373 -0.003388 0.033267 0.000486 -0.007619
# 5 -0.003428 -0.002292 -0.002017 0.000486 0.023641 -0.000361
# 6 0.002669 0.012500 0.005329 -0.007619 -0.000361 0.047439
#
#
# Mechanical properties :
#
#
# Convention : Reuss Voigt Hill
#
# Bulk Modulus (GPa) = 30.19337 54.99434 42.59385
# Shear Modulus (GPa) = 29.76401 36.50201 33.13301
#
# Velocity S-wave (km/s) = 3.47115 3.84403 3.66234
# Velocity P-wave (km/s) = 5.31864 6.47801 5.92674
#
# Compressibility (1/GPa) = 0.03311986
#
# Stress axis : x y z
#
# Youngs Moduli (GPa) = 104.49520 49.19142 77.14917
#
# Poissons Ratio (x) = 0.07006 0.23151
# Poissons Ratio (y) = 0.14883 0.03435
# Poissons Ratio (z) = 0.31357 0.02190
#
# Static dielectric constant tensor:
#      x y z
#    x 1.950610 0.044520 0.038710 
#    y 0.044520 2.128550 0.001500 
#    z 0.038710 0.001500 2.071170 
# 
# From -- ./inp_files/345646.got.cif
#   From: 2010.05.17/outbox.cif.g08.bks.cpg/sg2_173_cif.got.tgz:345646.got - 2010.06.03 11:33:40.
