data_PCOD9089109
_publ_section_title
;
Structure prediction by ZEFSAII (Michael W. Deem and Ramdas Pophale) SiO2 
 PCOD9089109
Probable space group: P -1
;
_chemical_formula_sum "Si O2"
_cell_formula_units_Z 16
_cell_length_a 14.624918
_cell_length_b 9.809169
_cell_length_c 11.957136
_cell_angle_alpha 62.133727
_cell_angle_beta 124.261524
_cell_angle_gamma 69.799872
_cell_volume 693.893039
_symmetry_space_group_name_H-M "P -1"
_symmetry_group_IT_number 2
_symmetry_cell_setting 'triclinic'
loop_
_space_group_symop_operation_xyz
x,y,z
-x,-y,-z
loop_
_atom_site_type_symbol
_atom_site_label
_atom_site_fract_x
_atom_site_fract_y
_atom_site_fract_z
Si Si1 0.865569 0.260182 0.146972
Si Si2 0.128523 0.086174 0.775659
Si Si3 0.947541 0.684764 0.132352
Si Si4 0.149776 0.122143 0.526875
Si Si5 0.475799 0.960418 0.281901
Si Si6 0.154608 0.458632 0.154668
Si Si7 0.549760 0.772723 0.173067
Si Si8 0.376560 0.395063 0.942217
O O1 0.074584 0.076889 0.410315
O O2 0.865357 0.104061 0.138395
O O3 0.802479 0.475534 0.942512
O O4 0.734922 0.383339 0.122116
O O5 0.025775 0.279629 0.738445
O O6 0.057766 0.205902 0.555073
O O7 0.348120 0.907806 0.994087
O O8 0.066466 0.383709 0.329261
O O9 0.034777 0.677545 0.090825
O O10 0.710642 0.929962 0.854257
O O11 0.387476 0.843052 0.802092
O O12 0.629021 0.833097 0.532205
O O13 0.603167 0.738622 0.352119
O O14 0.367345 0.232284 0.046796
O O15 0.000000 0.500000 0.000000
O O16 0.677910 0.542810 0.251166
O O17 0.500000 0.000000 0.000000
#
# Coordination Sequence:
#
# PCOD9089109 Si02
#       8
#     2   2   2   2   2   2   2   2
#     4  12  25  41  60  97 133 174 209 258 328 378
#     4  10  24  41  65  96 135 162 209 270 328 380
#     4  11  22  42  66  96 123 167 221 266 310 376
#     4  11  21  41  67  96 125 167 218 261 321 380
#     4  10  19  38  63  97 121 160 214 273 311 364
#     4  12  24  41  65  95 124 172 226 255 310 385
#     4   8  18  35  62  93 120 158 207 255 313 373
#     4  10  19  37  65  91 130 160 211 268 312 376
#
# _framework density 23.058308
#
# number of rings (size 3 to 8) (size 9 to 14) (size 15 to 20)
#    0.000    1.500    3.750    0.750    0.000    6.500 
#    0.000    5.000    0.000    0.000    0.000    0.000 
#    0.000    0.000    0.000    0.000    0.000    0.000 
#
# Total GULP energy -89350.470448 kJ/mol
# GULP energy per Si atom -5584.404403 kJ/mol
# Density = 2.300583 g / cm^3
# Si number density = 23.058308 Si / 1000 Ang^3
#
#
#
# Elastic Constant Matrix: (Units=GPa)
#
#
# Indices 1 2 3 4 5 6 
#
# 1 81.2671 40.7962 17.2247 -1.4804 3.7377 -12.4023
# 2 40.7962 67.2579 2.6703 12.8984 2.4644 18.5835
# 3 17.2247 2.6703 72.8864 20.4056 1.1452 10.4906
# 4 -1.4804 12.8984 20.4056 32.8345 -7.5074 7.0507
# 5 3.7377 2.4644 1.1452 -7.5074 37.9145 3.9423
# 6 -12.4023 18.5835 10.4906 7.0507 3.9423 37.8348
#
#
#
# Elastic Compliance Matrix: (Units=1/GPa)
#
#
# Indices 1 2 3 4 5 6 
#
# 1 0.039449 -0.035898 -0.018283 0.020331 -0.000292 0.031875
# 2 -0.035898 0.051240 0.019310 -0.026133 -0.001677 -0.037244
# 3 -0.018283 0.019310 0.025950 -0.021143 -0.002502 -0.018472
# 4 0.020331 -0.026133 -0.021143 0.053875 0.009510 0.014332
# 5 -0.000292 -0.001677 -0.002502 0.009510 0.028820 -0.003354
# 6 0.031875 -0.037244 -0.018472 0.014332 -0.003354 0.057973
#
#
# Mechanical properties :
#
#
# Convention : Reuss Voigt Hill
#
# Bulk Modulus (GPa) = 21.32334 38.08821 29.70577
# Shear Modulus (GPa) = 14.59076 32.43142 23.51109
#
# Velocity S-wave (km/s) = 2.51823 3.75440 3.19664
# Velocity P-wave (km/s) = 4.20987 5.94542 5.15126
#
# Compressibility (1/GPa) = 0.04689697
#
# Stress axis : x y z
#
# Youngs Moduli (GPa) = 25.34899 19.51608 38.53510
#
# Poissons Ratio (x) = 0.70059 0.70453
# Poissons Ratio (y) = 0.90998 -0.74410
# Poissons Ratio (z) = 0.46345 -0.37685
#
# Static dielectric constant tensor:
#      x y z
#    x 1.870260 -0.029630 0.030220 
#    y -0.029630 1.927690 0.025260 
#    z 0.030220 0.025260 1.920300 
# 
# From -- ./inp_files/447212.got.cif
#   From: 2010.05.17/outbox.cif.g08.bks.cpg/sg2_224_cif.got.tgz:447212.got - 2010.06.03 11:33:40.
