data_PCOD9089653
_publ_section_title
;
Structure prediction by ZEFSAII (Michael W. Deem and Ramdas Pophale) SiO2 
 PCOD9089653
Probable space group: P -1
;
_chemical_formula_sum "Si O2"
_cell_formula_units_Z 16
_cell_length_a 8.416500
_cell_length_b 7.565059
_cell_length_c 13.119120
_cell_angle_alpha 117.929372
_cell_angle_beta 59.324088
_cell_angle_gamma 104.172317
_cell_volume 634.726910
_symmetry_space_group_name_H-M "P -1"
_symmetry_group_IT_number 2
_symmetry_cell_setting 'triclinic'
loop_
_space_group_symop_operation_xyz
x,y,z
-x,-y,-z
loop_
_atom_site_type_symbol
_atom_site_label
_atom_site_fract_x
_atom_site_fract_y
_atom_site_fract_z
Si Si1 0.837881 0.399093 0.633032
Si Si2 0.253079 0.618676 0.903606
Si Si3 0.127610 0.133353 0.419167
Si Si4 0.347884 0.189496 0.184898
Si Si5 0.543362 0.774867 0.293282
Si Si6 0.077276 0.999599 0.089986
Si Si7 0.856789 0.372260 0.289700
Si Si8 0.488659 0.231119 0.453615
O O1 0.732172 0.599375 0.693174
O O2 0.665758 0.264367 0.687054
O O3 0.962882 0.285356 0.479662
O O4 0.989363 0.468408 0.683544
O O5 0.437143 0.759677 0.872769
O O6 0.324913 0.394645 0.845792
O O7 0.168198 0.602555 0.815310
O O8 0.111519 0.768134 0.048225
O O9 0.240726 0.047272 0.262296
O O10 0.293458 0.223542 0.457640
O O11 0.000000 0.000000 0.500000
O O12 0.269141 0.122089 0.083168
O O13 0.540079 0.746017 0.409675
O O14 0.571529 0.010843 0.337807
O O15 0.938571 0.153054 0.229985
O O16 0.000000 0.000000 0.000000
O O17 0.651995 0.377793 0.404068
#
# Coordination Sequence:
#
# PCOD9089653 Si02
#       8
#     2   2   2   2   2   2   2   2
#     4  10  22  36  57  88 121 158 199 242 295 357
#     4  10  19  38  60  87 115 154 205 248 299 346
#     4  12  23  37  57  88 128 161 195 238 303 366
#     4  10  21  35  61  89 119 157 201 252 294 356
#     4  10  23  37  57  85 123 161 197 247 297 358
#     4   9  20  37  61  90 116 152 203 259 296 344
#     4  10  21  36  61  87 117 153 200 249 297 354
#     4  11  23  38  55  85 124 161 195 242 304 359
#
# _framework density 25.207692000000002
#
# number of rings (size 3 to 8) (size 9 to 14) (size 15 to 20)
#    0.000    1.750    2.500    1.500    7.000    1.000 
#    0.000    0.625    0.000    6.750    0.000    0.000 
#    0.000    0.000    0.000    0.000    0.000    0.000 
#
# Total GULP energy -89165.917917 kJ/mol
# GULP energy per Si atom -5572.869870 kJ/mol
# Density = 2.515032 g / cm^3
# Si number density = 25.207692 Si / 1000 Ang^3
#
#
#
# Elastic Constant Matrix: (Units=GPa)
#
#
# Indices 1 2 3 4 5 6 
#
# 1 144.7401 30.5777 31.6725 2.1013 7.5697 37.2844
# 2 30.5777 80.2463 25.8003 16.3117 3.0441 23.4508
# 3 31.6725 25.8003 77.2194 35.5929 -19.5726 6.0630
# 4 2.1013 16.3117 35.5929 34.0144 -6.1408 -10.5458
# 5 7.5697 3.0441 -19.5726 -6.1408 43.5371 12.9125
# 6 37.2844 23.4508 6.0630 -10.5458 12.9125 46.6464
#
#
#
# Elastic Compliance Matrix: (Units=1/GPa)
#
#
# Indices 1 2 3 4 5 6 
#
# 1 0.009691 -0.001134 -0.005368 0.003619 -0.001994 -0.005108
# 2 -0.001134 0.018900 0.002875 -0.015713 0.001815 -0.013024
# 3 -0.005368 0.002875 0.042427 -0.047866 0.018581 -0.018634
# 4 0.003619 -0.015713 -0.047866 0.095160 -0.018889 0.037971
# 5 -0.001994 0.001815 0.018581 -0.018889 0.033401 -0.015250
# 6 -0.005108 -0.013024 -0.018634 0.037971 -0.015250 0.047296
#
#
# Mechanical properties :
#
#
# Convention : Reuss Voigt Hill
#
# Bulk Modulus (GPa) = 15.68279 53.14519 34.41399
# Shear Modulus (GPa) = 18.15646 39.11660 28.63653
#
# Velocity S-wave (km/s) = 2.68671 3.94353 3.37415
# Velocity P-wave (km/s) = 3.98239 6.47023 5.37231
#
# Compressibility (1/GPa) = 0.06376415
#
# Stress axis : x y z
#
# Youngs Moduli (GPa) = 103.19204 52.90890 23.56986
#
# Poissons Ratio (x) = 0.06000 0.12653
# Poissons Ratio (y) = 0.11701 -0.06777
# Poissons Ratio (z) = 0.55395 -0.15212
#
# Static dielectric constant tensor:
#      x y z
#    x 1.999170 -0.080020 -0.028710 
#    y -0.080020 2.223160 0.032520 
#    z -0.028710 0.032520 2.088410 
# 
# From -- ./inp_files/179235.got.cif
#   From: 2010.05.17/outbox.cif.g08.bks.cpg/sg2_90_cif.got.tgz:179235.got - 2010.06.03 11:33:40.
