data_PCOD9089023
_publ_section_title
;
Structure prediction by ZEFSAII (Michael W. Deem and Ramdas Pophale) SiO2 
 PCOD9089023
Probable space group: P -1
;
_chemical_formula_sum "Si O2"
_cell_formula_units_Z 14
_cell_length_a 8.627514
_cell_length_b 17.394262
_cell_length_c 23.180033
_cell_angle_alpha 157.909995
_cell_angle_beta 31.335503
_cell_angle_gamma 149.343908
_cell_volume 636.821264
_symmetry_space_group_name_H-M "P -1"
_symmetry_group_IT_number 2
_symmetry_cell_setting 'triclinic'
loop_
_space_group_symop_operation_xyz
x,y,z
-x,-y,-z
loop_
_atom_site_type_symbol
_atom_site_label
_atom_site_fract_x
_atom_site_fract_y
_atom_site_fract_z
Si Si1 0.428100 0.288315 0.950014
Si Si2 0.185901 0.340431 0.845486
Si Si3 0.653585 0.193054 0.538219
Si Si4 0.696290 0.157852 0.097780
Si Si5 0.774336 0.623870 0.437006
Si Si6 0.238824 0.891115 0.375200
Si Si7 0.461632 0.018015 0.198245
O O1 0.651916 0.245760 0.801261
O O2 0.439486 0.129435 0.889445
O O3 0.580370 0.541466 0.095612
O O4 0.061968 0.233499 0.014719
O O5 0.413345 0.326497 0.711971
O O6 0.914696 0.110993 0.784905
O O7 0.000000 0.500000 0.000000
O O8 0.000844 0.341793 0.553267
O O9 0.500000 0.000000 0.500000
O O10 0.567147 0.069070 0.419101
O O11 0.623156 0.377583 0.290327
O O12 0.643430 0.041433 0.096422
O O13 0.500000 0.000000 0.000000
O O14 0.536903 0.754980 0.616563
O O15 0.027085 0.749756 0.395517
O O16 0.000000 0.000000 0.500000
#
# Coordination Sequence:
#
# PCOD9089023 Si02
#       7
#     2   2   2   2   2   2   2
#     4  11  24  43  68 100 133 172 212 278 331 380
#     4  10  19  37  67  98 123 166 213 267 327 376
#     4  10  19  37  64  94 127 163 213 265 324 382
#     4  12  29  45  63  97 137 175 221 272 325 389
#     4  11  23  44  67  93 128 179 215 267 329 388
#     4  11  21  40  70 103 132 159 225 277 321 388
#     4  11  23  46  68  92 135 177 217 256 334 410
#
# _framework density 21.984192
#
# number of rings (size 3 to 8) (size 9 to 14) (size 15 to 20)
#    0.000    1.143    5.714    1.714    4.000    0.571 
#    0.000    0.714    0.000    0.000    0.000    0.000 
#    0.000    0.000    0.000    0.000    0.000    0.000 
#
# Total GULP energy -78176.869629 kJ/mol
# GULP energy per Si atom -5584.062116 kJ/mol
# Density = 2.193415 g / cm^3
# Si number density = 21.984192 Si / 1000 Ang^3
#
#
#
# Elastic Constant Matrix: (Units=GPa)
#
#
# Indices 1 2 3 4 5 6 
#
# 1 75.2476 20.3029 18.6787 17.1667 14.7362 8.4309
# 2 20.3029 63.9540 20.0865 3.4980 13.9714 3.6650
# 3 18.6787 20.0865 92.9917 11.7869 15.0196 5.7339
# 4 17.1667 3.4980 11.7869 37.1170 6.2932 13.6426
# 5 14.7362 13.9714 15.0196 6.2932 40.6586 0.3434
# 6 8.4309 3.6650 5.7339 13.6426 0.3434 39.3269
#
#
#
# Elastic Compliance Matrix: (Units=1/GPa)
#
#
# Indices 1 2 3 4 5 6 
#
# 1 0.016772 -0.003834 -0.001163 -0.006117 -0.003377 -0.000917
# 2 -0.003834 0.018610 -0.002742 0.002056 -0.004300 -0.001188
# 3 -0.001163 -0.002742 0.012377 -0.002508 -0.002817 -0.000405
# 4 -0.006117 0.002056 -0.002508 0.034730 -0.002850 -0.010538
# 5 -0.003377 -0.004300 -0.002817 -0.002850 0.028759 0.002273
# 6 -0.000917 -0.001188 -0.000405 -0.010538 0.002273 0.029430
#
#
# Mechanical properties :
#
#
# Convention : Reuss Voigt Hill
#
# Bulk Modulus (GPa) = 30.97943 38.92551 34.95247
# Shear Modulus (GPa) = 29.95467 34.96217 32.45842
#
# Velocity S-wave (km/s) = 3.69528 3.99222 3.84662
# Velocity P-wave (km/s) = 5.68587 6.24460 5.97177
#
# Compressibility (1/GPa) = 0.03227949
#
# Stress axis : x y z
#
# Youngs Moduli (GPa) = 59.62183 53.73484 80.79183
#
# Poissons Ratio (x) = 0.20603 0.09400
# Poissons Ratio (y) = 0.22861 0.22156
# Poissons Ratio (z) = 0.06937 0.14736
#
# Static dielectric constant tensor:
#      x y z
#    x 1.875960 0.014970 0.006320 
#    y 0.014970 1.810610 0.037490 
#    z 0.006320 0.037490 1.862640 
# 
# From -- ./inp_files/156603.got.cif
#   From: 2010.05.17/outbox.cif.g08.bks.cpg/sg2_79_cif.got.tgz:156603.got - 2010.06.03 11:33:40.
