data_PCOD9089784
_publ_section_title
;
Structure prediction by ZEFSAII (Michael W. Deem and Ramdas Pophale) SiO2 
 PCOD9089784
Probable space group: P -1
;
_chemical_formula_sum "Si O2"
_cell_formula_units_Z 14
_cell_length_a 11.722603
_cell_length_b 9.294363
_cell_length_c 7.287610
_cell_angle_alpha 111.697105
_cell_angle_beta 116.868828
_cell_angle_gamma 63.800350
_cell_volume 620.998003
_symmetry_space_group_name_H-M "P -1"
_symmetry_group_IT_number 2
_symmetry_cell_setting 'triclinic'
loop_
_space_group_symop_operation_xyz
x,y,z
-x,-y,-z
loop_
_atom_site_type_symbol
_atom_site_label
_atom_site_fract_x
_atom_site_fract_y
_atom_site_fract_z
Si Si1 0.641714 0.094347 0.803044
Si Si2 0.842346 0.298030 0.029460
Si Si3 0.946874 0.841391 0.170329
Si Si4 0.650517 0.867594 0.410281
Si Si5 0.737308 0.667267 0.032172
Si Si6 0.423605 0.831802 0.789878
Si Si7 0.838943 0.224813 0.393737
O O1 0.727724 0.212159 0.886118
O O2 0.487868 0.163785 0.650116
O O3 0.707512 0.925290 0.660788
O O4 0.616091 0.087612 0.998294
O O5 0.978554 0.182249 0.980633
O O6 0.796685 0.472519 0.980058
O O7 0.855083 0.317334 0.265633
O O8 0.835713 0.751968 0.050945
O O9 0.064014 0.760860 0.367181
O O10 0.886738 0.031587 0.276894
O O11 0.732678 0.723209 0.269479
O O12 0.612555 0.026681 0.322066
O O13 0.583100 0.731841 0.873335
O O14 0.318281 0.732217 0.642078
#
# Coordination Sequence:
#
# PCOD9089784 Si02
#       7
#     2   2   2   2   2   2   2
#     4   9  20  34  60  87 120 157 204 249 297 362
#     4  11  24  41  60  96 129 160 203 261 311 368
#     4  11  23  43  63  90 125 171 207 249 302 382
#     4  10  19  38  61  90 123 162 206 252 299 372
#     4  11  23  39  67  92 130 161 200 261 319 357
#     4  10  20  40  64  92 121 160 207 255 306 364
#     4  10  23  41  68  90 119 168 213 253 304 361
#
# _framework density 22.544357000000002
#
# number of rings (size 3 to 8) (size 9 to 14) (size 15 to 20)
#    0.000    1.714    1.429    3.429    4.000    5.714 
#    0.000    8.571    0.000    0.000    0.000    1.000 
#    0.000    0.000    0.000    0.000    0.000    0.000 
#
# Total GULP energy -78236.726708 kJ/mol
# GULP energy per Si atom -5588.337622 kJ/mol
# Density = 2.249304 g / cm^3
# Si number density = 22.544357 Si / 1000 Ang^3
#
#
#
# Elastic Constant Matrix: (Units=GPa)
#
#
# Indices 1 2 3 4 5 6 
#
# 1 144.4570 43.3494 24.6448 -2.3269 6.4458 13.5295
# 2 43.3494 59.9038 41.2126 -8.8068 10.3825 2.1324
# 3 24.6448 41.2126 58.7396 -13.3638 2.4008 2.9807
# 4 -2.3269 -8.8068 -13.3638 17.1856 -13.0915 -2.5925
# 5 6.4458 10.3825 2.4008 -13.0915 20.7933 2.1623
# 6 13.5295 2.1324 2.9807 -2.5925 2.1623 13.4836
#
#
#
# Elastic Compliance Matrix: (Units=1/GPa)
#
#
# Indices 1 2 3 4 5 6 
#
# 1 0.010056 -0.008231 0.001213 -0.003764 -0.000509 -0.009699
# 2 -0.008231 0.051965 -0.040157 -0.037242 -0.043108 0.008671
# 3 0.001213 -0.040157 0.057500 0.065257 0.054514 -0.003772
# 4 -0.003764 -0.037242 0.065257 0.191078 0.131396 0.010909
# 5 -0.000509 -0.043108 0.054514 0.131396 0.146515 -0.002955
# 6 -0.009699 0.008671 -0.003772 0.010909 -0.002955 0.085930
#
#
# Mechanical properties :
#
#
# Convention : Reuss Voigt Hill
#
# Bulk Modulus (GPa) = 39.72982 53.50158 46.61570
# Shear Modulus (GPa) = 7.74252 20.55206 14.14729
#
# Velocity S-wave (km/s) = 1.85521 3.02259 2.50778
# Velocity P-wave (km/s) = 4.71702 5.99705 5.39513
#
# Compressibility (1/GPa) = 0.02517001
#
# Stress axis : x y z
#
# Youngs Moduli (GPa) = 99.44156 19.24381 17.39133
#
# Poissons Ratio (x) = 0.15840 -0.02109
# Poissons Ratio (y) = 0.81855 0.69838
# Poissons Ratio (z) = -0.12060 0.77277
#
# Static dielectric constant tensor:
#      x y z
#    x 1.844020 -0.011300 -0.002130 
#    y -0.011300 1.807830 -0.019440 
#    z -0.002130 -0.019440 1.903210 
# 
# From -- ./inp_files/245202.got.cif
#   From: 2010.05.17/outbox.cif.g08.bks.cpg/sg2_123_cif.got.tgz:245202.got - 2010.06.03 11:33:40.
