data_PCOD9089693
_publ_section_title
;
Structure prediction by ZEFSAII (Michael W. Deem and Ramdas Pophale) SiO2 
 PCOD9089693
Probable space group: P -1
;
_chemical_formula_sum "Si O2"
_cell_formula_units_Z 14
_cell_length_a 7.953357
_cell_length_b 9.278919
_cell_length_c 9.884886
_cell_angle_alpha 95.104747
_cell_angle_beta 130.710547
_cell_angle_gamma 75.269155
_cell_volume 531.840361
_symmetry_space_group_name_H-M "P -1"
_symmetry_group_IT_number 2
_symmetry_cell_setting 'triclinic'
loop_
_space_group_symop_operation_xyz
x,y,z
-x,-y,-z
loop_
_atom_site_type_symbol
_atom_site_label
_atom_site_fract_x
_atom_site_fract_y
_atom_site_fract_z
Si Si1 0.661860 0.024548 0.232260
Si Si2 0.230475 0.031664 0.190829
Si Si3 0.033430 0.325024 0.023158
Si Si4 0.402812 0.302349 0.999758
Si Si5 0.376026 0.726414 0.343311
Si Si6 0.096794 0.760106 0.457748
Si Si7 0.695008 0.511731 0.307615
O O1 0.448207 0.001335 0.203564
O O2 0.580811 0.137739 0.072201
O O3 0.777498 0.127952 0.394665
O O4 0.854141 0.870809 0.298319
O O5 0.322378 0.906551 0.342262
O O6 0.155821 0.211481 0.196748
O O7 0.000000 0.000000 0.000000
O O8 0.787855 0.297322 0.867693
O O9 0.200930 0.269784 0.981064
O O10 0.000000 0.500000 0.000000
O O11 0.516912 0.411724 0.159295
O O12 0.311047 0.391037 0.823031
O O13 0.264616 0.682730 0.417026
O O14 0.610889 0.622373 0.400867
O O15 0.091255 0.624671 0.545086
#
# Coordination Sequence:
#
# PCOD9089693 Si02
#       7
#     2   2   2   2   2   2   2
#     4   9  20  42  65  89 133 171 219 261 330 394
#     4   9  21  39  63  96 126 163 220 277 321 375
#     4  10  19  38  60  91 124 163 217 273 323 376
#     4   9  19  37  65  88 117 169 220 269 315 375
#     4  11  22  37  60  93 132 165 215 272 324 387
#     4  10  22  40  62  94 135 180 209 261 330 402
#     4  10  20  38  60  92 126 165 219 266 319 382
#
# _framework density 26.323687
#
# number of rings (size 3 to 8) (size 9 to 14) (size 15 to 20)
#    0.000    2.286    1.429    0.429    0.000    5.143 
#    5.143    9.286    0.000    0.000    0.000    0.000 
#    0.000    0.000    0.000    0.000    0.000    0.000 
#
# Total GULP energy -78136.827294 kJ/mol
# GULP energy per Si atom -5581.201950 kJ/mol
# Density = 2.626377 g / cm^3
# Si number density = 26.323687 Si / 1000 Ang^3
#
#
#
# Elastic Constant Matrix: (Units=GPa)
#
#
# Indices 1 2 3 4 5 6 
#
# 1 77.0339 29.7278 26.3681 -31.2470 8.4325 6.6855
# 2 29.7278 183.1591 45.4546 -51.1168 -11.4573 7.6876
# 3 26.3681 45.4546 89.3793 -34.1809 2.0567 -6.4050
# 4 -31.2470 -51.1168 -34.1809 52.6544 9.4043 -0.4715
# 5 8.4325 -11.4573 2.0567 9.4043 31.3054 -1.1918
# 6 6.6855 7.6876 -6.4050 -0.4715 -1.1918 41.5893
#
#
#
# Elastic Compliance Matrix: (Units=1/GPa)
#
#
# Indices 1 2 3 4 5 6 
#
# 1 0.019794 0.000218 -0.001067 0.012874 -0.009183 -0.003503
# 2 0.000218 0.007751 -0.001710 0.006366 0.000916 -0.001633
# 3 -0.001067 -0.001710 0.016066 0.008868 -0.003945 0.002949
# 4 0.012874 0.006366 0.008868 0.041075 -0.014129 -0.001820
# 5 -0.009183 0.000916 -0.003945 -0.014129 0.039319 0.001666
# 6 -0.003503 -0.001633 0.002949 -0.001820 0.001666 0.025391
#
#
# Mechanical properties :
#
#
# Convention : Reuss Voigt Hill
#
# Bulk Modulus (GPa) = 25.97872 61.40815 43.69343
# Shear Modulus (GPa) = 29.87861 41.64462 35.76162
#
# Velocity S-wave (km/s) = 3.37270 3.98178 3.68983
# Velocity P-wave (km/s) = 5.00572 6.67219 5.89811
#
# Compressibility (1/GPa) = 0.03849305
#
# Stress axis : x y z
#
# Youngs Moduli (GPa) = 50.52146 129.01329 62.24439
#
# Poissons Ratio (x) = -0.02807 0.06638
# Poissons Ratio (y) = -0.01099 0.10642
# Poissons Ratio (z) = 0.05388 0.22058
#
# Static dielectric constant tensor:
#      x y z
#    x 2.005040 0.007610 0.052970 
#    y 0.007610 2.260210 -0.042600 
#    z 0.052970 -0.042600 2.211460 
# 
# From -- ./inp_files/379717.got.cif
#   From: 2010.05.17/outbox.cif.g08.bks.cpg/sg2_190_cif.got.tgz:379717.got - 2010.06.03 11:33:40.
