data_PCOD9089539
_publ_section_title
;
Structure prediction by ZEFSAII (Michael W. Deem and Ramdas Pophale) SiO2 
 PCOD9089539
Probable space group: P -1
;
_chemical_formula_sum "Si O2"
_cell_formula_units_Z 16
_cell_length_a 9.207631
_cell_length_b 7.681943
_cell_length_c 17.099620
_cell_angle_alpha 54.265650
_cell_angle_beta 133.076614
_cell_angle_gamma 110.988152
_cell_volume 715.448625
_symmetry_space_group_name_H-M "P -1"
_symmetry_group_IT_number 2
_symmetry_cell_setting 'triclinic'
loop_
_space_group_symop_operation_xyz
x,y,z
-x,-y,-z
loop_
_atom_site_type_symbol
_atom_site_label
_atom_site_fract_x
_atom_site_fract_y
_atom_site_fract_z
Si Si1 0.315081 0.122127 0.676680
Si Si2 0.754420 0.455664 0.843537
Si Si3 0.000810 0.815349 0.114374
Si Si4 0.336442 0.586100 0.574566
Si Si5 0.838889 0.907907 0.763195
Si Si6 0.078133 0.025384 0.391466
Si Si7 0.470739 0.186116 0.549055
Si Si8 0.610189 0.016953 0.955063
O O1 0.228454 0.365650 0.596809
O O2 0.451487 0.151665 0.643586
O O3 0.456561 0.038477 0.821074
O O4 0.127129 0.979694 0.635603
O O5 0.533441 0.531819 0.712714
O O6 0.839065 0.665841 0.858390
O O7 0.726716 0.238551 0.939019
O O8 0.887199 0.386034 0.834320
O O9 0.109616 0.911407 0.203692
O O10 0.770469 0.815891 0.053557
O O11 0.000000 0.000000 0.000000
O O12 0.199023 0.791388 0.497442
O O13 0.417967 0.632498 0.504340
O O14 0.972632 0.921800 0.731653
O O15 0.615105 0.978047 0.632248
O O16 0.242164 0.183323 0.438500
O O17 0.500000 0.000000 0.000000
#
# Coordination Sequence:
#
# PCOD9089539 Si02
#       8
#     2   2   2   2   2   2   2   2
#     4  11  23  36  61  87 120 164 200 244 309 359
#     4  10  20  39  65  90 116 159 205 246 303 367
#     4  10  22  38  61  88 114 152 212 259 293 346
#     4  10  19  38  58  90 121 160 199 236 297 377
#     4  11  20  39  65  89 122 161 200 249 308 359
#     4  11  21  37  58  92 129 157 189 245 305 368
#     4  11  20  37  60  90 130 152 194 247 296 368
#     4  10  22  42  59  84 121 157 205 259 302 348
#
# _framework density 22.363589000000001
#
# number of rings (size 3 to 8) (size 9 to 14) (size 15 to 20)
#    0.000    1.500    2.500    4.875    0.000    3.000 
#    0.000    3.750    0.000    6.750    0.000    0.000 
#    0.000    0.000    0.000    0.000    0.000    0.000 
#
# Total GULP energy -89283.231585 kJ/mol
# GULP energy per Si atom -5580.201974 kJ/mol
# Density = 2.231269 g / cm^3
# Si number density = 22.363589 Si / 1000 Ang^3
#
#
#
# Elastic Constant Matrix: (Units=GPa)
#
#
# Indices 1 2 3 4 5 6 
#
# 1 105.7177 14.6081 26.6338 8.0416 5.1921 11.8770
# 2 14.6081 49.6190 14.7312 1.7514 4.0388 9.9522
# 3 26.6338 14.7312 49.9557 9.9208 -2.2507 15.7895
# 4 8.0416 1.7514 9.9208 32.4646 -6.7138 0.1575
# 5 5.1921 4.0388 -2.2507 -6.7138 29.8667 7.9964
# 6 11.8770 9.9522 15.7895 0.1575 7.9964 23.0777
#
#
#
# Elastic Compliance Matrix: (Units=1/GPa)
#
#
# Indices 1 2 3 4 5 6 
#
# 1 0.011271 -0.001379 -0.005090 -0.001628 -0.002275 -0.000924
# 2 -0.001379 0.023135 -0.004388 0.000117 -0.001671 -0.005687
# 3 -0.005090 -0.004388 0.032018 -0.006581 0.007778 -0.020045
# 4 -0.001628 0.000117 -0.006581 0.034611 0.006832 0.002687
# 5 -0.002275 -0.001671 0.007778 0.006832 0.040956 -0.017668
# 6 -0.000924 -0.005687 -0.020045 0.002687 -0.017668 0.066079
#
#
# Mechanical properties :
#
#
# Convention : Reuss Voigt Hill
#
# Bulk Modulus (GPa) = 22.36567 35.24876 28.80721
# Shear Modulus (GPa) = 20.43429 27.03642 23.73535
#
# Velocity S-wave (km/s) = 3.02608 3.48076 3.26135
# Velocity P-wave (km/s) = 4.71510 5.65245 5.20492
#
# Compressibility (1/GPa) = 0.04471137
#
# Stress axis : x y z
#
# Youngs Moduli (GPa) = 88.71999 43.22492 31.23222
#
# Poissons Ratio (x) = 0.05962 0.15896
# Poissons Ratio (y) = 0.12237 0.13704
# Poissons Ratio (z) = 0.45155 0.18966
#
# Static dielectric constant tensor:
#      x y z
#    x 1.879060 -0.016610 0.064290 
#    y -0.016610 1.913360 0.031720 
#    z 0.064290 0.031720 1.924790 
# 
# From -- ./inp_files/179434.got.cif
#   From: 2010.05.17/outbox.cif.g08.bks.cpg/sg2_90_cif.got.tgz:179434.got - 2010.06.03 11:33:40.
