data_PCOD9089595
_publ_section_title
;
Structure prediction by ZEFSAII (Michael W. Deem and Ramdas Pophale) SiO2 
 PCOD9089595
Probable space group: P -1
;
_chemical_formula_sum "Si O2"
_cell_formula_units_Z 14
_cell_length_a 24.271020
_cell_length_b 9.509004
_cell_length_c 12.223549
_cell_angle_alpha 49.671697
_cell_angle_beta 154.706590
_cell_angle_gamma 146.051178
_cell_volume 607.381464
_symmetry_space_group_name_H-M "P -1"
_symmetry_group_IT_number 2
_symmetry_cell_setting 'triclinic'
loop_
_space_group_symop_operation_xyz
x,y,z
-x,-y,-z
loop_
_atom_site_type_symbol
_atom_site_label
_atom_site_fract_x
_atom_site_fract_y
_atom_site_fract_z
Si Si1 0.398504 0.337271 0.285929
Si Si2 0.700512 0.035021 0.019835
Si Si3 0.587168 0.588511 0.271473
Si Si4 0.272227 0.807822 0.247562
Si Si5 0.145236 0.477989 0.381391
Si Si6 0.505733 0.090224 0.082949
Si Si7 0.024746 0.955275 0.394632
O O1 0.500000 0.500000 0.500000
O O2 0.553190 0.517902 0.373913
O O3 0.341635 0.060149 0.314358
O O4 0.199591 0.244613 0.946101
O O5 0.907231 0.155262 0.360752
O O6 0.556823 0.704355 0.906840
O O7 0.647947 0.102800 0.997063
O O8 0.658177 0.109370 0.795791
O O9 0.813102 0.857116 0.506290
O O10 0.497817 0.694276 0.041076
O O11 0.253802 0.610039 0.391327
O O12 0.048498 0.616545 0.921919
O O13 0.285749 0.733740 0.585004
O O14 0.086569 0.207871 0.442465
O O15 0.500000 0.000000 0.000000
#
# Coordination Sequence:
#
# PCOD9089595 Si02
#       7
#     2   2   2   2   2   2   2
#     4  10  23  37  58  92 124 161 204 254 308 360
#     4  10  19  40  63  93 114 159 217 246 296 376
#     4  10  20  39  63  91 117 161 211 250 298 371
#     4   9  22  36  61  87 121 158 208 251 298 371
#     4  10  19  38  59  90 119 161 201 248 311 359
#     4  11  22  35  61  88 125 158 197 258 310 356
#     4  10  19  38  67  86 118 161 209 254 294 361
#
# _framework density 23.049766000000002
#
# number of rings (size 3 to 8) (size 9 to 14) (size 15 to 20)
#    0.000    2.000    2.857    0.857    4.000    2.857 
#    0.000    0.714    0.000    0.000    0.000    0.000 
#    0.000    0.000    0.000    0.000    0.000    0.000 
#
# Total GULP energy -77966.371784 kJ/mol
# GULP energy per Si atom -5569.026556 kJ/mol
# Density = 2.299730 g / cm^3
# Si number density = 23.049766 Si / 1000 Ang^3
#
#
#
# Elastic Constant Matrix: (Units=GPa)
#
#
# Indices 1 2 3 4 5 6 
#
# 1 154.0388 14.6117 30.3351 26.0358 -34.6233 -5.5402
# 2 14.6117 32.0146 11.8926 -12.1579 -13.3822 9.7084
# 3 30.3351 11.8926 96.0640 11.9372 -20.2631 -21.2301
# 4 26.0358 -12.1579 11.9372 16.5576 8.4023 4.3830
# 5 -34.6233 -13.3822 -20.2631 8.4023 40.6874 -3.1168
# 6 -5.5402 9.7084 -21.2301 4.3830 -3.1168 30.0063
#
#
#
# Elastic Compliance Matrix: (Units=1/GPa)
#
#
# Indices 1 2 3 4 5 6 
#
# 1 0.000561 0.016300 -0.010566 0.026380 -0.006184 -0.017142
# 2 0.016300 0.002254 0.015808 -0.061163 0.037127 0.026255
# 3 -0.010566 0.015808 0.002927 0.034243 -0.010253 -0.011061
# 4 0.026380 -0.061163 0.034243 -0.090170 0.043103 0.066535
# 5 -0.006184 0.037127 -0.010253 0.043103 0.015597 -0.025084
# 6 -0.017142 0.026255 -0.011061 0.066535 -0.025084 0.001517
#
#
# Mechanical properties :
#
#
# Convention : Reuss Voigt Hill
#
# Bulk Modulus (GPa) = 20.48099 43.97735 32.22917
# Shear Modulus (GPa) = -53.12175 32.46878 -10.32648
#
# Velocity S-wave (km/s) = -4.80589 3.75725 -2.11892
# Velocity P-wave (km/s) = 4.67874 6.15982 2.83309
#
# Compressibility (1/GPa) = 0.04882576
#
# Stress axis : x y z
#
# Youngs Moduli (GPa) = 1782.43219 443.69430 341.64616
#
# Poissons Ratio (x) = -7.23238 3.60984
# Poissons Ratio (y) = -29.05430 -5.40061
# Poissons Ratio (z) = 18.83320 -7.01374
#
# Static dielectric constant tensor:
#      x y z
#    x 2.067620 0.161430 -0.078910 
#    y 0.161430 1.898390 0.122570 
#    z -0.078910 0.122570 1.213800 
# 
# From -- ./inp_files/190237.got.cif
#   From: 2010.05.17/outbox.cif.g08.bks.cpg/sg2_96_cif.got.tgz:190237.got - 2010.06.03 11:33:40.
