data_PCOD9089607
_publ_section_title
;
Structure prediction by ZEFSAII (Michael W. Deem and Ramdas Pophale) SiO2 
 PCOD9089607
Probable space group: P -1
;
_chemical_formula_sum "Si O2"
_cell_formula_units_Z 14
_cell_length_a 9.007206
_cell_length_b 11.636393
_cell_length_c 11.833548
_cell_angle_alpha 49.212461
_cell_angle_beta 133.912633
_cell_angle_gamma 99.550399
_cell_volume 575.160087
_symmetry_space_group_name_H-M "P -1"
_symmetry_group_IT_number 2
_symmetry_cell_setting 'triclinic'
loop_
_space_group_symop_operation_xyz
x,y,z
-x,-y,-z
loop_
_atom_site_type_symbol
_atom_site_label
_atom_site_fract_x
_atom_site_fract_y
_atom_site_fract_z
Si Si1 0.293782 0.569464 0.941061
Si Si2 0.730671 0.963414 0.579511
Si Si3 0.599170 0.397159 0.777422
Si Si4 0.973988 0.368426 0.659283
Si Si5 0.147338 0.007648 0.852233
Si Si6 0.836096 0.922133 0.422199
Si Si7 0.973357 0.613881 0.063949
O O1 0.227628 0.431899 0.044041
O O2 0.034444 0.712759 0.658135
O O3 0.500000 0.500000 0.000000
O O4 0.356507 0.642224 0.037906
O O5 0.667616 0.974422 0.407661
O O6 0.500000 0.000000 0.500000
O O7 0.921928 0.763759 0.848129
O O8 0.875308 0.057650 0.634643
O O9 0.313634 0.535271 0.534597
O O10 0.736336 0.490470 0.734763
O O11 0.699858 0.201550 0.897405
O O12 0.000000 0.500000 0.500000
O O13 0.096713 0.168409 0.802835
O O14 0.074929 0.349054 0.852080
O O15 0.271604 0.016769 0.796124
O O16 0.000000 0.000000 0.500000
#
# Coordination Sequence:
#
# PCOD9089607 Si02
#       7
#     2   2   2   2   2   2   2
#     4  12  23  39  71  99 134 180 230 293 343 407
#     4  10  23  38  67 104 134 176 226 286 354 398
#     4  11  24  45  71 100 136 187 231 291 353 398
#     4  12  27  47  68 102 139 191 236 278 350 427
#     4  10  23  45  70  97 143 180 230 286 340 419
#     4  10  19  38  59  95 132 164 219 279 338 394
#     4  11  25  44  66 102 144 175 237 287 348 418
#
# _framework density 24.341052000000001
#
# number of rings (size 3 to 8) (size 9 to 14) (size 15 to 20)
#    0.000    1.143    4.286    3.429    6.000    4.000 
#    0.000    2.857    0.000    0.000    0.000    0.000 
#    0.000    0.000    0.000    0.000    0.000    0.000 
#
# Total GULP energy -78059.794682 kJ/mol
# GULP energy per Si atom -5575.699620 kJ/mol
# Density = 2.428565 g / cm^3
# Si number density = 24.341052 Si / 1000 Ang^3
#
#
#
# Elastic Constant Matrix: (Units=GPa)
#
#
# Indices 1 2 3 4 5 6 
#
# 1 158.3831 36.0517 3.2398 1.1535 11.6326 -21.6987
# 2 36.0517 121.4374 16.5734 -9.1283 -2.5076 -26.8795
# 3 3.2398 16.5734 41.4309 8.2305 2.6900 -12.4933
# 4 1.1535 -9.1283 8.2305 20.5627 -5.6500 -3.3953
# 5 11.6326 -2.5076 2.6900 -5.6500 35.7144 -0.8587
# 6 -21.6987 -26.8795 -12.4933 -3.3953 -0.8587 31.2974
#
#
#
# Elastic Compliance Matrix: (Units=1/GPa)
#
#
# Indices 1 2 3 4 5 6 
#
# 1 0.007481 -0.001805 0.001999 -0.002153 -0.002955 0.004120
# 2 -0.001805 0.012010 -0.004203 0.009468 0.003450 0.008508
# 3 0.001999 -0.004203 0.031528 -0.014667 -0.005434 0.008621
# 4 -0.002153 0.009468 -0.014667 0.063652 0.012734 0.008039
# 5 -0.002955 0.003450 -0.005434 0.012734 0.031652 0.000995
# 6 0.004120 0.008508 0.008621 0.008039 0.000995 0.046456
#
#
# Mechanical properties :
#
#
# Convention : Reuss Voigt Hill
#
# Bulk Modulus (GPa) = 23.25485 48.10903 35.68194
# Shear Modulus (GPa) = 23.24182 35.20733 29.22457
#
# Velocity S-wave (km/s) = 3.09340 3.80731 3.46877
# Velocity P-wave (km/s) = 4.72582 6.25579 5.54384
#
# Compressibility (1/GPa) = 0.04300179
#
# Stress axis : x y z
#
# Youngs Moduli (GPa) = 133.67454 83.26364 31.71821
#
# Poissons Ratio (x) = 0.15025 -0.06340
# Poissons Ratio (y) = 0.24122 0.13330
# Poissons Ratio (z) = -0.26718 0.34992
#
# Static dielectric constant tensor:
#      x y z
#    x 2.025810 0.163700 -0.071540 
#    y 0.163700 2.158380 0.244900 
#    z -0.071540 0.244900 1.019120 
# 
# From -- ./inp_files/389198.got.cif
#   From: 2010.05.17/outbox.cif.g08.bks.cpg/sg2_195_cif.got.tgz:389198.got - 2010.06.03 11:33:40.
