data_PCOD9089271
_publ_section_title
;
Structure prediction by ZEFSAII (Michael W. Deem and Ramdas Pophale) SiO2 
 PCOD9089271
Probable space group: P -1
;
_chemical_formula_sum "Si O2"
_cell_formula_units_Z 12
_cell_length_a 6.505149
_cell_length_b 9.095512
_cell_length_c 17.370244
_cell_angle_alpha 49.359160
_cell_angle_beta 44.252086
_cell_angle_gamma 48.895234
_cell_volume 507.601566
_symmetry_space_group_name_H-M "P -1"
_symmetry_group_IT_number 2
_symmetry_cell_setting 'triclinic'
loop_
_space_group_symop_operation_xyz
x,y,z
-x,-y,-z
loop_
_atom_site_type_symbol
_atom_site_label
_atom_site_fract_x
_atom_site_fract_y
_atom_site_fract_z
Si Si1 0.255171 0.524906 0.841100
Si Si2 0.374839 0.172483 0.816400
Si Si3 0.646337 0.785770 0.620665
Si Si4 0.803214 0.549560 0.376561
Si Si5 0.078451 0.172699 0.629874
Si Si6 0.428182 0.185745 0.018616
O O1 0.185468 0.355780 0.864196
O O2 0.440713 0.643980 0.704221
O O3 0.939749 0.696621 0.900656
O O4 0.483357 0.379018 0.896093
O O5 0.269894 0.271903 0.727923
O O6 0.743877 0.147331 0.735460
O O7 0.378490 0.944972 0.916073
O O8 0.823624 0.831273 0.483938
O O9 0.916459 0.662873 0.650307
O O10 0.375991 0.994251 0.649658
O O11 0.500000 0.500000 0.500000
O O12 0.930403 0.622412 0.394322
O O13 0.500000 0.000000 0.000000
#
# Coordination Sequence:
#
# PCOD9089271 Si02
#       6
#     2   2   2   2   2   2
#     4  10  19  37  67  87 119 162 204 246 301 361
#     4  11  21  39  64  91 123 159 202 249 302 355
#     4  11  22  39  61  91 125 164 200 246 302 358
#     4  12  24  38  60  93 127 162 199 246 302 361
#     4  11  23  40  61  90 127 161 200 249 297 363
#     4   9  20  37  64  93 114 159 207 248 304 358
#
# _framework density 23.64059
#
# number of rings (size 3 to 8) (size 9 to 14) (size 15 to 20)
#    0.000    1.333    5.000    1.500    0.000    2.000 
#    0.000    0.833    0.000    6.000    0.000    0.000 
#    0.000    0.000    0.000    0.000    0.000    0.000 
#
# Total GULP energy -66964.841520 kJ/mol
# GULP energy per Si atom -5580.403460 kJ/mol
# Density = 2.358678 g / cm^3
# Si number density = 23.640590 Si / 1000 Ang^3
#
#
#
# Elastic Constant Matrix: (Units=GPa)
#
#
# Indices 1 2 3 4 5 6 
#
# 1 45.2147 27.7610 13.9001 6.9004 11.9055 -23.4247
# 2 27.7610 160.9864 27.9144 7.5048 9.7354 -33.9306
# 3 13.9001 27.9144 60.9492 -0.5994 19.7452 -6.9298
# 4 6.9004 7.5048 -0.5994 40.3903 -13.7567 6.0000
# 5 11.9055 9.7354 19.7452 -13.7567 36.5211 -7.0822
# 6 -23.4247 -33.9306 -6.9298 6.0000 -7.0822 34.9337
#
#
#
# Elastic Compliance Matrix: (Units=1/GPa)
#
#
# Indices 1 2 3 4 5 6 
#
# 1 0.044163 0.000788 -0.002775 -0.016826 -0.013636 0.029954
# 2 0.000788 0.008627 -0.003022 -0.003235 -0.000440 0.008774
# 3 -0.002775 -0.003022 0.021809 -0.002152 -0.011358 -0.002403
# 4 -0.016826 -0.003235 -0.002152 0.036948 0.018027 -0.017544
# 5 -0.013636 -0.000440 -0.011358 0.018027 0.043699 -0.006060
# 6 0.029954 0.008774 -0.002403 -0.017544 -0.006060 0.058541
#
#
# Mechanical properties :
#
#
# Convention : Reuss Voigt Hill
#
# Bulk Modulus (GPa) = 15.48478 45.14457 30.31468
# Shear Modulus (GPa) = 20.38046 35.54067 27.96057
#
# Velocity S-wave (km/s) = 2.93933 3.88154 3.44282
# Velocity P-wave (km/s) = 4.25251 6.26308 5.35304
#
# Compressibility (1/GPa) = 0.06457953
#
# Stress axis : x y z
#
# Youngs Moduli (GPa) = 22.64352 115.91959 45.85212
#
# Poissons Ratio (x) = -0.09133 0.12724
# Poissons Ratio (y) = -0.01784 0.13859
# Poissons Ratio (z) = 0.06283 0.35036
#
# Static dielectric constant tensor:
#      x y z
#    x 1.910200 -0.038170 0.063330 
#    y -0.038170 1.929460 -0.024020 
#    z 0.063330 -0.024020 1.943070 
# 
# From -- ./inp_files/29914.got.cif
#   From: 2010.05.17/outbox.cif.g08.bks.cpg/sg2_15_cif.got.tgz:29914.got - 2010.06.03 11:33:40.
