data_PCOD9089022
_publ_section_title
;
Structure prediction by ZEFSAII (Michael W. Deem and Ramdas Pophale) SiO2 
 PCOD9089022
Probable space group: P -1
;
_chemical_formula_sum "Si O2"
_cell_formula_units_Z 16
_cell_length_a 18.923877
_cell_length_b 8.644417
_cell_length_c 5.512151
_cell_angle_alpha 59.877010
_cell_angle_beta 96.395254
_cell_angle_gamma 100.122236
_cell_volume 767.509919
_symmetry_space_group_name_H-M "P -1"
_symmetry_group_IT_number 2
_symmetry_cell_setting 'triclinic'
loop_
_space_group_symop_operation_xyz
x,y,z
-x,-y,-z
loop_
_atom_site_type_symbol
_atom_site_label
_atom_site_fract_x
_atom_site_fract_y
_atom_site_fract_z
Si Si1 0.072554 0.162629 0.772219
Si Si2 0.532931 0.267139 0.803253
Si Si3 0.923238 0.117327 0.605538
Si Si4 0.566563 0.996719 0.349648
Si Si5 0.170260 0.239379 0.362797
Si Si6 0.070130 0.484984 0.875643
Si Si7 0.338072 0.290379 0.306838
Si Si8 0.405443 0.460088 0.708994
O O1 0.150728 0.234945 0.642305
O O2 0.050623 0.324009 0.801415
O O3 0.008977 0.137168 0.570518
O O4 0.076534 0.971953 0.054680
O O5 0.466918 0.126211 0.791371
O O6 0.487169 0.410693 0.793223
O O7 0.579056 0.333208 0.533362
O O8 0.582648 0.190621 0.079250
O O9 0.904978 0.317767 0.388967
O O10 0.870706 0.957472 0.581308
O O11 0.629071 0.897966 0.557585
O O12 0.500000 0.000000 0.500000
O O13 0.252661 0.260765 0.310742
O O14 0.132143 0.403152 0.112409
O O15 0.000000 0.500000 0.000000
O O16 0.366679 0.374089 0.513524
O O17 0.365680 0.403347 0.987704
#
# Coordination Sequence:
#
# PCOD9089022 Si02
#       8
#     2   2   2   2   2   2   2   2
#     4  10  22  38  66  94 123 163 216 276 324 379
#     4   9  20  36  64  96 117 161 217 268 304 374
#     4  10  22  39  64  94 119 163 219 266 321 386
#     4  10  19  37  64  94 127 161 217 261 316 379
#     4  11  25  42  62  89 134 169 211 267 334 393
#     4  11  23  39  64  95 124 160 221 272 321 386
#     4  11  25  42  62  90 136 171 204 266 329 387
#     4  10  22  40  64  91 125 165 212 259 320 376
#
# _framework density 20.846634999999999
#
# number of rings (size 3 to 8) (size 9 to 14) (size 15 to 20)
#    0.000    1.750    2.500    0.750    8.750    1.500 
#    2.250    1.250    0.000    0.000    0.000    0.000 
#    0.000    0.000    0.000    0.000    0.000    0.000 
#
# Total GULP energy -89071.821453 kJ/mol
# GULP energy per Si atom -5566.988841 kJ/mol
# Density = 2.079919 g / cm^3
# Si number density = 20.846635 Si / 1000 Ang^3
#
#
#
# Elastic Constant Matrix: (Units=GPa)
#
#
# Indices 1 2 3 4 5 6 
#
# 1 145.4874 34.8525 71.9027 -11.9427 -12.7465 -19.5091
# 2 34.8525 73.1993 57.7112 -11.2906 -0.6440 -6.5274
# 3 71.9027 57.7112 161.6078 -33.1386 -6.8236 -15.2279
# 4 -11.9427 -11.2906 -33.1386 41.7322 -8.1032 4.8783
# 5 -12.7465 -0.6440 -6.8236 -8.1032 29.4213 -0.6489
# 6 -19.5091 -6.5274 -15.2279 4.8783 -0.6489 24.0477
#
#
#
# Elastic Compliance Matrix: (Units=1/GPa)
#
#
# Indices 1 2 3 4 5 6 
#
# 1 0.009904 -0.001733 -0.003109 -0.000064 0.003640 0.005707
# 2 -0.001733 0.019391 -0.006392 -0.000703 -0.002005 -0.000102
# 3 -0.003109 -0.006392 0.011585 0.006991 0.003164 0.001746
# 4 -0.000064 -0.000703 0.006991 0.031515 0.010215 -0.001933
# 5 0.003640 -0.002005 0.003164 0.010215 0.039144 0.003397
# 6 0.005707 -0.000102 0.001746 -0.001933 0.003397 0.047776
#
#
# Mechanical properties :
#
#
# Convention : Reuss Voigt Hill
#
# Bulk Modulus (GPa) = 54.31303 78.80304 66.55804
# Shear Modulus (GPa) = 26.60689 33.42879 30.01784
#
# Velocity S-wave (km/s) = 3.57643 4.00879 3.79877
# Velocity P-wave (km/s) = 6.56998 7.70134 7.15805
#
# Compressibility (1/GPa) = 0.01841179
#
# Stress axis : x y z
#
# Youngs Moduli (GPa) = 100.96639 51.57085 86.31548
#
# Poissons Ratio (x) = 0.08938 0.26838
# Poissons Ratio (y) = 0.17500 0.55171
# Poissons Ratio (z) = 0.31394 0.32963
#
# Static dielectric constant tensor:
#      x y z
#    x 1.717120 0.012590 0.004760 
#    y 0.012590 1.905470 -0.000130 
#    z 0.004760 -0.000130 1.882610 
# 
# From -- ./inp_files/104530.got.cif
#   From: 2010.05.17/outbox.cif.g08.bks.cpg/sg2_53_cif.got.tgz:104530.got - 2010.06.03 11:33:40.
