data_PCOD9089202
_publ_section_title
;
Structure prediction by ZEFSAII (Michael W. Deem and Ramdas Pophale) SiO2 
 PCOD9089202
Probable space group: P -1
;
_chemical_formula_sum "Si O2"
_cell_formula_units_Z 16
_cell_length_a 11.450090
_cell_length_b 7.821367
_cell_length_c 11.159952
_cell_angle_alpha 118.170674
_cell_angle_beta 79.726211
_cell_angle_gamma 128.547521
_cell_volume 679.262220
_symmetry_space_group_name_H-M "P -1"
_symmetry_group_IT_number 2
_symmetry_cell_setting 'triclinic'
loop_
_space_group_symop_operation_xyz
x,y,z
-x,-y,-z
loop_
_atom_site_type_symbol
_atom_site_label
_atom_site_fract_x
_atom_site_fract_y
_atom_site_fract_z
Si Si1 0.573346 0.714964 0.657241
Si Si2 0.105475 0.133291 0.355102
Si Si3 0.473109 0.224395 0.050837
Si Si4 0.040591 0.221285 0.928367
Si Si5 0.981475 0.318892 0.604779
Si Si6 0.353071 0.861814 0.393875
Si Si7 0.682203 0.528082 0.895396
Si Si8 0.821175 0.302441 0.102765
O O1 0.500000 0.500000 0.500000
O O2 0.725906 0.753928 0.675016
O O3 0.489257 0.688695 0.787349
O O4 0.609552 0.948551 0.656606
O O5 0.077308 0.309647 0.480788
O O6 0.062187 0.909867 0.377853
O O7 0.998117 0.002151 0.217748
O O8 0.383671 0.328718 0.064967
O O9 0.601041 0.352115 0.968390
O O10 0.356570 0.928143 0.950595
O O11 0.129933 0.461550 0.904767
O O12 0.143192 0.279962 0.040817
O O13 0.896719 0.196794 0.987745
O O14 0.818525 0.244972 0.570893
O O15 0.092658 0.572243 0.744914
O O16 0.340207 0.638210 0.264740
O O17 0.500000 0.000000 0.500000
#
# Coordination Sequence:
#
# PCOD9089202 Si02
#       8
#     2   2   2   2   2   2   2   2
#     4  11  23  41  66  96 131 173 225 268 328 398
#     4   9  19  36  62  95 127 169 213 267 321 391
#     4  11  25  42  63  95 131 173 225 272 323 393
#     4  10  19  37  66  91 124 164 213 266 330 384
#     4   9  19  36  63  94 129 167 215 261 328 392
#     4  11  23  42  66  94 136 177 212 272 336 393
#     4  11  25  42  63  94 132 175 220 274 334 379
#     4  10  19  38  65  93 121 164 219 267 321 392
#
# _framework density 23.554967000000001
#
# number of rings (size 3 to 8) (size 9 to 14) (size 15 to 20)
#    0.000    1.750    2.500    1.500    0.000    9.500 
#    0.000    0.000    0.000    3.000    0.000    0.000 
#    0.000    0.000    0.000    0.000    0.000    0.000 
#
# Total GULP energy -89401.091162 kJ/mol
# GULP energy per Si atom -5587.568198 kJ/mol
# Density = 2.350135 g / cm^3
# Si number density = 23.554967 Si / 1000 Ang^3
#
#
#
# Elastic Constant Matrix: (Units=GPa)
#
#
# Indices 1 2 3 4 5 6 
#
# 1 84.2010 8.5999 49.7485 -2.4549 2.6394 15.3178
# 2 8.5999 79.9333 29.2049 -3.8589 0.1295 -12.9682
# 3 49.7485 29.2049 168.3400 18.4503 -0.8729 10.9686
# 4 -2.4549 -3.8589 18.4503 32.6309 1.4156 7.2515
# 5 2.6394 0.1295 -0.8729 1.4156 40.2683 3.4993
# 6 15.3178 -12.9682 10.9686 7.2515 3.4993 27.0529
#
#
#
# Elastic Compliance Matrix: (Units=1/GPa)
#
#
# Indices 1 2 3 4 5 6 
#
# 1 0.016789 -0.001367 -0.004746 0.005980 -0.000560 -0.009768
# 2 -0.001367 0.015292 -0.002999 0.001428 -0.000861 0.009049
# 3 -0.004746 -0.002999 0.008512 -0.005366 0.000769 -0.000863
# 4 0.005980 0.001428 -0.005366 0.036610 -0.000912 -0.010221
# 5 -0.000560 -0.000861 0.000769 -0.000912 0.025219 -0.003425
# 6 -0.009768 0.009049 -0.000863 -0.010221 -0.003425 0.050366
#
#
# Mechanical properties :
#
#
# Convention : Reuss Voigt Hill
#
# Bulk Modulus (GPa) = 44.70944 56.39788 50.55366
# Shear Modulus (GPa) = 28.01606 36.31849 32.16728
#
# Velocity S-wave (km/s) = 3.45250 3.93091 3.69945
# Velocity P-wave (km/s) = 5.90890 6.67816 6.30527
#
# Compressibility (1/GPa) = 0.02236664
#
# Stress axis : x y z
#
# Youngs Moduli (GPa) = 59.56248 65.39397 117.48543
#
# Poissons Ratio (x) = 0.08941 0.55762
# Poissons Ratio (y) = 0.08144 0.35240
# Poissons Ratio (z) = 0.28270 0.19615
#
# Static dielectric constant tensor:
#      x y z
#    x 1.887110 -0.021410 0.055810 
#    y -0.021410 1.970100 -0.011500 
#    z 0.055810 -0.011500 1.903740 
# 
# From -- ./inp_files/419730.got.cif
#   From: 2010.05.17/outbox.cif.g08.bks.cpg/sg2_210_cif.got.tgz:419730.got - 2010.06.03 11:33:40.
