data_PCOD9089698
_publ_section_title
;
Structure prediction by ZEFSAII (Michael W. Deem and Ramdas Pophale) SiO2 
 PCOD9089698
Probable space group: P -1
;
_chemical_formula_sum "Si O2"
_cell_formula_units_Z 16
_cell_length_a 15.136009
_cell_length_b 9.504888
_cell_length_c 30.539612
_cell_angle_alpha 145.360447
_cell_angle_beta 19.090209
_cell_angle_gamma 136.838839
_cell_volume 789.012980
_symmetry_space_group_name_H-M "P -1"
_symmetry_group_IT_number 2
_symmetry_cell_setting 'triclinic'
loop_
_space_group_symop_operation_xyz
x,y,z
-x,-y,-z
loop_
_atom_site_type_symbol
_atom_site_label
_atom_site_fract_x
_atom_site_fract_y
_atom_site_fract_z
Si Si1 0.872654 0.605366 0.383731
Si Si2 0.186584 0.645485 0.336635
Si Si3 0.386703 0.008309 0.284454
Si Si4 0.177329 0.703972 0.836879
Si Si5 0.128720 0.642880 0.938950
Si Si6 0.213147 0.769469 0.742947
Si Si7 0.730904 0.666596 0.696103
Si Si8 0.672051 0.216823 0.833064
O O1 0.546284 0.741026 0.578346
O O2 0.874476 0.348596 0.290404
O O3 0.048789 0.568225 0.336922
O O4 0.029194 0.758685 0.317712
O O5 0.422464 0.787593 0.247791
O O6 0.268413 0.429203 0.278966
O O7 0.944026 0.865649 0.529315
O O8 0.481284 0.866812 0.158735
O O9 0.516150 0.245664 0.290950
O O10 0.118073 0.562072 0.871902
O O11 0.152255 0.620834 0.777407
O O12 0.000000 0.000000 0.000000
O O13 0.451552 0.623453 0.793731
O O14 0.000000 0.500000 0.000000
O O15 0.957040 0.938860 0.098126
O O16 0.000000 0.500000 0.500000
O O17 0.712780 0.969934 0.781512
O O18 0.500000 0.500000 0.000000
#
# Coordination Sequence:
#
# PCOD9089698 Si02
#       8
#     2   2   2   2   2   2   2   2
#     4  10  22  41  66  92 126 176 220 273 321 396
#     4  10  21  36  66  93 127 161 222 271 322 381
#     4  10  19  38  60  93 119 165 215 262 313 387
#     4  10  20  35  62  86 122 163 217 259 307 390
#     4  11  25  39  62  99 137 166 210 276 330 390
#     4  10  22  42  65  90 128 173 225 262 328 391
#     4  12  24  40  66  99 134 168 219 273 329 387
#     4  11  23  40  64  92 134 171 218 269 328 391
#
# _framework density 20.278500999999999
#
# number of rings (size 3 to 8) (size 9 to 14) (size 15 to 20)
#    0.000    1.500    3.750    0.750    7.000    0.000 
#    0.000    6.875    0.000    3.000    0.000    0.000 
#    0.000    0.000    0.000    0.000    0.000    0.000 
#
# Total GULP energy -89205.926943 kJ/mol
# GULP energy per Si atom -5575.370434 kJ/mol
# Density = 2.023235 g / cm^3
# Si number density = 20.278501 Si / 1000 Ang^3
#
#
#
# Elastic Constant Matrix: (Units=GPa)
#
#
# Indices 1 2 3 4 5 6 
#
# 1 123.6345 49.6558 31.9461 9.0906 16.4447 -19.0520
# 2 49.6558 109.0523 30.2795 1.0872 2.4537 -41.0656
# 3 31.9461 30.2795 80.7577 -3.7530 3.8226 -7.2506
# 4 9.0906 1.0872 -3.7530 33.0700 5.2975 1.2529
# 5 16.4447 2.4537 3.8226 5.2975 25.7444 2.2592
# 6 -19.0520 -41.0656 -7.2506 1.2529 2.2592 46.6987
#
#
#
# Elastic Compliance Matrix: (Units=1/GPa)
#
#
# Indices 1 2 3 4 5 6 
#
# 1 0.011563 -0.003834 -0.002841 -0.002428 -0.006210 0.001271
# 2 -0.003834 0.016619 -0.003634 -0.000442 0.000400 0.012478
# 3 -0.002841 -0.003634 0.014827 0.002730 -0.000417 -0.002106
# 4 -0.002428 -0.000442 0.002730 0.032137 -0.005288 -0.001562
# 5 -0.006210 0.000400 -0.000417 -0.005288 0.044295 -0.004247
# 6 0.001271 0.012478 -0.002106 -0.001562 -0.004247 0.032826
#
#
# Mechanical properties :
#
#
# Convention : Reuss Voigt Hill
#
# Bulk Modulus (GPa) = 44.66135 59.68971 52.17553
# Shear Modulus (GPa) = 27.72431 34.54016 31.13223
#
# Velocity S-wave (km/s) = 3.70155 4.13157 3.92246
# Velocity P-wave (km/s) = 6.35141 7.22902 6.80438
#
# Compressibility (1/GPa) = 0.02239072
#
# Stress axis : x y z
#
# Youngs Moduli (GPa) = 86.48550 60.17267 67.44583
#
# Poissons Ratio (x) = 0.23068 0.19164
# Poissons Ratio (y) = 0.33155 0.24508
# Poissons Ratio (z) = 0.24574 0.21865
#
# Static dielectric constant tensor:
#      x y z
#    x 1.719840 -0.128630 0.117600 
#    y -0.128630 1.534620 0.174900 
#    z 0.117600 0.174900 1.534050 
# 
# From -- ./inp_files/623465.got.cif
#   From: 2010.05.17/outbox.cif.g08.bks.cpg/sg2_312_cif.got.tgz:623465.got - 2010.06.03 11:33:40.
