data_PCOD9089817
_publ_section_title
;
Structure prediction by ZEFSAII (Michael W. Deem and Ramdas Pophale) SiO2 
 PCOD9089817
Probable space group: P -1
;
_chemical_formula_sum "Si O2"
_cell_formula_units_Z 16
_cell_length_a 14.477901
_cell_length_b 10.930314
_cell_length_c 16.458013
_cell_angle_alpha 46.701612
_cell_angle_beta 144.216024
_cell_angle_gamma 105.251099
_cell_volume 803.105295
_symmetry_space_group_name_H-M "P -1"
_symmetry_group_IT_number 2
_symmetry_cell_setting 'triclinic'
loop_
_space_group_symop_operation_xyz
x,y,z
-x,-y,-z
loop_
_atom_site_type_symbol
_atom_site_label
_atom_site_fract_x
_atom_site_fract_y
_atom_site_fract_z
Si Si1 0.970267 0.826983 0.065839
Si Si2 0.043392 0.955813 0.452537
Si Si3 0.851816 0.440405 0.076344
Si Si4 0.758514 0.831572 0.751130
Si Si5 0.605609 0.134376 0.360517
Si Si6 0.016413 0.588011 0.555825
Si Si7 0.638216 0.906221 0.908102
Si Si8 0.235816 0.328839 0.512360
O O1 0.852835 0.845514 0.893100
O O2 0.822542 0.889116 0.010041
O O3 0.188179 0.556882 0.353163
O O4 0.000000 0.000000 0.000000
O O5 0.280816 0.837625 0.640977
O O6 0.006331 0.796859 0.462499
O O7 0.000000 0.000000 0.500000
O O8 0.892477 0.215620 0.191290
O O9 0.050358 0.359442 0.314221
O O10 0.848689 0.573944 0.938086
O O11 0.616166 0.628578 0.866841
O O12 0.500000 0.000000 0.500000
O O13 0.775140 0.948526 0.634993
O O14 0.526216 0.020571 0.314425
O O15 0.000000 0.500000 0.500000
O O16 0.825435 0.660341 0.444037
O O17 0.242392 0.352133 0.862311
O O18 0.481386 0.097153 0.776027
#
# Coordination Sequence:
#
# PCOD9089817 Si02
#       8
#     2   2   2   2   2   2   2   2
#     4  10  21  38  61  90 130 168 206 259 321 393
#     4  12  23  39  64  96 121 161 226 261 305 385
#     4  10  19  38  61  95 123 158 208 273 311 374
#     4   9  18  37  61  91 127 163 207 263 323 369
#     4  11  20  36  65  94 125 167 205 269 328 359
#     4  11  25  43  61  87 132 171 204 266 330 375
#     4  11  20  40  65  86 123 169 210 260 325 380
#     4  10  20  41  62  87 122 165 216 252 318 382
#
# _framework density 19.922668000000002
#
# number of rings (size 3 to 8) (size 9 to 14) (size 15 to 20)
#    0.000    1.500    7.500    0.000    0.000    6.500 
#    0.000    2.500    0.000    0.000    0.000    0.000 
#    0.000    0.000    0.000    0.000    0.000    0.000 
#
# Total GULP energy -89128.728963 kJ/mol
# GULP energy per Si atom -5570.545560 kJ/mol
# Density = 1.987732 g / cm^3
# Si number density = 19.922668 Si / 1000 Ang^3
#
#
#
# Elastic Constant Matrix: (Units=GPa)
#
#
# Indices 1 2 3 4 5 6 
#
# 1 100.7769 47.7600 39.5125 -22.2732 -3.9216 -1.5427
# 2 47.7600 103.2887 40.7560 -37.2501 -13.3725 14.5875
# 3 39.5125 40.7560 70.7463 -35.5582 0.4099 -3.7818
# 4 -22.2732 -37.2501 -35.5582 34.7474 -3.5831 -7.5802
# 5 -3.9216 -13.3725 0.4099 -3.5831 28.7888 -11.7869
# 6 -1.5427 14.5875 -3.7818 -7.5802 -11.7869 37.2666
#
#
#
# Elastic Compliance Matrix: (Units=1/GPa)
#
#
# Indices 1 2 3 4 5 6 
#
# 1 0.014307 -0.005328 -0.006046 -0.002403 -0.000108 0.001542
# 2 -0.005328 0.020893 0.002140 0.022410 0.011780 0.000102
# 3 -0.006046 0.002140 0.037792 0.041377 0.010745 0.014562
# 4 -0.002403 0.022410 0.041377 0.102877 0.033259 0.026772
# 5 -0.000108 0.011780 0.010745 0.033259 0.052275 0.019774
# 6 0.001542 0.000102 0.014562 0.026772 0.019774 0.040035
#
#
# Mechanical properties :
#
#
# Convention : Reuss Voigt Hill
#
# Bulk Modulus (GPa) = 18.34011 58.98544 38.66278
# Shear Modulus (GPa) = 16.40312 29.94610 23.17461
#
# Velocity S-wave (km/s) = 2.87250 3.88121 3.41431
# Velocity P-wave (km/s) = 4.49748 7.05383 5.91540
#
# Compressibility (1/GPa) = 0.05452530
#
# Stress axis : x y z
#
# Youngs Moduli (GPa) = 69.89748 47.86197 26.46088
#
# Poissons Ratio (x) = 0.25501 0.15997
# Poissons Ratio (y) = 0.37241 -0.05663
# Poissons Ratio (z) = 0.42257 -0.10244
#
# Static dielectric constant tensor:
#      x y z
#    x 1.767830 -0.043750 -0.015390 
#    y -0.043750 1.743140 -0.001270 
#    z -0.015390 -0.001270 1.740290 
# 
# From -- ./inp_files/528295.got.cif
#   From: 2010.05.17/outbox.cif.g08.bks.cpg/sg2_265_cif.got.tgz:528295.got - 2010.06.03 11:33:40.
