data_PCOD9089462
_publ_section_title
;
Structure prediction by ZEFSAII (Michael W. Deem and Ramdas Pophale) SiO2 
 PCOD9089462
Probable space group: P -1
;
_chemical_formula_sum "Si O2"
_cell_formula_units_Z 16
_cell_length_a 10.058647
_cell_length_b 14.758372
_cell_length_c 16.286110
_cell_angle_alpha 22.990335
_cell_angle_beta 40.661028
_cell_angle_gamma 47.080987
_cell_volume 613.843109
_symmetry_space_group_name_H-M "P -1"
_symmetry_group_IT_number 2
_symmetry_cell_setting 'triclinic'
loop_
_space_group_symop_operation_xyz
x,y,z
-x,-y,-z
loop_
_atom_site_type_symbol
_atom_site_label
_atom_site_fract_x
_atom_site_fract_y
_atom_site_fract_z
Si Si1 0.816394 0.126073 0.883537
Si Si2 0.616223 0.936009 0.582348
Si Si3 0.972305 0.288727 0.078455
Si Si4 0.758237 0.704697 0.838839
Si Si5 0.715060 0.065711 0.800401
Si Si6 0.589360 0.153865 0.620795
Si Si7 0.806172 0.040171 0.203986
Si Si8 0.606626 0.562216 0.670323
O O1 0.835940 0.151846 0.752812
O O2 0.769453 0.378431 0.725882
O O3 0.018992 0.991556 0.916707
O O4 0.617679 0.974940 0.136104
O O5 0.500000 0.000000 0.500000
O O6 0.795923 0.138754 0.336230
O O7 0.418746 0.891818 0.771932
O O8 0.734761 0.719556 0.738219
O O9 0.956756 0.558238 0.881563
O O10 0.895573 0.219412 0.080241
O O11 0.184977 0.167237 0.085652
O O12 0.573180 0.549112 0.096178
O O13 0.733401 0.961945 0.673445
O O14 0.699791 0.232823 0.589452
O O15 0.500000 0.000000 0.000000
O O16 0.506419 0.336446 0.442174
O O17 0.732811 0.771228 0.483482
#
# Coordination Sequence:
#
# PCOD9089462 Si02
#       8
#     2   2   2   2   2   2   2   2
#     4   9  21  38  60  86 117 160 200 243 299 345
#     4  10  21  39  58  87 123 154 195 240 288 355
#     4  10  21  39  61  87 118 156 197 239 295 355
#     4  11  21  39  60  88 121 158 197 239 299 351
#     4   9  20  43  65  85 116 152 200 251 292 347
#     4  10  21  39  60  86 122 156 199 252 289 345
#     4  10  19  38  56  87 125 151 197 245 286 355
#     4  11  21  38  58  89 124 158 197 243 297 352
#
# _framework density 26.065291999999999
#
# number of rings (size 3 to 8) (size 9 to 14) (size 15 to 20)
#    0.000    2.000    2.500    0.375    0.000    3.500 
#    2.250   15.000    0.000    0.000    0.000    0.000 
#    0.000    0.000    0.000    0.000    0.000    0.000 
#
# Total GULP energy -89071.891171 kJ/mol
# GULP energy per Si atom -5566.993198 kJ/mol
# Density = 2.600597 g / cm^3
# Si number density = 26.065292 Si / 1000 Ang^3
#
#
#
# Elastic Constant Matrix: (Units=GPa)
#
#
# Indices 1 2 3 4 5 6 
#
# 1 82.0835 17.8380 43.1592 19.2041 25.6949 2.8975
# 2 17.8380 161.6410 31.7324 -0.6293 8.0682 -23.4606
# 3 43.1592 31.7324 97.1959 1.5117 32.1688 9.6380
# 4 19.2041 -0.6293 1.5117 27.9757 9.0004 9.9187
# 5 25.6949 8.0682 32.1688 9.0004 44.6502 4.1874
# 6 2.8975 -23.4606 9.6380 9.9187 4.1874 38.5066
#
#
#
# Elastic Compliance Matrix: (Units=1/GPa)
#
#
# Indices 1 2 3 4 5 6 
#
# 1 0.020872 0.000149 -0.008392 -0.014407 -0.003530 0.004715
# 2 0.000149 0.007653 -0.003406 -0.002135 0.000857 0.005961
# 3 -0.008392 -0.003406 0.018905 0.010520 -0.009561 -0.007846
# 4 -0.014407 -0.002135 0.010520 0.053197 -0.008157 -0.015665
# 5 -0.003530 0.000857 -0.009561 -0.008157 0.032643 0.001732
# 6 0.004715 0.005961 -0.007846 -0.015665 0.001732 0.035057
#
#
# Mechanical properties :
#
#
# Convention : Reuss Voigt Hill
#
# Bulk Modulus (GPa) = 41.43823 58.48664 49.96243
# Shear Modulus (GPa) = 25.04141 38.77253 31.90697
#
# Velocity S-wave (km/s) = 3.10291 3.86102 3.50253
# Velocity P-wave (km/s) = 5.36374 6.50875 5.96379
#
# Compressibility (1/GPa) = 0.02413231
#
# Stress axis : x y z
#
# Youngs Moduli (GPa) = 47.91101 130.67080 52.89494
#
# Poissons Ratio (x) = -0.01941 0.44388
# Poissons Ratio (y) = -0.00712 0.18015
# Poissons Ratio (z) = 0.40205 0.44505
#
# Static dielectric constant tensor:
#      x y z
#    x 2.402350 -0.027010 0.136710 
#    y -0.027010 2.196220 -0.006610 
#    z 0.136710 -0.006610 2.042110 
# 
# From -- ./inp_files/570217.got.cif
#   From: 2010.05.17/outbox.cif.g08.bks.cpg/sg2_286_cif.got.tgz:570217.got - 2010.06.03 11:33:40.
