data_PCOD9089538
_publ_section_title
;
Structure prediction by ZEFSAII (Michael W. Deem and Ramdas Pophale) SiO2 
 PCOD9089538
Probable space group: P -1
;
_chemical_formula_sum "Si O2"
_cell_formula_units_Z 16
_cell_length_a 9.179467
_cell_length_b 15.882185
_cell_length_c 11.917664
_cell_angle_alpha 129.190517
_cell_angle_beta 52.515122
_cell_angle_gamma 141.508900
_cell_volume 814.408601
_symmetry_space_group_name_H-M "P -1"
_symmetry_group_IT_number 2
_symmetry_cell_setting 'triclinic'
loop_
_space_group_symop_operation_xyz
x,y,z
-x,-y,-z
loop_
_atom_site_type_symbol
_atom_site_label
_atom_site_fract_x
_atom_site_fract_y
_atom_site_fract_z
Si Si1 0.409340 0.815730 0.322284
Si Si2 0.488758 0.330965 0.226184
Si Si3 0.693255 0.986537 0.548661
Si Si4 0.047965 0.512578 0.731757
Si Si5 0.612228 0.459096 0.590166
Si Si6 0.253984 0.155661 0.409617
Si Si7 0.776616 0.843387 0.014830
Si Si8 0.741382 0.587757 0.884488
O O1 0.494559 0.867247 0.453514
O O2 0.638321 0.854181 0.184989
O O3 0.187655 0.650072 0.284928
O O4 0.329834 0.894172 0.360548
O O5 0.770460 0.437427 0.209259
O O6 0.405472 0.424821 0.351017
O O7 0.365583 0.215709 0.286036
O O8 0.407800 0.249995 0.079140
O O9 0.662099 0.921482 0.631022
O O10 0.966284 0.054327 0.449084
O O11 0.191608 0.531400 0.567458
O O12 0.953963 0.598997 0.847374
O O13 0.365280 0.297712 0.550919
O O14 0.675301 0.500819 0.725713
O O15 0.833805 0.744095 0.946941
O O16 0.000000 0.000000 0.000000
O O17 0.500000 0.500000 0.000000
#
# Coordination Sequence:
#
# PCOD9089538 Si02
#       8
#     2   2   2   2   2   2   2   2
#     4  11  22  40  60  90 121 164 213 250 319 364
#     4  10  22  40  61  92 123 161 207 258 310 376
#     4  10  22  35  60  88 121 157 201 265 298 379
#     4  11  21  39  67  92 121 161 217 266 298 370
#     4  10  21  38  66  90 122 163 210 258 312 364
#     4  10  19  38  58  90 121 154 203 257 314 352
#     4  11  25  43  63  85 131 172 201 251 325 381
#     4  11  23  42  61  96 127 166 213 259 307 376
#
# _framework density 19.646158
#
# number of rings (size 3 to 8) (size 9 to 14) (size 15 to 20)
#    0.000    1.500    1.250    4.875    0.000    6.500 
#    2.250    1.250    0.000    0.000    0.000    0.000 
#    0.000    0.000    0.000    0.000    0.000    0.000 
#
# Total GULP energy -89346.311055 kJ/mol
# GULP energy per Si atom -5584.144441 kJ/mol
# Density = 1.960144 g / cm^3
# Si number density = 19.646158 Si / 1000 Ang^3
#
#
#
# Elastic Constant Matrix: (Units=GPa)
#
#
# Indices 1 2 3 4 5 6 
#
# 1 86.8058 28.4474 25.9761 8.8299 -26.1895 -16.0633
# 2 28.4474 95.7675 -6.5221 0.8595 -8.6151 -1.0036
# 3 25.9761 -6.5221 33.7597 -4.4396 -12.2005 -5.3859
# 4 8.8299 0.8595 -4.4396 19.1492 0.4360 -5.7909
# 5 -26.1895 -8.6151 -12.2005 0.4360 20.9651 -0.0600
# 6 -16.0633 -1.0036 -5.3859 -5.7909 -0.0600 32.9062
#
#
#
# Elastic Compliance Matrix: (Units=1/GPa)
#
#
# Indices 1 2 3 4 5 6 
#
# 1 0.029064 -0.007221 -0.015278 -0.014472 0.024775 0.008965
# 2 -0.007221 0.013322 0.009231 0.004592 0.001728 -0.000797
# 3 -0.015278 0.009231 0.051730 0.019745 0.014416 0.004792
# 4 -0.014472 0.004592 0.019745 0.065785 -0.006047 0.007873
# 5 0.024775 0.001728 0.014416 -0.006047 0.087911 0.013602
# 6 0.008965 -0.000797 0.004792 0.007873 0.013602 0.036936
#
#
# Mechanical properties :
#
#
# Convention : Reuss Voigt Hill
#
# Bulk Modulus (GPa) = 14.79718 34.68176 24.73947
# Shear Modulus (GPa) = 14.97856 25.83287 20.40571
#
# Velocity S-wave (km/s) = 2.76419 3.63010 3.22632
# Velocity P-wave (km/s) = 4.21139 5.93815 5.14769
#
# Compressibility (1/GPa) = 0.06758046
#
# Stress axis : x y z
#
# Youngs Moduli (GPa) = 34.40683 75.06657 19.33097
#
# Poissons Ratio (x) = 0.54207 0.29533
# Poissons Ratio (y) = 0.24846 -0.17844
# Poissons Ratio (z) = 0.52565 -0.69294
#
# Static dielectric constant tensor:
#      x y z
#    x 1.726870 -0.027410 0.007460 
#    y -0.027410 1.692950 0.002380 
#    z 0.007460 0.002380 1.662820 
# 
# From -- ./inp_files/216510.got.cif
#   From: 2010.05.17/outbox.cif.g08.bks.cpg/sg2_109_cif.got.tgz:216510.got - 2010.06.03 11:33:40.
