data_PCOD9089716
_publ_section_title
;
Structure prediction by ZEFSAII (Michael W. Deem and Ramdas Pophale) SiO2 
 PCOD9089716
Probable space group: P -1
;
_chemical_formula_sum "Si O2"
_cell_formula_units_Z 14
_cell_length_a 8.537106
_cell_length_b 12.397485
_cell_length_c 10.140670
_cell_angle_alpha 37.323100
_cell_angle_beta 73.675683
_cell_angle_gamma 87.245774
_cell_volume 595.430549
_symmetry_space_group_name_H-M "P -1"
_symmetry_group_IT_number 2
_symmetry_cell_setting 'triclinic'
loop_
_space_group_symop_operation_xyz
x,y,z
-x,-y,-z
loop_
_atom_site_type_symbol
_atom_site_label
_atom_site_fract_x
_atom_site_fract_y
_atom_site_fract_z
Si Si1 0.660862 0.469081 0.770604
Si Si2 0.010125 0.273059 0.666406
Si Si3 0.877311 0.056888 0.152047
Si Si4 0.996093 0.416966 0.270003
Si Si5 0.935530 0.758771 0.823599
Si Si6 0.397481 0.115100 0.240861
Si Si7 0.516964 0.791253 0.563942
O O1 0.795119 0.586677 0.514815
O O2 0.530607 0.587927 0.722358
O O3 0.799715 0.483815 0.842240
O O4 0.547189 0.257876 0.979808
O O5 0.919722 0.353531 0.493516
O O6 0.017095 0.078792 0.790571
O O7 0.924876 0.228024 0.871999
O O8 0.923252 0.121935 0.226078
O O9 0.684642 0.930208 0.320712
O O10 0.006194 0.255172 0.325504
O O11 0.905237 0.550160 0.090437
O O12 0.774316 0.833611 0.795126
O O13 0.457869 0.181209 0.311782
O O14 0.379909 0.895126 0.451382
#
# Coordination Sequence:
#
# PCOD9089716 Si02
#       7
#     2   2   2   2   2   2   2
#     4   9  18  40  58  79 114 157 193 233 270 366
#     4   8  19  38  63  80 107 162 196 227 286 346
#     4  10  19  38  61  83 116 145 202 243 272 347
#     4   9  20  37  55  86 113 149 195 230 295 331
#     4  11  21  34  57  91 119 140 188 257 291 323
#     4  11  21  36  55  88 121 148 192 235 295 347
#     4  10  21  35  58  84 111 162 192 224 289 353
#
# _framework density 23.512398000000001
#
# number of rings (size 3 to 8) (size 9 to 14) (size 15 to 20)
#    0.857    1.429    1.429    1.286    0.000    2.857 
#    5.143    0.714    0.000    2.571    0.000    0.000 
#    0.000    0.000    0.000    0.000    0.000    0.000 
#
# Total GULP energy -78133.778862 kJ/mol
# GULP energy per Si atom -5580.984204 kJ/mol
# Density = 2.345888 g / cm^3
# Si number density = 23.512398 Si / 1000 Ang^3
#
#
#
# Elastic Constant Matrix: (Units=GPa)
#
#
# Indices 1 2 3 4 5 6 
#
# 1 99.2247 22.4674 28.0946 -0.8707 20.3288 -16.2097
# 2 22.4674 75.6261 15.7169 -15.0307 10.9799 -10.7110
# 3 28.0946 15.7169 115.7509 0.0523 17.8695 -6.2756
# 4 -0.8707 -15.0307 0.0523 26.9121 -10.3007 3.6524
# 5 20.3288 10.9799 17.8695 -10.3007 31.4954 -9.7365
# 6 -16.2097 -10.7110 -6.2756 3.6524 -9.7365 18.3287
#
#
#
# Elastic Compliance Matrix: (Units=1/GPa)
#
#
# Indices 1 2 3 4 5 6 
#
# 1 0.013554 -0.002612 -0.001594 -0.004347 -0.006009 0.007589
# 2 -0.002612 0.016741 -0.001557 0.009047 0.001532 0.005951
# 3 -0.001594 -0.001557 0.010009 -0.002848 -0.005409 -0.001198
# 4 -0.004347 0.009047 -0.002848 0.048654 0.017143 -0.000121
# 5 -0.006009 0.001532 -0.005409 0.017143 0.048788 0.016230
# 6 0.007589 0.005951 -0.001198 -0.000121 0.016230 0.072983
#
#
# Mechanical properties :
#
#
# Convention : Reuss Voigt Hill
#
# Bulk Modulus (GPa) = 34.74951 47.01772 40.88361
# Shear Modulus (GPa) = 21.56589 30.30208 25.93398
#
# Velocity S-wave (km/s) = 3.03184 3.59384 3.32474
# Velocity P-wave (km/s) = 5.20263 6.10420 5.67136
#
# Compressibility (1/GPa) = 0.02877739
#
# Stress axis : x y z
#
# Youngs Moduli (GPa) = 73.78134 59.73301 99.91101
#
# Poissons Ratio (x) = 0.15603 0.15925
# Poissons Ratio (y) = 0.19272 0.15557
# Poissons Ratio (z) = 0.11760 0.09301
#
# Static dielectric constant tensor:
#      x y z
#    x 1.899650 -0.051920 0.011350 
#    y -0.051920 1.901600 -0.047330 
#    z 0.011350 -0.047330 1.961790 
# 
# From -- ./inp_files/398086.got.cif
#   From: 2010.05.17/outbox.cif.g08.bks.cpg/sg2_200_cif.got.tgz:398086.got - 2010.06.03 11:33:40.
