data_PCOD9089858
_publ_section_title
;
Structure prediction by ZEFSAII (Michael W. Deem and Ramdas Pophale) SiO2 
 PCOD9089858
Probable space group: P -1
;
_chemical_formula_sum "Si O2"
_cell_formula_units_Z 14
_cell_length_a 8.970366
_cell_length_b 17.602518
_cell_length_c 10.889058
_cell_angle_alpha 41.537666
_cell_angle_beta 94.928218
_cell_angle_gamma 64.238974
_cell_volume 744.617290
_symmetry_space_group_name_H-M "P -1"
_symmetry_group_IT_number 2
_symmetry_cell_setting 'triclinic'
loop_
_space_group_symop_operation_xyz
x,y,z
-x,-y,-z
loop_
_atom_site_type_symbol
_atom_site_label
_atom_site_fract_x
_atom_site_fract_y
_atom_site_fract_z
Si Si1 0.363226 0.961353 0.507936
Si Si2 0.239518 0.323718 0.285372
Si Si3 0.986442 0.221822 0.958230
Si Si4 0.304980 0.385092 0.481413
Si Si5 0.713164 0.973586 0.308434
Si Si6 0.814195 0.099089 0.973744
Si Si7 0.687813 0.839372 0.113595
O O1 0.555972 0.776782 0.675858
O O2 0.725092 0.023927 0.382319
O O3 0.500000 0.000000 0.500000
O O4 0.157805 0.100005 0.230937
O O5 0.298333 0.358605 0.369930
O O6 0.223457 0.197102 0.469794
O O7 0.000000 0.500000 0.000000
O O8 0.139639 0.166504 0.917264
O O9 0.830920 0.421148 0.735149
O O10 0.843502 0.192704 0.949175
O O11 0.563172 0.242408 0.722461
O O12 0.199604 0.334785 0.603284
O O13 0.842928 0.970630 0.217416
O O14 0.452146 0.122394 0.061617
O O15 0.000000 0.000000 0.000000
O O16 0.500000 0.000000 0.000000
#
# Coordination Sequence:
#
# PCOD9089858 Si02
#       7
#     2   2   2   2   2   2   2
#     4  10  19  38  62  86 121 158 202 253 305 354
#     4  11  21  37  65  94 120 154 208 261 302 360
#     4  12  22  39  62  90 124 162 202 255 306 367
#     4  11  23  38  60  93 123 155 209 258 304 357
#     4  10  21  39  62  91 120 160 209 247 306 365
#     4  11  25  41  63  86 127 170 201 246 312 373
#     4  11  19  37  62  88 120 159 205 252 300 357
#
# _framework density 18.801604999999999
#
# number of rings (size 3 to 8) (size 9 to 14) (size 15 to 20)
#    0.000    1.143    4.286    5.143    0.000    0.571 
#    0.000    1.429    0.000    3.429    0.000    0.000 
#    0.000    0.000    0.000    0.000    0.000    0.000 
#
# Total GULP energy -78166.462834 kJ/mol
# GULP energy per Si atom -5583.318774 kJ/mol
# Density = 1.875881 g / cm^3
# Si number density = 18.801605 Si / 1000 Ang^3
#
#
#
# Elastic Constant Matrix: (Units=GPa)
#
#
# Indices 1 2 3 4 5 6 
#
# 1 73.7021 36.2812 21.5357 8.6270 -3.9968 -2.0938
# 2 36.2812 133.9903 58.2131 8.9941 -1.9054 -1.4376
# 3 21.5357 58.2131 108.6657 4.4098 8.3001 -0.3535
# 4 8.6270 8.9941 4.4098 34.0278 8.0270 1.3302
# 5 -3.9968 -1.9054 8.3001 8.0270 25.4740 3.6106
# 6 -2.0938 -1.4376 -0.3535 1.3302 3.6106 37.9785
#
#
#
# Elastic Compliance Matrix: (Units=1/GPa)
#
#
# Indices 1 2 3 4 5 6 
#
# 1 0.016418 -0.003438 -0.001554 -0.004021 0.004019 0.000519
# 2 -0.003438 0.010838 -0.005245 -0.001924 0.002587 -0.000007
# 3 -0.001554 -0.005245 0.012665 0.001362 -0.005232 0.000283
# 4 -0.004021 -0.001924 0.001362 0.033520 -0.011733 -0.000340
# 5 0.004019 0.002587 -0.005232 -0.011733 0.046005 -0.003692
# 6 0.000519 -0.000007 0.000283 -0.000340 -0.003692 0.026725
#
#
# Mechanical properties :
#
#
# Convention : Reuss Voigt Hill
#
# Bulk Modulus (GPa) = 51.41713 60.93536 56.17624
# Shear Modulus (GPa) = 28.88052 32.85125 30.86589
#
# Velocity S-wave (km/s) = 3.92352 4.18456 4.05614
# Velocity P-wave (km/s) = 6.92329 7.47177 7.20275
#
# Compressibility (1/GPa) = 0.01944877
#
# Stress axis : x y z
#
# Youngs Moduli (GPa) = 60.90930 92.26420 78.95539
#
# Poissons Ratio (x) = 0.31718 0.12271
# Poissons Ratio (y) = 0.20939 0.41408
# Poissons Ratio (z) = 0.09467 0.48388
#
# Static dielectric constant tensor:
#      x y z
#    x 1.667260 -0.012490 -0.020690 
#    y -0.012490 1.693970 0.007190 
#    z -0.020690 0.007190 1.633700 
# 
# From -- ./inp_files/401834.got.cif
#   From: 2010.05.17/outbox.cif.g08.bks.cpg/sg2_201_cif.got.tgz:401834.got - 2010.06.03 11:33:40.
