data_PCOD9089219
_publ_section_title
;
Structure prediction by ZEFSAII (Michael W. Deem and Ramdas Pophale) SiO2 
 PCOD9089219
Probable space group: P -1
;
_chemical_formula_sum "Si O2"
_cell_formula_units_Z 16
_cell_length_a 8.644240
_cell_length_b 11.704419
_cell_length_c 10.672488
_cell_angle_alpha 57.663433
_cell_angle_beta 119.114162
_cell_angle_gamma 122.836175
_cell_volume 736.619442
_symmetry_space_group_name_H-M "P -1"
_symmetry_group_IT_number 2
_symmetry_cell_setting 'triclinic'
loop_
_space_group_symop_operation_xyz
x,y,z
-x,-y,-z
loop_
_atom_site_type_symbol
_atom_site_label
_atom_site_fract_x
_atom_site_fract_y
_atom_site_fract_z
Si Si1 0.777210 0.201162 0.282711
Si Si2 0.878690 0.581284 0.840419
Si Si3 0.260923 0.107699 0.634867
Si Si4 0.376177 0.582686 0.844960
Si Si5 0.904532 0.603017 0.337244
Si Si6 0.119574 0.894322 0.371114
Si Si7 0.701863 0.791190 0.700805
Si Si8 0.524911 0.602011 0.329327
O O1 0.649368 0.294494 0.149164
O O2 0.763313 0.155193 0.449461
O O3 0.992755 0.318439 0.278646
O O4 0.736720 0.053998 0.275394
O O5 0.837184 0.702843 0.835026
O O6 0.672868 0.468174 0.781903
O O7 0.000000 0.500000 0.000000
O O8 0.275119 0.162506 0.463642
O O9 0.426472 0.232693 0.702367
O O10 0.063103 0.098495 0.627574
O O11 0.172788 0.466640 0.786867
O O12 0.492139 0.676797 0.717339
O O13 0.500000 0.500000 0.000000
O O14 0.711775 0.600847 0.331257
O O15 0.000000 0.500000 0.500000
O O16 0.049376 0.771051 0.309845
O O17 0.241937 0.060569 0.284949
O O18 0.500000 0.500000 0.500000
#
# Coordination Sequence:
#
# PCOD9089219 Si02
#       8
#     2   2   2   2   2   2   2   2
#     4  11  21  38  61  89 124 162 201 249 306 359
#     4  12  22  37  61  90 121 165 208 242 300 371
#     4  10  19  37  66  93 121 148 203 265 303 348
#     4  12  26  42  58  88 130 167 201 247 303 373
#     4  11  22  40  61  91 121 160 204 250 308 359
#     4  10  19  37  67  93 119 148 206 265 300 350
#     4  11  20  40  61  90 122 162 201 248 308 359
#     4  11  21  39  62  93 122 153 204 262 299 354
#
# _framework density 21.720848
#
# number of rings (size 3 to 8) (size 9 to 14) (size 15 to 20)
#    0.000    1.000    6.250    2.250    0.000    2.000 
#    2.250    2.500    0.000    0.000    0.000    0.000 
#    0.000    0.000    0.000    0.000    0.000    0.000 
#
# Total GULP energy -89360.318033 kJ/mol
# GULP energy per Si atom -5585.019877 kJ/mol
# Density = 2.167141 g / cm^3
# Si number density = 21.720848 Si / 1000 Ang^3
#
#
#
# Elastic Constant Matrix: (Units=GPa)
#
#
# Indices 1 2 3 4 5 6 
#
# 1 38.3676 26.3964 16.5884 -12.0070 15.0587 -9.9899
# 2 26.3964 217.0923 65.7411 -20.6085 25.9256 -7.6479
# 3 16.5884 65.7411 101.2853 -12.4856 36.7426 -9.5248
# 4 -12.0070 -20.6085 -12.4856 24.2915 -5.4656 12.7819
# 5 15.0587 25.9256 36.7426 -5.4656 38.2154 -10.0540
# 6 -9.9899 -7.6479 -9.5248 12.7819 -10.0540 32.2935
#
#
#
# Elastic Compliance Matrix: (Units=1/GPa)
#
#
# Indices 1 2 3 4 5 6 
#
# 1 0.036178 -0.002150 0.001592 0.012988 -0.011860 0.002319
# 2 -0.002150 0.006142 -0.003380 0.003183 -0.000001 -0.001467
# 3 0.001592 -0.003380 0.017690 0.004425 -0.015117 -0.001548
# 4 0.012988 0.003183 0.004425 0.061715 -0.008205 -0.020905
# 5 -0.011860 -0.000001 -0.015117 -0.008205 0.046747 0.009674
# 6 0.002319 -0.001467 -0.001548 -0.020905 0.009674 0.042165
#
#
# Mechanical properties :
#
#
# Convention : Reuss Voigt Hill
#
# Bulk Modulus (GPa) = 19.18144 63.79967 41.49056
# Shear Modulus (GPa) = 21.19629 35.49469 28.34549
#
# Velocity S-wave (km/s) = 3.12725 4.04682 3.61638
# Velocity P-wave (km/s) = 4.67864 7.16045 6.04821
#
# Compressibility (1/GPa) = 0.05213373
#
# Stress axis : x y z
#
# Youngs Moduli (GPa) = 27.64135 162.82067 56.52967
#
# Poissons Ratio (x) = 0.35005 -0.08998
# Poissons Ratio (y) = 0.05943 0.19105
# Poissons Ratio (z) = -0.04400 0.55027
#
# Static dielectric constant tensor:
#      x y z
#    x 1.870560 -0.029050 -0.015580 
#    y -0.029050 1.826130 -0.004130 
#    z -0.015580 -0.004130 1.770870 
# 
# From -- ./inp_files/392238.got.cif
#   From: 2010.05.17/outbox.cif.g08.bks.cpg/sg2_197_cif.got.tgz:392238.got - 2010.06.03 11:33:40.
