data_PCOD9089274
_publ_section_title
;
Structure prediction by ZEFSAII (Michael W. Deem and Ramdas Pophale) SiO2 
 PCOD9089274
Probable space group: P -1
;
_chemical_formula_sum "Si O2"
_cell_formula_units_Z 16
_cell_length_a 11.752897
_cell_length_b 20.961230
_cell_length_c 8.308097
_cell_angle_alpha 96.195634
_cell_angle_beta 95.257189
_cell_angle_gamma 160.373205
_cell_volume 557.346818
_symmetry_space_group_name_H-M "P -1"
_symmetry_group_IT_number 2
_symmetry_cell_setting 'triclinic'
loop_
_space_group_symop_operation_xyz
x,y,z
-x,-y,-z
loop_
_atom_site_type_symbol
_atom_site_label
_atom_site_fract_x
_atom_site_fract_y
_atom_site_fract_z
Si Si1 0.442127 0.675561 0.866095
Si Si2 0.264962 0.810791 0.578590
Si Si3 0.662406 0.245361 0.179100
Si Si4 0.492760 0.564402 0.814330
Si Si5 0.615525 0.491823 0.840626
Si Si6 0.431998 0.117409 0.587296
Si Si7 0.482014 0.282254 0.735977
Si Si8 0.416834 0.019621 0.852725
O O1 0.520364 0.784079 0.811943
O O2 0.619538 0.705641 0.822069
O O3 0.942285 0.395435 0.731721
O O4 0.592359 0.764394 0.094940
O O5 0.094054 0.658988 0.621294
O O6 0.644239 0.975920 0.590511
O O7 0.995294 0.694762 0.368750
O O8 0.282616 0.879283 0.723251
O O9 0.013306 0.449935 0.148221
O O10 0.339041 0.017623 0.008347
O O11 0.605539 0.554131 0.764119
O O12 0.544347 0.589525 0.019413
O O13 0.401342 0.313515 0.687681
O O14 0.095671 0.732949 0.993790
O O15 0.326757 0.136203 0.577848
O O16 0.309056 0.014795 0.705527
#
# Coordination Sequence:
#
# PCOD9089274 Si02
#       8
#     2   2   2   2   2   2   2   2
#     4   9  14  29  51  70  95 122 165 201 237 278
#     4  11  22  29  46  78 106 120 156 205 247 274
#     4  10  18  30  49  73  98 127 160 201 243 279
#     4   9  18  31  48  76  99 121 159 208 237 274
#     4   9  17  31  53  71  93 131 166 189 237 291
#     4  10  16  28  48  71  94 124 159 201 238 268
#     4   9  15  29  51  70  93 124 167 200 231 285
#     4  11  18  33  50  69 100 135 157 190 240 301
#
# _framework density 28.707439999999998
#
# number of rings (size 3 to 8) (size 9 to 14) (size 15 to 20)
#    0.000    2.250    6.250    1.500    0.000    4.500 
#    0.000    2.500    0.000    3.000    0.000    0.000 
#    0.000    0.000    0.000    0.000    0.000    0.000 
#
# Total GULP energy -89301.535585 kJ/mol
# GULP energy per Si atom -5581.345974 kJ/mol
# Density = 2.864210 g / cm^3
# Si number density = 28.707440 Si / 1000 Ang^3
#
#
#
# Elastic Constant Matrix: (Units=GPa)
#
#
# Indices 1 2 3 4 5 6 
#
# 1 327.1592 45.7280 46.8493 1.7675 -17.7551 -53.3660
# 2 45.7280 34.9852 24.4650 3.4741 -10.9928 -22.5247
# 3 46.8493 24.4650 96.1935 -3.5208 -19.1588 -12.3934
# 4 1.7675 3.4741 -3.5208 37.7330 -5.6223 -8.4241
# 5 -17.7551 -10.9928 -19.1588 -5.6223 48.1098 1.3877
# 6 -53.3660 -22.5247 -12.3934 -8.4241 1.3877 60.9382
#
#
#
# Elastic Compliance Matrix: (Units=1/GPa)
#
#
# Indices 1 2 3 4 5 6 
#
# 1 0.003994 -0.003175 -0.000734 0.000608 0.000463 0.002248
# 2 -0.003175 0.049069 -0.007985 -0.001172 0.006336 0.013427
# 3 -0.000734 -0.007985 0.013511 0.002433 0.003587 -0.000591
# 4 0.000608 -0.001172 0.002433 0.028410 0.004118 0.004427
# 5 0.000463 0.006336 0.003587 0.004118 0.024213 0.003494
# 6 0.002248 0.013427 -0.000591 0.004427 0.003494 0.023754
#
#
# Mechanical properties :
#
#
# Convention : Reuss Voigt Hill
#
# Bulk Modulus (GPa) = 23.37121 76.93583 50.15352
# Shear Modulus (GPa) = 27.62434 52.10925 39.86680
#
# Velocity S-wave (km/s) = 3.10542 4.26512 3.73061
# Velocity P-wave (km/s) = 4.58443 7.14934 6.00542
#
# Compressibility (1/GPa) = 0.04278769
#
# Stress axis : x y z
#
# Youngs Moduli (GPa) = 250.37473 20.37962 74.01401
#
# Poissons Ratio (x) = 0.06470 0.05431
# Poissons Ratio (y) = 0.79486 0.59097
# Poissons Ratio (z) = 0.18371 0.16272
#
# Static dielectric constant tensor:
#      x y z
#    x 2.304470 0.068450 -0.031860 
#    y 0.068450 2.398490 0.131020 
#    z -0.031860 0.131020 2.237660 
# 
# From -- ./inp_files/185988.got.cif
#   From: 2010.05.17/outbox.cif.g08.bks.cpg/sg2_93_cif.got.tgz:185988.got - 2010.06.03 11:33:40.
