data_PCOD9089945
_publ_section_title
;
Structure prediction by ZEFSAII (Michael W. Deem and Ramdas Pophale) SiO2 
 PCOD9089945
Probable space group: P -1
;
_chemical_formula_sum "Si O2"
_cell_formula_units_Z 16
_cell_length_a 14.441300
_cell_length_b 7.422952
_cell_length_c 9.288915
_cell_angle_alpha 61.310694
_cell_angle_beta 55.911506
_cell_angle_gamma 91.807445
_cell_volume 658.582070
_symmetry_space_group_name_H-M "P -1"
_symmetry_group_IT_number 2
_symmetry_cell_setting 'triclinic'
loop_
_space_group_symop_operation_xyz
x,y,z
-x,-y,-z
loop_
_atom_site_type_symbol
_atom_site_label
_atom_site_fract_x
_atom_site_fract_y
_atom_site_fract_z
Si Si1 0.967087 0.241797 0.673218
Si Si2 0.281155 0.770039 0.453047
Si Si3 0.314220 0.930391 0.070937
Si Si4 0.512528 0.115955 0.291152
Si Si5 0.923659 0.179160 0.068986
Si Si6 0.177489 0.102319 0.492105
Si Si7 0.167477 0.441887 0.917036
Si Si8 0.643688 0.623243 0.004055
O O1 0.000000 0.500000 0.500000
O O2 0.062683 0.164326 0.541510
O O3 0.971702 0.203715 0.855770
O O4 0.824562 0.101921 0.817137
O O5 0.242081 0.547868 0.665582
O O6 0.396116 0.962265 0.357667
O O7 0.176228 0.869325 0.515736
O O8 0.309379 0.757035 0.267404
O O9 0.388669 0.180225 0.975275
O O10 0.370790 0.886983 0.893971
O O11 0.536249 0.375811 0.185421
O O12 0.500000 0.000000 0.500000
O O13 0.867252 0.363132 0.062155
O O14 0.824325 0.948963 0.314967
O O15 0.040395 0.249575 0.047376
O O16 0.291909 0.292231 0.238593
O O17 0.252034 0.390479 0.975713
#
# Coordination Sequence:
#
# PCOD9089945 Si02
#       8
#     2   2   2   2   2   2   2   2
#     4  12  23  40  66 102 143 185 227 279 346 416
#     4  10  23  44  68  99 136 181 232 285 346 406
#     4  11  26  43  71 103 139 179 235 283 343 419
#     4  12  25  48  75  96 138 183 235 298 345 404
#     4  10  21  35  60  94 139 182 226 275 336 413
#     4  10  23  39  63  96 138 176 220 278 340 413
#     4  10  19  38  62  93 133 182 223 276 345 405
#     4  11  24  44  68 102 133 183 232 285 350 409
#
# _framework density 24.294616999999999
#
# number of rings (size 3 to 8) (size 9 to 14) (size 15 to 20)
#    0.000    1.250    1.250    4.500    1.750    9.000 
#    0.000    1.250    0.000    0.000    0.000    0.000 
#    0.000    0.000    0.000    0.000    0.000    0.000 
#
# Total GULP energy -89544.516120 kJ/mol
# GULP energy per Si atom -5596.532258 kJ/mol
# Density = 2.423932 g / cm^3
# Si number density = 24.294617 Si / 1000 Ang^3
#
#
#
# Elastic Constant Matrix: (Units=GPa)
#
#
# Indices 1 2 3 4 5 6 
#
# 1 93.1694 0.8559 19.9505 8.5003 10.4895 5.8766
# 2 0.8559 65.6372 31.1049 -0.0017 6.0218 -3.5785
# 3 19.9505 31.1049 147.2212 0.8538 34.8572 6.4655
# 4 8.5003 -0.0017 0.8538 45.2325 4.5054 1.2406
# 5 10.4895 6.0218 34.8572 4.5054 32.6805 -3.0507
# 6 5.8766 -3.5785 6.4655 1.2406 -3.0507 33.2607
#
#
#
# Elastic Compliance Matrix: (Units=1/GPa)
#
#
# Indices 1 2 3 4 5 6 
#
# 1 0.011524 0.000420 -0.000900 -0.001820 -0.002752 -0.002000
# 2 0.000420 0.017213 -0.004142 -0.000214 0.001395 0.002719
# 3 -0.000900 -0.004142 0.010421 0.001112 -0.010526 -0.003319
# 4 -0.001820 -0.000214 0.001112 0.022840 -0.003816 -0.001119
# 5 -0.002752 0.001395 -0.010526 -0.003816 0.043616 0.006825
# 6 -0.002000 0.002719 -0.003319 -0.001119 0.006825 0.032025
#
#
# Mechanical properties :
#
#
# Convention : Reuss Voigt Hill
#
# Bulk Modulus (GPa) = 33.43036 45.53893 39.48464
# Shear Modulus (GPa) = 31.87660 39.17584 35.52622
#
# Velocity S-wave (km/s) = 3.62620 4.01999 3.82816
# Velocity P-wave (km/s) = 5.59667 6.35077 5.98561
#
# Compressibility (1/GPa) = 0.02991293
#
# Stress axis : x y z
#
# Youngs Moduli (GPa) = 86.77476 58.09585 95.95777
#
# Poissons Ratio (x) = -0.02439 0.08640
# Poissons Ratio (y) = -0.03643 0.39746
# Poissons Ratio (z) = 0.07814 0.24063
#
# Static dielectric constant tensor:
#      x y z
#    x 1.942730 0.000900 -0.009110 
#    y 0.000900 1.969590 -0.005320 
#    z -0.009110 -0.005320 1.962260 
# 
# From -- ./inp_files/297608.got.cif
#   From: 2010.05.17/outbox.cif.g08.bks.cpg/sg2_149_cif.got.tgz:297608.got - 2010.06.03 11:33:40.
