data_PCOD9089996
_publ_section_title
;
Structure prediction by ZEFSAII (Michael W. Deem and Ramdas Pophale) SiO2 
 PCOD9089996
Probable space group: P -1
;
_chemical_formula_sum "Si O2"
_cell_formula_units_Z 16
_cell_length_a 21.395183
_cell_length_b 18.738756
_cell_length_c 12.059236
_cell_angle_alpha 140.146084
_cell_angle_beta 150.059176
_cell_angle_gamma 18.994796
_cell_volume 744.612303
_symmetry_space_group_name_H-M "P -1"
_symmetry_group_IT_number 2
_symmetry_cell_setting 'triclinic'
loop_
_space_group_symop_operation_xyz
x,y,z
-x,-y,-z
loop_
_atom_site_type_symbol
_atom_site_label
_atom_site_fract_x
_atom_site_fract_y
_atom_site_fract_z
Si Si1 0.270115 0.748504 0.998873
Si Si2 0.518372 0.226935 0.320579
Si Si3 0.743699 0.847663 0.971637
Si Si4 0.130479 0.313894 0.564070
Si Si5 0.951003 0.579778 0.186050
Si Si6 0.852239 0.286837 0.631386
Si Si7 0.155551 0.050163 0.295106
Si Si8 0.927252 0.028639 0.592199
O O1 0.057474 0.936825 0.801692
O O2 0.500000 0.500000 0.000000
O O3 0.330074 0.823480 0.229093
O O4 0.119822 0.793496 0.914262
O O5 0.388585 0.442632 0.420507
O O6 0.701487 0.038028 0.473436
O O7 0.683844 0.135679 0.360496
O O8 0.292502 0.315534 0.057245
O O9 0.820117 0.671932 0.817615
O O10 0.436156 0.101244 0.797404
O O11 0.861598 0.741287 0.150730
O O12 0.897665 0.827015 0.123765
O O13 0.000011 0.419358 0.612283
O O14 0.000000 0.500000 0.500000
O O15 0.113869 0.201564 0.357245
O O16 0.873308 0.186878 0.441215
O O17 0.850163 0.207904 0.639533
#
# Coordination Sequence:
#
# PCOD9089996 Si02
#       8
#     2   2   2   2   2   2   2   2
#     4  10  22  40  62  84 119 168 203 257 311 366
#     4  10  19  38  63  86 115 156 206 261 300 360
#     4  10  22  40  65  93 122 164 216 260 308 380
#     4  12  26  41  62  95 135 172 205 262 328 381
#     4  10  22  40  67  93 119 164 215 264 312 370
#     4  10  21  35  59  91 119 149 204 255 310 364
#     4  10  23  39  59  91 119 158 219 250 302 392
#     4  10  21  35  57  89 119 156 195 255 313 364
#
# _framework density 21.487691999999999
#
# number of rings (size 3 to 8) (size 9 to 14) (size 15 to 20)
#    0.000    1.750    1.250    2.250    3.500    4.500 
#    0.000    3.750    0.000    0.000    0.000    0.000 
#    0.000    0.000    0.000    0.000    0.000    0.000 
#
# Total GULP energy -89434.829159 kJ/mol
# GULP energy per Si atom -5589.676822 kJ/mol
# Density = 2.143879 g / cm^3
# Si number density = 21.487692 Si / 1000 Ang^3
#
#
#
# Elastic Constant Matrix: (Units=GPa)
#
#
# Indices 1 2 3 4 5 6 
#
# 1 90.1074 42.9079 11.2075 1.0312 10.9993 16.3733
# 2 42.9079 122.8539 16.0174 11.0408 0.0238 10.1243
# 3 11.2075 16.0174 32.2451 12.6588 -1.4141 8.6150
# 4 1.0312 11.0408 12.6588 29.9507 1.2039 5.5475
# 5 10.9993 0.0238 -1.4141 1.2039 24.8738 11.7563
# 6 16.3733 10.1243 8.6150 5.5475 11.7563 42.5669
#
#
#
# Elastic Compliance Matrix: (Units=1/GPa)
#
#
# Indices 1 2 3 4 5 6 
#
# 1 0.015035 -0.004859 -0.003738 0.003594 -0.005727 -0.002758
# 2 -0.004859 0.010405 -0.002169 -0.002761 0.002367 -0.000461
# 3 -0.003738 -0.002169 0.041703 -0.015791 0.007917 -0.006615
# 4 0.003594 -0.002761 -0.015791 0.041461 -0.003571 -0.001947
# 5 -0.005727 0.002367 0.007917 -0.003571 0.049592 -0.013193
# 6 -0.002758 -0.000461 -0.006615 -0.001947 -0.013193 0.029899
#
#
# Mechanical properties :
#
#
# Convention : Reuss Voigt Hill
#
# Bulk Modulus (GPa) = 21.92375 42.83023 32.37699
# Shear Modulus (GPa) = 22.23906 31.14984 26.69445
#
# Velocity S-wave (km/s) = 3.22058 3.81157 3.52847
# Velocity P-wave (km/s) = 4.90455 6.27268 5.63032
#
# Compressibility (1/GPa) = 0.04561263
#
# Stress axis : x y z
#
# Youngs Moduli (GPa) = 66.50942 96.10659 23.97928
#
# Poissons Ratio (x) = 0.46694 0.08963
# Poissons Ratio (y) = 0.32314 0.05201
# Poissons Ratio (z) = 0.24860 0.20845
#
# Static dielectric constant tensor:
#      x y z
#    x 1.787530 -0.038060 -0.001030 
#    y -0.038060 1.795750 0.037200 
#    z -0.001030 0.037200 1.796900 
# 
# From -- ./inp_files/306993.got.cif
#   From: 2010.05.17/outbox.cif.g08.bks.cpg/sg2_154_cif.got.tgz:306993.got - 2010.06.03 11:33:40.
