data_PCOD9089573
_publ_section_title
;
Structure prediction by ZEFSAII (Michael W. Deem and Ramdas Pophale) SiO2 
 PCOD9089573
Probable space group: P -1
;
_chemical_formula_sum "Si O2"
_cell_formula_units_Z 16
_cell_length_a 8.254352
_cell_length_b 23.793908
_cell_length_c 17.456023
_cell_angle_alpha 20.039772
_cell_angle_beta 138.245521
_cell_angle_gamma 142.708447
_cell_volume 711.776504
_symmetry_space_group_name_H-M "P -1"
_symmetry_group_IT_number 2
_symmetry_cell_setting 'triclinic'
loop_
_space_group_symop_operation_xyz
x,y,z
-x,-y,-z
loop_
_atom_site_type_symbol
_atom_site_label
_atom_site_fract_x
_atom_site_fract_y
_atom_site_fract_z
Si Si1 0.260900 0.255329 0.054117
Si Si2 0.616154 0.020915 0.635803
Si Si3 0.003076 0.760394 0.724593
Si Si4 0.926889 0.895090 0.029027
Si Si5 0.845440 0.298452 0.740009
Si Si6 0.196255 0.459974 0.203111
Si Si7 0.497050 0.517232 0.568228
Si Si8 0.606600 0.711408 0.773071
O O1 0.290197 0.072192 0.279338
O O2 0.227297 0.250574 0.138658
O O3 0.528601 0.414060 0.908276
O O4 0.019470 0.274960 0.900675
O O5 0.293886 0.904287 0.668287
O O6 0.624266 0.218435 0.386005
O O7 0.782828 0.991243 0.802726
O O8 0.928075 0.722274 0.657319
O O9 0.779707 0.789548 0.657906
O O10 0.015103 0.570955 0.993847
O O11 0.710727 0.687219 0.223080
O O12 0.169974 0.859412 0.121558
O O13 0.000000 0.000000 0.000000
O O14 0.586945 0.318768 0.653529
O O15 0.000000 0.500000 0.500000
O O16 0.267662 0.445253 0.335292
O O17 0.500000 0.500000 0.500000
O O18 0.500000 0.500000 0.000000
#
# Coordination Sequence:
#
# PCOD9089573 Si02
#       8
#     2   2   2   2   2   2   2   2
#     4  10  19  38  59  87 126 159 203 255 301 366
#     4  10  22  43  59  84 131 170 195 251 325 366
#     4  10  21  39  62  85 124 169 199 247 314 370
#     4  10  21  41  63  89 126 167 204 251 316 376
#     4   9  18  36  61  85 119 162 201 248 312 361
#     4  10  19  39  61  84 128 166 196 249 317 363
#     4  11  22  39  65  96 121 163 214 257 303 370
#     4  12  24  35  61 100 117 155 221 259 294 370
#
# _framework density 22.478964999999999
#
# number of rings (size 3 to 8) (size 9 to 14) (size 15 to 20)
#    0.000    1.750    6.250    0.750    1.750    3.000 
#    0.000    1.875    0.000    0.000    0.000    0.000 
#    0.000    0.000    0.000    0.000    0.000    0.000 
#
# Total GULP energy -89237.437894 kJ/mol
# GULP energy per Si atom -5577.339868 kJ/mol
# Density = 2.242780 g / cm^3
# Si number density = 22.478965 Si / 1000 Ang^3
#
#
#
# Elastic Constant Matrix: (Units=GPa)
#
#
# Indices 1 2 3 4 5 6 
#
# 1 50.5004 45.0355 24.0870 3.2215 10.3198 -33.7636
# 2 45.0355 120.4555 36.5546 -1.6683 17.6840 -41.6922
# 3 24.0870 36.5546 114.9572 -9.5938 26.0754 -10.4066
# 4 3.2215 -1.6683 -9.5938 31.7428 -0.0385 -5.2884
# 5 10.3198 17.6840 26.0754 -0.0385 32.9536 -8.0592
# 6 -33.7636 -41.6922 -10.4066 -5.2884 -8.0592 44.7989
#
#
#
# Elastic Compliance Matrix: (Units=1/GPa)
#
#
# Indices 1 2 3 4 5 6 
#
# 1 0.046748 -0.006146 -0.005434 -0.002050 -0.000204 0.027972
# 2 -0.006146 0.014339 -0.001825 0.002177 -0.002337 0.008125
# 3 -0.005434 -0.001825 0.012135 0.003449 -0.007892 -0.003987
# 4 -0.002050 0.002177 0.003449 0.033681 -0.002019 0.004895
# 5 -0.000204 -0.002337 -0.007892 -0.002019 0.038525 0.002531
# 6 0.027972 0.008125 -0.003987 0.004895 0.002531 0.051073
#
#
# Mechanical properties :
#
#
# Convention : Reuss Voigt Hill
#
# Bulk Modulus (GPa) = 21.54525 55.25194 38.39860
# Shear Modulus (GPa) = 20.93980 33.91480 27.42730
#
# Velocity S-wave (km/s) = 3.05541 3.88846 3.49683
# Velocity P-wave (km/s) = 4.69604 6.69275 5.78125
#
# Compressibility (1/GPa) = 0.04641394
#
# Stress axis : x y z
#
# Youngs Moduli (GPa) = 21.39112 69.74072 82.40851
#
# Poissons Ratio (x) = 0.42862 0.44777
# Poissons Ratio (y) = 0.13147 0.15036
# Poissons Ratio (z) = 0.11623 0.12725
#
# Static dielectric constant tensor:
#      x y z
#    x 1.928050 0.045720 -0.041020 
#    y 0.045720 1.748510 -0.086360 
#    z -0.041020 -0.086360 1.836740 
# 
# From -- ./inp_files/279613.got.cif
#   From: 2010.05.17/outbox.cif.g08.bks.cpg/sg2_140_cif.got.tgz:279613.got - 2010.06.03 11:33:40.
