data_PCOD9089931
_publ_section_title
;
Structure prediction by ZEFSAII (Michael W. Deem and Ramdas Pophale) SiO2 
 PCOD9089931
Probable space group: P -1
;
_chemical_formula_sum "Si O2"
_cell_formula_units_Z 15
_cell_length_a 7.379369
_cell_length_b 22.546071
_cell_length_c 5.124302
_cell_angle_alpha 135.436655
_cell_angle_beta 73.342084
_cell_angle_gamma 111.743454
_cell_volume 555.337663
_symmetry_space_group_name_H-M "P -1"
_symmetry_group_IT_number 2
_symmetry_cell_setting 'triclinic'
loop_
_space_group_symop_operation_xyz
x,y,z
-x,-y,-z
loop_
_atom_site_type_symbol
_atom_site_label
_atom_site_fract_x
_atom_site_fract_y
_atom_site_fract_z
Si Si1 0.496781 0.860574 0.990016
Si Si2 0.500000 0.000000 0.000000
Si Si3 0.918440 0.540240 0.412034
Si Si4 0.576579 0.719666 0.129884
Si Si5 0.151171 0.162662 0.974270
Si Si6 0.547954 0.436463 0.999539
Si Si7 0.921964 0.087583 0.323795
Si Si8 0.757683 0.308564 0.198095
O O1 0.593328 0.804076 0.567177
O O2 0.318347 0.787930 0.957726
O O3 0.446137 0.933423 0.064099
O O4 0.674896 0.889210 0.216739
O O5 0.693991 0.056641 0.260217
O O6 0.000000 0.500000 0.500000
O O7 0.016011 0.643593 0.721684
O O8 0.690432 0.496713 0.337400
O O9 0.000000 0.500000 0.000000
O O10 0.715577 0.745994 0.903822
O O11 0.610237 0.639564 0.029492
O O12 0.351061 0.696055 0.049194
O O13 0.004497 0.124139 0.683198
O O14 0.024790 0.153889 0.260355
O O15 0.660940 0.374155 0.604733
O O16 0.500000 0.500000 0.000000
O O17 0.000000 0.000000 0.000000
#
# Coordination Sequence:
#
# PCOD9089931 Si02
#       8
#     2   1   2   2   2   2   2   2
#     4  10  22  43  70 100 132 186 229 292 344 416
#     4  12  26  46  74 108 136 174 248 286 344 416
#     4  10  19  38  62  92 127 176 217 269 331 402
#     4  10  19  41  70  93 137 185 229 274 358 409
#     4  11  22  45  69  94 138 185 221 277 360 409
#     4  10  21  37  65 100 133 174 233 282 336 407
#     4  12  25  45  72 102 137 178 228 292 353 413
#     4   9  20  38  65  90 136 181 222 271 352 403
#
# _framework density 27.010591000000002
#
# number of rings (size 3 to 8) (size 9 to 14) (size 15 to 20)
#    0.000    1.600    4.000    0.400    0.000    1.067 
#    7.200    0.000    0.000    0.000    0.000    0.000 
#    0.000    0.000    0.000    0.000    0.000    0.000 
#
# Total GULP energy -83769.174464 kJ/mol
# GULP energy per Si atom -5584.611631 kJ/mol
# Density = 2.694911 g / cm^3
# Si number density = 27.010591 Si / 1000 Ang^3
#
#
#
# Elastic Constant Matrix: (Units=GPa)
#
#
# Indices 1 2 3 4 5 6 
#
# 1 131.2510 56.2627 52.3552 10.5454 48.9689 1.0413
# 2 56.2627 237.0265 44.8662 -1.1443 30.2970 -15.1979
# 3 52.3552 44.8662 128.6819 -6.3830 48.9952 -10.9700
# 4 10.5454 -1.1443 -6.3830 45.0830 -5.8717 14.2937
# 5 48.9689 30.2970 48.9952 -5.8717 65.0523 3.8166
# 6 1.0413 -15.1979 -10.9700 14.2937 3.8166 53.5080
#
#
#
# Elastic Compliance Matrix: (Units=1/GPa)
#
#
# Indices 1 2 3 4 5 6 
#
# 1 0.012120 -0.001574 -0.001657 -0.004307 -0.007571 0.000668
# 2 -0.001574 0.004896 -0.000709 -0.000123 -0.000652 0.001355
# 3 -0.001657 -0.000709 0.011759 0.000207 -0.007420 0.002716
# 4 -0.004307 -0.000123 0.000207 0.026325 0.005952 -0.007366
# 5 -0.007571 -0.000652 -0.007420 0.005952 0.027802 -0.005132
# 6 0.000668 0.001355 0.002716 -0.007366 -0.005132 0.021951
#
#
# Mechanical properties :
#
#
# Convention : Reuss Voigt Hill
#
# Bulk Modulus (GPa) = 47.85382 89.32529 68.58955
# Shear Modulus (GPa) = 41.77189 55.62699 48.69944
#
# Velocity S-wave (km/s) = 3.93682 4.54304 4.25075
# Velocity P-wave (km/s) = 6.19838 7.78853 7.03851
#
# Compressibility (1/GPa) = 0.02089697
#
# Stress axis : x y z
#
# Youngs Moduli (GPa) = 82.51088 204.23302 85.03948
#
# Poissons Ratio (x) = 0.32136 0.14087
# Poissons Ratio (y) = 0.12983 0.06030
# Poissons Ratio (z) = 0.13668 0.14482
#
# Static dielectric constant tensor:
#      x y z
#    x 2.239610 0.051910 -0.092780 
#    y 0.051910 2.114440 -0.001230 
#    z -0.092780 -0.001230 2.178340 
# 
# From -- ./inp_files/50766.got.cif
#   From: 2010.05.17/outbox.cif.g08.bks.cpg/sg2_26_cif.got.tgz:50766.got - 2010.06.03 11:33:40.
