data_PCOD9089181
_publ_section_title
;
Structure prediction by ZEFSAII (Michael W. Deem and Ramdas Pophale) SiO2 
 PCOD9089181
Probable space group: P -1
;
_chemical_formula_sum "Si O2"
_cell_formula_units_Z 16
_cell_length_a 17.705456
_cell_length_b 8.352230
_cell_length_c 15.599146
_cell_angle_alpha 115.528068
_cell_angle_beta 153.269170
_cell_angle_gamma 84.143656
_cell_volume 671.488027
_symmetry_space_group_name_H-M "P -1"
_symmetry_group_IT_number 2
_symmetry_cell_setting 'triclinic'
loop_
_space_group_symop_operation_xyz
x,y,z
-x,-y,-z
loop_
_atom_site_type_symbol
_atom_site_label
_atom_site_fract_x
_atom_site_fract_y
_atom_site_fract_z
Si Si1 0.547432 0.418153 0.337915
Si Si2 0.798352 0.375799 0.871547
Si Si3 0.803545 0.867852 0.395657
Si Si4 0.321073 0.796699 0.109079
Si Si5 0.925742 0.031361 0.144224
Si Si6 0.115871 0.302348 0.105846
Si Si7 0.270300 0.378761 0.904045
Si Si8 0.707854 0.151523 0.446027
O O1 0.733287 0.631476 0.642635
O O2 0.636205 0.289414 0.367918
O O3 0.310280 0.209781 0.102948
O O4 0.484020 0.490921 0.209844
O O5 0.909521 0.281064 0.921980
O O6 0.022070 0.639137 0.203635
O O7 0.635775 0.215105 0.750269
O O8 0.724707 0.455653 0.740316
O O9 0.690793 0.659667 0.161628
O O10 0.670923 0.952680 0.304046
O O11 0.877466 0.830146 0.550919
O O12 0.047655 0.112469 0.656228
O O13 0.552658 0.017052 0.342803
O O14 0.223579 0.552093 0.905683
O O15 0.137508 0.822016 0.921801
O O16 0.968086 0.925909 0.086059
#
# Coordination Sequence:
#
# PCOD9089181 Si02
#       8
#     2   2   2   2   2   2   2   2
#     4   9  20  37  61  92 125 161 207 249 307 366
#     4  10  20  40  63  92 124 163 204 250 307 368
#     4  10  20  40  68  86 128 163 201 259 307 363
#     4  11  23  39  63  91 128 160 207 253 303 369
#     4  10  20  37  60  92 126 163 203 253 306 363
#     4  10  19  37  66  86 125 168 198 254 311 355
#     4  10  21  40  64  94 119 167 208 249 309 366
#     4  10  20  40  63  91 126 159 198 258 309 360
#
# _framework density 23.827676
#
# number of rings (size 3 to 8) (size 9 to 14) (size 15 to 20)
#    0.000    2.000    2.500    1.125    0.000    2.000 
#    4.500   15.625    0.000    0.000    0.000    0.000 
#    0.000    0.000    0.000    0.000    0.000    0.000 
#
# Total GULP energy -89608.468180 kJ/mol
# GULP energy per Si atom -5600.529261 kJ/mol
# Density = 2.377344 g / cm^3
# Si number density = 23.827676 Si / 1000 Ang^3
#
#
#
# Elastic Constant Matrix: (Units=GPa)
#
#
# Indices 1 2 3 4 5 6 
#
# 1 153.1654 70.5360 41.1631 2.3995 -31.4305 -14.5866
# 2 70.5360 108.1078 46.8904 -5.1612 -32.6223 -20.6969
# 3 41.1631 46.8904 83.6892 -6.7112 -35.6186 -9.8805
# 4 2.3995 -5.1612 -6.7112 18.7178 -1.3764 -1.0569
# 5 -31.4305 -32.6223 -35.6186 -1.3764 47.0045 24.3792
# 6 -14.5866 -20.6969 -9.8805 -1.0569 24.3792 48.9620
#
#
#
# Elastic Compliance Matrix: (Units=1/GPa)
#
#
# Indices 1 2 3 4 5 6 
#
# 1 0.009808 -0.005555 -0.001128 -0.003079 0.002175 -0.000803
# 2 -0.005555 0.016504 -0.004687 0.003956 0.002684 0.003125
# 3 -0.001128 -0.004687 0.021666 0.007449 0.015476 -0.005490
# 4 -0.003079 0.003956 0.007449 0.058160 0.008375 -0.000656
# 5 0.002175 0.002684 0.015476 0.008375 0.045738 -0.017688
# 6 -0.000803 0.003125 -0.005490 -0.000656 -0.017688 0.029191
#
#
# Mechanical properties :
#
#
# Convention : Reuss Voigt Hill
#
# Bulk Modulus (GPa) = 39.62091 73.57125 56.59608
# Shear Modulus (GPa) = 23.56073 35.36171 29.46122
#
# Velocity S-wave (km/s) = 3.14793 3.85653 3.52010
# Velocity P-wave (km/s) = 5.46597 7.12558 6.35022
#
# Compressibility (1/GPa) = 0.02523920
#
# Stress axis : x y z
#
# Youngs Moduli (GPa) = 101.95641 60.59199 46.15625
#
# Poissons Ratio (x) = 0.33656 0.05207
# Poissons Ratio (y) = 0.56632 0.21631
# Poissons Ratio (z) = 0.11501 0.28397
#
# Static dielectric constant tensor:
#      x y z
#    x 1.908360 0.030520 0.034340 
#    y 0.030520 1.917120 0.026820 
#    z 0.034340 0.026820 1.908600 
# 
# From -- ./inp_files/342520.got.cif
#   From: 2010.05.17/outbox.cif.g08.bks.cpg/sg2_172_cif.got.tgz:342520.got - 2010.06.03 11:33:40.
