data_PCOD9089913
_publ_section_title
;
Structure prediction by ZEFSAII (Michael W. Deem and Ramdas Pophale) SiO2 
 PCOD9089913
Probable space group: P -1
;
_chemical_formula_sum "Si O2"
_cell_formula_units_Z 12
_cell_length_a 14.883068
_cell_length_b 13.982365
_cell_length_c 22.900301
_cell_angle_alpha 159.255637
_cell_angle_beta 21.815754
_cell_angle_gamma 146.453511
_cell_volume 605.018182
_symmetry_space_group_name_H-M "P -1"
_symmetry_group_IT_number 2
_symmetry_cell_setting 'triclinic'
loop_
_space_group_symop_operation_xyz
x,y,z
-x,-y,-z
loop_
_atom_site_type_symbol
_atom_site_label
_atom_site_fract_x
_atom_site_fract_y
_atom_site_fract_z
Si Si1 0.276193 0.603142 0.147253
Si Si2 0.267448 0.082108 0.119243
Si Si3 0.976881 0.238019 0.824995
Si Si4 0.255160 0.716726 0.504688
Si Si5 0.232342 0.973179 0.274252
Si Si6 0.491583 0.090868 0.652052
O O1 0.312789 0.831678 0.207789
O O2 0.500000 0.500000 0.000000
O O3 0.293045 0.323413 0.940143
O O4 0.005138 0.756817 0.424608
O O5 0.269942 0.392059 0.315622
O O6 0.035638 0.124094 0.238248
O O7 0.531023 0.954693 0.857036
O O8 0.193901 0.912362 0.119693
O O9 0.855904 0.254387 0.843332
O O10 0.259548 0.045630 0.539152
O O11 0.000000 0.500000 0.000000
O O12 0.399068 0.771211 0.390212
O O13 0.377482 0.849335 0.558228
#
# Coordination Sequence:
#
# PCOD9089913 Si02
#       6
#     2   2   2   2   2   2
#     4  11  23  41  64  89 127 178 213 248 305 380
#     4  10  20  37  62  95 130 157 203 268 325 369
#     4  11  23  37  65  98 124 157 209 269 322 376
#     4   9  19  34  64  95 121 164 204 265 317 365
#     4  11  23  40  64  93 127 166 215 253 311 382
#     4  10  19  38  62  90 127 163 214 252 310 371
#
# _framework density 19.834116000000002
#
# number of rings (size 3 to 8) (size 9 to 14) (size 15 to 20)
#    0.000    1.667    3.333    1.500    4.667    0.000 
#    0.000    0.833    0.000    3.000    0.000    0.000 
#    0.000    0.000    0.000    0.000    0.000    0.000 
#
# Total GULP energy -66986.649299 kJ/mol
# GULP energy per Si atom -5582.220775 kJ/mol
# Density = 1.978897 g / cm^3
# Si number density = 19.834116 Si / 1000 Ang^3
#
#
#
# Elastic Constant Matrix: (Units=GPa)
#
#
# Indices 1 2 3 4 5 6 
#
# 1 99.8532 37.3022 45.6063 -14.1706 -21.2796 10.3782
# 2 37.3022 95.3020 27.8035 -10.6085 -0.6639 9.7045
# 3 45.6063 27.8035 136.3505 -30.2185 -10.9054 3.7404
# 4 -14.1706 -10.6085 -30.2185 27.2178 3.7560 -5.7009
# 5 -21.2796 -0.6639 -10.9054 3.7560 32.5566 4.1928
# 6 10.3782 9.7045 3.7404 -5.7009 4.1928 18.2627
#
#
#
# Elastic Compliance Matrix: (Units=1/GPa)
#
#
# Indices 1 2 3 4 5 6 
#
# 1 0.016447 -0.004467 -0.003608 -0.000504 0.010646 -0.008835
# 2 -0.004467 0.012977 -0.000983 0.001371 -0.002743 -0.003098
# 3 -0.003608 -0.000983 0.010997 0.010801 -0.000429 0.003790
# 4 -0.000504 0.001371 0.010801 0.052771 -0.004690 0.014896
# 5 0.010646 -0.002743 -0.000429 -0.004690 0.039966 -0.015144
# 6 -0.008835 -0.003098 0.003790 0.014896 -0.015144 0.068774
#
#
# Mechanical properties :
#
#
# Convention : Reuss Voigt Hill
#
# Bulk Modulus (GPa) = 44.83282 61.43664 53.13473
# Shear Modulus (GPa) = 21.97969 30.32700 26.15334
#
# Velocity S-wave (km/s) = 3.33254 3.91453 3.63520
# Velocity P-wave (km/s) = 6.12052 7.17453 6.66838
#
# Compressibility (1/GPa) = 0.02230509
#
# Stress axis : x y z
#
# Youngs Moduli (GPa) = 60.80127 77.05883 90.93720
#
# Poissons Ratio (x) = 0.34423 0.32810
# Poissons Ratio (y) = 0.27161 0.08936
# Poissons Ratio (z) = 0.21937 0.07572
#
# Static dielectric constant tensor:
#      x y z
#    x 1.748230 -0.004140 -0.018240 
#    y -0.004140 1.658190 0.016110 
#    z -0.018240 0.016110 1.737370 
# 
# From -- ./inp_files/262849.got.cif
#   From: 2010.05.17/outbox.cif.g08.bks.cpg/sg2_132_cif.got.tgz:262849.got - 2010.06.03 11:33:40.
