data_PCOD9089149
_publ_section_title
;
Structure prediction by ZEFSAII (Michael W. Deem and Ramdas Pophale) SiO2 
 PCOD9089149
Probable space group: P -1
;
_chemical_formula_sum "Si O2"
_cell_formula_units_Z 16
_cell_length_a 15.625462
_cell_length_b 16.624710
_cell_length_c 9.230669
_cell_angle_alpha 135.015187
_cell_angle_beta 141.124092
_cell_angle_gamma 35.789328
_cell_volume 861.149081
_symmetry_space_group_name_H-M "P -1"
_symmetry_group_IT_number 2
_symmetry_cell_setting 'triclinic'
loop_
_space_group_symop_operation_xyz
x,y,z
-x,-y,-z
loop_
_atom_site_type_symbol
_atom_site_label
_atom_site_fract_x
_atom_site_fract_y
_atom_site_fract_z
Si Si1 0.851618 0.849373 0.946069
Si Si2 0.796961 0.233578 0.730908
Si Si3 0.370939 0.249474 0.474449
Si Si4 0.398779 0.036500 0.762601
Si Si5 0.470517 0.438457 0.740854
Si Si6 0.466478 0.845928 0.121720
Si Si7 0.095595 0.080752 0.570309
Si Si8 0.707106 0.302550 0.378285
O O1 0.796087 0.745734 0.748114
O O2 0.696569 0.994637 0.856272
O O3 0.866136 0.892404 0.183126
O O4 0.030299 0.786297 0.028245
O O5 0.652561 0.312117 0.759108
O O6 0.727379 0.317606 0.594536
O O7 0.847172 0.078163 0.567670
O O8 0.365659 0.377441 0.565225
O O9 0.431126 0.225712 0.689006
O O10 0.511136 0.108911 0.391752
O O11 0.425939 0.135905 0.830030
O O12 0.208839 0.097258 0.630002
O O13 0.500000 0.000000 0.000000
O O14 0.378526 0.556915 0.647742
O O15 0.500000 0.500000 0.000000
O O16 0.398998 0.760865 0.861386
O O17 0.896212 0.187637 0.422514
#
# Coordination Sequence:
#
# PCOD9089149 Si02
#       8
#     2   2   2   2   2   2   2   2
#     4  10  19  37  65  96 121 150 201 261 307 351
#     4  11  21  41  67  91 118 163 204 252 305 358
#     4  11  23  39  59  86 132 166 195 244 313 358
#     4  11  19  35  64  98 121 150 202 257 305 357
#     4  12  26  44  58  86 129 169 205 243 299 372
#     4  11  20  37  60  91 130 155 195 248 313 355
#     4  11  19  37  67 100 120 146 206 264 299 351
#     4  11  22  41  64  92 123 158 203 253 304 363
#
# _framework density 18.579826000000001
#
# number of rings (size 3 to 8) (size 9 to 14) (size 15 to 20)
#    0.000    1.000    7.500    2.625    0.000    0.000 
#    4.500    6.250    0.000    0.000    0.000    0.000 
#    0.000    0.000    0.000    0.000    0.000    0.000 
#
# Total GULP energy -89398.508491 kJ/mol
# GULP energy per Si atom -5587.406781 kJ/mol
# Density = 1.853754 g / cm^3
# Si number density = 18.579826 Si / 1000 Ang^3
#
#
#
# Elastic Constant Matrix: (Units=GPa)
#
#
# Indices 1 2 3 4 5 6 
#
# 1 92.4418 31.3311 38.4307 -3.6919 23.0033 15.1963
# 2 31.3311 66.2646 22.2569 3.4091 18.5818 17.7858
# 3 38.4307 22.2569 68.2352 8.9591 27.9081 -0.3731
# 4 -3.6919 3.4091 8.9591 18.7910 5.5466 8.7116
# 5 23.0033 18.5818 27.9081 5.5466 34.7419 9.6186
# 6 15.1963 17.7858 -0.3731 8.7116 9.6186 30.4508
#
#
#
# Elastic Compliance Matrix: (Units=1/GPa)
#
#
# Indices 1 2 3 4 5 6 
#
# 1 0.019698 -0.002291 -0.012121 0.016412 -0.001105 -0.012987
# 2 -0.002291 0.021799 -0.005024 0.004520 -0.003556 -0.011820
# 3 -0.012121 -0.005024 0.033922 -0.022102 -0.019026 0.021731
# 4 0.016412 0.004520 -0.022102 0.082031 0.001036 -0.034896
# 5 -0.001105 -0.003556 -0.019026 0.001036 0.050358 -0.013808
# 6 -0.012987 -0.011820 0.021731 -0.034896 -0.013808 0.060836
#
#
# Mechanical properties :
#
#
# Convention : Reuss Voigt Hill
#
# Bulk Modulus (GPa) = 27.36092 45.66433 36.51262
# Shear Modulus (GPa) = 15.63971 25.79160 20.71565
#
# Velocity S-wave (km/s) = 2.90445 3.72983 3.34272
# Velocity P-wave (km/s) = 5.09960 6.57112 5.88156
#
# Compressibility (1/GPa) = 0.03654848
#
# Stress axis : x y z
#
# Youngs Moduli (GPa) = 50.76532 45.87380 29.47899
#
# Poissons Ratio (x) = 0.10512 0.35730
# Poissons Ratio (y) = 0.11633 0.14809
# Poissons Ratio (z) = 0.61531 0.23045
#
# Static dielectric constant tensor:
#      x y z
#    x 1.648390 -0.000610 0.011200 
#    y -0.000610 1.623740 0.002120 
#    z 0.011200 0.002120 1.643690 
# 
# From -- ./inp_files/180392.got.cif
#   From: 2010.05.17/outbox.cif.g08.bks.cpg/sg2_91_cif.got.tgz:180392.got - 2010.06.03 11:33:40.
