data_PCOD9089349
_publ_section_title
;
Structure prediction by ZEFSAII (Michael W. Deem and Ramdas Pophale) SiO2 
 PCOD9089349
Probable space group: P -1
;
_chemical_formula_sum "Si O2"
_cell_formula_units_Z 16
_cell_length_a 5.418642
_cell_length_b 8.547825
_cell_length_c 17.696464
_cell_angle_alpha 100.845445
_cell_angle_beta 93.537492
_cell_angle_gamma 58.493757
_cell_volume 685.687288
_symmetry_space_group_name_H-M "P -1"
_symmetry_group_IT_number 2
_symmetry_cell_setting 'triclinic'
loop_
_space_group_symop_operation_xyz
x,y,z
-x,-y,-z
loop_
_atom_site_type_symbol
_atom_site_label
_atom_site_fract_x
_atom_site_fract_y
_atom_site_fract_z
Si Si1 0.527118 0.600088 0.398882
Si Si2 0.990831 0.740960 0.706843
Si Si3 0.346495 0.886882 0.996542
Si Si4 0.576952 0.902609 0.323988
Si Si5 0.869685 0.425942 0.728770
Si Si6 0.718769 0.551825 0.049108
Si Si7 0.359388 0.640303 0.842476
Si Si8 0.326751 0.910028 0.527665
O O1 0.250722 0.608752 0.355572
O O2 0.482691 0.691245 0.489033
O O3 0.797685 0.392714 0.368718
O O4 0.562077 0.750609 0.363430
O O5 0.735607 0.942575 0.696813
O O6 0.884319 0.609203 0.729064
O O7 0.176218 0.758244 0.778349
O O8 0.430827 0.754160 0.912810
O O9 0.496998 0.772101 0.065449
O O10 0.500000 0.000000 0.000000
O O11 0.000000 0.000000 0.000000
O O12 0.677929 0.028656 0.381289
O O13 0.830580 0.759283 0.261102
O O14 0.641548 0.470764 0.794316
O O15 0.799994 0.441960 0.118713
O O16 0.500000 0.500000 0.000000
O O17 0.000000 0.500000 0.000000
O O18 0.500000 0.000000 0.500000
O O19 0.000000 0.000000 0.500000
#
# Coordination Sequence:
#
# PCOD9089349 Si02
#       8
#     2   2   2   2   2   2   2   2
#     4   9  20  40  61  92 136 175 230 288 340 386
#     4  10  23  41  62  97 136 176 230 280 330 414
#     4  11  24  45  69 102 130 157 219 281 321 400
#     4  10  21  40  66  94 133 181 232 279 337 399
#     4  10  21  41  63  90 135 175 225 276 335 402
#     4  10  22  43  72  91 128 171 209 260 335 396
#     4  10  24  44  64  92 134 177 213 271 347 400
#     4  10  19  37  68  95 134 182 234 284 344 390
#
# _framework density 23.334253
#
# number of rings (size 3 to 8) (size 9 to 14) (size 15 to 20)
#    0.000    2.000    1.250    1.500    5.250    2.500 
#    9.000    0.625    0.000    0.000    0.000    0.000 
#    0.000    0.000    0.000    0.000    0.000    0.000 
#
# Total GULP energy -89305.230701 kJ/mol
# GULP energy per Si atom -5581.576919 kJ/mol
# Density = 2.328114 g / cm^3
# Si number density = 23.334253 Si / 1000 Ang^3
#
#
#
# Elastic Constant Matrix: (Units=GPa)
#
#
# Indices 1 2 3 4 5 6 
#
# 1 109.0218 29.4553 11.3436 1.1528 1.9217 -14.5436
# 2 29.4553 116.2896 12.9702 -0.8998 -1.4672 -31.2653
# 3 11.3436 12.9702 53.7956 9.9155 7.7459 -5.2569
# 4 1.1528 -0.8998 9.9155 13.7901 0.8758 8.8677
# 5 1.9217 -1.4672 7.7459 0.8758 35.3962 6.3850
# 6 -14.5436 -31.2653 -5.2569 8.8677 6.3850 48.8428
#
#
#
# Elastic Compliance Matrix: (Units=1/GPa)
#
#
# Indices 1 2 3 4 5 6 
#
# 1 0.010101 -0.001913 -0.001106 -0.001425 -0.000714 0.002016
# 2 -0.001913 0.011039 -0.000993 -0.002857 -0.000406 0.006962
# 3 -0.001106 -0.000993 0.024443 -0.021218 -0.005940 0.006295
# 4 -0.001425 -0.002857 -0.021218 0.102749 0.006394 -0.024027
# 5 -0.000714 -0.000406 -0.005940 0.006394 0.030546 -0.006266
# 6 0.002016 0.006962 0.006295 -0.024027 -0.006266 0.031389
#
#
# Mechanical properties :
#
#
# Convention : Reuss Voigt Hill
#
# Bulk Modulus (GPa) = 26.62511 42.96059 34.79285
# Shear Modulus (GPa) = 21.66280 34.62836 28.14558
#
# Velocity S-wave (km/s) = 3.05022 3.85647 3.47679
# Velocity P-wave (km/s) = 4.88264 6.18714 5.57319
#
# Compressibility (1/GPa) = 0.03755853
#
# Stress axis : x y z
#
# Youngs Moduli (GPa) = 98.99944 90.58821 40.91184
#
# Poissons Ratio (x) = 0.17331 0.04526
# Poissons Ratio (y) = 0.18940 0.04062
# Poissons Ratio (z) = 0.10952 0.08993
#
# Static dielectric constant tensor:
#      x y z
#    x 1.823730 -0.010420 0.033340 
#    y -0.010420 1.856800 -0.039360 
#    z 0.033340 -0.039360 1.881870 
# 
# From -- ./inp_files/548181.got.cif
#   From: 2010.05.17/outbox.cif.g08.bks.cpg/sg2_275_cif.got.tgz:548181.got - 2010.06.03 11:33:40.
