data_PCOD9089606
_publ_section_title
;
Structure prediction by ZEFSAII (Michael W. Deem and Ramdas Pophale) SiO2 
 PCOD9089606
Probable space group: P -1
;
_chemical_formula_sum "Si O2"
_cell_formula_units_Z 12
_cell_length_a 7.286309
_cell_length_b 7.846253
_cell_length_c 15.210751
_cell_angle_alpha 125.438753
_cell_angle_beta 46.178343
_cell_angle_gamma 98.048780
_cell_volume 457.826175
_symmetry_space_group_name_H-M "P -1"
_symmetry_group_IT_number 2
_symmetry_cell_setting 'triclinic'
loop_
_space_group_symop_operation_xyz
x,y,z
-x,-y,-z
loop_
_atom_site_type_symbol
_atom_site_label
_atom_site_fract_x
_atom_site_fract_y
_atom_site_fract_z
Si Si1 0.750361 0.786588 0.802040
Si Si2 0.633793 0.932346 0.598744
Si Si3 0.117825 0.015248 0.708718
Si Si4 0.869943 0.874579 0.068700
Si Si5 0.307175 0.624374 0.294507
Si Si6 0.898988 0.478534 0.820094
O O1 0.636552 0.612060 0.744772
O O2 0.955680 0.622551 0.763714
O O3 0.937351 0.874787 0.709285
O O4 0.500000 0.000000 0.000000
O O5 0.965120 0.782050 0.456491
O O6 0.449256 0.855432 0.571449
O O7 0.465568 0.969220 0.756909
O O8 0.571433 0.196317 0.668822
O O9 0.010635 0.141204 0.877030
O O10 0.071663 0.210790 0.711524
O O11 0.898238 0.634189 0.948264
O O12 0.000000 0.000000 0.000000
O O13 0.369404 0.534916 0.145166
#
# Coordination Sequence:
#
# PCOD9089606 Si02
#       6
#     2   2   2   2   2   2
#     4  10  23  38  61  95 125 160 216 259 306 377
#     4   9  21  39  67  88 132 164 211 255 323 375
#     4  10  22  38  63  94 124 167 206 264 314 368
#     4  10  19  38  59  95 123 162 208 261 303 368
#     4   9  21  42  62  94 125 172 202 264 317 374
#     4  10  21  38  64  89 124 165 213 252 319 365
#
# _framework density 26.210823000000001
#
# number of rings (size 3 to 8) (size 9 to 14) (size 15 to 20)
#    2.000    0.333    1.667    0.500    2.333    4.000 
#    0.000    0.000    0.000    3.000    0.000    0.000 
#    0.000    0.000    0.000    0.000    0.000    0.000 
#
# Total GULP energy -66858.769212 kJ/mol
# GULP energy per Si atom -5571.564101 kJ/mol
# Density = 2.615117 g / cm^3
# Si number density = 26.210823 Si / 1000 Ang^3
#
#
#
# Elastic Constant Matrix: (Units=GPa)
#
#
# Indices 1 2 3 4 5 6 
#
# 1 61.8458 24.0738 8.6985 -1.6986 -8.0186 6.8041
# 2 24.0738 166.3955 69.3938 -2.2913 -21.4700 8.4390
# 3 8.6985 69.3938 72.5415 -6.0565 -10.1920 4.3947
# 4 -1.6986 -2.2913 -6.0565 37.8723 8.7933 -0.2753
# 5 -8.0186 -21.4700 -10.1920 8.7933 36.3428 5.1739
# 6 6.8041 8.4390 4.3947 -0.2753 5.1739 47.5848
#
#
#
# Elastic Compliance Matrix: (Units=1/GPa)
#
#
# Indices 1 2 3 4 5 6 
#
# 1 0.017649 -0.002315 0.000684 0.000030 0.003068 -0.002510
# 2 -0.002315 0.010928 -0.009726 -0.001898 0.003838 -0.001137
# 3 0.000684 -0.009726 0.023338 0.003107 0.000275 -0.000540
# 4 0.000030 -0.001898 0.003107 0.028485 -0.007278 0.001001
# 5 0.003068 0.003838 0.000275 -0.007278 0.032978 -0.004773
# 6 -0.002510 -0.001137 -0.000540 0.001001 -0.004773 0.022150
#
#
# Mechanical properties :
#
#
# Convention : Reuss Voigt Hill
#
# Bulk Modulus (GPa) = 34.24639 56.12389 45.18514
# Shear Modulus (GPa) = 29.76619 37.60111 33.68365
#
# Velocity S-wave (km/s) = 3.37359 3.79167 3.58872
# Velocity P-wave (km/s) = 5.31685 6.37401 5.86928
#
# Compressibility (1/GPa) = 0.02920015
#
# Stress axis : x y z
#
# Youngs Moduli (GPa) = 56.66064 91.51013 42.84823
#
# Poissons Ratio (x) = 0.21185 -0.02931
# Poissons Ratio (y) = 0.13117 0.41675
# Poissons Ratio (z) = -0.03875 0.89005
#
# Static dielectric constant tensor:
#      x y z
#    x 2.083750 0.005310 0.064390 
#    y 0.005310 2.058850 0.008940 
#    z 0.064390 0.008940 2.213950 
# 
# From -- ./inp_files/261317.got.cif
#   From: 2010.05.17/outbox.cif.g08.bks.cpg/sg2_131_cif.got.tgz:261317.got - 2010.06.03 11:33:40.
