data_PCOD9089738
_publ_section_title
;
Structure prediction by ZEFSAII (Michael W. Deem and Ramdas Pophale) SiO2 
 PCOD9089738
Probable space group: P -1
;
_chemical_formula_sum "Si O2"
_cell_formula_units_Z 14
_cell_length_a 9.982809
_cell_length_b 9.294335
_cell_length_c 14.317265
_cell_angle_alpha 124.068161
_cell_angle_beta 111.787965
_cell_angle_gamma 43.521317
_cell_volume 756.342908
_symmetry_space_group_name_H-M "P -1"
_symmetry_group_IT_number 2
_symmetry_cell_setting 'triclinic'
loop_
_space_group_symop_operation_xyz
x,y,z
-x,-y,-z
loop_
_atom_site_type_symbol
_atom_site_label
_atom_site_fract_x
_atom_site_fract_y
_atom_site_fract_z
Si Si1 0.572407 0.966900 0.611330
Si Si2 0.093798 0.550152 0.464806
Si Si3 0.078403 0.055887 0.301654
Si Si4 0.171180 0.324711 0.737236
Si Si5 0.962089 0.839825 0.888984
Si Si6 0.993880 0.281911 0.839895
Si Si7 0.275347 0.166183 0.035601
O O1 0.690420 0.701584 0.580474
O O2 0.500000 0.000000 0.500000
O O3 0.717299 0.012001 0.659634
O O4 0.388554 0.151650 0.694412
O O5 0.000000 0.500000 0.500000
O O6 0.972745 0.615618 0.363126
O O7 0.062950 0.758064 0.584716
O O8 0.090079 0.841301 0.232313
O O9 0.022375 0.152397 0.216095
O O10 0.137372 0.212376 0.767512
O O11 0.114470 0.560984 0.847854
O O12 0.764425 0.911881 0.907435
O O13 0.000000 0.000000 0.000000
O O14 0.129234 0.190984 0.933243
O O15 0.820853 0.563745 0.888716
O O16 0.500000 0.000000 0.000000
#
# Coordination Sequence:
#
# PCOD9089738 Si02
#       7
#     2   2   2   2   2   2   2
#     4  11  20  38  65  90 116 160 205 241 296 361
#     4  10  19  38  61  86 123 154 194 252 298 345
#     4  11  21  40  62  91 124 153 202 253 292 356
#     4  11  22  39  63  87 121 162 197 244 308 356
#     4  11  21  39  65  87 120 161 200 248 299 350
#     4  10  24  41  58  88 126 157 197 252 302 352
#     4  10  23  43  60  83 124 166 200 243 301 355
#
# _framework density 18.510121999999999
#
# number of rings (size 3 to 8) (size 9 to 14) (size 15 to 20)
#    0.000    1.429    7.143    0.000    2.000    1.714 
#    2.571    2.143    0.000    0.000    0.000    0.000 
#    0.000    0.000    0.000    0.000    0.000    0.000 
#
# Total GULP energy -78000.429004 kJ/mol
# GULP energy per Si atom -5571.459215 kJ/mol
# Density = 1.846799 g / cm^3
# Si number density = 18.510122 Si / 1000 Ang^3
#
#
#
# Elastic Constant Matrix: (Units=GPa)
#
#
# Indices 1 2 3 4 5 6 
#
# 1 108.6433 41.7813 47.5219 32.2134 0.7615 -4.9240
# 2 41.7813 58.4639 35.4691 16.7552 10.0247 -5.6086
# 3 47.5219 35.4691 105.9452 16.0759 13.2008 -2.6216
# 4 32.2134 16.7552 16.0759 27.8695 -3.4662 -9.7656
# 5 0.7615 10.0247 13.2008 -3.4662 34.8115 6.5261
# 6 -4.9240 -5.6086 -2.6216 -9.7656 6.5261 34.4203
#
#
#
# Elastic Compliance Matrix: (Units=1/GPa)
#
#
# Indices 1 2 3 4 5 6 
#
# 1 0.017829 -0.006770 -0.003753 -0.015371 0.002127 -0.003603
# 2 -0.006770 0.027968 -0.004360 -0.006399 -0.007424 0.002849
# 3 -0.003753 -0.004360 0.013226 -0.001084 -0.003819 0.000177
# 4 -0.015371 -0.006399 -0.001084 0.063654 0.006393 0.013523
# 5 0.002127 -0.007424 -0.003819 0.006393 0.033995 -0.005828
# 6 -0.003603 0.002849 0.000177 0.013523 -0.005828 0.033957
#
#
# Mechanical properties :
#
#
# Convention : Reuss Voigt Hill
#
# Bulk Modulus (GPa) = 34.17877 58.06635 46.12256
# Shear Modulus (GPa) = 21.72527 29.30559 25.51543
#
# Velocity S-wave (km/s) = 3.42964 3.98329 3.71679
# Velocity P-wave (km/s) = 5.84707 7.25214 6.58718
#
# Compressibility (1/GPa) = 0.02925793
#
# Stress axis : x y z
#
# Youngs Moduli (GPa) = 56.08939 35.75486 75.60630
#
# Poissons Ratio (x) = 0.24206 0.28371
# Poissons Ratio (y) = 0.37972 0.32966
# Poissons Ratio (z) = 0.21048 0.15590
#
# Static dielectric constant tensor:
#      x y z
#    x 1.624190 0.005300 -0.031670 
#    y 0.005300 1.662980 0.006970 
#    z -0.031670 0.006970 1.715650 
# 
# From -- ./inp_files/126171.got.cif
#   From: 2010.05.17/outbox.cif.g08.bks.cpg/sg2_64_cif.got.tgz:126171.got - 2010.06.03 11:33:40.
