data_PCOD9089715
_publ_section_title
;
Structure prediction by ZEFSAII (Michael W. Deem and Ramdas Pophale) SiO2 
 PCOD9089715
Probable space group: P -1
;
_chemical_formula_sum "Si O2"
_cell_formula_units_Z 12
_cell_length_a 8.470662
_cell_length_b 6.944554
_cell_length_c 11.889658
_cell_angle_alpha 58.286016
_cell_angle_beta 75.436726
_cell_angle_gamma 85.589885
_cell_volume 574.559108
_symmetry_space_group_name_H-M "P -1"
_symmetry_group_IT_number 2
_symmetry_cell_setting 'triclinic'
loop_
_space_group_symop_operation_xyz
x,y,z
-x,-y,-z
loop_
_atom_site_type_symbol
_atom_site_label
_atom_site_fract_x
_atom_site_fract_y
_atom_site_fract_z
Si Si1 0.303465 0.439142 0.155181
Si Si2 0.032179 0.761645 0.624852
Si Si3 0.560696 0.134439 0.114208
Si Si4 0.516951 0.362514 0.723700
Si Si5 0.741058 0.516911 0.452165
Si Si6 0.658116 0.008037 0.387307
O O1 0.125816 0.334084 0.250620
O O2 0.396292 0.269108 0.111038
O O3 0.409847 0.481431 0.237376
O O4 0.308817 0.686685 0.020938
O O5 0.086935 0.568952 0.588425
O O6 0.193537 0.824897 0.649097
O O7 0.000000 0.000000 0.500000
O O8 0.608744 0.079867 0.250001
O O9 0.537038 0.884697 0.142483
O O10 0.655600 0.339117 0.610267
O O11 0.271398 0.241083 0.559916
O O12 0.627111 0.539625 0.354630
O O13 0.500000 0.000000 0.500000
#
# Coordination Sequence:
#
# PCOD9089715 Si02
#       6
#     2   2   2   2   2   2
#     4  11  23  37  58  87 120 153 193 243 293 343
#     4  12  24  37  58  91 121 150 194 249 297 340
#     4  10  22  40  60  83 114 160 199 232 289 353
#     4  10  19  38  61  83 112 152 197 239 286 347
#     4  10  21  36  62  88 112 152 199 243 291 344
#     4  11  22  41  64  86 116 155 199 241 289 353
#
# _framework density 20.885579
#
# number of rings (size 3 to 8) (size 9 to 14) (size 15 to 20)
#    0.000    1.333    0.000    8.500    0.000    4.667 
#    0.000    3.333    0.000    0.000    0.000    0.000 
#    0.000    0.000    0.000    0.000    0.000    0.000 
#
# Total GULP energy -67057.029648 kJ/mol
# GULP energy per Si atom -5588.085804 kJ/mol
# Density = 2.083804 g / cm^3
# Si number density = 20.885579 Si / 1000 Ang^3
#
#
#
# Elastic Constant Matrix: (Units=GPa)
#
#
# Indices 1 2 3 4 5 6 
#
# 1 50.5487 41.8070 22.3084 0.5774 -33.6622 5.8367
# 2 41.8070 107.8193 25.0356 -10.6032 -22.4156 -1.4992
# 3 22.3084 25.0356 117.5322 -25.4893 -25.3515 -2.2976
# 4 0.5774 -10.6032 -25.4893 34.0294 7.8802 -0.2332
# 5 -33.6622 -22.4156 -25.3515 7.8802 43.0417 3.9846
# 6 5.8367 -1.4992 -2.2976 -0.2332 3.9846 37.4946
#
#
#
# Elastic Compliance Matrix: (Units=1/GPa)
#
#
# Indices 1 2 3 4 5 6 
#
# 1 0.074444 -0.019704 -0.004087 -0.022482 0.051355 -0.018224
# 2 -0.019704 0.015833 0.000168 0.007480 -0.008870 0.004700
# 3 -0.004087 0.000168 0.011507 0.008276 0.002044 0.001182
# 4 -0.022482 0.007480 0.008276 0.042313 -0.017151 0.006392
# 5 0.051355 -0.008870 0.002044 -0.017151 0.064528 -0.015188
# 6 -0.018224 0.004700 0.001182 0.006392 -0.015188 0.031422
#
#
# Mechanical properties :
#
#
# Convention : Reuss Voigt Hill
#
# Bulk Modulus (GPa) = 18.33610 50.46690 34.40150
# Shear Modulus (GPa) = 16.36811 35.36308 25.86559
#
# Velocity S-wave (km/s) = 2.80251 4.11929 3.52297
# Velocity P-wave (km/s) = 4.38981 6.84403 5.74940
#
# Compressibility (1/GPa) = 0.05453724
#
# Stress axis : x y z
#
# Youngs Moduli (GPa) = 13.43293 63.15989 86.90328
#
# Poissons Ratio (x) = 1.24451 0.35520
# Poissons Ratio (y) = 0.26468 -0.01461
# Poissons Ratio (z) = 0.05491 -0.01062
#
# Static dielectric constant tensor:
#      x y z
#    x 1.750120 0.033830 0.037100 
#    y 0.033830 1.864210 0.008790 
#    z 0.037100 0.008790 1.751890 
# 
# From -- ./inp_files/373514.got.cif
#   From: 2010.05.17/outbox.cif.g08.bks.cpg/sg2_187_cif.got.tgz:373514.got - 2010.06.03 11:33:40.
