data_PCOD9089594
_publ_section_title
;
Structure prediction by ZEFSAII (Michael W. Deem and Ramdas Pophale) SiO2 
 PCOD9089594
Probable space group: P -1
;
_chemical_formula_sum "Si O2"
_cell_formula_units_Z 16
_cell_length_a 9.996187
_cell_length_b 15.465520
_cell_length_c 8.335469
_cell_angle_alpha 50.868809
_cell_angle_beta 105.315215
_cell_angle_gamma 133.269115
_cell_volume 694.728567
_symmetry_space_group_name_H-M "P -1"
_symmetry_group_IT_number 2
_symmetry_cell_setting 'triclinic'
loop_
_space_group_symop_operation_xyz
x,y,z
-x,-y,-z
loop_
_atom_site_type_symbol
_atom_site_label
_atom_site_fract_x
_atom_site_fract_y
_atom_site_fract_z
Si Si1 0.086525 0.276898 0.369727
Si Si2 0.882676 0.084848 0.217085
Si Si3 0.333490 0.498850 0.652277
Si Si4 0.622763 0.394378 0.109011
Si Si5 0.311751 0.201027 0.693376
Si Si6 0.105672 0.678340 0.219567
Si Si7 0.259728 0.208393 0.003895
Si Si8 0.113540 0.637222 0.616656
O O1 0.954615 0.142270 0.352913
O O2 0.195421 0.244404 0.544728
O O3 0.958068 0.287138 0.423909
O O4 0.239738 0.442747 0.133920
O O5 0.828920 0.176926 0.024272
O O6 0.066317 0.133324 0.124179
O O7 0.716173 0.907526 0.324406
O O8 0.413595 0.566170 0.777791
O O9 0.465212 0.641882 0.408632
O O10 0.112741 0.411528 0.690197
O O11 0.337598 0.370641 0.773674
O O12 0.741735 0.349220 0.239762
O O13 0.425312 0.259106 0.114875
O O14 0.237075 0.122943 0.936582
O O15 0.066416 0.548801 0.249044
O O16 0.203859 0.706545 0.386801
#
# Coordination Sequence:
#
# PCOD9089594 Si02
#       8
#     2   2   2   2   2   2   2   2
#     4  12  21  37  61  93 120 154 199 246 289 359
#     4  11  23  41  60  90 123 158 188 247 309 354
#     4  10  19  38  59  90 117 153 198 252 296 338
#     4  11  21  36  62  89 120 150 196 257 289 337
#     4  12  25  36  62  91 123 157 193 243 305 362
#     4   9  20  40  66  88 120 151 198 254 289 344
#     4  11  21  38  60  87 122 155 200 247 294 345
#     4  10  21  37  63  94 112 157 205 248 284 340
#
# _framework density 23.030577999999998
#
# number of rings (size 3 to 8) (size 9 to 14) (size 15 to 20)
#    0.000    1.250    5.000    4.125    1.750    0.000 
#    0.000    0.000    0.000   21.000    0.000    0.000 
#    0.000    0.000    0.000    0.000    0.000    0.000 
#
# Total GULP energy -89517.815204 kJ/mol
# GULP energy per Si atom -5594.863450 kJ/mol
# Density = 2.297816 g / cm^3
# Si number density = 23.030578 Si / 1000 Ang^3
#
#
#
# Elastic Constant Matrix: (Units=GPa)
#
#
# Indices 1 2 3 4 5 6 
#
# 1 45.3136 27.9930 5.3799 -1.5310 12.7554 -16.6367
# 2 27.9930 84.7623 17.9088 13.6135 6.9191 -9.5045
# 3 5.3799 17.9088 42.3234 11.4766 18.7794 6.7463
# 4 -1.5310 13.6135 11.4766 34.7137 2.6566 -3.3168
# 5 12.7554 6.9191 18.7794 2.6566 36.5808 7.5353
# 6 -16.6367 -9.5045 6.7463 -3.3168 7.5353 32.0110
#
#
#
# Elastic Compliance Matrix: (Units=1/GPa)
#
#
# Indices 1 2 3 4 5 6 
#
# 1 0.044545 -0.012269 0.001654 0.010133 -0.019926 0.024900
# 2 -0.012269 0.017516 -0.006161 -0.005905 0.004895 -0.001641
# 3 0.001654 -0.006161 0.036629 -0.008917 -0.016382 -0.005757
# 4 0.010133 -0.005905 -0.008917 0.035625 -0.002414 0.009652
# 5 -0.019926 0.004895 -0.016382 -0.002414 0.045315 -0.016367
# 6 0.024900 -0.001641 -0.005757 0.009652 -0.016367 0.049759
#
#
# Mechanical properties :
#
#
# Convention : Reuss Voigt Hill
#
# Bulk Modulus (GPa) = 15.35250 30.55141 22.95196
# Shear Modulus (GPa) = 17.56517 28.73562 23.15040
#
# Velocity S-wave (km/s) = 2.76468 3.53613 3.17393
# Velocity P-wave (km/s) = 4.10754 5.47419 4.83935
#
# Compressibility (1/GPa) = 0.06513595
#
# Stress axis : x y z
#
# Youngs Moduli (GPa) = 22.44942 57.08996 27.30085
#
# Poissons Ratio (x) = 0.70046 -0.04515
# Poissons Ratio (y) = 0.27544 0.16821
# Poissons Ratio (z) = -0.03713 0.35176
#
# Static dielectric constant tensor:
#      x y z
#    x 1.864680 0.010150 -0.018280 
#    y 0.010150 1.883360 -0.000510 
#    z -0.018280 -0.000510 1.905670 
# 
# From -- ./inp_files/271865.got.cif
#   From: 2010.05.17/outbox.cif.g08.bks.cpg/sg2_136_cif.got.tgz:271865.got - 2010.06.03 11:33:40.
