data_PCOD9089739
_publ_section_title
;
Structure prediction by ZEFSAII (Michael W. Deem and Ramdas Pophale) SiO2 
 PCOD9089739
Probable space group: P -1
;
_chemical_formula_sum "Si O2"
_cell_formula_units_Z 16
_cell_length_a 15.432849
_cell_length_b 10.376074
_cell_length_c 12.776751
_cell_angle_alpha 117.576729
_cell_angle_beta 61.677605
_cell_angle_gamma 156.323574
_cell_volume 720.906316
_symmetry_space_group_name_H-M "P -1"
_symmetry_group_IT_number 2
_symmetry_cell_setting 'triclinic'
loop_
_space_group_symop_operation_xyz
x,y,z
-x,-y,-z
loop_
_atom_site_type_symbol
_atom_site_label
_atom_site_fract_x
_atom_site_fract_y
_atom_site_fract_z
Si Si1 0.220015 0.408751 0.827916
Si Si2 0.896416 0.064507 0.564504
Si Si3 0.228512 0.089321 0.765419
Si Si4 0.509024 0.752140 0.185518
Si Si5 0.141383 0.174056 0.319562
Si Si6 0.240688 0.884005 0.493210
Si Si7 0.829131 0.644871 0.939116
Si Si8 0.651512 0.257819 0.325451
O O1 0.284540 0.326115 0.784631
O O2 0.342161 0.649152 0.754271
O O3 0.225156 0.493733 0.969207
O O4 0.973112 0.068762 0.797428
O O5 0.771658 0.031743 0.571396
O O6 0.956410 0.028132 0.425745
O O7 0.129742 0.416674 0.612952
O O8 0.773459 0.818337 0.635022
O O9 0.353694 0.206384 0.842702
O O10 0.277984 0.038446 0.628352
O O11 0.971910 0.740248 0.811534
O O12 0.320665 0.508807 0.290168
O O13 0.386025 0.586201 0.083412
O O14 0.644884 0.078174 0.239758
O O15 0.000000 0.500000 0.500000
O O16 0.436311 0.028061 0.422999
O O17 0.000000 0.000000 0.000000
#
# Coordination Sequence:
#
# PCOD9089739 Si02
#       8
#     2   2   2   2   2   2   2   2
#     4  10  22  44  63  91 125 164 209 263 302 366
#     4  10  21  38  58  88 126 166 201 249 303 367
#     4  11  23  38  67  94 120 166 214 249 308 375
#     4  12  23  40  63  93 124 163 208 259 311 368
#     4  10  19  38  61  86 124 162 205 252 303 359
#     4  12  23  38  64  93 130 167 206 248 315 375
#     4  10  21  43  66  90 124 161 211 263 308 359
#     4  11  26  40  61  96 133 159 204 259 316 363
#
# _framework density 22.194285000000001
#
# number of rings (size 3 to 8) (size 9 to 14) (size 15 to 20)
#    0.000    1.250    3.750    3.000    1.750    4.500 
#    0.000    0.625    0.000    0.000    0.000    0.000 
#    0.000    0.000    0.000    0.000    0.000    0.000 
#
# Total GULP energy -89425.636746 kJ/mol
# GULP energy per Si atom -5589.102297 kJ/mol
# Density = 2.214377 g / cm^3
# Si number density = 22.194285 Si / 1000 Ang^3
#
#
#
# Elastic Constant Matrix: (Units=GPa)
#
#
# Indices 1 2 3 4 5 6 
#
# 1 88.4937 5.6097 27.3433 4.5836 20.2922 3.4331
# 2 5.6097 56.5124 24.0218 2.4538 9.6355 -4.8859
# 3 27.3433 24.0218 64.4988 1.1026 22.4430 -2.0690
# 4 4.5836 2.4538 1.1026 24.3163 2.9647 3.7865
# 5 20.2922 9.6355 22.4430 2.9647 33.7573 3.3312
# 6 3.4331 -4.8859 -2.0690 3.7865 3.3312 36.3183
#
#
#
# Elastic Compliance Matrix: (Units=1/GPa)
#
#
# Indices 1 2 3 4 5 6 
#
# 1 0.014014 0.001517 -0.004545 -0.001799 -0.005611 -0.000677
# 2 0.001517 0.021554 -0.007888 -0.002297 -0.001887 0.002719
# 3 -0.004545 -0.007888 0.024414 0.001699 -0.011559 0.001642
# 4 -0.001799 -0.002297 0.001699 0.042609 -0.002717 -0.004235
# 5 -0.005611 -0.001887 -0.011559 -0.002717 0.041847 -0.003937
# 6 -0.000677 0.002719 0.001642 -0.004235 -0.003937 0.028860
#
#
# Mechanical properties :
#
#
# Convention : Reuss Voigt Hill
#
# Bulk Modulus (GPa) = 26.21094 35.93940 31.07517
# Shear Modulus (GPa) = 24.05611 29.04705 26.55158
#
# Velocity S-wave (km/s) = 3.29582 3.62161 3.46255
# Velocity P-wave (km/s) = 5.13017 5.80657 5.47882
#
# Compressibility (1/GPa) = 0.03815201
#
# Stress axis : x y z
#
# Youngs Moduli (GPa) = 71.35489 46.39512 40.95956
#
# Poissons Ratio (x) = -0.07038 0.18615
# Poissons Ratio (y) = -0.10824 0.32307
# Poissons Ratio (z) = 0.32429 0.36594
#
# Static dielectric constant tensor:
#      x y z
#    x 1.848540 0.026860 0.003690 
#    y 0.026860 1.830050 -0.020210 
#    z 0.003690 -0.020210 1.854490 
# 
# From -- ./inp_files/353808.got.cif
#   From: 2010.05.17/outbox.cif.g08.bks.cpg/sg2_177_cif.got.tgz:353808.got - 2010.06.03 11:33:40.
