data_PCOD9089644
_publ_section_title
;
Structure prediction by ZEFSAII (Michael W. Deem and Ramdas Pophale) SiO2 
 PCOD9089644
Probable space group: P -1
;
_chemical_formula_sum "Si O2"
_cell_formula_units_Z 16
_cell_length_a 17.096284
_cell_length_b 18.725888
_cell_length_c 5.478169
_cell_angle_alpha 88.976195
_cell_angle_beta 75.140032
_cell_angle_gamma 153.609925
_cell_volume 615.738340
_symmetry_space_group_name_H-M "P -1"
_symmetry_group_IT_number 2
_symmetry_cell_setting 'triclinic'
loop_
_space_group_symop_operation_xyz
x,y,z
-x,-y,-z
loop_
_atom_site_type_symbol
_atom_site_label
_atom_site_fract_x
_atom_site_fract_y
_atom_site_fract_z
Si Si1 0.750581 0.028539 0.947478
Si Si2 0.291426 0.463608 0.952648
Si Si3 0.713015 0.753501 0.457363
Si Si4 0.740508 0.494679 0.524780
Si Si5 0.838306 0.937207 0.845319
Si Si6 0.241796 0.775661 0.727972
Si Si7 0.089450 0.515238 0.611185
Si Si8 0.799934 0.112061 0.409765
O O1 0.748326 0.941977 0.959070
O O2 0.655795 0.977350 0.770229
O O3 0.007416 0.267038 0.705721
O O4 0.672188 0.993775 0.268676
O O5 0.449972 0.527756 0.743302
O O6 0.345538 0.561903 0.677458
O O7 0.360475 0.546348 0.161975
O O8 0.021113 0.242977 0.202445
O O9 0.891281 0.837351 0.349979
O O10 0.791024 0.871360 0.609958
O O11 0.754549 0.818539 0.146612
O O12 0.755290 0.423344 0.579700
O O13 0.200715 0.659584 0.708556
O O14 0.132409 0.748487 0.650455
O O15 0.500000 0.000000 0.500000
O O16 0.130835 0.699214 0.079968
O O17 0.000000 0.500000 0.500000
#
# Coordination Sequence:
#
# PCOD9089644 Si02
#       8
#     2   2   2   2   2   2   2   2
#     4  10  19  38  61  85 118 164 202 256 322 374
#     4  10  19  38  60  86 117 166 205 260 314 384
#     4  10  21  38  59  87 129 165 210 257 326 393
#     4  10  21  38  63  86 124 158 216 266 324 385
#     4  10  21  38  58  90 128 166 203 267 321 389
#     4  11  25  45  66  96 134 179 226 281 348 409
#     4  11  23  44  69  92 133 182 220 290 344 402
#     4  10  21  41  62  85 127 159 210 271 317 390
#
# _framework density 25.985064999999999
#
# number of rings (size 3 to 8) (size 9 to 14) (size 15 to 20)
#    0.000    1.750    2.500    3.000    1.750    0.500 
#    6.750    5.000    0.000    0.000    0.000    0.000 
#    0.000    0.000    0.000    0.000    0.000    0.000 
#
# Total GULP energy -89346.701000 kJ/mol
# GULP energy per Si atom -5584.168812 kJ/mol
# Density = 2.592592 g / cm^3
# Si number density = 25.985065 Si / 1000 Ang^3
#
#
#
# Elastic Constant Matrix: (Units=GPa)
#
#
# Indices 1 2 3 4 5 6 
#
# 1 53.3899 -3.8926 15.6938 13.1806 4.9740 9.3520
# 2 -3.8926 58.5623 46.7277 10.4442 6.9019 8.5925
# 3 15.6938 46.7277 115.7895 32.1793 7.0350 19.8075
# 4 13.1806 10.4442 32.1793 61.4584 19.3617 0.3771
# 5 4.9740 6.9019 7.0350 19.3617 51.2562 -0.5007
# 6 9.3520 8.5925 19.8075 0.3771 -0.5007 31.0212
#
#
#
# Elastic Compliance Matrix: (Units=1/GPa)
#
#
# Indices 1 2 3 4 5 6 
#
# 1 0.022175 0.005689 -0.003145 -0.003672 -0.001160 -0.006227
# 2 0.005689 0.027072 -0.011509 0.001190 -0.003086 -0.001929
# 3 -0.003145 -0.011509 0.016495 -0.006606 0.002025 -0.006283
# 4 -0.003672 0.001190 -0.006606 0.022617 -0.007396 0.004601
# 5 -0.001160 -0.003086 0.002025 -0.007396 0.022557 0.000366
# 6 -0.006227 -0.001929 -0.006283 0.004601 0.000366 0.038609
#
#
# Mechanical properties :
#
#
# Convention : Reuss Voigt Hill
#
# Bulk Modulus (GPa) = 20.91612 38.31105 29.61358
# Shear Modulus (GPa) = 27.26392 40.02802 33.64597
#
# Velocity S-wave (km/s) = 3.24267 3.92908 3.60226
# Velocity P-wave (km/s) = 4.69964 5.94635 5.35937
#
# Compressibility (1/GPa) = 0.04781001
#
# Stress axis : x y z
#
# Youngs Moduli (GPa) = 45.09660 36.93872 60.62511
#
# Poissons Ratio (x) = -0.21013 0.19067
# Poissons Ratio (y) = -0.25654 0.69775
# Poissons Ratio (z) = 0.14183 0.42513
#
# Static dielectric constant tensor:
#      x y z
#    x 2.167640 -0.002870 -0.044380 
#    y -0.002870 2.197970 0.037130 
#    z -0.044380 0.037130 2.113730 
# 
# From -- ./inp_files/112217.got.cif
#   From: 2010.05.17/outbox.cif.g08.bks.cpg/sg2_57_cif.got.tgz:112217.got - 2010.06.03 11:33:40.
