data_PCOD9089042
_publ_section_title
;
Structure prediction by ZEFSAII (Michael W. Deem and Ramdas Pophale) SiO2 
 PCOD9089042
Probable space group: P -1
;
_chemical_formula_sum "Si O2"
_cell_formula_units_Z 16
_cell_length_a 9.644705
_cell_length_b 9.363984
_cell_length_c 25.782380
_cell_angle_alpha 26.904972
_cell_angle_beta 132.449979
_cell_angle_gamma 122.492711
_cell_volume 762.730546
_symmetry_space_group_name_H-M "P -1"
_symmetry_group_IT_number 2
_symmetry_cell_setting 'triclinic'
loop_
_space_group_symop_operation_xyz
x,y,z
-x,-y,-z
loop_
_atom_site_type_symbol
_atom_site_label
_atom_site_fract_x
_atom_site_fract_y
_atom_site_fract_z
Si Si1 0.406778 0.992562 0.707276
Si Si2 0.698286 0.790221 0.599885
Si Si3 0.802255 0.543702 0.966244
Si Si4 0.518216 0.238160 0.766033
Si Si5 0.952851 0.089595 0.296507
Si Si6 0.136921 0.206268 0.993484
Si Si7 0.857438 0.742234 0.541219
Si Si8 0.849088 0.816606 0.255844
O O1 0.600503 0.728557 0.830957
O O2 0.232837 0.849827 0.733854
O O3 0.450990 0.200187 0.701723
O O4 0.305764 0.168941 0.573554
O O5 0.675673 0.460379 0.729197
O O6 0.747481 0.726946 0.572624
O O7 0.858634 0.976389 0.600815
O O8 0.500000 0.000000 0.500000
O O9 0.842677 0.790366 0.940961
O O10 0.000000 0.500000 0.000000
O O11 0.788848 0.184754 0.100030
O O12 0.338351 0.328725 0.729601
O O13 0.639776 0.907628 0.927639
O O14 0.947945 0.429499 0.158868
O O15 0.944265 0.843208 0.327872
O O16 0.000000 0.000000 0.000000
O O17 0.000239 0.410512 0.668902
O O18 0.000000 0.000000 0.500000
#
# Coordination Sequence:
#
# PCOD9089042 Si02
#       8
#     2   2   2   2   2   2   2   2
#     4  10  23  43  69  93 136 179 222 274 336 396
#     4  12  26  41  65  96 137 173 224 274 331 399
#     4  10  23  43  67 100 136 174 224 277 334 400
#     4  10  22  41  67  98 131 176 222 269 336 398
#     4  10  21  42  67  97 131 177 219 273 336 398
#     4  10  19  37  64  96 128 169 218 269 326 394
#     4  12  26  45  68  99 135 176 230 280 331 395
#     4  10  24  43  72  98 132 176 225 277 337 402
#
# _framework density 20.977264000000002
#
# number of rings (size 3 to 8) (size 9 to 14) (size 15 to 20)
#    0.000    1.500    2.500    1.500    5.250    6.500 
#    2.250    0.625    0.000    0.000    0.000    0.000 
#    0.000    0.000    0.000    0.000    0.000    0.000 
#
# Total GULP energy -89103.738015 kJ/mol
# GULP energy per Si atom -5568.983626 kJ/mol
# Density = 2.092952 g / cm^3
# Si number density = 20.977264 Si / 1000 Ang^3
#
#
#
# Elastic Constant Matrix: (Units=GPa)
#
#
# Indices 1 2 3 4 5 6 
#
# 1 152.8662 34.3993 37.9317 8.0919 28.3768 -1.0504
# 2 34.3993 56.1412 22.6786 4.6167 17.8325 9.7349
# 3 37.9317 22.6786 72.9712 10.3727 29.1015 -5.8615
# 4 8.0919 4.6167 10.3727 28.7355 4.8471 6.2961
# 5 28.3768 17.8325 29.1015 4.8471 37.5358 -5.0510
# 6 -1.0504 9.7349 -5.8615 6.2961 -5.0510 30.1514
#
#
#
# Elastic Compliance Matrix: (Units=1/GPa)
#
#
# Indices 1 2 3 4 5 6 
#
# 1 0.008406 -0.003471 -0.001921 -0.000757 -0.003026 0.000691
# 2 -0.003471 0.026017 -0.004186 0.002151 -0.008272 -0.011170
# 3 -0.001921 -0.004186 0.022113 -0.005721 -0.012330 0.004712
# 4 -0.000757 0.002151 -0.005721 0.039458 -0.002521 -0.010495
# 5 -0.003026 -0.008272 -0.012330 -0.002521 0.043825 0.008036
# 6 0.000691 -0.011170 0.004712 -0.010495 0.008036 0.041250
#
#
# Mechanical properties :
#
#
# Convention : Reuss Voigt Hill
#
# Bulk Modulus (GPa) = 26.75197 52.44420 39.59809
# Shear Modulus (GPa) = 23.50901 31.74915 27.62908
#
# Velocity S-wave (km/s) = 3.35130 3.89460 3.63312
# Velocity P-wave (km/s) = 5.26835 6.72894 6.04293
#
# Compressibility (1/GPa) = 0.03738042
#
# Stress axis : x y z
#
# Youngs Moduli (GPa) = 118.96398 38.43603 45.22304
#
# Poissons Ratio (x) = 0.13342 0.08687
# Poissons Ratio (y) = 0.41294 0.18929
# Poissons Ratio (z) = 0.22852 0.16088
#
# Static dielectric constant tensor:
#      x y z
#    x 1.441110 -0.187300 -0.326930 
#    y -0.187300 1.741970 -0.264930 
#    z -0.326930 -0.264930 1.650130 
# 
# From -- ./inp_files/306924.got.cif
#   From: 2010.05.17/outbox.cif.g08.bks.cpg/sg2_154_cif.got.tgz:306924.got - 2010.06.03 11:33:40.
