data_PCOD9089579
_publ_section_title
;
Structure prediction by ZEFSAII (Michael W. Deem and Ramdas Pophale) SiO2 
 PCOD9089579
Probable space group: P -1
;
_chemical_formula_sum "Si O2"
_cell_formula_units_Z 14
_cell_length_a 14.909371
_cell_length_b 11.360211
_cell_length_c 12.271058
_cell_angle_alpha 36.123122
_cell_angle_beta 152.145374
_cell_angle_gamma 136.734312
_cell_volume 571.735520
_symmetry_space_group_name_H-M "P -1"
_symmetry_group_IT_number 2
_symmetry_cell_setting 'triclinic'
loop_
_space_group_symop_operation_xyz
x,y,z
-x,-y,-z
loop_
_atom_site_type_symbol
_atom_site_label
_atom_site_fract_x
_atom_site_fract_y
_atom_site_fract_z
Si Si1 0.075088 0.619751 0.884717
Si Si2 0.321185 0.308067 0.680419
Si Si3 0.181383 0.864300 0.281803
Si Si4 0.838325 0.585985 0.083737
Si Si5 0.573479 0.316017 0.144538
Si Si6 0.473178 0.739527 0.278563
Si Si7 0.477714 0.777606 0.495404
O O1 0.158542 0.469342 0.998690
O O2 0.903800 0.716138 0.564659
O O3 0.248365 0.766746 0.998541
O O4 0.000000 0.500000 0.000000
O O5 0.416989 0.207786 0.753881
O O6 0.384157 0.546750 0.563650
O O7 0.404934 0.247349 0.931613
O O8 0.335986 0.841913 0.560199
O O9 0.309893 0.890027 0.291923
O O10 0.054196 0.652294 0.298348
O O11 0.000000 0.000000 0.000000
O O12 0.749411 0.401322 0.194550
O O13 0.674569 0.749775 0.795293
O O14 0.500000 0.500000 0.000000
O O15 0.500000 0.500000 0.500000
O O16 0.528060 0.832861 0.383849
#
# Coordination Sequence:
#
# PCOD9089579 Si02
#       7
#     2   2   2   2   2   2   2
#     4  12  16  26  54  90 118 138 181 239 295 334
#     4  10  18  29  51  83 113 141 184 233 288 326
#     4  12  25  39  57  84 116 157 198 236 284 345
#     4  11  20  35  60  83 113 154 193 231 293 329
#     4  11  20  40  58  80 121 151 192 247 278 336
#     4  10  16  28  48  84 117 138 174 243 288 331
#     4  10  18  34  52  81 118 142 188 235 286 331
#
# _framework density 24.486847999999998
#
# number of rings (size 3 to 8) (size 9 to 14) (size 15 to 20)
#    0.000    1.143   11.429    0.429    0.000    0.571 
#    0.000    0.000    0.000    0.857    0.000    5.000 
#    0.000    0.000    0.000    0.000    0.000    0.000 
#
# Total GULP energy -78273.174357 kJ/mol
# GULP energy per Si atom -5590.941026 kJ/mol
# Density = 2.443111 g / cm^3
# Si number density = 24.486848 Si / 1000 Ang^3
#
#
#
# Elastic Constant Matrix: (Units=GPa)
#
#
# Indices 1 2 3 4 5 6 
#
# 1 165.4950 13.3576 60.6666 2.8916 10.5374 -24.8587
# 2 13.3576 32.2293 34.1803 14.8762 0.3854 -2.5375
# 3 60.6666 34.1803 157.8284 29.0627 1.1093 -14.8651
# 4 2.8916 14.8762 29.0627 61.4435 0.5233 6.8704
# 5 10.5374 0.3854 1.1093 0.5233 43.6625 12.3080
# 6 -24.8587 -2.5375 -14.8651 6.8704 12.3080 35.4018
#
#
#
# Elastic Compliance Matrix: (Units=1/GPa)
#
#
# Indices 1 2 3 4 5 6 
#
# 1 0.008074 -0.000303 -0.002521 0.000272 -0.003508 0.005756
# 2 -0.000303 0.042581 -0.007771 -0.006727 -0.000303 0.000987
# 3 -0.002521 -0.007771 0.009745 -0.002875 -0.000211 0.002396
# 4 0.000272 -0.006727 -0.002875 0.019895 0.001485 -0.005875
# 5 -0.003508 -0.000303 -0.000211 0.001485 0.027213 -0.012323
# 6 0.005756 0.000987 0.002396 -0.005875 -0.012323 0.038790
#
#
# Mechanical properties :
#
#
# Convention : Reuss Voigt Hill
#
# Bulk Modulus (GPa) = 25.50432 63.55131 44.52781
# Shear Modulus (GPa) = 27.69150 44.59143 36.14147
#
# Velocity S-wave (km/s) = 3.36649 4.27199 3.84598
# Velocity P-wave (km/s) = 5.05462 7.09526 6.16003
#
# Compressibility (1/GPa) = 0.03920904
#
# Stress axis : x y z
#
# Youngs Moduli (GPa) = 123.84816 23.48438 102.61916
#
# Poissons Ratio (x) = 0.00712 0.25874
# Poissons Ratio (y) = 0.03752 0.79750
# Poissons Ratio (z) = 0.31227 0.18251
#
# Static dielectric constant tensor:
#      x y z
#    x 1.903690 -0.033910 -0.006650 
#    y -0.033910 2.139870 -0.075070 
#    z -0.006650 -0.075070 1.970200 
# 
# From -- ./inp_files/307285.got.cif
#   From: 2010.05.17/outbox.cif.g08.bks.cpg/sg2_154_cif.got.tgz:307285.got - 2010.06.03 11:33:40.
