data_PCOD9089667
_publ_section_title
;
Structure prediction by ZEFSAII (Michael W. Deem and Ramdas Pophale) SiO2 
 PCOD9089667
Probable space group: P -1
;
_chemical_formula_sum "Si O2"
_cell_formula_units_Z 16
_cell_length_a 9.666548
_cell_length_b 18.417756
_cell_length_c 9.762457
_cell_angle_alpha 54.337569
_cell_angle_beta 136.914099
_cell_angle_gamma 140.588333
_cell_volume 753.075361
_symmetry_space_group_name_H-M "P -1"
_symmetry_group_IT_number 2
_symmetry_cell_setting 'triclinic'
loop_
_space_group_symop_operation_xyz
x,y,z
-x,-y,-z
loop_
_atom_site_type_symbol
_atom_site_label
_atom_site_fract_x
_atom_site_fract_y
_atom_site_fract_z
Si Si1 0.535530 0.773097 0.137494
Si Si2 0.953864 0.731974 0.171239
Si Si3 0.001838 0.162453 0.436897
Si Si4 0.971167 0.652424 0.555803
Si Si5 0.479378 0.060293 0.548333
Si Si6 0.977822 0.691483 0.926113
Si Si7 0.562335 0.786774 0.839706
Si Si8 0.263468 0.517489 0.196259
O O1 0.767230 0.836623 0.343116
O O2 0.481860 0.652543 0.201907
O O3 0.265828 0.738700 0.034931
O O4 0.610876 0.835561 0.976557
O O5 0.898879 0.653879 0.347246
O O6 0.239234 0.850394 0.279565
O O7 0.960962 0.685940 0.081806
O O8 0.742175 0.751373 0.990051
O O9 0.987754 0.244320 0.441314
O O10 0.053418 0.220083 0.263512
O O11 0.732645 0.036582 0.395200
O O12 0.252926 0.682721 0.728336
O O13 0.766942 0.536787 0.617862
O O14 0.393421 0.129340 0.339672
O O15 0.500000 0.000000 0.500000
O O16 0.761541 0.567441 0.839392
O O17 0.000000 0.500000 0.000000
#
# Coordination Sequence:
#
# PCOD9089667 Si02
#       8
#     2   2   2   2   2   2   2   2
#     4  11  20  39  68  87 114 164 208 239 302 357
#     4  11  24  39  59  90 130 159 191 251 317 342
#     4  11  21  38  62  90 114 156 211 245 291 360
#     4  10  19  38  60  88 124 151 203 252 284 366
#     4  11  21  39  62  91 120 157 208 251 291 358
#     4  10  23  41  58  90 131 151 195 261 298 354
#     4  11  20  37  63  89 119 157 204 246 291 368
#     4   9  18  38  68  87 116 161 205 245 297 355
#
# _framework density 21.246213999999998
#
# number of rings (size 3 to 8) (size 9 to 14) (size 15 to 20)
#    0.000    1.500    7.500    0.000    0.000    7.500 
#    0.000    4.375    0.000    0.000    0.000    0.000 
#    0.000    0.000    0.000    0.000    0.000    0.000 
#
# Total GULP energy -89420.301625 kJ/mol
# GULP energy per Si atom -5588.768852 kJ/mol
# Density = 2.119786 g / cm^3
# Si number density = 21.246214 Si / 1000 Ang^3
#
#
#
# Elastic Constant Matrix: (Units=GPa)
#
#
# Indices 1 2 3 4 5 6 
#
# 1 57.8447 -4.0760 44.0245 2.2747 -9.2465 2.6206
# 2 -4.0760 58.0484 26.0621 -0.9223 0.0125 9.0318
# 3 44.0245 26.0621 120.7525 -1.0423 1.6483 5.3741
# 4 2.2747 -0.9223 -1.0423 31.0721 9.6900 0.0671
# 5 -9.2465 0.0125 1.6483 9.6900 46.3153 4.4319
# 6 2.6206 9.0318 5.3741 0.0671 4.4319 12.5415
#
#
#
# Elastic Compliance Matrix: (Units=1/GPa)
#
#
# Indices 1 2 3 4 5 6 
#
# 1 0.029319 0.009132 -0.012356 -0.004854 0.008293 -0.010312
# 2 0.009132 0.024046 -0.007817 -0.001443 0.004052 -0.017299
# 3 -0.012356 -0.007817 0.014395 0.002329 -0.003787 0.003368
# 4 -0.004854 -0.001443 0.002329 0.035316 -0.008822 0.003984
# 5 0.008293 0.004052 -0.003787 -0.008822 0.026404 -0.012312
# 6 -0.010312 -0.017299 0.003368 0.003984 -0.012312 0.097234
#
#
# Mechanical properties :
#
#
# Convention : Reuss Voigt Hill
#
# Bulk Modulus (GPa) = 21.89276 40.96298 31.42787
# Shear Modulus (GPa) = 18.93774 29.36146 24.14960
#
# Velocity S-wave (km/s) = 2.98878 3.72151 3.37509
# Velocity P-wave (km/s) = 4.71562 6.14721 5.47838
#
# Compressibility (1/GPa) = 0.04567721
#
# Stress axis : x y z
#
# Youngs Moduli (GPa) = 34.10756 41.58755 69.46686
#
# Poissons Ratio (x) = -0.37978 0.85836
# Poissons Ratio (y) = -0.31147 0.54302
# Poissons Ratio (z) = 0.42144 0.32509
#
# Static dielectric constant tensor:
#      x y z
#    x 1.764350 0.005490 0.031030 
#    y 0.005490 1.774190 -0.010710 
#    z 0.031030 -0.010710 1.795570 
# 
# From -- ./inp_files/223516.got.cif
#   From: 2010.05.17/outbox.cif.g08.bks.cpg/sg2_112_cif.got.tgz:223516.got - 2010.06.03 11:33:40.
