data_PCOD9089056
_publ_section_title
;
Structure prediction by ZEFSAII (Michael W. Deem and Ramdas Pophale) SiO2 
 PCOD9089056
Probable space group: P -1
;
_chemical_formula_sum "Si O2"
_cell_formula_units_Z 16
_cell_length_a 16.741859
_cell_length_b 10.536776
_cell_length_c 7.119986
_cell_angle_alpha 101.263397
_cell_angle_beta 65.305051
_cell_angle_gamma 50.932868
_cell_volume 673.172465
_symmetry_space_group_name_H-M "P -1"
_symmetry_group_IT_number 2
_symmetry_cell_setting 'triclinic'
loop_
_space_group_symop_operation_xyz
x,y,z
-x,-y,-z
loop_
_atom_site_type_symbol
_atom_site_label
_atom_site_fract_x
_atom_site_fract_y
_atom_site_fract_z
Si Si1 0.739390 0.782998 0.880002
Si Si2 0.175756 0.966430 0.649972
Si Si3 0.756551 0.509648 0.558707
Si Si4 0.418661 0.125375 0.419253
Si Si5 0.751361 0.063253 0.869676
Si Si6 0.560764 0.518358 0.780162
Si Si7 0.017924 0.015769 0.266851
Si Si8 0.163800 0.270274 0.829512
O O1 0.790785 0.604969 0.651060
O O2 0.789076 0.868831 0.805038
O O3 0.799270 0.696674 0.007071
O O4 0.562462 0.978255 0.108850
O O5 0.212432 0.953134 0.390389
O O6 0.307295 0.716920 0.509597
O O7 0.022964 0.067985 0.825396
O O8 0.170075 0.108867 0.800448
O O9 0.687033 0.628165 0.457705
O O10 0.630498 0.570762 0.798819
O O11 0.896534 0.258109 0.383047
O O12 0.300237 0.148492 0.524707
O O13 0.500000 0.000000 0.500000
O O14 0.580080 0.281073 0.143481
O O15 0.835111 0.074745 0.907426
O O16 0.500000 0.500000 0.000000
O O17 0.000000 0.000000 0.500000
O O18 0.000000 0.500000 0.000000
#
# Coordination Sequence:
#
# PCOD9089056 Si02
#       8
#     2   2   2   2   2   2   2   2
#     4  11  24  38  64  98 126 164 220 267 323 388
#     4   9  20  41  62  88 129 167 209 262 323 381
#     4  11  21  38  69  97 130 168 214 271 328 378
#     4  10  23  43  62  94 131 167 210 274 323 385
#     4  10  19  37  64  99 123 154 219 269 322 381
#     4   9  19  35  65  96 123 164 211 266 323 382
#     4   9  21  37  61  95 133 162 214 265 322 383
#     4  11  26  43  61  88 132 175 212 264 327 386
#
# _framework density 23.768053999999999
#
# number of rings (size 3 to 8) (size 9 to 14) (size 15 to 20)
#    0.000    2.000    1.250    1.875    8.750    0.500 
#    0.000    1.250    0.000    0.000    0.000    0.000 
#    0.000    0.000    0.000    0.000    0.000    0.000 
#
# Total GULP energy -89248.314913 kJ/mol
# GULP energy per Si atom -5578.019682 kJ/mol
# Density = 2.371396 g / cm^3
# Si number density = 23.768054 Si / 1000 Ang^3
#
#
#
# Elastic Constant Matrix: (Units=GPa)
#
#
# Indices 1 2 3 4 5 6 
#
# 1 160.9523 34.1687 43.4887 3.7771 -27.0207 10.3299
# 2 34.1687 110.4079 20.2737 0.3650 9.5508 0.5875
# 3 43.4887 20.2737 52.3938 -4.5216 -8.6228 -5.7390
# 4 3.7771 0.3650 -4.5216 32.6619 0.1836 -11.7143
# 5 -27.0207 9.5508 -8.6228 0.1836 32.0073 -1.0217
# 6 10.3299 0.5875 -5.7390 -11.7143 -1.0217 48.1055
#
#
#
# Elastic Compliance Matrix: (Units=1/GPa)
#
#
# Indices 1 2 3 4 5 6 
#
# 1 0.010176 -0.002472 -0.006984 -0.003477 0.007349 -0.003679
# 2 -0.002472 0.010965 -0.003270 -0.000328 -0.006244 -0.000206
# 3 -0.006984 -0.003270 0.027947 0.007085 0.002781 0.006658
# 4 -0.003477 -0.000328 0.007085 0.035691 -0.000805 0.010270
# 5 0.007349 -0.006244 0.002781 -0.000805 0.040048 -0.000516
# 6 -0.003679 -0.000206 0.006658 0.010270 -0.000516 0.024864
#
#
# Mechanical properties :
#
#
# Convention : Reuss Voigt Hill
#
# Bulk Modulus (GPa) = 42.30559 57.73514 50.02037
# Shear Modulus (GPa) = 27.31939 37.60981 32.46460
#
# Velocity S-wave (km/s) = 3.39398 3.98221 3.69981
# Velocity P-wave (km/s) = 5.76167 6.74447 6.27235
#
# Compressibility (1/GPa) = 0.02363754
#
# Stress axis : x y z
#
# Youngs Moduli (GPa) = 98.26883 91.19953 35.78262
#
# Poissons Ratio (x) = 0.22541 0.24989
# Poissons Ratio (y) = 0.24288 0.11700
# Poissons Ratio (z) = 0.68627 0.29821
#
# Static dielectric constant tensor:
#      x y z
#    x 1.907340 -0.021540 0.022130 
#    y -0.021540 2.008170 0.007900 
#    z 0.022130 0.007900 2.049420 
# 
# From -- ./inp_files/298729.got.cif
#   From: 2010.05.17/outbox.cif.g08.bks.cpg/sg2_150_cif.got.tgz:298729.got - 2010.06.03 11:33:40.
