data_PCOD9089475
_publ_section_title
;
Structure prediction by ZEFSAII (Michael W. Deem and Ramdas Pophale) SiO2 
 PCOD9089475
Probable space group: P -1
;
_chemical_formula_sum "Si O2"
_cell_formula_units_Z 16
_cell_length_a 13.162509
_cell_length_b 11.160233
_cell_length_c 18.752723
_cell_angle_alpha 54.420865
_cell_angle_beta 18.664565
_cell_angle_gamma 52.385515
_cell_volume 698.263189
_symmetry_space_group_name_H-M "P -1"
_symmetry_group_IT_number 2
_symmetry_cell_setting 'triclinic'
loop_
_space_group_symop_operation_xyz
x,y,z
-x,-y,-z
loop_
_atom_site_type_symbol
_atom_site_label
_atom_site_fract_x
_atom_site_fract_y
_atom_site_fract_z
Si Si1 0.120962 0.642600 0.839734
Si Si2 0.231483 0.175262 0.788360
Si Si3 0.251761 0.935779 0.638045
Si Si4 0.578162 0.127237 0.162163
Si Si5 0.256434 0.754631 0.134493
Si Si6 0.888934 0.482120 0.250521
Si Si7 0.063089 0.656494 0.434370
Si Si8 0.879357 0.508696 0.406435
O O1 0.070520 0.816308 0.836456
O O2 0.989497 0.642610 0.846256
O O3 0.510662 0.594293 0.607704
O O4 0.000000 0.500000 0.000000
O O5 0.530684 0.148503 0.542535
O O6 0.095057 0.348477 0.842233
O O7 0.376328 0.052183 0.794857
O O8 0.921902 0.145894 0.960226
O O9 0.500000 0.000000 0.500000
O O10 0.988904 0.085308 0.742531
O O11 0.278181 0.218872 0.377371
O O12 0.538082 0.199807 0.084288
O O13 0.321684 0.696564 0.192808
O O14 0.083807 0.626860 0.258914
O O15 0.500000 0.500000 0.500000
O O16 0.013533 0.452040 0.258718
O O17 0.000000 0.500000 0.500000
O O18 0.149743 0.616747 0.472550
#
# Coordination Sequence:
#
# PCOD9089475 Si02
#       8
#     2   2   2   2   2   2   2   2
#     4  11  24  36  62  97 125 164 208 265 323 374
#     4  11  21  35  62  93 127 158 208 267 320 372
#     4  12  19  38  64  90 132 164 198 274 325 359
#     4  11  22  36  60  99 121 166 212 260 326 371
#     4  11  21  39  61  92 132 161 214 267 314 374
#     4  10  19  38  57  81 120 159 205 245 312 382
#     4  10  24  38  60  89 131 173 211 259 320 382
#     4  10  20  42  57  84 125 168 204 260 317 375
#
# _framework density 22.913993999999999
#
# number of rings (size 3 to 8) (size 9 to 14) (size 15 to 20)
#    0.000    1.250    7.500    0.000    1.750    4.000 
#    2.250    0.000    0.000    7.500    0.000    0.000 
#    0.000    0.000    0.000    0.000    0.000    0.000 
#
# Total GULP energy -89117.167215 kJ/mol
# GULP energy per Si atom -5569.822951 kJ/mol
# Density = 2.286184 g / cm^3
# Si number density = 22.913994 Si / 1000 Ang^3
#
#
#
# Elastic Constant Matrix: (Units=GPa)
#
#
# Indices 1 2 3 4 5 6 
#
# 1 104.9522 52.9235 35.9715 -13.9771 27.8192 -15.7217
# 2 52.9235 80.2745 23.1482 -24.3481 18.5448 0.3970
# 3 35.9715 23.1482 78.4934 -5.1986 31.9882 -1.8111
# 4 -13.9771 -24.3481 -5.1986 48.4181 -3.8872 7.8923
# 5 27.8192 18.5448 31.9882 -3.8872 31.0479 -7.6216
# 6 -15.7217 0.3970 -1.8111 7.8923 -7.6216 32.3022
#
#
#
# Elastic Compliance Matrix: (Units=1/GPa)
#
#
# Indices 1 2 3 4 5 6 
#
# 1 0.018245 -0.010666 -0.003124 -0.002169 -0.005021 0.008181
# 2 -0.010666 0.023855 0.001119 0.010031 -0.006922 -0.009506
# 3 -0.003124 0.001119 0.023191 0.001275 -0.023073 -0.005990
# 4 -0.002169 0.010031 0.001275 0.026261 -0.004162 -0.008505
# 5 -0.005021 -0.006922 -0.023073 -0.004162 0.067346 0.013255
# 6 0.008181 -0.009506 -0.005990 -0.008505 0.013255 0.039926
#
#
# Mechanical properties :
#
#
# Convention : Reuss Voigt Hill
#
# Bulk Modulus (GPa) = 25.03243 54.20072 39.61658
# Shear Modulus (GPa) = 21.05416 32.46544 26.75980
#
# Velocity S-wave (km/s) = 3.03452 3.76818 3.42107
# Velocity P-wave (km/s) = 4.81933 6.52974 5.73862
#
# Compressibility (1/GPa) = 0.03994819
#
# Stress axis : x y z
#
# Youngs Moduli (GPa) = 54.80938 41.91979 43.12060
#
# Poissons Ratio (x) = 0.44711 0.13472
# Poissons Ratio (y) = 0.58459 -0.04825
# Poissons Ratio (z) = 0.17124 -0.04690
#
# Static dielectric constant tensor:
#      x y z
#    x 1.884300 -0.102270 0.258690 
#    y -0.102270 1.612450 0.571650 
#    z 0.258690 0.571650 0.813820 
# 
# From -- ./inp_files/597824.got.cif
#   From: 2010.05.17/outbox.cif.g08.bks.cpg/sg2_299_cif.got.tgz:597824.got - 2010.06.03 11:33:40.
