data_PCOD9089986
_publ_section_title
;
Structure prediction by ZEFSAII (Michael W. Deem and Ramdas Pophale) SiO2 
 PCOD9089986
Probable space group: P -1
;
_chemical_formula_sum "Si O2"
_cell_formula_units_Z 16
_cell_length_a 12.969384
_cell_length_b 11.676791
_cell_length_c 17.447187
_cell_angle_alpha 149.276433
_cell_angle_beta 133.468276
_cell_angle_gamma 68.868244
_cell_volume 766.592717
_symmetry_space_group_name_H-M "P -1"
_symmetry_group_IT_number 2
_symmetry_cell_setting 'triclinic'
loop_
_space_group_symop_operation_xyz
x,y,z
-x,-y,-z
loop_
_atom_site_type_symbol
_atom_site_label
_atom_site_fract_x
_atom_site_fract_y
_atom_site_fract_z
Si Si1 0.325868 0.294828 0.046085
Si Si2 0.284641 0.326655 0.272964
Si Si3 0.316230 0.126870 0.384847
Si Si4 0.215968 0.697146 0.221929
Si Si5 0.473806 0.059391 0.888985
Si Si6 0.817647 0.573730 0.565533
Si Si7 0.424945 0.866610 0.577808
Si Si8 0.831188 0.184310 0.183199
O O1 0.512587 0.540879 0.325409
O O2 0.251960 0.469876 0.091696
O O3 0.385126 0.205885 0.952546
O O4 0.209032 0.019425 0.883026
O O5 0.500000 0.500000 0.500000
O O6 0.173648 0.324120 0.284357
O O7 0.290627 0.524702 0.326470
O O8 0.213542 0.024951 0.032183
O O9 0.167256 0.170704 0.322699
O O10 0.379350 0.035232 0.293342
O O11 0.284827 0.930612 0.325468
O O12 0.326602 0.877479 0.459608
O O13 0.000000 0.500000 0.000000
O O14 0.362342 0.756767 0.704297
O O15 0.449291 0.001509 0.751416
O O16 0.681241 0.232232 0.123328
O O17 0.960399 0.559665 0.584566
#
# Coordination Sequence:
#
# PCOD9089986 Si02
#       8
#     2   2   2   2   2   2   2   2
#     4  11  22  41  64  88 124 170 201 253 310 360
#     4  11  16  35  59  89 129 155 202 251 302 363
#     4  11  20  40  65  86 118 163 214 251 297 359
#     4  11  24  43  64  93 115 157 219 261 295 358
#     4  11  23  42  60  92 136 158 197 251 316 378
#     4  11  22  34  62  96 126 164 198 253 308 365
#     4  10  19  38  63  85 119 166 200 253 307 355
#     4  12  20  35  59  94 129 164 203 242 311 371
#
# _framework density 20.871580000000002
#
# number of rings (size 3 to 8) (size 9 to 14) (size 15 to 20)
#    0.000    1.000    7.500    3.000    0.000    0.500 
#    4.500    3.125    0.000    0.000    0.000    0.000 
#    0.000    0.000    0.000    0.000    0.000    0.000 
#
# Total GULP energy -89147.260647 kJ/mol
# GULP energy per Si atom -5571.703790 kJ/mol
# Density = 2.082408 g / cm^3
# Si number density = 20.871580 Si / 1000 Ang^3
#
#
#
# Elastic Constant Matrix: (Units=GPa)
#
#
# Indices 1 2 3 4 5 6 
#
# 1 155.1743 56.5581 23.6615 -2.3411 -0.4943 8.4838
# 2 56.5581 121.7842 20.7027 9.9941 1.3656 13.4335
# 3 23.6615 20.7027 44.5239 7.4353 10.2815 4.6071
# 4 -2.3411 9.9941 7.4353 19.7458 -1.8946 5.7564
# 5 -0.4943 1.3656 10.2815 -1.8946 36.3618 1.4132
# 6 8.4838 13.4335 4.6071 5.7564 1.4132 33.7057
#
#
#
# Elastic Compliance Matrix: (Units=1/GPa)
#
#
# Indices 1 2 3 4 5 6 
#
# 1 0.008473 -0.003562 -0.003909 0.004745 0.001643 -0.001058
# 2 -0.003562 0.010860 -0.002181 -0.004401 0.000024 -0.002383
# 3 -0.003909 -0.002181 0.029491 -0.011359 -0.008907 0.000135
# 4 0.004745 -0.004401 -0.011359 0.060877 0.006947 -0.008576
# 5 0.001643 0.000024 -0.008907 0.006947 0.030468 -0.001669
# 6 -0.001058 -0.002383 0.000135 -0.008576 -0.001669 0.032401
#
#
# Mechanical properties :
#
#
# Convention : Reuss Voigt Hill
#
# Bulk Modulus (GPa) = 33.87440 58.14744 46.01092
# Shear Modulus (GPa) = 24.78755 32.66666 28.72711
#
# Velocity S-wave (km/s) = 3.44993 3.96046 3.71398
# Velocity P-wave (km/s) = 5.66873 6.98812 6.36271
#
# Compressibility (1/GPa) = 0.02952082
#
# Stress axis : x y z
#
# Youngs Moduli (GPa) = 118.01785 92.08274 33.90866
#
# Poissons Ratio (x) = 0.32797 0.13255
# Poissons Ratio (y) = 0.42034 0.07395
# Poissons Ratio (z) = 0.46135 0.20081
#
# Static dielectric constant tensor:
#      x y z
#    x 1.905130 -0.067690 0.032700 
#    y -0.067690 1.809670 -0.090940 
#    z 0.032700 -0.090940 1.875840 
# 
# From -- ./inp_files/568658.got.cif
#   From: 2010.05.17/outbox.cif.g08.bks.cpg/sg2_285_cif.got.tgz:568658.got - 2010.06.03 11:33:40.
