data_PCOD9089404
_publ_section_title
;
Structure prediction by ZEFSAII (Michael W. Deem and Ramdas Pophale) SiO2 
 PCOD9089404
Probable space group: P -1
;
_chemical_formula_sum "Si O2"
_cell_formula_units_Z 14
_cell_length_a 8.213570
_cell_length_b 12.128398
_cell_length_c 9.610352
_cell_angle_alpha 49.643208
_cell_angle_beta 132.951738
_cell_angle_gamma 111.731096
_cell_volume 529.624657
_symmetry_space_group_name_H-M "P -1"
_symmetry_group_IT_number 2
_symmetry_cell_setting 'triclinic'
loop_
_space_group_symop_operation_xyz
x,y,z
-x,-y,-z
loop_
_atom_site_type_symbol
_atom_site_label
_atom_site_fract_x
_atom_site_fract_y
_atom_site_fract_z
Si Si1 0.452827 0.634530 0.038161
Si Si2 0.065269 0.737889 0.098150
Si Si3 0.180619 0.392324 0.486001
Si Si4 0.146600 0.783312 0.408166
Si Si5 0.783081 0.054973 0.417040
Si Si6 0.514645 0.877504 0.229874
Si Si7 0.357346 0.338925 0.182149
O O1 0.636458 0.618250 0.276893
O O2 0.308739 0.501018 0.080911
O O3 0.298616 0.785500 0.822582
O O4 0.584437 0.635996 0.967035
O O5 0.137154 0.561862 0.282130
O O6 0.007550 0.796200 0.174338
O O7 0.279106 0.816323 0.126430
O O8 0.847691 0.754128 0.860503
O O9 0.292568 0.262591 0.556907
O O10 0.956808 0.339804 0.462423
O O11 0.156265 0.917583 0.408882
O O12 0.402827 0.726959 0.563938
O O13 0.580849 0.963644 0.334997
O O14 0.000000 0.000000 0.500000
O O15 0.500000 0.000000 0.000000
#
# Coordination Sequence:
#
# PCOD9089404 Si02
#       7
#     2   2   2   2   2   2   2
#     4  10  19  37  71 104 140 180 228 288 355 425
#     4  12  25  45  73 108 141 181 244 301 349 416
#     4  12  21  44  74 105 141 183 232 299 358 418
#     4  11  23  43  77 108 142 180 238 298 353 424
#     4  11  23  43  69 100 144 197 231 274 360 430
#     4  12  28  49  67  97 148 199 235 285 359 430
#     4  10  21  39  68 113 139 172 231 299 359 404
#
# _framework density 26.433813000000001
#
# number of rings (size 3 to 8) (size 9 to 14) (size 15 to 20)
#    0.000    0.857    5.714    3.429    0.000    0.571 
#    2.571    7.143    0.000    0.000    0.000    0.000 
#    0.000    0.000    0.000    0.000    0.000    0.000 
#
# Total GULP energy -78464.318742 kJ/mol
# GULP energy per Si atom -5604.594196 kJ/mol
# Density = 2.637365 g / cm^3
# Si number density = 26.433813 Si / 1000 Ang^3
#
#
#
# Elastic Constant Matrix: (Units=GPa)
#
#
# Indices 1 2 3 4 5 6 
#
# 1 72.2935 60.7510 13.7333 -5.5907 14.7746 28.4801
# 2 60.7510 227.3114 58.1097 8.3261 11.0635 32.9784
# 3 13.7333 58.1097 106.5979 13.6950 15.9526 2.9139
# 4 -5.5907 8.3261 13.6950 55.1453 -4.8598 6.7552
# 5 14.7746 11.0635 15.9526 -4.8598 37.7381 10.7839
# 6 28.4801 32.9784 2.9139 6.7552 10.7839 62.2242
#
#
#
# Elastic Compliance Matrix: (Units=1/GPa)
#
#
# Indices 1 2 3 4 5 6 
#
# 1 0.021770 -0.004765 0.000284 0.003284 -0.004831 -0.006972
# 2 -0.004765 0.006618 -0.003147 -0.000385 0.001611 -0.001417
# 3 0.000284 -0.003147 0.012233 -0.003290 -0.005430 0.002263
# 4 0.003284 -0.000385 -0.003290 0.020185 0.003967 -0.004024
# 5 -0.004831 0.001611 -0.005430 0.003967 0.031970 -0.004359
# 6 -0.006972 -0.001417 0.002263 -0.004024 -0.004359 0.021099
#
#
# Mechanical properties :
#
#
# Convention : Reuss Voigt Hill
#
# Bulk Modulus (GPa) = 39.42033 74.59897 57.00965
# Shear Modulus (GPa) = 36.34100 49.26210 42.80155
#
# Velocity S-wave (km/s) = 3.71184 4.32163 4.02829
# Velocity P-wave (km/s) = 5.77196 7.29275 6.57647
#
# Compressibility (1/GPa) = 0.02536762
#
# Stress axis : x y z
#
# Youngs Moduli (GPa) = 45.93422 151.09419 81.74398
#
# Poissons Ratio (x) = 0.71992 -0.02324
# Poissons Ratio (y) = 0.21886 0.25723
# Poissons Ratio (z) = -0.01306 0.47547
#
# Static dielectric constant tensor:
#      x y z
#    x 2.107960 -0.040270 -0.032940 
#    y -0.040270 2.055860 -0.019160 
#    z -0.032940 -0.019160 2.046970 
# 
# From -- ./inp_files/392254.got.cif
#   From: 2010.05.17/outbox.cif.g08.bks.cpg/sg2_197_cif.got.tgz:392254.got - 2010.06.03 11:33:40.
