data_PCOD9089812
_publ_section_title
;
Structure prediction by ZEFSAII (Michael W. Deem and Ramdas Pophale) SiO2 
 PCOD9089812
Probable space group: P -1
;
_chemical_formula_sum "Si O2"
_cell_formula_units_Z 16
_cell_length_a 21.200634
_cell_length_b 12.617163
_cell_length_c 5.239170
_cell_angle_alpha 104.040743
_cell_angle_beta 87.537280
_cell_angle_gamma 33.193547
_cell_volume 659.669493
_symmetry_space_group_name_H-M "P -1"
_symmetry_group_IT_number 2
_symmetry_cell_setting 'triclinic'
loop_
_space_group_symop_operation_xyz
x,y,z
-x,-y,-z
loop_
_atom_site_type_symbol
_atom_site_label
_atom_site_fract_x
_atom_site_fract_y
_atom_site_fract_z
Si Si1 0.806897 0.180763 0.204318
Si Si2 0.843051 0.524801 0.446281
Si Si3 0.935410 0.783441 0.128831
Si Si4 0.556450 0.004863 0.804612
Si Si5 0.595710 0.062553 0.338630
Si Si6 0.528982 0.527204 0.262707
Si Si7 0.060402 0.829451 0.598934
Si Si8 0.121122 0.348686 0.130957
O O1 0.838915 0.032301 0.311067
O O2 0.677058 0.348368 0.169792
O O3 0.815545 0.287718 0.391381
O O4 0.934616 0.998424 0.897977
O O5 0.888149 0.370976 0.567007
O O6 0.933789 0.365136 0.100152
O O7 0.693231 0.741957 0.560842
O O8 0.859765 0.624332 0.585461
O O9 0.989832 0.610309 0.214936
O O10 0.875726 0.786810 0.939828
O O11 0.520248 0.101720 0.584363
O O12 0.559127 0.100915 0.068077
O O13 0.500000 0.000000 0.000000
O O14 0.566820 0.225421 0.546735
O O15 0.752176 0.808130 0.149013
O O16 0.500000 0.500000 0.500000
O O17 0.500000 0.500000 0.000000
O O18 0.000000 0.000000 0.500000
#
# Coordination Sequence:
#
# PCOD9089812 Si02
#       8
#     2   2   2   2   2   2   2   2
#     4  10  24  42  65 101 135 178 239 281 358 415
#     4  10  21  37  60  93 133 164 227 276 352 411
#     4  10  19  38  61  93 129 168 218 283 346 410
#     4  11  24  42  66 100 129 182 224 291 344 415
#     4  11  24  45  68  97 139 176 238 280 349 419
#     4  12  28  49  73 103 144 195 239 295 349 426
#     4  10  22  41  68  98 135 183 228 298 350 425
#     4  10  20  36  63  97 126 173 214 282 346 414
#
# _framework density 24.254572
#
# number of rings (size 3 to 8) (size 9 to 14) (size 15 to 20)
#    0.000    1.500    1.250    3.000    3.500    2.000 
#    9.000    0.000    0.000    0.000    0.000    0.000 
#    0.000    0.000    0.000    0.000    0.000    0.000 
#
# Total GULP energy -89067.428087 kJ/mol
# GULP energy per Si atom -5566.714255 kJ/mol
# Density = 2.419937 g / cm^3
# Si number density = 24.254572 Si / 1000 Ang^3
#
#
#
# Elastic Constant Matrix: (Units=GPa)
#
#
# Indices 1 2 3 4 5 6 
#
# 1 103.2091 10.3557 34.9260 -2.9665 3.5937 -3.0963
# 2 10.3557 48.0536 23.3733 -8.2232 6.3992 4.7077
# 3 34.9260 23.3733 91.1358 -15.4083 7.4882 0.2730
# 4 -2.9665 -8.2232 -15.4083 32.0883 10.4111 -0.4967
# 5 3.5937 6.3992 7.4882 10.4111 40.1362 -4.0185
# 6 -3.0963 4.7077 0.2730 -0.4967 -4.0185 43.5221
#
#
#
# Elastic Compliance Matrix: (Units=1/GPa)
#
#
# Indices 1 2 3 4 5 6 
#
# 1 0.011216 -0.000648 -0.004391 -0.001339 0.000357 0.000913
# 2 -0.000648 0.025221 -0.004872 0.005577 -0.004814 -0.003124
# 3 -0.004391 -0.004872 0.015348 0.006843 -0.003481 -0.000125
# 4 -0.001339 0.005577 0.006843 0.039793 -0.012512 -0.001443
# 5 0.000357 -0.004814 -0.003481 -0.012512 0.029864 0.003183
# 6 0.000913 -0.003124 -0.000125 -0.001443 0.003183 0.023658
#
#
# Mechanical properties :
#
#
# Convention : Reuss Voigt Hill
#
# Bulk Modulus (GPa) = 31.28505 42.18984 36.73745
# Shear Modulus (GPa) = 28.47748 34.73222 31.60485
#
# Velocity S-wave (km/s) = 3.43024 3.78826 3.61369
# Velocity P-wave (km/s) = 5.34933 6.04706 5.70887
#
# Compressibility (1/GPa) = 0.03196414
#
# Stress axis : x y z
#
# Youngs Moduli (GPa) = 89.15524 39.64928 65.15395
#
# Poissons Ratio (x) = 0.02568 0.28608
# Poissons Ratio (y) = 0.05774 0.31745
# Poissons Ratio (z) = 0.39147 0.19319
#
# Static dielectric constant tensor:
#      x y z
#    x 2.197490 -0.043280 0.056150 
#    y -0.043280 2.009100 -0.095820 
#    z 0.056150 -0.095820 1.989830 
# 
# From -- ./inp_files/118322.got.cif
#   From: 2010.05.17/outbox.cif.g08.bks.cpg/sg2_60_cif.got.tgz:118322.got - 2010.06.03 11:33:40.
