data_PCOD9089167
_publ_section_title
;
Structure prediction by ZEFSAII (Michael W. Deem and Ramdas Pophale) SiO2 
 PCOD9089167
Probable space group: P -1
;
_chemical_formula_sum "Si O2"
_cell_formula_units_Z 16
_cell_length_a 14.728276
_cell_length_b 15.276661
_cell_length_c 9.440486
_cell_angle_alpha 37.638815
_cell_angle_beta 54.563401
_cell_angle_gamma 36.289579
_cell_volume 757.623582
_symmetry_space_group_name_H-M "P -1"
_symmetry_group_IT_number 2
_symmetry_cell_setting 'triclinic'
loop_
_space_group_symop_operation_xyz
x,y,z
-x,-y,-z
loop_
_atom_site_type_symbol
_atom_site_label
_atom_site_fract_x
_atom_site_fract_y
_atom_site_fract_z
Si Si1 0.656812 0.265698 0.972150
Si Si2 0.980364 0.830584 0.315950
Si Si3 0.580852 0.774401 0.721863
Si Si4 0.171846 0.845100 0.607990
Si Si5 0.266542 0.662588 0.457845
Si Si6 0.882768 0.790903 0.723008
Si Si7 0.225911 0.590222 0.155164
Si Si8 0.233875 0.404468 0.927107
O O1 0.543120 0.243163 0.149719
O O2 0.832025 0.054459 0.116719
O O3 0.639099 0.320790 0.752912
O O4 0.647799 0.424233 0.859130
O O5 0.914043 0.761625 0.561924
O O6 0.093350 0.813368 0.347278
O O7 0.083802 0.700662 0.252520
O O8 0.704204 0.623504 0.682184
O O9 0.500000 0.000000 0.500000
O O10 0.667106 0.686881 0.904930
O O11 0.270804 0.712092 0.551407
O O12 0.196332 0.986548 0.456124
O O13 0.187353 0.718237 0.884775
O O14 0.000000 0.000000 0.500000
O O15 0.303746 0.459864 0.686910
O O16 0.057906 0.618028 0.847030
O O17 0.787515 0.737977 0.924281
#
# Coordination Sequence:
#
# PCOD9089167 Si02
#       8
#     2   2   2   2   2   2   2   2
#     4  11  22  40  65  97 128 166 209 257 324 373
#     4  10  19  37  65  99 124 155 209 268 319 357
#     4  12  26  43  62  87 136 173 211 253 320 386
#     4  12  17  33  63  98 121 154 208 262 312 363
#     4  10  20  36  64  92 126 156 213 267 303 367
#     4  10  20  35  66  91 131 161 204 262 322 372
#     4  11  22  39  65  95 124 164 218 262 309 376
#     4  10  21  39  56  91 121 172 201 254 317 370
#
# _framework density 21.118666000000001
#
# number of rings (size 3 to 8) (size 9 to 14) (size 15 to 20)
#    0.000    1.250    5.000    3.375    0.000    0.500 
#    0.000    7.500    0.000    7.500    0.000    0.875 
#    0.000    0.000    0.000    0.000    0.000    0.000 
#
# Total GULP energy -89309.204284 kJ/mol
# GULP energy per Si atom -5581.825268 kJ/mol
# Density = 2.107060 g / cm^3
# Si number density = 21.118666 Si / 1000 Ang^3
#
#
#
# Elastic Constant Matrix: (Units=GPa)
#
#
# Indices 1 2 3 4 5 6 
#
# 1 49.6475 27.0201 25.9100 -5.4599 3.5232 5.8547
# 2 27.0201 90.2083 52.9605 -2.7022 3.7764 19.0688
# 3 25.9100 52.9605 127.3356 0.1910 -0.4589 18.3293
# 4 -5.4599 -2.7022 0.1910 34.3876 8.6946 0.1937
# 5 3.5232 3.7764 -0.4589 8.6946 36.3244 0.8924
# 6 5.8547 19.0688 18.3293 0.1937 0.8924 24.8839
#
#
#
# Elastic Compliance Matrix: (Units=1/GPa)
#
#
# Indices 1 2 3 4 5 6 
#
# 1 0.025410 -0.005816 -0.002864 0.004336 -0.002950 0.000660
# 2 -0.005816 0.017582 -0.004920 0.000868 -0.001326 -0.008440
# 3 -0.002864 -0.004920 0.011023 -0.001213 0.001310 -0.003713
# 4 0.004336 0.000868 -0.001213 0.031907 -0.008145 -0.000748
# 5 -0.002950 -0.001326 0.001310 -0.008145 0.029926 -0.000264
# 6 0.000660 -0.008440 -0.003713 -0.000748 -0.000264 0.049249
#
#
# Mechanical properties :
#
#
# Convention : Reuss Voigt Hill
#
# Bulk Modulus (GPa) = 37.29182 53.21919 45.25551
# Shear Modulus (GPa) = 24.84645 29.87256 27.35951
#
# Velocity S-wave (km/s) = 3.43376 3.76508 3.60323
# Velocity P-wave (km/s) = 5.78079 6.64499 6.22790
#
# Compressibility (1/GPa) = 0.02681553
#
# Stress axis : x y z
#
# Youngs Moduli (GPa) = 39.35448 56.87722 90.71643
#
# Poissons Ratio (x) = 0.33080 0.25977
# Poissons Ratio (y) = 0.22888 0.44635
# Poissons Ratio (z) = 0.11269 0.27985
#
# Static dielectric constant tensor:
#      x y z
#    x 1.797570 -0.019800 -0.015040 
#    y -0.019800 1.835170 0.007080 
#    z -0.015040 0.007080 1.796330 
# 
# From -- ./inp_files/312341.got.cif
#   From: 2010.05.17/outbox.cif.g08.bks.cpg/sg2_157_cif.got.tgz:312341.got - 2010.06.03 11:33:40.
