data_PCOD9089792
_publ_section_title
;
Structure prediction by ZEFSAII (Michael W. Deem and Ramdas Pophale) SiO2 
 PCOD9089792
Probable space group: P -1
;
_chemical_formula_sum "Si O2"
_cell_formula_units_Z 12
_cell_length_a 8.679058
_cell_length_b 8.813362
_cell_length_c 10.086609
_cell_angle_alpha 63.598295
_cell_angle_beta 67.706631
_cell_angle_gamma 60.749629
_cell_volume 589.843009
_symmetry_space_group_name_H-M "P -1"
_symmetry_group_IT_number 2
_symmetry_cell_setting 'triclinic'
loop_
_space_group_symop_operation_xyz
x,y,z
-x,-y,-z
loop_
_atom_site_type_symbol
_atom_site_label
_atom_site_fract_x
_atom_site_fract_y
_atom_site_fract_z
Si Si1 0.593655 0.412483 0.639032
Si Si2 0.061789 0.145166 0.843271
Si Si3 0.040723 0.941710 0.356777
Si Si4 0.089609 0.297656 0.200316
Si Si5 0.743904 0.649667 0.138212
Si Si6 0.155861 0.466488 0.351017
O O1 0.500000 0.500000 0.500000
O O2 0.784484 0.245202 0.623453
O O3 0.455829 0.341942 0.783982
O O4 0.654027 0.557654 0.639378
O O5 0.213501 0.195598 0.851634
O O6 0.094365 0.079178 0.703710
O O7 0.905717 0.350901 0.794164
O O8 0.000000 0.000000 0.000000
O O9 0.088902 0.108201 0.223808
O O10 0.000000 0.000000 0.500000
O O11 0.168107 0.298095 0.319832
O O12 0.886701 0.451127 0.217957
O O13 0.201926 0.350928 0.031929
O O14 0.000000 0.500000 0.500000
#
# Coordination Sequence:
#
# PCOD9089792 Si02
#       6
#     2   2   2   2   2   2
#     4  11  23  40  60  88 122 162 201 253 308 357
#     4  10  19  38  61  91 119 162 200 244 311 365
#     4  11  22  38  63  90 120 161 209 248 300 371
#     4  10  20  38  61  89 117 162 203 242 302 366
#     4  10  21  38  63  87 124 156 200 250 304 363
#     4  10  21  39  62  86 124 164 201 248 313 370
#
# _framework density 20.344394999999999
#
# number of rings (size 3 to 8) (size 9 to 14) (size 15 to 20)
#    0.000    1.667    1.667    5.000    0.000    1.333 
#    0.000    5.000    0.000    0.000    0.000    0.000 
#    0.000    0.000    0.000    0.000    0.000    0.000 
#
# Total GULP energy -66857.436628 kJ/mol
# GULP energy per Si atom -5571.453052 kJ/mol
# Density = 2.029809 g / cm^3
# Si number density = 20.344395 Si / 1000 Ang^3
#
#
#
# Elastic Constant Matrix: (Units=GPa)
#
#
# Indices 1 2 3 4 5 6 
#
# 1 124.5181 12.9513 41.8242 24.0374 4.8171 28.6619
# 2 12.9513 54.3032 10.9577 3.1539 5.6207 20.4968
# 3 41.8242 10.9577 82.7301 15.5958 4.1238 5.1089
# 4 24.0374 3.1539 15.5958 41.3188 11.9617 5.5464
# 5 4.8171 5.6207 4.1238 11.9617 30.9333 9.4767
# 6 28.6619 20.4968 5.1089 5.5464 9.4767 30.5443
#
#
#
# Elastic Compliance Matrix: (Units=1/GPa)
#
#
# Indices 1 2 3 4 5 6 
#
# 1 0.013887 0.003222 -0.005729 -0.005540 0.004653 -0.014673
# 2 0.003222 0.025905 -0.003865 -0.000128 0.001550 -0.020219
# 3 -0.005729 -0.003865 0.015694 -0.002744 -0.001355 0.006263
# 4 -0.005540 -0.000128 -0.002744 0.031458 -0.012069 0.003776
# 5 0.004653 0.001550 -0.001355 -0.012069 0.040980 -0.015702
# 6 -0.014673 -0.020219 0.006263 0.003776 -0.015702 0.063214
#
#
# Mechanical properties :
#
#
# Convention : Reuss Voigt Hill
#
# Bulk Modulus (GPa) = 23.39552 43.66863 33.53207
# Shear Modulus (GPa) = 22.92237 33.61383 28.26810
#
# Velocity S-wave (km/s) = 3.36030 4.06919 3.73161
# Velocity P-wave (km/s) = 5.15560 6.60220 5.92323
#
# Compressibility (1/GPa) = 0.04274323
#
# Stress axis : x y z
#
# Youngs Moduli (GPa) = 72.01017 38.60264 63.71974
#
# Poissons Ratio (x) = -0.12440 0.36504
# Poissons Ratio (y) = -0.23205 0.24626
# Poissons Ratio (z) = 0.41254 0.14919
#
# Static dielectric constant tensor:
#      x y z
#    x 1.767200 0.073110 -0.002560 
#    y 0.073110 1.766400 -0.051230 
#    z -0.002560 -0.051230 1.810190 
# 
# From -- ./inp_files/151867.got.cif
#   From: 2010.05.17/outbox.cif.g08.bks.cpg/sg2_76_cif.got.tgz:151867.got - 2010.06.03 11:33:40.
