data_PCOD9089915
_publ_section_title
;
Structure prediction by ZEFSAII (Michael W. Deem and Ramdas Pophale) SiO2 
 PCOD9089915
Probable space group: P -1
;
_chemical_formula_sum "Si O2"
_cell_formula_units_Z 16
_cell_length_a 11.571714
_cell_length_b 9.236400
_cell_length_c 8.390457
_cell_angle_alpha 75.281831
_cell_angle_beta 54.667288
_cell_angle_gamma 100.944705
_cell_volume 639.896779
_symmetry_space_group_name_H-M "P -1"
_symmetry_group_IT_number 2
_symmetry_cell_setting 'triclinic'
loop_
_space_group_symop_operation_xyz
x,y,z
-x,-y,-z
loop_
_atom_site_type_symbol
_atom_site_label
_atom_site_fract_x
_atom_site_fract_y
_atom_site_fract_z
Si Si1 0.094790 0.790837 0.263788
Si Si2 0.540714 0.508755 0.671039
Si Si3 0.663651 0.801715 0.709566
Si Si4 0.611665 0.306549 0.474306
Si Si5 0.863089 0.413512 0.003008
Si Si6 0.401729 0.134597 0.942074
Si Si7 0.086697 0.024110 0.755755
Si Si8 0.914160 0.738654 0.727862
O O1 0.109035 0.673920 0.149426
O O2 0.046209 0.733503 0.500910
O O3 0.949576 0.826668 0.318416
O O4 0.248357 0.966086 0.087572
O O5 0.586377 0.613884 0.764804
O O6 0.678807 0.463834 0.500837
O O7 0.497147 0.626639 0.557656
O O8 0.408839 0.319192 0.848948
O O9 0.809726 0.818749 0.702513
O O10 0.733889 0.913513 0.464524
O O11 0.558664 0.848035 0.905672
O O12 0.527152 0.151294 0.700392
O O13 0.724916 0.289770 0.258959
O O14 0.821796 0.556239 0.922113
O O15 0.000000 0.500000 0.000000
O O16 0.997427 0.858163 0.773965
O O17 0.000000 0.000000 0.000000
#
# Coordination Sequence:
#
# PCOD9089915 Si02
#       8
#     2   2   2   2   2   2   2   2
#     4  11  23  42  62  95 132 178 205 275 332 384
#     4   9  21  37  66  98 127 167 217 276 321 378
#     4  11  20  36  67 100 132 161 218 270 339 371
#     4   9  23  40  63  94 131 170 221 268 321 383
#     4  12  27  45  66  93 132 180 224 261 332 399
#     4  10  19  38  62  90 130 164 212 265 330 378
#     4  11  23  35  67 100 128 168 220 279 320 378
#     4  11  23  43  65  97 132 170 225 272 324 389
#
# _framework density 25.004034999999998
#
# number of rings (size 3 to 8) (size 9 to 14) (size 15 to 20)
#    0.750    0.750    2.500    3.000    7.000    0.500 
#    0.000    0.000    0.000    3.750    0.000    0.000 
#    0.000    0.000    0.000    0.000    0.000    0.000 
#
# Total GULP energy -89069.331790 kJ/mol
# GULP energy per Si atom -5566.833237 kJ/mol
# Density = 2.494712 g / cm^3
# Si number density = 25.004035 Si / 1000 Ang^3
#
#
#
# Elastic Constant Matrix: (Units=GPa)
#
#
# Indices 1 2 3 4 5 6 
#
# 1 18.0167 25.1943 11.9167 3.1578 10.4184 1.2813
# 2 25.1943 121.2630 41.1859 17.6231 12.0630 15.7344
# 3 11.9167 41.1859 222.3818 22.9880 25.1799 9.0638
# 4 3.1578 17.6231 22.9880 49.6547 4.0991 6.0804
# 5 10.4184 12.0630 25.1799 4.0991 20.9829 3.0820
# 6 1.2813 15.7344 9.0638 6.0804 3.0820 34.6159
#
#
#
# Elastic Compliance Matrix: (Units=1/GPa)
#
#
# Indices 1 2 3 4 5 6 
#
# 1 0.107903 -0.020011 0.002706 0.001849 -0.046891 0.008244
# 2 -0.020011 0.013424 -0.001543 -0.002607 0.005310 -0.004972
# 3 0.002706 -0.001543 0.005580 -0.001648 -0.006837 0.000038
# 4 0.001849 -0.002607 -0.001648 0.022098 -0.001434 -0.002206
# 5 -0.046891 0.005310 -0.006837 -0.001434 0.077181 -0.005508
# 6 0.008244 -0.004972 0.000038 -0.002206 -0.005508 0.031711
#
#
# Mechanical properties :
#
#
# Convention : Reuss Voigt Hill
#
# Bulk Modulus (GPa) = 11.20933 57.58392 34.39662
# Shear Modulus (GPa) = 15.36894 39.94165 27.65530
#
# Velocity S-wave (km/s) = 2.48192 4.00109 3.32932
# Velocity P-wave (km/s) = 3.56454 6.66520 5.34466
#
# Compressibility (1/GPa) = 0.08921142
#
# Stress axis : x y z
#
# Youngs Moduli (GPa) = 9.26759 74.49313 179.19629
#
# Poissons Ratio (x) = 1.49071 -0.48495
# Poissons Ratio (y) = 0.18546 0.27648
# Poissons Ratio (z) = -0.02508 0.11494
#
# Static dielectric constant tensor:
#      x y z
#    x 2.079560 0.011830 -0.031480 
#    y 0.011830 1.996230 0.105520 
#    z -0.031480 0.105520 2.314620 
# 
# From -- ./inp_files/292491.got.cif
#   From: 2010.05.17/outbox.cif.g08.bks.cpg/sg2_147_cif.got.tgz:292491.got - 2010.06.03 11:33:40.
