data_PCOD9089008
_publ_section_title
;
Structure prediction by ZEFSAII (Michael W. Deem and Ramdas Pophale) SiO2 
 PCOD9089008
Probable space group: P -1
;
_chemical_formula_sum "Si O2"
_cell_formula_units_Z 14
_cell_length_a 10.920408
_cell_length_b 8.021159
_cell_length_c 19.900395
_cell_angle_alpha 143.463924
_cell_angle_beta 147.657805
_cell_angle_gamma 42.276370
_cell_volume 544.869610
_symmetry_space_group_name_H-M "P -1"
_symmetry_group_IT_number 2
_symmetry_cell_setting 'triclinic'
loop_
_space_group_symop_operation_xyz
x,y,z
-x,-y,-z
loop_
_atom_site_type_symbol
_atom_site_label
_atom_site_fract_x
_atom_site_fract_y
_atom_site_fract_z
Si Si1 0.811311 0.735126 0.528383
Si Si2 0.637142 0.948488 0.379573
Si Si3 0.492711 0.652282 0.664976
Si Si4 0.322764 0.146473 0.060094
Si Si5 0.862400 0.336865 0.226975
Si Si6 0.776347 0.346043 0.912057
Si Si7 0.998631 0.673936 0.866304
O O1 0.707538 0.951665 0.491167
O O2 0.618933 0.583157 0.425233
O O3 0.000000 0.500000 0.500000
O O4 0.948038 0.827256 0.685320
O O5 0.778138 0.655213 0.318343
O O6 0.654909 0.209167 0.422778
O O7 0.369376 0.906453 0.236783
O O8 0.519197 0.884667 0.810331
O O9 0.759580 0.571064 0.738552
O O10 0.043692 0.242300 0.978461
O O11 0.362720 0.420218 0.126724
O O12 0.331559 0.858092 0.931009
O O13 0.941146 0.362280 0.195032
O O14 0.803331 0.480974 0.041269
O O15 0.000000 0.000000 0.000000
#
# Coordination Sequence:
#
# PCOD9089008 Si02
#       7
#     2   2   2   2   2   2   2
#     4  10  25  45  60  89 134 166 207 258 307 372
#     4  11  22  40  67  91 125 169 206 251 315 375
#     4  11  21  42  72  87 127 170 204 252 326 362
#     4  10  20  38  65  93 123 164 205 264 309 363
#     4  11  23  41  60  94 129 159 212 260 302 369
#     4  10  19  37  64  92 128 159 207 253 322 362
#     4  11  20  40  64  93 129 156 203 268 309 364
#
# _framework density 25.694222
#
# number of rings (size 3 to 8) (size 9 to 14) (size 15 to 20)
#    0.000    1.429    5.714    0.000    0.000    5.714 
#    7.714    2.857    0.000    0.000    0.000    0.000 
#    0.000    0.000    0.000    0.000    0.000    0.000 
#
# Total GULP energy -78271.456657 kJ/mol
# GULP energy per Si atom -5590.818333 kJ/mol
# Density = 2.563574 g / cm^3
# Si number density = 25.694222 Si / 1000 Ang^3
#
#
#
# Elastic Constant Matrix: (Units=GPa)
#
#
# Indices 1 2 3 4 5 6 
#
# 1 121.5420 54.6516 37.2232 -0.4952 -17.1945 12.6103
# 2 54.6516 83.2629 40.5641 -23.4303 -15.0840 27.0688
# 3 37.2232 40.5641 103.8661 -12.5034 -28.1845 7.9154
# 4 -0.4952 -23.4303 -12.5034 41.2431 15.2434 -8.3231
# 5 -17.1945 -15.0840 -28.1845 15.2434 41.9220 -11.0804
# 6 12.6103 27.0688 7.9154 -8.3231 -11.0804 45.9772
#
#
#
# Elastic Compliance Matrix: (Units=1/GPa)
#
#
# Indices 1 2 3 4 5 6 
#
# 1 0.013543 -0.010646 -0.000485 -0.007271 0.004689 0.002451
# 2 -0.010646 0.029001 -0.006724 0.014421 -0.006879 -0.012044
# 3 -0.000485 -0.006724 0.014260 -0.001999 0.008579 0.003342
# 4 -0.007271 0.014421 -0.001999 0.035974 -0.012947 -0.002760
# 5 0.004689 -0.006879 0.008579 -0.012947 0.035777 0.007565
# 6 0.002451 -0.012044 0.003342 -0.002760 0.007565 0.028917
#
#
# Mechanical properties :
#
#
# Convention : Reuss Voigt Hill
#
# Bulk Modulus (GPa) = 47.40642 63.72764 55.56703
# Shear Modulus (GPa) = 24.97338 37.57728 31.27533
#
# Velocity S-wave (km/s) = 3.12099 3.82839 3.49264
# Velocity P-wave (km/s) = 5.61050 6.66320 6.15938
#
# Compressibility (1/GPa) = 0.02109419
#
# Stress axis : x y z
#
# Youngs Moduli (GPa) = 73.84032 34.48165 70.12524
#
# Poissons Ratio (x) = 0.36709 0.03403
# Poissons Ratio (y) = 0.78610 0.47149
# Poissons Ratio (z) = 0.03583 0.23184
#
# Static dielectric constant tensor:
#      x y z
#    x 2.069840 0.034390 -0.008350 
#    y 0.034390 2.181990 -0.025100 
#    z -0.008350 -0.025100 1.982600 
# 
# From -- ./inp_files/197934.got.cif
#   From: 2010.05.17/outbox.cif.g08.bks.cpg/sg2_99_cif.got.tgz:197934.got - 2010.06.03 11:33:40.
