data_PCOD9089621
_publ_section_title
;
Structure prediction by ZEFSAII (Michael W. Deem and Ramdas Pophale) SiO2 
 PCOD9089621
Probable space group: P -1
;
_chemical_formula_sum "Si O2"
_cell_formula_units_Z 14
_cell_length_a 21.479871
_cell_length_b 20.477310
_cell_length_c 10.516764
_cell_angle_alpha 138.683804
_cell_angle_beta 147.221316
_cell_angle_gamma 18.880377
_cell_volume 783.879285
_symmetry_space_group_name_H-M "P -1"
_symmetry_group_IT_number 2
_symmetry_cell_setting 'triclinic'
loop_
_space_group_symop_operation_xyz
x,y,z
-x,-y,-z
loop_
_atom_site_type_symbol
_atom_site_label
_atom_site_fract_x
_atom_site_fract_y
_atom_site_fract_z
Si Si1 0.894388 0.807134 0.407969
Si Si2 0.791941 0.767764 0.674762
Si Si3 0.046469 0.028349 0.496190
Si Si4 0.675668 0.982318 0.021433
Si Si5 0.127248 0.326508 0.596382
Si Si6 0.360156 0.540677 0.714485
Si Si7 0.808094 0.104357 0.720935
O O1 0.759713 0.879407 0.152865
O O2 0.849786 0.766663 0.385748
O O3 0.178321 0.604157 0.566631
O O4 0.815692 0.979476 0.554528
O O5 0.905379 0.707137 0.642735
O O6 0.911313 0.568485 0.606400
O O7 0.500000 0.000000 0.500000
O O8 0.825632 0.810744 0.918718
O O9 0.243861 0.964489 0.769381
O O10 0.805798 0.266325 0.379735
O O11 0.131049 0.908884 0.338015
O O12 0.000000 0.000000 0.500000
O O13 0.385230 0.187608 0.816595
O O14 0.550125 0.338474 0.661753
O O15 0.500000 0.500000 0.000000
O O16 0.000000 0.000000 0.000000
#
# Coordination Sequence:
#
# PCOD9089621 Si02
#       7
#     2   2   2   2   2   2   2
#     4  10  22  34  60  90 108 147 199 233 282 345
#     4   9  20  38  55  78 119 151 184 233 286 336
#     4  10  23  39  58  91 116 151 200 236 287 351
#     4   9  20  38  56  81 120 145 181 243 286 332
#     4  10  20  38  58  84 112 149 193 230 285 345
#     4  10  19  39  58  83 119 153 190 240 287 336
#     4  10  19  38  60  81 119 153 188 242 286 337
#
# _framework density 17.859891999999999
#
# number of rings (size 3 to 8) (size 9 to 14) (size 15 to 20)
#    0.000    2.571    2.857    0.429    0.000    9.143 
#    7.714    0.000    0.000    0.000    0.000    0.000 
#    0.000    0.000    0.000    0.000    0.000    0.000 
#
# Total GULP energy -77939.105404 kJ/mol
# GULP energy per Si atom -5567.078957 kJ/mol
# Density = 1.781924 g / cm^3
# Si number density = 17.859892 Si / 1000 Ang^3
#
#
#
# Elastic Constant Matrix: (Units=GPa)
#
#
# Indices 1 2 3 4 5 6 
#
# 1 144.3910 39.4364 44.0023 5.4621 -19.4416 -0.6783
# 2 39.4364 119.1886 37.2164 4.7863 -2.0212 -31.8288
# 3 44.0023 37.2164 86.5512 10.2005 -17.8333 -5.8577
# 4 5.4621 4.7863 10.2005 29.1439 -14.0876 -6.3987
# 5 -19.4416 -2.0212 -17.8333 -14.0876 22.2669 0.1235
# 6 -0.6783 -31.8288 -5.8577 -6.3987 0.1235 21.0477
#
#
#
# Elastic Compliance Matrix: (Units=1/GPa)
#
#
# Indices 1 2 3 4 5 6 
#
# 1 0.009605 -0.003958 -0.002256 0.002021 0.007530 -0.005734
# 2 -0.003958 0.018490 -0.005300 0.003773 -0.003788 0.027528
# 3 -0.002256 -0.005300 0.017064 0.000006 0.011239 -0.003403
# 4 0.002021 0.003773 0.000006 0.056564 0.037772 0.022747
# 5 0.007530 -0.003788 0.011239 0.037772 0.083991 0.008632
# 6 -0.005734 0.027528 -0.003403 0.022747 0.008632 0.094872
#
#
# Mechanical properties :
#
#
# Convention : Reuss Voigt Hill
#
# Bulk Modulus (GPa) = 45.18611 65.71567 55.45089
# Shear Modulus (GPa) = 16.07754 29.79009 22.93382
#
# Velocity S-wave (km/s) = 3.00359 4.08853 3.58732
# Velocity P-wave (km/s) = 6.11425 7.69176 6.94792
#
# Compressibility (1/GPa) = 0.02213069
#
# Stress axis : x y z
#
# Youngs Moduli (GPa) = 104.11606 54.08237 58.60158
#
# Poissons Ratio (x) = 0.21408 0.13218
# Poissons Ratio (y) = 0.41212 0.31062
# Poissons Ratio (z) = 0.23484 0.28666
#
# Static dielectric constant tensor:
#      x y z
#    x 1.592020 -0.014500 -0.012630 
#    y -0.014500 1.610870 -0.001150 
#    z -0.012630 -0.001150 1.660690 
# 
# From -- ./inp_files/313397.got.cif
#   From: 2010.05.17/outbox.cif.g08.bks.cpg/sg2_157_cif.got.tgz:313397.got - 2010.06.03 11:33:40.
