data_PCOD9089968
_publ_section_title
;
Structure prediction by ZEFSAII (Michael W. Deem and Ramdas Pophale) SiO2 
 PCOD9089968
Probable space group: P -1
;
_chemical_formula_sum "Si O2"
_cell_formula_units_Z 16
_cell_length_a 11.275548
_cell_length_b 8.802902
_cell_length_c 10.592105
_cell_angle_alpha 125.129307
_cell_angle_beta 114.002410
_cell_angle_gamma 101.565264
_cell_volume 638.967813
_symmetry_space_group_name_H-M "P -1"
_symmetry_group_IT_number 2
_symmetry_cell_setting 'triclinic'
loop_
_space_group_symop_operation_xyz
x,y,z
-x,-y,-z
loop_
_atom_site_type_symbol
_atom_site_label
_atom_site_fract_x
_atom_site_fract_y
_atom_site_fract_z
Si Si1 0.736802 0.117533 0.209436
Si Si2 0.247173 0.210177 0.600937
Si Si3 0.931033 0.255691 0.117126
Si Si4 0.248425 0.446788 0.473714
Si Si5 0.026960 0.761654 0.411688
Si Si6 0.723656 0.185008 0.789858
Si Si7 0.517989 0.817683 0.156929
Si Si8 0.603942 0.253115 0.539281
O O1 0.786303 0.118983 0.088675
O O2 0.753792 0.353392 0.358553
O O3 0.868394 0.127945 0.362057
O O4 0.567904 0.882385 0.063960
O O5 0.283659 0.327507 0.538439
O O6 0.137852 0.267910 0.655086
O O7 0.404284 0.288525 0.786078
O O8 0.128016 0.934281 0.423841
O O9 0.996872 0.520607 0.272382
O O10 0.078180 0.267218 0.246278
O O11 0.863518 0.184312 0.912738
O O12 0.366180 0.563097 0.460657
O O13 0.654123 0.263799 0.908301
O O14 0.729206 0.328701 0.742451
O O15 0.575547 0.921465 0.569648
O O16 0.618460 0.078431 0.378992
#
# Coordination Sequence:
#
# PCOD9089968 Si02
#       8
#     2   2   2   2   2   2   2   2
#     4   9  15  29  47  76 102 123 159 195 236 289
#     4  10  16  28  50  73  99 136 156 185 242 299
#     4  11  18  29  52  79 102 119 162 209 235 281
#     4  10  17  30  53  77  95 125 166 202 235 283
#     4   9  17  27  46  74 106 133 151 186 241 300
#     4   9  19  35  55  68  94 130 168 205 242 275
#     4   8  17  31  51  70  94 133 162 188 237 298
#     4   8  18  38  54  68  88 131 178 198 235 288
#
# _framework density 25.040382999999999
#
# number of rings (size 3 to 8) (size 9 to 14) (size 15 to 20)
#    0.750    2.000    2.500    1.500    0.000    1.000 
#    0.000    1.250    2.750    1.500    0.000    0.000 
#    0.000    0.000    0.000    0.000    0.000    0.000 
#
# Total GULP energy -89240.068206 kJ/mol
# GULP energy per Si atom -5577.504263 kJ/mol
# Density = 2.498339 g / cm^3
# Si number density = 25.040383 Si / 1000 Ang^3
#
#
#
# Elastic Constant Matrix: (Units=GPa)
#
#
# Indices 1 2 3 4 5 6 
#
# 1 35.3759 18.0112 2.7593 -2.8195 13.9997 -9.3882
# 2 18.0112 177.1980 29.7405 -39.9208 0.4302 17.8666
# 3 2.7593 29.7405 82.4785 -25.7719 4.2794 -4.3243
# 4 -2.8195 -39.9208 -25.7719 26.0254 -3.6977 4.9518
# 5 13.9997 0.4302 4.2794 -3.6977 15.9955 -13.5591
# 6 -9.3882 17.8666 -4.3243 4.9518 -13.5591 37.4401
#
#
#
# Elastic Compliance Matrix: (Units=1/GPa)
#
#
# Indices 1 2 3 4 5 6 
#
# 1 0.049691 -0.008456 -0.000964 -0.015311 -0.044646 0.002240
# 2 -0.008456 0.011965 0.002102 0.021794 0.003867 -0.009070
# 3 -0.000964 0.002102 0.017954 0.021192 -0.001142 -0.002387
# 4 -0.015311 0.021794 0.021192 0.096776 0.012512 -0.020061
# 5 -0.044646 0.003867 -0.001142 0.012512 0.132925 0.033313
# 6 0.002240 -0.009070 -0.002387 -0.020061 0.033313 0.046041
#
#
# Mechanical properties :
#
#
# Convention : Reuss Voigt Hill
#
# Bulk Modulus (GPa) = 15.39042 44.00826 29.69934
# Shear Modulus (GPa) = 12.76663 32.19495 22.48079
#
# Velocity S-wave (km/s) = 2.26042 3.58959 2.99955
# Velocity P-wave (km/s) = 3.60170 5.89858 4.88700
#
# Compressibility (1/GPa) = 0.06497547
#
# Stress axis : x y z
#
# Youngs Moduli (GPa) = 20.12455 83.57571 55.69664
#
# Poissons Ratio (x) = 0.70672 0.05367
# Poissons Ratio (y) = 0.17017 -0.11709
# Poissons Ratio (z) = 0.01939 -0.17571
#
# Static dielectric constant tensor:
#      x y z
#    x 2.091770 0.047100 0.010740 
#    y 0.047100 2.013150 0.022000 
#    z 0.010740 0.022000 2.007890 
# 
# From -- ./inp_files/179225.got.cif
#   From: 2010.05.17/outbox.cif.g08.bks.cpg/sg2_90_cif.got.tgz:179225.got - 2010.06.03 11:33:40.
