data_PCOD9089746
_publ_section_title
;
Structure prediction by ZEFSAII (Michael W. Deem and Ramdas Pophale) SiO2 
 PCOD9089746
Probable space group: P -1
;
_chemical_formula_sum "Si O2"
_cell_formula_units_Z 14
_cell_length_a 8.860745
_cell_length_b 19.023670
_cell_length_c 21.799203
_cell_angle_alpha 163.085726
_cell_angle_beta 143.502587
_cell_angle_gamma 31.496306
_cell_volume 556.817385
_symmetry_space_group_name_H-M "P -1"
_symmetry_group_IT_number 2
_symmetry_cell_setting 'triclinic'
loop_
_space_group_symop_operation_xyz
x,y,z
-x,-y,-z
loop_
_atom_site_type_symbol
_atom_site_label
_atom_site_fract_x
_atom_site_fract_y
_atom_site_fract_z
Si Si1 0.019972 0.957886 0.679098
Si Si2 0.771844 0.548767 0.088499
Si Si3 0.439897 0.260788 0.421223
Si Si4 0.634355 0.300409 0.318104
Si Si5 0.365471 0.770446 0.034096
Si Si6 0.005937 0.441020 0.208973
Si Si7 0.750046 0.322269 0.690127
O O1 0.265233 0.877924 0.639835
O O2 0.144345 0.964805 0.793066
O O3 0.925357 0.725685 0.456233
O O4 0.774594 0.261581 0.839038
O O5 0.823019 0.558530 0.185251
O O6 0.067098 0.523943 0.137788
O O7 0.512502 0.770218 0.147662
O O8 0.245541 0.545472 0.558366
O O9 0.524960 0.342767 0.581834
O O10 0.337374 0.033415 0.207185
O O11 0.500000 0.500000 0.500000
O O12 0.354190 0.306871 0.201507
O O13 0.078576 0.748348 0.935091
O O14 0.579778 0.484157 0.830156
O O15 0.000000 0.000000 0.500000
#
# Coordination Sequence:
#
# PCOD9089746 Si02
#       7
#     2   2   2   2   2   2   2
#     4  10  21  41  65  88 120 161 211 242 292 365
#     4  12  22  38  64  89 119 168 203 236 301 376
#     4  10  19  38  61  87 119 156 205 245 290 361
#     4   8  18  40  66  85 116 165 203 249 289 355
#     4  12  25  36  62  96 125 157 193 255 314 346
#     4  10  23  41  58  92 127 155 199 254 303 350
#     4  12  22  38  61  89 123 162 205 242 295 368
#
# _framework density 25.142893999999998
#
# number of rings (size 3 to 8) (size 9 to 14) (size 15 to 20)
#    0.000    1.714    5.714    1.714    0.000    2.286 
#    0.000    6.429    0.000    8.571    0.000    0.000 
#    0.000    0.000    0.000    0.000    0.000    0.000 
#
# Total GULP energy -78184.575848 kJ/mol
# GULP energy per Si atom -5584.612561 kJ/mol
# Density = 2.508567 g / cm^3
# Si number density = 25.142894 Si / 1000 Ang^3
#
#
#
# Elastic Constant Matrix: (Units=GPa)
#
#
# Indices 1 2 3 4 5 6 
#
# 1 99.5429 46.6570 44.8142 -10.9288 20.3092 5.4783
# 2 46.6570 64.6076 23.1711 16.9121 -1.6186 30.0794
# 3 44.8142 23.1711 104.0257 -5.6149 25.7915 15.2996
# 4 -10.9288 16.9121 -5.6149 13.6421 12.1431 -1.0774
# 5 20.3092 -1.6186 25.7915 12.1431 52.3406 4.7102
# 6 5.4783 30.0794 15.2996 -1.0774 4.7102 38.0441
#
#
#
# Elastic Compliance Matrix: (Units=1/GPa)
#
#
# Indices 1 2 3 4 5 6 
#
# 1 0.001692 0.013901 -0.006419 -0.028794 0.010586 -0.010779
# 2 0.013901 -0.014072 0.002812 0.047927 -0.019391 0.011751
# 3 -0.006419 0.002812 0.013484 -0.000586 -0.003362 -0.006322
# 4 -0.028794 0.047927 -0.000586 -0.033903 0.024180 -0.037465
# 5 0.010586 -0.019391 -0.003362 0.024180 0.009121 0.014715
# 6 -0.010779 0.011751 -0.006322 -0.037465 0.014715 0.018206
#
#
# Mechanical properties :
#
#
# Convention : Reuss Voigt Hill
#
# Bulk Modulus (GPa) = 46.09867 55.27342 50.68604
# Shear Modulus (GPa) = -265.54101 31.04095 -117.25003
#
# Velocity S-wave (km/s) = -10.28796 3.51747 -6.83628
# Velocity P-wave (km/s) = 11.07918 6.20711 6.48922
#
# Compressibility (1/GPa) = 0.02169260
#
# Stress axis : x y z
#
# Youngs Moduli (GPa) = 590.91895 -71.06510 74.16451
#
# Poissons Ratio (x) = 0.98787 0.47606
# Poissons Ratio (y) = -8.21432 -0.20857
# Poissons Ratio (z) = 3.79309 0.19985
#
# Static dielectric constant tensor:
#      x y z
#    x 2.001800 -0.046900 -0.027260 
#    y -0.046900 2.040690 0.077600 
#    z -0.027260 0.077600 2.057760 
# 
# From -- ./inp_files/591269.got.cif
#   From: 2010.05.17/outbox.cif.g08.bks.cpg/sg2_296_cif.got.tgz:591269.got - 2010.06.03 11:33:40.
