data_PCOD9089852
_publ_section_title
;
Structure prediction by ZEFSAII (Michael W. Deem and Ramdas Pophale) SiO2 
 PCOD9089852
Probable space group: P -1
;
_chemical_formula_sum "Si O2"
_cell_formula_units_Z 16
_cell_length_a 23.713941
_cell_length_b 9.094450
_cell_length_c 9.594049
_cell_angle_alpha 74.238460
_cell_angle_beta 60.757554
_cell_angle_gamma 126.785519
_cell_volume 853.284780
_symmetry_space_group_name_H-M "P -1"
_symmetry_group_IT_number 2
_symmetry_cell_setting 'triclinic'
loop_
_space_group_symop_operation_xyz
x,y,z
-x,-y,-z
loop_
_atom_site_type_symbol
_atom_site_label
_atom_site_fract_x
_atom_site_fract_y
_atom_site_fract_z
Si Si1 0.377503 0.855818 0.853815
Si Si2 0.136816 0.197069 0.806038
Si Si3 0.867926 0.120421 0.614147
Si Si4 0.637145 0.191895 0.442118
Si Si5 0.724494 0.126765 0.818263
Si Si6 0.470186 0.258698 0.098676
Si Si7 0.740195 0.640598 0.675986
Si Si8 0.023582 0.734799 0.270425
O O1 0.339001 0.777842 0.758568
O O2 0.526435 0.096942 0.618643
O O3 0.348851 0.957263 0.937529
O O4 0.294171 0.564436 0.121446
O O5 0.235074 0.495770 0.707157
O O6 0.199627 0.294271 0.555983
O O7 0.101674 0.970763 0.990690
O O8 0.000000 0.000000 0.000000
O O9 0.748467 0.993013 0.822206
O O10 0.899362 0.090438 0.722494
O O11 0.992103 0.490089 0.347816
O O12 0.833528 0.949655 0.567012
O O13 0.579997 0.919412 0.650690
O O14 0.875492 0.496775 0.527945
O O15 0.639871 0.997708 0.819496
O O16 0.500000 0.500000 0.000000
O O17 0.604189 0.446048 0.854862
#
# Coordination Sequence:
#
# PCOD9089852 Si02
#       8
#     2   2   2   2   2   2   2   2
#     4  10  21  40  63  85 113 153 198 244 287 343
#     4  12  24  38  58  90 121 156 193 241 285 350
#     4   9  20  39  59  85 116 158 188 241 287 344
#     4  10  23  39  59  86 120 149 194 246 290 338
#     4  10  19  38  62  86 114 154 195 237 291 346
#     4  11  20  39  61  87 119 148 190 243 294 350
#     4  11  22  37  63  87 116 156 193 239 300 334
#     4   9  20  39  58  81 123 150 195 233 287 338
#
# _framework density 18.751066999999999
#
# number of rings (size 3 to 8) (size 9 to 14) (size 15 to 20)
#    0.750    1.000    1.250    3.750    0.000    3.500 
#    2.250    3.125    0.000    0.000    0.000    0.000 
#    0.000    0.000    0.000    0.000    0.000    0.000 
#
# Total GULP energy -89244.977960 kJ/mol
# GULP energy per Si atom -5577.811122 kJ/mol
# Density = 1.870839 g / cm^3
# Si number density = 18.751067 Si / 1000 Ang^3
#
#
#
# Elastic Constant Matrix: (Units=GPa)
#
#
# Indices 1 2 3 4 5 6 
#
# 1 95.9635 59.7568 60.2238 11.8140 8.9022 23.2182
# 2 59.7568 76.9184 37.2493 13.1408 -0.6431 26.1100
# 3 60.2238 37.2493 100.5296 21.0239 15.3965 16.4829
# 4 11.8140 13.1408 21.0239 27.5168 5.7592 0.0357
# 5 8.9022 -0.6431 15.3965 5.7592 21.8086 -1.0864
# 6 23.2182 26.1100 16.4829 0.0357 -1.0864 32.4389
#
#
#
# Elastic Compliance Matrix: (Units=1/GPa)
#
#
# Indices 1 2 3 4 5 6 
#
# 1 0.027705 -0.017194 -0.010277 0.005435 -0.006045 -0.000977
# 2 -0.017194 0.032435 0.001569 -0.011195 0.009112 -0.014280
# 3 -0.010277 0.001569 0.019236 -0.009562 -0.007008 -0.003906
# 4 0.005435 -0.011195 -0.009562 0.048339 -0.008082 0.009656
# 5 -0.006045 0.009112 -0.007008 -0.008082 0.055793 0.002431
# 6 -0.000977 -0.014280 -0.003906 0.009656 0.002431 0.045076
#
#
# Mechanical properties :
#
#
# Convention : Reuss Voigt Hill
#
# Bulk Modulus (GPa) = 36.26820 65.31902 50.79361
# Shear Modulus (GPa) = 17.26656 24.09831 20.68243
#
# Velocity S-wave (km/s) = 3.03781 3.58882 3.32475
# Velocity P-wave (km/s) = 5.62924 7.21687 6.47192
#
# Compressibility (1/GPa) = 0.02757236
#
# Stress axis : x y z
#
# Youngs Moduli (GPa) = 36.09457 30.83111 51.98653
#
# Poissons Ratio (x) = 0.53012 0.53425
# Poissons Ratio (y) = 0.62062 -0.08159
# Poissons Ratio (z) = 0.37093 -0.04839
#
# Static dielectric constant tensor:
#      x y z
#    x 1.671040 -0.021680 0.005840 
#    y -0.021680 1.653810 -0.029930 
#    z 0.005840 -0.029930 1.628800 
# 
# From -- ./inp_files/351722.got.cif
#   From: 2010.05.17/outbox.cif.g08.bks.cpg/sg2_176_cif.got.tgz:351722.got - 2010.06.03 11:33:40.
