data_PCOD9089380
_publ_section_title
;
Structure prediction by ZEFSAII (Michael W. Deem and Ramdas Pophale) SiO2 
 PCOD9089380
Probable space group: P -1
;
_chemical_formula_sum "Si O2"
_cell_formula_units_Z 16
_cell_length_a 5.512786
_cell_length_b 22.452585
_cell_length_c 6.472007
_cell_angle_alpha 106.626961
_cell_angle_beta 75.689415
_cell_angle_gamma 112.985658
_cell_volume 698.262747
_symmetry_space_group_name_H-M "P -1"
_symmetry_group_IT_number 2
_symmetry_cell_setting 'triclinic'
loop_
_space_group_symop_operation_xyz
x,y,z
-x,-y,-z
loop_
_atom_site_type_symbol
_atom_site_label
_atom_site_fract_x
_atom_site_fract_y
_atom_site_fract_z
Si Si1 0.133660 0.272933 0.925576
Si Si2 0.527272 0.288132 0.468343
Si Si3 0.896110 0.078731 0.437194
Si Si4 0.892818 0.340800 0.784835
Si Si5 0.316238 0.075027 0.695743
Si Si6 0.506134 0.618281 0.792182
Si Si7 0.266497 0.484108 0.863405
Si Si8 0.766725 0.826112 0.871974
O O1 0.330613 0.274018 0.693604
O O2 0.884963 0.276525 0.854105
O O3 0.220395 0.341768 0.107180
O O4 0.132324 0.216896 0.029267
O O5 0.808741 0.315138 0.547878
O O6 0.502619 0.345256 0.381700
O O7 0.456248 0.224287 0.276242
O O8 0.618036 0.083847 0.578637
O O9 0.129229 0.090262 0.572241
O O10 0.003179 0.131002 0.285329
O O11 0.826577 0.002865 0.302407
O O12 0.158143 0.405464 0.770755
O O13 0.693239 0.366614 0.984056
O O14 0.328447 0.122764 0.930544
O O15 0.406700 0.539550 0.717210
O O16 0.500000 0.500000 0.000000
O O17 0.000000 0.500000 0.000000
#
# Coordination Sequence:
#
# PCOD9089380 Si02
#       8
#     2   2   2   2   2   2   2   2
#     4  10  21  42  59  90 134 177 224 285 335 411
#     4  10  23  42  58  93 135 176 231 281 339 415
#     4  10  23  47  76 106 143 177 233 288 345 403
#     4  10  21  40  65  87 132 174 226 287 347 399
#     4  10  23  47  75 108 142 180 227 294 340 407
#     4   9  20  39  62  89 124 171 226 281 356 400
#     4  10  19  37  69  93 123 171 231 287 349 411
#     4  11  23  45  67 103 140 188 234 273 353 414
#
# _framework density 22.914013000000001
#
# number of rings (size 3 to 8) (size 9 to 14) (size 15 to 20)
#    0.000    2.000    1.250    1.125    0.000    3.500 
#   29.250    4.375    0.000    0.000    0.000    0.000 
#    0.000    0.000    0.000    0.000    0.000    0.000 
#
# Total GULP energy -89335.356459 kJ/mol
# GULP energy per Si atom -5583.459779 kJ/mol
# Density = 2.286186 g / cm^3
# Si number density = 22.914013 Si / 1000 Ang^3
#
#
#
# Elastic Constant Matrix: (Units=GPa)
#
#
# Indices 1 2 3 4 5 6 
#
# 1 86.0686 -8.9574 25.2084 25.4338 30.2683 30.3914
# 2 -8.9574 -58.2791 -33.2079 40.9925 65.7674 154.6814
# 3 25.2084 -33.2079 57.6831 41.3698 51.9586 95.1495
# 4 25.4338 40.9925 41.3698 24.1365 -21.6621 -38.9063
# 5 30.2683 65.7674 51.9586 -21.6621 22.0196 -43.5457
# 6 30.3914 154.6814 95.1495 -38.9063 -43.5457 -99.5150
#
#
#
# Elastic Compliance Matrix: (Units=1/GPa)
#
#
# Indices 1 2 3 4 5 6 
#
# 1 0.015256 -0.001614 -0.003716 -0.006386 -0.006165 0.003791
# 2 -0.001614 0.013250 -0.010215 0.008770 0.004843 0.004787
# 3 -0.003716 -0.010215 0.016391 -0.005955 -0.003733 0.002620
# 4 -0.006386 0.008770 -0.005955 0.033570 0.008335 -0.010784
# 5 -0.006165 0.004843 -0.003733 0.008335 0.028999 -0.013872
# 6 0.003791 0.004787 0.002620 -0.010784 -0.013872 0.011342
#
#
# Mechanical properties :
#
#
# Convention : Reuss Voigt Hill
#
# Bulk Modulus (GPa) = 72.43862 5.72875 39.08369
# Shear Modulus (GPa) = 32.36227 -3.84314 14.25956
#
# Velocity S-wave (km/s) = 3.76218 -1.29647 2.49732
# Velocity P-wave (km/s) = 7.11013 0.51421 5.04075
#
# Compressibility (1/GPa) = 0.01380479
#
# Stress axis : x y z
#
# Youngs Moduli (GPa) = 65.54871 75.47102 61.01007
#
# Poissons Ratio (x) = 0.12183 0.22674
# Poissons Ratio (y) = 0.10581 0.62324
# Poissons Ratio (z) = 0.24360 0.77096
#
# Static dielectric constant tensor:
#      x y z
#    x 1.948470 0.032220 -0.009700 
#    y 0.032220 1.873290 -0.000890 
#    z -0.009700 -0.000890 1.829050 
# 
# From -- ./inp_files/13575.got.cif
#   From: 2010.05.17/outbox.cif.g08.bks.cpg/sg2_7_cif.got.tgz:13575.got - 2010.06.03 11:33:40.
