data_PCOD9089689
_publ_section_title
;
Structure prediction by ZEFSAII (Michael W. Deem and Ramdas Pophale) SiO2 
 PCOD9089689
Probable space group: P -1
;
_chemical_formula_sum "Si O2"
_cell_formula_units_Z 16
_cell_length_a 14.192248
_cell_length_b 11.192522
_cell_length_c 9.626577
_cell_angle_alpha 84.172696
_cell_angle_beta 87.169929
_cell_angle_gamma 146.643441
_cell_volume 810.901071
_symmetry_space_group_name_H-M "P -1"
_symmetry_group_IT_number 2
_symmetry_cell_setting 'triclinic'
loop_
_space_group_symop_operation_xyz
x,y,z
-x,-y,-z
loop_
_atom_site_type_symbol
_atom_site_label
_atom_site_fract_x
_atom_site_fract_y
_atom_site_fract_z
Si Si1 0.403178 0.031049 0.867919
Si Si2 0.213657 0.647512 0.103816
Si Si3 0.005024 0.186939 0.226804
Si Si4 0.307484 0.189703 0.917780
Si Si5 0.357635 0.937946 0.576495
Si Si6 0.298166 0.297118 0.207009
Si Si7 0.166309 0.943116 0.445227
Si Si8 0.997681 0.566822 0.345513
O O1 0.598873 0.203375 0.877761
O O2 0.343258 0.086546 0.942406
O O3 0.410437 0.060288 0.699850
O O4 0.264384 0.778115 0.949544
O O5 0.077687 0.390748 0.133953
O O6 0.138528 0.659296 0.221808
O O7 0.168137 0.271445 0.222764
O O8 0.928265 0.132638 0.392117
O O9 0.851752 0.970261 0.162836
O O10 0.495747 0.446123 0.824629
O O11 0.269759 0.207042 0.067888
O O12 0.303234 0.982545 0.465836
O O13 0.194749 0.676914 0.661554
O O14 0.500000 0.000000 0.500000
O O15 0.248985 0.149815 0.347808
O O16 0.035706 0.744138 0.363302
O O17 0.000000 0.500000 0.500000
#
# Coordination Sequence:
#
# PCOD9089689 Si02
#       8
#     2   2   2   2   2   2   2   2
#     4  11  22  40  65  96 128 173 213 272 333 386
#     4  11  22  38  68  94 132 173 211 267 340 386
#     4  12  23  45  67  97 131 169 222 269 318 389
#     4  11  24  45  67  92 132 170 221 272 318 383
#     4  11  23  39  62  99 133 163 213 271 327 393
#     4  11  26  45  67  92 132 176 218 271 318 376
#     4  11  23  43  66  93 130 173 213 264 327 383
#     4  10  19  38  60  90 129 163 204 264 324 383
#
# _framework density 19.731138000000001
#
# number of rings (size 3 to 8) (size 9 to 14) (size 15 to 20)
#    0.000    1.000    5.000    3.000    0.000    4.500 
#    2.250    0.000    0.000    0.000    0.000    0.000 
#    0.000    0.000    0.000    0.000    0.000    0.000 
#
# Total GULP energy -89331.980377 kJ/mol
# GULP energy per Si atom -5583.248774 kJ/mol
# Density = 1.968623 g / cm^3
# Si number density = 19.731138 Si / 1000 Ang^3
#
#
#
# Elastic Constant Matrix: (Units=GPa)
#
#
# Indices 1 2 3 4 5 6 
#
# 1 85.7475 27.3393 42.3809 -9.5206 -19.6598 -3.2735
# 2 27.3393 89.2640 38.0027 -4.6426 9.6832 -14.1988
# 3 42.3809 38.0027 63.9972 -8.7763 -3.3926 0.3650
# 4 -9.5206 -4.6426 -8.7763 31.8024 -7.8474 1.0948
# 5 -19.6598 9.6832 -3.3926 -7.8474 28.9923 -7.3522
# 6 -3.2735 -14.1988 0.3650 1.0948 -7.3522 27.2876
#
#
#
# Elastic Compliance Matrix: (Units=1/GPa)
#
#
# Indices 1 2 3 4 5 6 
#
# 1 0.024416 -0.002942 -0.012275 0.008200 0.020002 0.006623
# 2 -0.002942 0.018096 -0.009713 -0.003197 -0.008240 0.007101
# 3 -0.012275 -0.009713 0.029786 0.002694 -0.002843 -0.007799
# 4 0.008200 -0.003197 0.002694 0.038536 0.018033 0.002596
# 5 0.020002 -0.008240 -0.002843 0.018033 0.058715 0.013246
# 6 0.006623 0.007101 -0.007799 0.002596 0.013246 0.044705
#
#
# Mechanical properties :
#
#
# Convention : Reuss Voigt Hill
#
# Bulk Modulus (GPa) = 44.56843 50.49495 47.53169
# Shear Modulus (GPa) = 18.40976 26.36885 22.38931
#
# Velocity S-wave (km/s) = 3.05787 3.65966 3.37221
# Velocity P-wave (km/s) = 5.92489 6.59580 6.26932
#
# Compressibility (1/GPa) = 0.02243741
#
# Stress axis : x y z
#
# Youngs Moduli (GPa) = 40.95599 55.25997 33.57292
#
# Poissons Ratio (x) = 0.16258 0.41211
# Poissons Ratio (y) = 0.12049 0.32611
# Poissons Ratio (z) = 0.50274 0.53676
#
# Static dielectric constant tensor:
#      x y z
#    x 1.439620 -0.158480 -0.210180 
#    y -0.158480 1.649570 -0.134970 
#    z -0.210180 -0.134970 1.476990 
# 
# From -- ./inp_files/297485.got.cif
#   From: 2010.05.17/outbox.cif.g08.bks.cpg/sg2_149_cif.got.tgz:297485.got - 2010.06.03 11:33:40.
