data_PCOD9089090
_publ_section_title
;
Structure prediction by ZEFSAII (Michael W. Deem and Ramdas Pophale) SiO2 
 PCOD9089090
Probable space group: P -1
;
_chemical_formula_sum "Si O2"
_cell_formula_units_Z 14
_cell_length_a 7.598186
_cell_length_b 7.754491
_cell_length_c 12.245477
_cell_angle_alpha 102.503764
_cell_angle_beta 70.819481
_cell_angle_gamma 88.358834
_cell_volume 661.383492
_symmetry_space_group_name_H-M "P -1"
_symmetry_group_IT_number 2
_symmetry_cell_setting 'triclinic'
loop_
_space_group_symop_operation_xyz
x,y,z
-x,-y,-z
loop_
_atom_site_type_symbol
_atom_site_label
_atom_site_fract_x
_atom_site_fract_y
_atom_site_fract_z
Si Si1 0.894399 0.151494 0.237632
Si Si2 0.221148 0.510880 0.321010
Si Si3 0.983787 0.793336 0.546507
Si Si4 0.582503 0.958698 0.155892
Si Si5 0.702309 0.774182 0.894151
Si Si6 0.595198 0.967430 0.592845
Si Si7 0.561345 0.399949 0.363498
O O1 0.778581 0.350045 0.284916
O O2 0.911577 0.123073 0.361658
O O3 0.370816 0.192086 0.964496
O O4 0.103698 0.138839 0.148186
O O5 0.121919 0.359570 0.389233
O O6 0.240075 0.427842 0.185139
O O7 0.435573 0.503513 0.313564
O O8 0.110229 0.691106 0.413074
O O9 0.817698 0.923868 0.545758
O O10 0.452294 0.117925 0.140075
O O11 0.471090 0.901013 0.276853
O O12 0.772473 0.026848 0.174931
O O13 0.511061 0.790515 0.627862
O O14 0.500000 0.000000 0.500000
O O15 0.500000 0.500000 0.500000
#
# Coordination Sequence:
#
# PCOD9089090 Si02
#       7
#     2   2   2   2   2   2   2
#     4  10  16  28  47  76 102 127 164 215 257 295
#     4   9  15  27  45  72 102 123 163 211 256 291
#     4   9  16  27  48  72  96 131 164 207 256 298
#     4  10  19  31  46  72 103 137 171 202 259 305
#     4  10  18  29  47  72 107 132 166 214 254 303
#     4  10  20  35  50  73 108 139 167 208 263 310
#     4  10  17  28  49  79 103 127 167 219 256 296
#
# _framework density 21.167748
#
# number of rings (size 3 to 8) (size 9 to 14) (size 15 to 20)
#    0.000    2.286    7.143    0.429    2.000    0.000 
#    0.000    2.857    0.000    0.857    0.000    1.000 
#    0.000    0.000    0.000    0.000    0.000    0.000 
#
# Total GULP energy -77973.237137 kJ/mol
# GULP energy per Si atom -5569.516938 kJ/mol
# Density = 2.111957 g / cm^3
# Si number density = 21.167748 Si / 1000 Ang^3
#
#
#
# Elastic Constant Matrix: (Units=GPa)
#
#
# Indices 1 2 3 4 5 6 
#
# 1 98.8271 30.2907 44.2492 -9.8963 8.8801 -40.2480
# 2 30.2907 52.1145 47.4579 0.3372 -1.4345 -14.2543
# 3 44.2492 47.4579 206.7658 7.4648 -8.2463 -32.9056
# 4 -9.8963 0.3372 7.4648 21.1076 -11.7727 1.7254
# 5 8.8801 -1.4345 -8.2463 -11.7727 33.9247 -1.4057
# 6 -40.2480 -14.2543 -32.9056 1.7254 -1.4057 31.2508
#
#
#
# Elastic Compliance Matrix: (Units=1/GPa)
#
#
# Indices 1 2 3 4 5 6 
#
# 1 0.024746 -0.007152 0.000509 0.007623 -0.002826 0.028596
# 2 -0.007152 0.027407 -0.004951 -0.001135 0.001359 -0.001800
# 3 0.000509 -0.004951 0.006900 -0.002132 0.000836 0.005818
# 4 0.007623 -0.001135 -0.002132 0.062038 0.019153 0.004491
# 5 -0.002826 0.001359 0.000836 0.019153 0.037061 -0.001530
# 6 0.028596 -0.001800 0.005818 0.004491 -0.001530 0.073816
#
#
# Mechanical properties :
#
#
# Convention : Reuss Voigt Hill
#
# Bulk Modulus (GPa) = 27.88314 66.85590 47.36952
# Shear Modulus (GPa) = 18.71873 32.97059 25.84466
#
# Velocity S-wave (km/s) = 2.97695 3.95091 3.49799
# Velocity P-wave (km/s) = 5.00174 7.24329 6.22425
#
# Compressibility (1/GPa) = 0.03586397
#
# Stress axis : x y z
#
# Youngs Moduli (GPa) = 40.40999 36.48724 144.92571
#
# Poissons Ratio (x) = 0.26096 -0.07373
# Poissons Ratio (y) = 0.28902 0.71756
# Poissons Ratio (z) = -0.02056 0.18066
#
# Static dielectric constant tensor:
#      x y z
#    x 1.855900 0.010090 -0.014220 
#    y 0.010090 1.801660 0.046850 
#    z -0.014220 0.046850 1.905160 
# 
# From -- ./inp_files/344533.got.cif
#   From: 2010.05.17/outbox.cif.g08.bks.cpg/sg2_173_cif.got.tgz:344533.got - 2010.06.03 11:33:40.
