data_PCOD9089041
_publ_section_title
;
Structure prediction by ZEFSAII (Michael W. Deem and Ramdas Pophale) SiO2 
 PCOD9089041
Probable space group: P -1
;
_chemical_formula_sum "Si O2"
_cell_formula_units_Z 16
_cell_length_a 23.031274
_cell_length_b 8.946809
_cell_length_c 9.148970
_cell_angle_alpha 78.253691
_cell_angle_beta 115.302747
_cell_angle_gamma 45.559219
_cell_volume 762.983639
_symmetry_space_group_name_H-M "P -1"
_symmetry_group_IT_number 2
_symmetry_cell_setting 'triclinic'
loop_
_space_group_symop_operation_xyz
x,y,z
-x,-y,-z
loop_
_atom_site_type_symbol
_atom_site_label
_atom_site_fract_x
_atom_site_fract_y
_atom_site_fract_z
Si Si1 0.408901 0.323808 0.184082
Si Si2 0.279006 0.405787 0.259848
Si Si3 0.645426 0.610079 0.198983
Si Si4 0.917350 0.221610 0.513853
Si Si5 0.904359 0.570382 0.313317
Si Si6 0.357264 0.725557 0.244534
Si Si7 0.805190 0.131093 0.735374
Si Si8 0.941968 0.349132 0.078405
O O1 0.306660 0.410468 0.124759
O O2 0.399313 0.485377 0.249724
O O3 0.566706 0.927299 0.436342
O O4 0.368936 0.454073 0.952632
O O5 0.198612 0.708530 0.200595
O O6 0.212910 0.376407 0.190061
O O7 0.758806 0.499425 0.301484
O O8 0.706277 0.381401 0.441321
O O9 0.500000 0.000000 0.000000
O O10 0.917857 0.401646 0.473919
O O11 0.000000 0.000000 0.500000
O O12 0.993037 0.959254 0.769052
O O13 0.951917 0.411041 0.233925
O O14 0.000000 0.500000 0.500000
O O15 0.744204 0.960201 0.031255
O O16 0.500000 0.500000 0.500000
O O17 0.259163 0.872215 0.242290
O O18 0.961033 0.775668 0.911538
#
# Coordination Sequence:
#
# PCOD9089041 Si02
#       8
#     2   2   2   2   2   2   2   2
#     4  10  21  36  64  91 127 171 213 259 315 388
#     4  10  19  37  64  96 124 164 215 266 319 380
#     4  11  21  38  65  98 127 156 216 285 322 360
#     4   9  21  38  65  93 121 165 214 268 312 378
#     4  11  25  41  65  97 131 173 219 260 317 396
#     4  11  26  44  64  87 133 180 214 251 324 407
#     4  10  23  39  65  95 126 162 215 273 326 378
#     4  10  21  40  68  92 129 162 215 273 324 373
#
# _framework density 20.970306999999998
#
# number of rings (size 3 to 8) (size 9 to 14) (size 15 to 20)
#    0.000    1.750    1.250    2.625   10.500    0.500 
#    0.000    1.875    0.000    0.000    0.000    0.000 
#    0.000    0.000    0.000    0.000    0.000    0.000 
#
# Total GULP energy -89311.257295 kJ/mol
# GULP energy per Si atom -5581.953581 kJ/mol
# Density = 2.092258 g / cm^3
# Si number density = 20.970307 Si / 1000 Ang^3
#
#
#
# Elastic Constant Matrix: (Units=GPa)
#
#
# Indices 1 2 3 4 5 6 
#
# 1 87.1328 23.4054 23.5916 3.5294 12.1680 2.9681
# 2 23.4054 53.0274 18.8067 -0.6763 16.3226 -6.5332
# 3 23.5916 18.8067 79.0232 9.9864 11.7681 0.6359
# 4 3.5294 -0.6763 9.9864 34.0879 -2.3155 -2.0001
# 5 12.1680 16.3226 11.7681 -2.3155 34.8747 -4.8792
# 6 2.9681 -6.5332 0.6359 -2.0001 -4.8792 33.9944
#
#
#
# Elastic Compliance Matrix: (Units=1/GPa)
#
#
# Indices 1 2 3 4 5 6 
#
# 1 0.013900 -0.004912 -0.002506 -0.001092 -0.002125 -0.002480
# 2 -0.004912 0.025393 -0.003608 0.001762 -0.008235 0.004298
# 3 -0.002506 -0.003608 0.015319 -0.004599 -0.003118 -0.001479
# 4 -0.001092 0.001762 -0.004599 0.031243 0.003584 0.002873
# 5 -0.002125 -0.008235 -0.003118 0.003584 0.035107 0.003911
# 6 -0.002480 0.004298 -0.001479 0.002873 0.003911 0.031217
#
#
# Mechanical properties :
#
#
# Convention : Reuss Voigt Hill
#
# Bulk Modulus (GPa) = 30.71281 38.97675 34.84478
# Shear Modulus (GPa) = 27.01471 30.81670 28.91571
#
# Velocity S-wave (km/s) = 3.59309 3.83762 3.71737
# Velocity P-wave (km/s) = 5.64725 6.18574 5.92262
#
# Compressibility (1/GPa) = 0.03255970
#
# Stress axis : x y z
#
# Youngs Moduli (GPa) = 71.94135 39.38153 65.27937
#
# Poissons Ratio (x) = 0.19344 0.16362
# Poissons Ratio (y) = 0.35337 0.23551
# Poissons Ratio (z) = 0.18031 0.14208
#
# Static dielectric constant tensor:
#      x y z
#    x 1.784340 -0.015000 0.043680 
#    y -0.015000 1.767190 -0.021480 
#    z 0.043680 -0.021480 1.857140 
# 
# From -- ./inp_files/343556.got.cif
#   From: 2010.05.17/outbox.cif.g08.bks.cpg/sg2_172_cif.got.tgz:343556.got - 2010.06.03 11:33:40.
