data_PCOD9089611
_publ_section_title
;
Structure prediction by ZEFSAII (Michael W. Deem and Ramdas Pophale) SiO2 
 PCOD9089611
Probable space group: P -1
;
_chemical_formula_sum "Si O2"
_cell_formula_units_Z 14
_cell_length_a 16.521799
_cell_length_b 6.979390
_cell_length_c 7.846666
_cell_angle_alpha 55.684378
_cell_angle_beta 113.539912
_cell_angle_gamma 131.138910
_cell_volume 562.233599
_symmetry_space_group_name_H-M "P -1"
_symmetry_group_IT_number 2
_symmetry_cell_setting 'triclinic'
loop_
_space_group_symop_operation_xyz
x,y,z
-x,-y,-z
loop_
_atom_site_type_symbol
_atom_site_label
_atom_site_fract_x
_atom_site_fract_y
_atom_site_fract_z
Si Si1 0.471114 0.235245 0.718349
Si Si2 0.952941 0.694242 0.857887
Si Si3 0.621667 0.137054 0.744713
Si Si4 0.703996 0.880676 0.122339
Si Si5 0.130582 0.662227 0.717411
Si Si6 0.921508 0.674222 0.467990
Si Si7 0.383718 0.699222 0.707011
O O1 0.500000 0.500000 0.500000
O O2 0.579513 0.241851 0.809146
O O3 0.412707 0.235434 0.835817
O O4 0.388203 0.941770 0.696099
O O5 0.888755 0.653408 0.648557
O O6 0.893153 0.585334 0.044305
O O7 0.042539 0.032335 0.742476
O O8 0.000000 0.500000 0.000000
O O9 0.645752 0.317640 0.506818
O O10 0.512104 0.835819 0.749764
O O11 0.715502 0.106830 0.887931
O O12 0.691613 0.623903 0.140740
O O13 0.786539 0.044935 0.262051
O O14 0.155100 0.581286 0.596374
O O15 0.027744 0.671691 0.585669
#
# Coordination Sequence:
#
# PCOD9089611 Si02
#       7
#     2   2   2   2   2   2   2
#     4  10  19  38  60  78 113 158 200 235 287 357
#     4   9  18  38  64  87 111 154 199 237 294 374
#     4   9  19  37  58  78 111 159 194 245 290 344
#     4  12  21  37  56  88 120 148 203 248 295 345
#     4  10  22  36  60  90 120 153 198 252 293 361
#     4   9  19  41  64  82 119 163 191 236 312 352
#     4   9  20  37  57  80 112 157 192 244 301 344
#
# _framework density 24.900680999999999
#
# number of rings (size 3 to 8) (size 9 to 14) (size 15 to 20)
#    0.857    1.429    1.429    1.286    0.000    1.143 
#   10.286    0.000    0.000    0.000    0.000    0.000 
#    0.000    0.000    0.000    0.000    0.000    0.000 
#
# Total GULP energy -78008.907031 kJ/mol
# GULP energy per Si atom -5572.064788 kJ/mol
# Density = 2.484401 g / cm^3
# Si number density = 24.900681 Si / 1000 Ang^3
#
#
#
# Elastic Constant Matrix: (Units=GPa)
#
#
# Indices 1 2 3 4 5 6 
#
# 1 40.8692 10.5588 14.4916 -1.6686 2.8508 -14.2971
# 2 10.5588 101.8668 35.1158 -13.2337 23.1419 -23.5521
# 3 14.4916 35.1158 113.0563 -7.4880 10.8766 -5.8670
# 4 -1.6686 -13.2337 -7.4880 43.6239 -1.8390 -0.1750
# 5 2.8508 23.1419 10.8766 -1.8390 33.8789 2.7110
# 6 -14.2971 -23.5521 -5.8670 -0.1750 2.7110 26.7533
#
#
#
# Elastic Compliance Matrix: (Units=1/GPa)
#
#
# Indices 1 2 3 4 5 6 
#
# 1 0.032531 0.004420 -0.003740 0.001769 -0.006147 0.021090
# 2 0.004420 0.018806 -0.003805 0.004739 -0.013297 0.019462
# 3 -0.003740 -0.003805 0.010394 0.000468 -0.000154 -0.003050
# 4 0.001769 0.004739 0.000468 0.024419 -0.002662 0.005649
# 5 -0.006147 -0.013297 -0.000154 -0.002662 0.040554 -0.019151
# 6 0.021090 0.019462 -0.003050 0.005649 -0.019151 0.067091
#
#
# Mechanical properties :
#
#
# Convention : Reuss Voigt Hill
#
# Bulk Modulus (GPa) = 18.02396 41.79164 29.90780
# Shear Modulus (GPa) = 22.87921 33.89296 28.38608
#
# Velocity S-wave (km/s) = 3.03449 3.69335 3.38001
# Velocity P-wave (km/s) = 4.41945 5.91671 5.22202
#
# Compressibility (1/GPa) = 0.05548170
#
# Stress axis : x y z
#
# Youngs Moduli (GPa) = 30.73963 53.17398 96.21124
#
# Poissons Ratio (x) = -0.23501 0.35979
# Poissons Ratio (y) = -0.13586 0.36606
# Poissons Ratio (z) = 0.11495 0.20232
#
# Static dielectric constant tensor:
#      x y z
#    x 2.112910 0.018110 0.029170 
#    y 0.018110 1.942350 -0.019160 
#    z 0.029170 -0.019160 2.059620 
# 
# From -- ./inp_files/342395.got.cif
#   From: 2010.05.17/outbox.cif.g08.bks.cpg/sg2_172_cif.got.tgz:342395.got - 2010.06.03 11:33:40.
