data_PCOD9089169
_publ_section_title
;
Structure prediction by ZEFSAII (Michael W. Deem and Ramdas Pophale) SiO2 
 PCOD9089169
Probable space group: P -1
;
_chemical_formula_sum "Si O2"
_cell_formula_units_Z 16
_cell_length_a 20.011243
_cell_length_b 12.347462
_cell_length_c 11.160087
_cell_angle_alpha 145.364958
_cell_angle_beta 146.867196
_cell_angle_gamma 31.388415
_cell_volume 726.403662
_symmetry_space_group_name_H-M "P -1"
_symmetry_group_IT_number 2
_symmetry_cell_setting 'triclinic'
loop_
_space_group_symop_operation_xyz
x,y,z
-x,-y,-z
loop_
_atom_site_type_symbol
_atom_site_label
_atom_site_fract_x
_atom_site_fract_y
_atom_site_fract_z
Si Si1 0.440004 0.360873 0.850803
Si Si2 0.262475 0.032779 0.028901
Si Si3 0.969775 0.062730 0.371428
Si Si4 0.365322 0.524649 0.158774
Si Si5 0.289390 0.161578 0.943342
Si Si6 0.905509 0.350369 0.989786
Si Si7 0.564592 0.156686 0.326118
Si Si8 0.860027 0.564960 0.622849
O O1 0.292529 0.386876 0.608654
O O2 0.572763 0.104249 0.809641
O O3 0.500000 0.500000 0.000000
O O4 0.411734 0.437090 0.016075
O O5 0.253527 0.037939 0.876684
O O6 0.177134 0.288917 0.178633
O O7 0.185831 0.910043 0.854817
O O8 0.957146 0.296592 0.540088
O O9 0.000000 0.000000 0.500000
O O10 0.067160 0.861128 0.241398
O O11 0.202323 0.602329 0.019868
O O12 0.472493 0.335021 0.243352
O O13 0.382446 0.733387 0.401246
O O14 0.182204 0.427327 0.022208
O O15 0.448786 0.110051 0.165920
O O16 0.307630 0.058135 0.744880
O O17 0.051300 0.346206 0.236344
#
# Coordination Sequence:
#
# PCOD9089169 Si02
#       8
#     2   2   2   2   2   2   2   2
#     4  12  25  45  68  93 130 177 225 270 325 384
#     4  11  23  41  67  98 129 173 220 269 326 387
#     4  11  23  40  67  98 136 175 211 268 328 391
#     4  10  22  41  66  98 133 170 217 275 324 391
#     4  10  19  37  65  99 135 164 211 270 335 389
#     4  10  24  41  64 100 133 170 221 261 333 396
#     4   9  20  36  64 102 131 165 213 270 336 382
#     4  11  25  44  65  91 136 176 222 267 318 392
#
# _framework density 22.026320999999999
#
# number of rings (size 3 to 8) (size 9 to 14) (size 15 to 20)
#    0.000    1.500    2.500    1.875    5.250    3.500 
#    0.000    0.625    0.000    0.000    0.000    0.000 
#    0.000    0.000    0.000    0.000    0.000    0.000 
#
# Total GULP energy -89352.355756 kJ/mol
# GULP energy per Si atom -5584.522235 kJ/mol
# Density = 2.197619 g / cm^3
# Si number density = 22.026321 Si / 1000 Ang^3
#
#
#
# Elastic Constant Matrix: (Units=GPa)
#
#
# Indices 1 2 3 4 5 6 
#
# 1 95.1829 12.1592 28.9076 5.2100 13.2763 -25.7186
# 2 12.1592 95.6231 24.1685 19.5032 2.1742 -24.2082
# 3 28.9076 24.1685 106.4884 13.5490 18.0309 -14.8535
# 4 5.2100 19.5032 13.5490 41.8406 -0.1067 2.3978
# 5 13.2763 2.1742 18.0309 -0.1067 22.8007 0.7412
# 6 -25.7186 -24.2082 -14.8535 2.3978 0.7412 24.7482
#
#
#
# Elastic Compliance Matrix: (Units=1/GPa)
#
#
# Indices 1 2 3 4 5 6 
#
# 1 0.019094 0.006007 0.000241 -0.006830 -0.012788 0.026907
# 2 0.006007 0.018537 0.000220 -0.010952 -0.006328 0.025758
# 3 0.000241 0.000220 0.012977 -0.004881 -0.010741 0.009049
# 4 -0.006830 -0.010952 -0.004881 0.032849 0.009822 -0.024218
# 5 -0.012788 -0.006328 -0.010741 0.009822 0.061381 -0.028715
# 6 0.026907 0.025758 0.009049 -0.024218 -0.028715 0.102202
#
#
# Mechanical properties :
#
#
# Convention : Reuss Voigt Hill
#
# Bulk Modulus (GPa) = 15.73727 47.52943 31.63335
# Shear Modulus (GPa) = 19.58594 33.34852 26.46723
#
# Velocity S-wave (km/s) = 2.98519 3.89528 3.47020
# Velocity P-wave (km/s) = 4.36372 6.46964 5.51807
#
# Compressibility (1/GPa) = 0.06354341
#
# Stress axis : x y z
#
# Youngs Moduli (GPa) = 52.37382 53.94675 77.05824
#
# Poissons Ratio (x) = -0.32406 -0.01857
# Poissons Ratio (y) = -0.31461 -0.01695
# Poissons Ratio (z) = -0.01262 -0.01187
#
# Static dielectric constant tensor:
#      x y z
#    x 1.780780 -0.010820 0.043890 
#    y -0.010820 1.851620 -0.022780 
#    z 0.043890 -0.022780 1.816170 
# 
# From -- ./inp_files/472027.got.cif
#   From: 2010.05.17/outbox.cif.g08.bks.cpg/sg2_237_cif.got.tgz:472027.got - 2010.06.03 11:33:40.
