data_PCOD9089253
_publ_section_title
;
Structure prediction by ZEFSAII (Michael W. Deem and Ramdas Pophale) SiO2 
 PCOD9089253
Probable space group: P -1
;
_chemical_formula_sum "Si O2"
_cell_formula_units_Z 14
_cell_length_a 12.323118
_cell_length_b 15.267606
_cell_length_c 12.047424
_cell_angle_alpha 144.023670
_cell_angle_beta 44.728067
_cell_angle_gamma 153.348626
_cell_volume 596.573172
_symmetry_space_group_name_H-M "P -1"
_symmetry_group_IT_number 2
_symmetry_cell_setting 'triclinic'
loop_
_space_group_symop_operation_xyz
x,y,z
-x,-y,-z
loop_
_atom_site_type_symbol
_atom_site_label
_atom_site_fract_x
_atom_site_fract_y
_atom_site_fract_z
Si Si1 0.402327 0.041343 0.370846
Si Si2 0.916585 0.041267 0.001939
Si Si3 0.327221 0.556223 0.262094
Si Si4 0.253111 0.616932 0.972495
Si Si5 0.475890 0.683786 0.644837
Si Si6 0.085837 0.152825 0.403784
Si Si7 0.562578 0.435622 0.058732
O O1 0.597258 0.237308 0.521820
O O2 0.496705 0.168103 0.313386
O O3 0.360722 0.836014 0.187636
O O4 0.148074 0.936218 0.472731
O O5 0.997050 0.029810 0.815099
O O6 0.633577 0.802932 0.971629
O O7 0.000000 0.000000 0.000000
O O8 0.048476 0.295787 0.187923
O O9 0.419208 0.616553 0.131050
O O10 0.467685 0.531685 0.206038
O O11 0.212412 0.440249 0.899474
O O12 0.391037 0.679060 0.821796
O O13 0.000000 0.500000 0.000000
O O14 0.268280 0.410453 0.480232
O O15 0.733226 0.791734 0.584105
#
# Coordination Sequence:
#
# PCOD9089253 Si02
#       7
#     2   2   2   2   2   2   2
#     4  12  25  41  66 101 136 172 222 274 336 401
#     4  10  19  37  66  98 130 163 220 279 324 376
#     4  10  23  41  70 103 123 175 231 280 318 389
#     4  12  26  47  66  97 145 180 210 275 349 397
#     4  11  24  43  66  96 134 180 229 270 325 399
#     4  11  22  39  69 100 125 178 228 279 320 381
#     4  10  21  44  69  95 137 171 224 276 330 391
#
# _framework density 23.467364
#
# number of rings (size 3 to 8) (size 9 to 14) (size 15 to 20)
#    0.000    1.143    2.857    5.143    2.000    2.857 
#    2.571    0.714    0.000    0.000    0.000    0.000 
#    0.000    0.000    0.000    0.000    0.000    0.000 
#
# Total GULP energy -78238.076687 kJ/mol
# GULP energy per Si atom -5588.434049 kJ/mol
# Density = 2.341395 g / cm^3
# Si number density = 23.467364 Si / 1000 Ang^3
#
#
#
# Elastic Constant Matrix: (Units=GPa)
#
#
# Indices 1 2 3 4 5 6 
#
# 1 57.0971 -2.0412 7.8724 -19.1507 0.7829 -4.8759
# 2 -2.0412 68.8433 25.3515 -0.4752 2.4401 -2.7710
# 3 7.8724 25.3515 124.0834 9.0436 10.0215 3.9043
# 4 -19.1507 -0.4752 9.0436 39.3246 3.2611 8.6768
# 5 0.7829 2.4401 10.0215 3.2611 27.6647 -6.2782
# 6 -4.8759 -2.7710 3.9043 8.6768 -6.2782 22.0215
#
#
#
# Elastic Compliance Matrix: (Units=1/GPa)
#
#
# Indices 1 2 3 4 5 6 
#
# 1 0.021711 0.001700 -0.002477 0.011064 -0.000985 0.000820
# 2 0.001700 0.015995 -0.003571 0.001243 0.000281 0.002613
# 3 -0.002477 -0.003571 0.009486 -0.002577 -0.003341 -0.002617
# 4 0.011064 0.001243 -0.002577 0.034700 -0.006402 -0.012434
# 5 -0.000985 0.000281 -0.003341 -0.006402 0.041463 0.014753
# 6 0.000820 0.002613 -0.002617 -0.012434 0.014753 0.055490
#
#
# Mechanical properties :
#
#
# Convention : Reuss Voigt Hill
#
# Bulk Modulus (GPa) = 25.97741 34.70991 30.34366
# Shear Modulus (GPa) = 24.95346 32.39155 28.67251
#
# Velocity S-wave (km/s) = 3.26441 3.71924 3.49922
# Velocity P-wave (km/s) = 5.03012 5.76771 5.41150
#
# Compressibility (1/GPa) = 0.03849498
#
# Stress axis : x y z
#
# Youngs Moduli (GPa) = 46.05984 62.51921 105.41918
#
# Poissons Ratio (x) = -0.10630 0.26117
# Poissons Ratio (y) = -0.07832 0.37649
# Poissons Ratio (z) = 0.11411 0.22328
#
# Static dielectric constant tensor:
#      x y z
#    x 1.975250 0.137830 0.011810 
#    y 0.137830 1.882570 -0.052800 
#    z 0.011810 -0.052800 1.789050 
# 
# From -- ./inp_files/433307.got.cif
#   From: 2010.05.17/outbox.cif.g08.bks.cpg/sg2_217_cif.got.tgz:433307.got - 2010.06.03 11:33:40.
