data_PCOD9089522
_publ_section_title
;
Structure prediction by ZEFSAII (Michael W. Deem and Ramdas Pophale) SiO2 
 PCOD9089522
Probable space group: P -1
;
_chemical_formula_sum "Si O2"
_cell_formula_units_Z 16
_cell_length_a 18.888909
_cell_length_b 23.606129
_cell_length_c 8.477618
_cell_angle_alpha 150.587706
_cell_angle_beta 28.602980
_cell_angle_gamma 157.740020
_cell_volume 648.775804
_symmetry_space_group_name_H-M "P -1"
_symmetry_group_IT_number 2
_symmetry_cell_setting 'triclinic'
loop_
_space_group_symop_operation_xyz
x,y,z
-x,-y,-z
loop_
_atom_site_type_symbol
_atom_site_label
_atom_site_fract_x
_atom_site_fract_y
_atom_site_fract_z
Si Si1 0.725033 0.109484 0.244298
Si Si2 0.362409 0.378040 0.615684
Si Si3 0.121142 0.673100 0.249991
Si Si4 0.480181 0.326713 0.817933
Si Si5 0.560262 0.131319 0.325519
Si Si6 0.884456 0.096072 0.328432
Si Si7 0.069078 0.123685 0.346047
Si Si8 0.442874 0.214395 0.281147
O O1 0.883409 0.258438 0.409279
O O2 0.717271 0.173209 0.248482
O O3 0.500000 0.000000 0.500000
O O4 0.727162 0.974064 0.872062
O O5 0.500000 0.500000 0.500000
O O6 0.145446 0.236159 0.618118
O O7 0.447091 0.304077 0.343485
O O8 0.382592 0.488615 0.973804
O O9 0.057561 0.742658 0.425761
O O10 0.349464 0.744150 0.988281
O O11 0.000000 0.500000 0.000000
O O12 0.597311 0.273511 0.516629
O O13 0.420191 0.277342 0.635590
O O14 0.274674 0.228069 0.085220
O O15 0.345896 0.032825 0.593086
O O16 0.500000 0.000000 0.000000
O O17 0.907739 0.086504 0.447017
O O18 0.980559 0.036465 0.911897
#
# Coordination Sequence:
#
# PCOD9089522 Si02
#       8
#     2   2   2   2   2   2   2   2
#     4  10  20  36  62  89 111 157 201 241 288 357
#     4  10  22  35  58  87 115 156 202 238 287 358
#     4  11  24  35  61  91 121 153 191 257 300 348
#     4  10  21  35  61  88 114 156 196 249 294 350
#     4  11  19  37  63  90 116 151 204 246 295 352
#     4  10  19  38  58  85 121 152 201 238 302 347
#     4   9  21  36  62  85 115 160 197 244 289 357
#     4  11  21  40  62  88 119 155 204 246 294 350
#
# _framework density 24.661833000000001
#
# number of rings (size 3 to 8) (size 9 to 14) (size 15 to 20)
#    0.000    1.750    3.750    1.125   12.250    0.000 
#    0.000    1.250    0.000    6.000    0.000    0.000 
#    0.000    0.000    0.000    0.000    0.000    0.000 
#
# Total GULP energy -89333.010757 kJ/mol
# GULP energy per Si atom -5583.313172 kJ/mol
# Density = 2.460570 g / cm^3
# Si number density = 24.661833 Si / 1000 Ang^3
#
#
#
# Elastic Constant Matrix: (Units=GPa)
#
#
# Indices 1 2 3 4 5 6 
#
# 1 148.8103 34.6423 69.8821 33.0312 -12.5571 -2.2453
# 2 34.6423 76.9828 51.8293 31.4791 1.8060 20.2537
# 3 69.8821 51.8293 162.8729 55.3587 10.7130 12.0376
# 4 33.0312 31.4791 55.3587 54.9403 -0.1990 3.7247
# 5 -12.5571 1.8060 10.7130 -0.1990 52.5597 15.2614
# 6 -2.2453 20.2537 12.0376 3.7247 15.2614 32.8363
#
#
#
# Elastic Compliance Matrix: (Units=1/GPa)
#
#
# Indices 1 2 3 4 5 6 
#
# 1 0.009202 -0.002125 -0.003146 -0.001284 0.002274 0.002182
# 2 -0.002125 0.022570 -0.002784 -0.007912 0.003216 -0.013643
# 3 -0.003146 -0.002784 0.011259 -0.007841 -0.002863 -0.000405
# 4 -0.001284 -0.007912 -0.007841 0.031147 0.000556 0.003875
# 5 0.002274 0.003216 -0.002863 0.000556 0.023454 -0.011742
# 6 0.002182 -0.013643 -0.000405 0.003875 -0.011742 0.044185
#
#
# Mechanical properties :
#
#
# Convention : Reuss Voigt Hill
#
# Bulk Modulus (GPa) = 37.14745 77.93035 57.53890
# Shear Modulus (GPa) = 29.95780 43.55476 36.75628
#
# Velocity S-wave (km/s) = 3.48910 4.20703 3.86477
# Velocity P-wave (km/s) = 5.59707 7.43418 6.58005
#
# Compressibility (1/GPa) = 0.02691975
#
# Stress axis : x y z
#
# Youngs Moduli (GPa) = 108.67074 44.30645 88.81785
#
# Poissons Ratio (x) = 0.09414 0.27946
# Poissons Ratio (y) = 0.23091 0.24731
# Poissons Ratio (z) = 0.34192 0.12337
#
# Static dielectric constant tensor:
#      x y z
#    x 1.959410 -0.037900 0.008470 
#    y -0.037900 2.065820 -0.102710 
#    z 0.008470 -0.102710 2.066220 
# 
# From -- ./inp_files/338633.got.cif
#   From: 2010.05.17/outbox.cif.g08.bks.cpg/sg2_170_cif.got.tgz:338633.got - 2010.06.03 11:33:40.
