data_PCOD9089696
_publ_section_title
;
Structure prediction by ZEFSAII (Michael W. Deem and Ramdas Pophale) SiO2 
 PCOD9089696
Probable space group: P -1
;
_chemical_formula_sum "Si O2"
_cell_formula_units_Z 14
_cell_length_a 8.485448
_cell_length_b 7.348349
_cell_length_c 15.185866
_cell_angle_alpha 133.455272
_cell_angle_beta 116.779000
_cell_angle_gamma 52.405475
_cell_volume 543.843571
_symmetry_space_group_name_H-M "P -1"
_symmetry_group_IT_number 2
_symmetry_cell_setting 'triclinic'
loop_
_space_group_symop_operation_xyz
x,y,z
-x,-y,-z
loop_
_atom_site_type_symbol
_atom_site_label
_atom_site_fract_x
_atom_site_fract_y
_atom_site_fract_z
Si Si1 0.399558 0.007036 0.355302
Si Si2 0.817098 0.503564 0.286862
Si Si3 0.840110 0.651143 0.139777
Si Si4 0.598726 0.160723 0.134023
Si Si5 0.357048 0.632272 0.094350
Si Si6 0.185544 0.596301 0.457575
Si Si7 0.891262 0.139859 0.658393
O O1 0.621852 0.782081 0.362507
O O2 0.343286 0.930786 0.217886
O O3 0.242444 0.978092 0.369517
O O4 0.370437 0.323600 0.450805
O O5 0.821894 0.561129 0.203731
O O6 0.791522 0.221758 0.197564
O O7 0.008231 0.505230 0.378405
O O8 0.041390 0.678688 0.201262
O O9 0.662061 0.956683 0.167596
O O10 0.829582 0.415449 0.995842
O O11 0.451038 0.464742 0.153470
O O12 0.500000 0.000000 0.000000
O O13 0.500000 0.500000 0.000000
O O14 0.213366 0.674964 0.391936
O O15 0.095019 0.879542 0.586505
#
# Coordination Sequence:
#
# PCOD9089696 Si02
#       7
#     2   2   2   2   2   2   2
#     4  11  22  38  66  93 120 167 211 253 313 375
#     4  10  21  39  63  90 126 164 208 256 305 378
#     4  10  19  38  62  86 129 168 197 256 320 357
#     4   9  18  30  57  87 115 161 199 240 304 356
#     4  10  19  38  60  91 129 158 208 256 301 381
#     4  10  23  45  64  88 130 167 204 264 318 352
#     4  10  23  42  62  92 127 158 214 267 297 376
#
# _framework density 25.742697
#
# number of rings (size 3 to 8) (size 9 to 14) (size 15 to 20)
#    0.000    2.000    2.857    1.286    0.000    3.429 
#    2.571   12.143    0.000    0.000    0.000    0.000 
#    0.000    0.000    0.000    0.000    0.000    0.000 
#
# Total GULP energy -78082.507019 kJ/mol
# GULP energy per Si atom -5577.321930 kJ/mol
# Density = 2.568411 g / cm^3
# Si number density = 25.742697 Si / 1000 Ang^3
#
#
#
# Elastic Constant Matrix: (Units=GPa)
#
#
# Indices 1 2 3 4 5 6 
#
# 1 79.4826 42.0536 34.1641 -6.4520 9.5805 24.9374
# 2 42.0536 85.8603 13.6091 14.0119 -8.0638 16.0187
# 3 34.1641 13.6091 86.3693 -23.4635 26.8623 -3.6946
# 4 -6.4520 14.0119 -23.4635 39.1825 -0.6755 11.0925
# 5 9.5805 -8.0638 26.8623 -0.6755 43.0015 -1.6995
# 6 24.9374 16.0187 -3.6946 11.0925 -1.6995 34.2026
#
#
#
# Elastic Compliance Matrix: (Units=1/GPa)
#
#
# Indices 1 2 3 4 5 6 
#
# 1 0.029544 -0.012198 -0.005650 0.011538 -0.005969 -0.020477
# 2 -0.012198 0.020811 -0.004864 -0.013150 0.009585 0.003363
# 3 -0.005650 -0.004864 0.022365 0.012844 -0.013265 0.003988
# 4 0.011538 -0.013150 0.012844 0.044065 -0.012992 -0.015803
# 5 -0.005969 0.009585 -0.013265 -0.012992 0.034637 0.004365
# 6 -0.020477 0.003363 0.003988 -0.015803 0.004365 0.048365
#
#
# Mechanical properties :
#
#
# Convention : Reuss Voigt Hill
#
# Bulk Modulus (GPa) = 36.63385 47.92955 42.28170
# Shear Modulus (GPa) = 19.66106 34.06969 26.86538
#
# Velocity S-wave (km/s) = 2.76661 3.64190 3.23400
# Velocity P-wave (km/s) = 4.94643 6.02857 5.51411
#
# Compressibility (1/GPa) = 0.02729716
#
# Stress axis : x y z
#
# Youngs Moduli (GPa) = 33.84742 48.05103 44.71333
#
# Poissons Ratio (x) = 0.58614 0.25261
# Poissons Ratio (y) = 0.41288 0.21747
# Poissons Ratio (z) = 0.19122 0.23371
#
# Static dielectric constant tensor:
#      x y z
#    x 2.016570 0.053880 0.019310 
#    y 0.053880 1.911670 0.035530 
#    z 0.019310 0.035530 2.102780 
# 
# From -- ./inp_files/542339.got.cif
#   From: 2010.05.17/outbox.cif.g08.bks.cpg/sg2_272_cif.got.tgz:542339.got - 2010.06.03 11:33:40.
