data_PCOD9089649
_publ_section_title
;
Structure prediction by ZEFSAII (Michael W. Deem and Ramdas Pophale) SiO2 
 PCOD9089649
Probable space group: P -1
;
_chemical_formula_sum "Si O2"
_cell_formula_units_Z 16
_cell_length_a 13.786204
_cell_length_b 13.030131
_cell_length_c 8.729859
_cell_angle_alpha 83.266540
_cell_angle_beta 76.433993
_cell_angle_gamma 147.357226
_cell_volume 657.644244
_symmetry_space_group_name_H-M "P -1"
_symmetry_group_IT_number 2
_symmetry_cell_setting 'triclinic'
loop_
_space_group_symop_operation_xyz
x,y,z
-x,-y,-z
loop_
_atom_site_type_symbol
_atom_site_label
_atom_site_fract_x
_atom_site_fract_y
_atom_site_fract_z
Si Si1 0.574923 0.758344 0.111997
Si Si2 0.055777 0.170495 0.000023
Si Si3 0.279600 0.984974 0.257158
Si Si4 0.488895 0.147944 0.635701
Si Si5 0.474578 0.445609 0.341610
Si Si6 0.974749 0.524575 0.334311
Si Si7 0.348209 0.828082 0.935422
Si Si8 0.855028 0.035101 0.404952
O O1 0.432675 0.708101 0.273159
O O2 0.492678 0.566357 0.213949
O O3 0.834917 0.017318 0.034501
O O4 0.603321 0.813536 0.916085
O O5 0.043714 0.184490 0.182096
O O6 0.308442 0.424538 0.800244
O O7 0.000000 0.000000 0.000000
O O8 0.119821 0.765739 0.246790
O O9 0.497206 0.118218 0.203446
O O10 0.114284 0.868560 0.473458
O O11 0.710368 0.304204 0.447651
O O12 0.344133 0.087687 0.590792
O O13 0.346041 0.921494 0.803821
O O14 0.500000 0.500000 0.500000
O O15 0.244652 0.166551 0.464288
O O16 0.000000 0.500000 0.500000
O O17 0.100104 0.575004 0.146886
O O18 0.500000 0.000000 0.000000
#
# Coordination Sequence:
#
# PCOD9089649 Si02
#       8
#     2   2   2   2   2   2   2   2
#     4  10  20  37  65  88 119 164 205 245 293 361
#     4   9  19  39  62  85 115 157 208 243 287 361
#     4  11  23  41  59  92 132 151 193 267 306 336
#     4  11  20  38  65  90 110 166 211 233 296 370
#     4  11  20  39  66  88 117 164 209 243 287 372
#     4  11  20  38  67  85 113 166 209 236 293 373
#     4  10  19  38  60  86 124 152 200 253 287 362
#     4  11  25  40  60  93 127 156 196 260 307 339
#
# _framework density 24.329264999999999
#
# number of rings (size 3 to 8) (size 9 to 14) (size 15 to 20)
#    0.000    1.500    8.750    0.000    1.750    1.000 
#    4.500    3.125    0.000    0.000    0.000    0.000 
#    0.000    0.000    0.000    0.000    0.000    0.000 
#
# Total GULP energy -89395.806695 kJ/mol
# GULP energy per Si atom -5587.237918 kJ/mol
# Density = 2.427389 g / cm^3
# Si number density = 24.329265 Si / 1000 Ang^3
#
#
#
# Elastic Constant Matrix: (Units=GPa)
#
#
# Indices 1 2 3 4 5 6 
#
# 1 83.6449 13.0205 36.9458 -9.6142 27.1256 -11.6473
# 2 13.0205 33.8999 27.6169 7.8504 -1.5773 3.9905
# 3 36.9458 27.6169 141.4910 -9.0216 -14.8426 -5.9252
# 4 -9.6142 7.8504 -9.0216 32.8165 -8.5366 -7.5946
# 5 27.1256 -1.5773 -14.8426 -8.5366 49.6545 -5.8607
# 6 -11.6473 3.9905 -5.9252 -7.5946 -5.8607 12.9345
#
#
#
# Elastic Compliance Matrix: (Units=1/GPa)
#
#
# Indices 1 2 3 4 5 6 
#
# 1 0.023513 -0.014926 -0.001819 0.014942 -0.007728 0.030216
# 2 -0.014926 0.066460 -0.016010 -0.044082 -0.010593 -0.071961
# 3 -0.001819 -0.016010 0.013585 0.014813 0.009765 0.022647
# 4 0.014942 -0.044082 0.014813 0.073738 0.017587 0.085104
# 5 -0.007728 -0.010593 0.009765 0.017587 0.033045 0.026082
# 6 0.030216 -0.071961 0.022647 0.085104 0.026082 0.198884
#
#
# Mechanical properties :
#
#
# Convention : Reuss Voigt Hill
#
# Bulk Modulus (GPa) = 26.28225 46.02245 36.15235
# Shear Modulus (GPa) = 10.25816 31.17796 20.71806
#
# Velocity S-wave (km/s) = 2.05561 3.58369 2.92133
# Velocity P-wave (km/s) = 4.05712 6.00677 5.12550
#
# Compressibility (1/GPa) = 0.03804850
#
# Stress axis : x y z
#
# Youngs Moduli (GPa) = 42.52949 15.04660 73.61225
#
# Poissons Ratio (x) = 0.22458 0.13390
# Poissons Ratio (y) = 0.63479 1.17853
# Poissons Ratio (z) = 0.07736 0.24090
#
# Static dielectric constant tensor:
#      x y z
#    x 1.984580 -0.017830 -0.055560 
#    y -0.017830 2.011850 0.022490 
#    z -0.055560 0.022490 1.984290 
# 
# From -- ./inp_files/313120.got.cif
#   From: 2010.05.17/outbox.cif.g08.bks.cpg/sg2_157_cif.got.tgz:313120.got - 2010.06.03 11:33:40.
