data_PCOD9089326
_publ_section_title
;
Structure prediction by ZEFSAII (Michael W. Deem and Ramdas Pophale) SiO2 
 PCOD9089326
Probable space group: P -1
;
_chemical_formula_sum "Si O2"
_cell_formula_units_Z 14
_cell_length_a 5.741612
_cell_length_b 11.716630
_cell_length_c 8.282846
_cell_angle_alpha 99.014065
_cell_angle_beta 98.352615
_cell_angle_gamma 97.996301
_cell_volume 536.965200
_symmetry_space_group_name_H-M "P -1"
_symmetry_group_IT_number 2
_symmetry_cell_setting 'triclinic'
loop_
_space_group_symop_operation_xyz
x,y,z
-x,-y,-z
loop_
_atom_site_type_symbol
_atom_site_label
_atom_site_fract_x
_atom_site_fract_y
_atom_site_fract_z
Si Si1 0.842886 0.080326 0.094825
Si Si2 0.415790 0.272504 0.249638
Si Si3 0.209784 0.785076 0.325562
Si Si4 0.711359 0.690249 0.413564
Si Si5 0.540652 0.997759 0.760164
Si Si6 0.954889 0.675720 0.954639
Si Si7 0.854075 0.460789 0.313679
O O1 0.743874 0.026597 0.242650
O O2 0.971673 0.211471 0.132390
O O3 0.627461 0.077528 0.944009
O O4 0.000000 0.000000 0.000000
O O5 0.291479 0.326892 0.398347
O O6 0.402424 0.133799 0.248200
O O7 0.683574 0.339772 0.305232
O O8 0.324664 0.314037 0.076923
O O9 0.462078 0.738990 0.371880
O O10 0.971153 0.764870 0.408777
O O11 0.313406 0.923984 0.344167
O O12 0.094784 0.715824 0.139238
O O13 0.704301 0.566014 0.297766
O O14 0.008605 0.562388 0.841342
O O15 0.000000 0.500000 0.500000
#
# Coordination Sequence:
#
# PCOD9089326 Si02
#       7
#     2   2   2   2   2   2   2
#     4  10  19  37  68 108 146 176 241 312 360 419
#     4  12  25  46  80 108 138 198 261 304 365 433
#     4  11  30  48  72 113 158 196 233 307 390 445
#     4  12  29  50  71 106 161 200 242 303 373 446
#     4  10  23  40  72 107 149 188 242 305 371 446
#     4  11  25  43  79 110 140 192 255 304 370 436
#     4  12  26  49  77 108 143 195 261 315 355 426
#
# _framework density 26.072451000000001
#
# number of rings (size 3 to 8) (size 9 to 14) (size 15 to 20)
#    0.000    0.857    4.286    1.286    8.000    2.286 
#    0.000    0.000    0.000    0.000    0.000    0.000 
#    0.000    0.000    0.000    0.000    0.000    0.000 
#
# Total GULP energy -78067.360349 kJ/mol
# GULP energy per Si atom -5576.240025 kJ/mol
# Density = 2.601311 g / cm^3
# Si number density = 26.072451 Si / 1000 Ang^3
#
#
#
# Elastic Constant Matrix: (Units=GPa)
#
#
# Indices 1 2 3 4 5 6 
#
# 1 110.0505 4.1106 32.4502 -12.0259 -5.3702 -12.5459
# 2 4.1106 70.3364 -3.4413 9.2487 -3.1798 -13.4420
# 3 32.4502 -3.4413 74.5830 9.6201 10.1927 -2.0694
# 4 -12.0259 9.2487 9.6201 36.8118 8.6251 -10.8452
# 5 -5.3702 -3.1798 10.1927 8.6251 55.9353 4.3806
# 6 -12.5459 -13.4420 -2.0694 -10.8452 4.3806 31.1031
#
#
#
# Elastic Compliance Matrix: (Units=1/GPa)
#
#
# Indices 1 2 3 4 5 6 
#
# 1 0.012739 -0.000731 -0.006489 0.007998 0.000575 0.007098
# 2 -0.000731 0.015819 0.001522 -0.003145 0.000609 0.005461
# 3 -0.006489 0.001522 0.017494 -0.007426 -0.002340 -0.003056
# 4 0.007998 -0.003145 -0.007426 0.038270 -0.005168 0.015445
# 5 0.000575 0.000609 -0.002340 -0.005168 0.019521 -0.004212
# 6 0.007098 0.005461 -0.003056 0.015445 -0.004212 0.043150
#
#
# Mechanical properties :
#
#
# Convention : Reuss Voigt Hill
#
# Bulk Modulus (GPa) = 28.85560 35.68989 32.27274
# Shear Modulus (GPa) = 29.42183 39.56006 34.49094
#
# Velocity S-wave (km/s) = 3.36291 3.89950 3.64110
# Velocity P-wave (km/s) = 5.11570 5.83037 5.48469
#
# Compressibility (1/GPa) = 0.03465532
#
# Stress axis : x y z
#
# Youngs Moduli (GPa) = 78.50034 63.21420 57.16100
#
# Poissons Ratio (x) = 0.04621 0.37094
# Poissons Ratio (y) = 0.05739 -0.08699
# Poissons Ratio (z) = 0.50942 -0.09621
#
# Static dielectric constant tensor:
#      x y z
#    x 2.573410 0.028480 0.055000 
#    y 0.028480 2.082160 -0.098760 
#    z 0.055000 -0.098760 2.095370 
# 
# From -- ./inp_files/131816.got.cif
#   From: 2010.05.17/outbox.cif.g08.bks.cpg/sg2_66_cif.got.tgz:131816.got - 2010.06.03 11:33:40.
