data_PCOD9089670
_publ_section_title
;
Structure prediction by ZEFSAII (Michael W. Deem and Ramdas Pophale) SiO2 
 PCOD9089670
Probable space group: P -1
;
_chemical_formula_sum "Si O2"
_cell_formula_units_Z 16
_cell_length_a 13.093437
_cell_length_b 12.897726
_cell_length_c 8.992473
_cell_angle_alpha 38.163133
_cell_angle_beta 46.088039
_cell_angle_gamma 45.839448
_cell_volume 635.714826
_symmetry_space_group_name_H-M "P -1"
_symmetry_group_IT_number 2
_symmetry_cell_setting 'triclinic'
loop_
_space_group_symop_operation_xyz
x,y,z
-x,-y,-z
loop_
_atom_site_type_symbol
_atom_site_label
_atom_site_fract_x
_atom_site_fract_y
_atom_site_fract_z
Si Si1 0.882574 0.567266 0.678150
Si Si2 0.773051 0.163884 0.963235
Si Si3 0.252179 0.524539 0.812325
Si Si4 0.633726 0.558338 0.741013
Si Si5 0.475922 0.133149 0.726932
Si Si6 0.245750 0.154504 0.148406
Si Si7 0.413554 0.723920 0.244121
Si Si8 0.095254 0.063917 0.640675
O O1 0.720115 0.629983 0.694900
O O2 0.906571 0.739120 0.532493
O O3 0.000000 0.500000 0.500000
O O4 0.859958 0.429895 0.982760
O O5 0.750155 0.373598 0.767759
O O6 0.644505 0.166827 0.972126
O O7 0.933088 0.054645 0.851552
O O8 0.785522 0.079474 0.210949
O O9 0.274769 0.660071 0.513827
O O10 0.429547 0.432032 0.783943
O O11 0.204822 0.365798 0.965823
O O12 0.562362 0.715449 0.523018
O O13 0.500000 0.500000 0.000000
O O14 0.536933 0.206954 0.729162
O O15 0.610134 0.948145 0.772798
O O16 0.317583 0.115112 0.958037
O O17 0.130482 0.065418 0.428029
#
# Coordination Sequence:
#
# PCOD9089670 Si02
#       8
#     2   2   2   2   2   2   2   2
#     4  11  22  41  59  89 124 159 200 247 299 360
#     4  11  22  39  60  85 120 163 201 245 297 361
#     4   9  19  36  62  84 119 152 196 248 297 359
#     4  12  23  38  65  93 119 160 202 248 302 351
#     4  10  21  37  60  90 118 148 198 253 294 356
#     4   9  19  38  58  81 122 152 190 250 299 346
#     4  10  19  38  60  89 116 154 203 246 300 350
#     4  10  23  41  59  84 122 163 201 243 300 363
#
# _framework density 25.168520000000001
#
# number of rings (size 3 to 8) (size 9 to 14) (size 15 to 20)
#    0.000    1.750    1.250    4.500    0.000    3.000 
#    2.250    7.500    0.000    0.000    0.000    0.000 
#    0.000    0.000    0.000    0.000    0.000    0.000 
#
# Total GULP energy -89199.758495 kJ/mol
# GULP energy per Si atom -5574.984906 kJ/mol
# Density = 2.511123 g / cm^3
# Si number density = 25.168520 Si / 1000 Ang^3
#
#
#
# Elastic Constant Matrix: (Units=GPa)
#
#
# Indices 1 2 3 4 5 6 
#
# 1 53.3891 -11.5522 -14.5034 1.3021 -1.5942 -4.6800
# 2 -11.5522 45.2487 9.5695 8.8163 2.4190 -2.6922
# 3 -14.5034 9.5695 139.0206 9.6185 7.6058 -15.5257
# 4 1.3021 8.8163 9.6185 39.3685 -9.5480 0.9360
# 5 -1.5942 2.4190 7.6058 -9.5480 20.8065 -2.8389
# 6 -4.6800 -2.6922 -15.5257 0.9360 -2.8389 26.3191
#
#
#
# Elastic Compliance Matrix: (Units=1/GPa)
#
#
# Indices 1 2 3 4 5 6 
#
# 1 0.021320 0.005833 0.002734 -0.002964 -0.000580 0.006044
# 2 0.005833 0.025495 0.000028 -0.007304 -0.005424 0.003336
# 3 0.002734 0.000028 0.008477 -0.003174 -0.003638 0.005210
# 4 -0.002964 -0.007304 -0.003174 0.031865 0.016057 -0.002548
# 5 -0.000580 -0.005424 -0.003638 0.016057 0.057736 0.002853
# 6 0.006044 0.003336 0.005210 -0.002548 0.002853 0.042883
#
#
# Mechanical properties :
#
#
# Convention : Reuss Voigt Hill
#
# Bulk Modulus (GPa) = 13.79635 22.74291 18.26963
# Shear Modulus (GPa) = 25.67447 34.24178 29.95813
#
# Velocity S-wave (km/s) = 3.19737 3.69250 3.45382
# Velocity P-wave (km/s) = 4.37314 5.21874 4.81454
#
# Compressibility (1/GPa) = 0.07248295
#
# Stress axis : x y z
#
# Youngs Moduli (GPa) = 46.90413 39.22362 117.96596
#
# Poissons Ratio (x) = -0.22878 -0.32257
# Poissons Ratio (y) = -0.27358 -0.00333
# Poissons Ratio (z) = -0.12826 -0.00111
#
# Static dielectric constant tensor:
#      x y z
#    x 2.027500 0.089820 -0.038450 
#    y 0.089820 2.253830 0.052980 
#    z -0.038450 0.052980 2.115790 
# 
# From -- ./inp_files/314470.got.cif
#   From: 2010.05.17/outbox.cif.g08.bks.cpg/sg2_158_cif.got.tgz:314470.got - 2010.06.03 11:33:40.
