data_PCOD9089690
_publ_section_title
;
Structure prediction by ZEFSAII (Michael W. Deem and Ramdas Pophale) SiO2 
 PCOD9089690
Probable space group: P -1
;
_chemical_formula_sum "Si O2"
_cell_formula_units_Z 16
_cell_length_a 14.463421
_cell_length_b 28.346710
_cell_length_c 5.106842
_cell_angle_alpha 108.486548
_cell_angle_beta 116.382497
_cell_angle_gamma 24.696935
_cell_volume 762.415597
_symmetry_space_group_name_H-M "P -1"
_symmetry_group_IT_number 2
_symmetry_cell_setting 'triclinic'
loop_
_space_group_symop_operation_xyz
x,y,z
-x,-y,-z
loop_
_atom_site_type_symbol
_atom_site_label
_atom_site_fract_x
_atom_site_fract_y
_atom_site_fract_z
Si Si1 0.616971 0.041677 0.982598
Si Si2 0.380849 0.665166 0.797634
Si Si3 0.301639 0.417613 0.631483
Si Si4 0.145007 0.565291 0.304556
Si Si5 0.129250 0.230874 0.898740
Si Si6 0.552449 0.832924 0.524268
Si Si7 0.176151 0.370681 0.256067
Si Si8 0.916734 0.226667 0.892539
O O1 0.383174 0.108286 0.860831
O O2 0.545778 0.109003 0.776209
O O3 0.633245 0.067237 0.312023
O O4 0.851597 0.907758 0.989185
O O5 0.638508 0.529479 0.801843
O O6 0.233789 0.733093 0.462992
O O7 0.459383 0.682274 0.069622
O O8 0.231662 0.702051 0.900489
O O9 0.267857 0.484586 0.559735
O O10 0.282710 0.378626 0.345245
O O11 0.074693 0.511932 0.703061
O O12 0.039136 0.666425 0.336334
O O13 0.914350 0.628875 0.075704
O O14 0.006008 0.239126 0.899827
O O15 0.211765 0.236270 0.227202
O O16 0.636153 0.740611 0.521244
#
# Coordination Sequence:
#
# PCOD9089690 Si02
#       8
#     2   2   2   2   2   2   2   2
#     4  10  21  39  62  85 120 148 204 248 292 329
#     4  11  25  40  57  85 123 164 195 233 282 364
#     4  10  19  38  60  91 119 157 192 238 294 358
#     4  10  19  41  58  93 123 148 195 239 302 346
#     4   9  23  36  63  89 119 148 201 252 287 340
#     4   9  20  37  58  95 112 144 184 263 294 336
#     4   9  19  33  65  93 118 147 189 250 304 343
#     4  12  24  41  59  84 118 169 198 233 289 345
#
# _framework density 20.985928999999999
#
# number of rings (size 3 to 8) (size 9 to 14) (size 15 to 20)
#    0.750    1.250    1.250    2.250    1.750    1.500 
#    0.000    0.000    0.000    4.500    0.000    0.000 
#    0.000    0.000    0.000    0.000    0.000    0.000 
#
# Total GULP energy -89131.448535 kJ/mol
# GULP energy per Si atom -5570.715533 kJ/mol
# Density = 2.093816 g / cm^3
# Si number density = 20.985929 Si / 1000 Ang^3
#
#
#
# Elastic Constant Matrix: (Units=GPa)
#
#
# Indices 1 2 3 4 5 6 
#
# 1 55.8298 28.8000 11.3994 -5.2172 -9.1222 -18.0291
# 2 28.8000 48.4480 21.5963 -22.9915 11.7079 -4.9044
# 3 11.3994 21.5963 69.3009 -11.1561 -23.5237 1.1886
# 4 -5.2172 -22.9915 -11.1561 21.0484 1.0135 -12.1716
# 5 -9.1222 11.7079 -23.5237 1.0135 24.0585 2.1938
# 6 -18.0291 -4.9044 1.1886 -12.1716 2.1938 32.6880
#
#
#
# Elastic Compliance Matrix: (Units=1/GPa)
#
#
# Indices 1 2 3 4 5 6 
#
# 1 0.017677 0.028436 -0.012773 0.049972 -0.024900 0.034759
# 2 0.028436 -0.076182 0.037749 -0.079543 0.091112 -0.032852
# 3 -0.012773 0.037749 0.005679 0.053588 -0.021726 0.019824
# 4 0.049972 -0.079543 0.053588 -0.000254 0.109495 0.006236
# 5 -0.024900 0.091112 -0.021726 0.109495 -0.042113 0.044324
# 6 0.034759 -0.032852 0.019824 0.006236 0.044324 0.043461
#
#
# Mechanical properties :
#
#
# Convention : Reuss Voigt Hill
#
# Bulk Modulus (GPa) = 18.51913 33.01893 25.76903
# Shear Modulus (GPa) = -35.57244 23.01119 -6.28063
#
# Velocity S-wave (km/s) = -4.12158 3.31494 -1.73184
# Velocity P-wave (km/s) = 3.71567 5.51542 2.88215
#
# Compressibility (1/GPa) = 0.05399823
#
# Stress axis : x y z
#
# Youngs Moduli (GPa) = 56.57218 -13.12642 176.09287
#
# Poissons Ratio (x) = 0.37327 2.24924
# Poissons Ratio (y) = -1.60871 -6.64738
# Poissons Ratio (z) = 0.72260 0.49551
#
# Static dielectric constant tensor:
#      x y z
#    x 1.775050 -0.003670 0.020550 
#    y -0.003670 1.751980 0.028310 
#    z 0.020550 0.028310 1.836960 
# 
# From -- ./inp_files/101370.got.cif
#   From: 2010.05.17/outbox.cif.g08.bks.cpg/sg2_51_cif.got.tgz:101370.got - 2010.06.03 11:33:40.
