data_PCOD9089047
_publ_section_title
;
Structure prediction by ZEFSAII (Michael W. Deem and Ramdas Pophale) SiO2 
 PCOD9089047
Probable space group: P -1
;
_chemical_formula_sum "Si O2"
_cell_formula_units_Z 16
_cell_length_a 10.672059
_cell_length_b 14.075273
_cell_length_c 6.306244
_cell_angle_alpha 103.751929
_cell_angle_beta 91.398711
_cell_angle_gamma 130.823439
_cell_volume 675.124361
_symmetry_space_group_name_H-M "P -1"
_symmetry_group_IT_number 2
_symmetry_cell_setting 'triclinic'
loop_
_space_group_symop_operation_xyz
x,y,z
-x,-y,-z
loop_
_atom_site_type_symbol
_atom_site_label
_atom_site_fract_x
_atom_site_fract_y
_atom_site_fract_z
Si Si1 0.679557 0.835111 0.178755
Si Si2 0.174908 0.931856 0.397736
Si Si3 0.179159 0.632242 0.991344
Si Si4 0.154689 0.265111 0.999304
Si Si5 0.235127 0.758565 0.481492
Si Si6 0.350323 0.559358 0.135962
Si Si7 0.456187 0.084896 0.126385
Si Si8 0.049196 0.373451 0.321373
O O1 0.776835 0.807554 0.023141
O O2 0.541888 0.698523 0.236130
O O3 0.803725 0.958652 0.407908
O O4 0.588588 0.865752 0.039436
O O5 0.239240 0.877602 0.520783
O O6 0.989008 0.810088 0.229308
O O7 0.299593 0.001104 0.237969
O O8 0.274158 0.737235 0.241535
O O9 0.281650 0.585768 0.945794
O O10 0.000000 0.500000 0.000000
O O11 0.111953 0.679015 0.856435
O O12 0.305766 0.421995 0.029768
O O13 0.078962 0.274928 0.216229
O O14 0.378558 0.796143 0.666186
O O15 0.034116 0.635328 0.468563
O O16 0.222932 0.513236 0.309237
O O17 0.500000 0.000000 0.000000
#
# Coordination Sequence:
#
# PCOD9089047 Si02
#       8
#     2   2   2   2   2   2   2   2
#     4  12  25  44  70  97 137 182 222 284 330 394
#     4  12  25  44  69 102 130 177 230 278 336 404
#     4  10  19  37  64  97 132 167 216 275 331 394
#     4  10  23  46  67  94 140 179 227 274 332 400
#     4  12  22  40  71  99 138 172 220 285 341 395
#     4   9  21  40  68  94 132 172 220 270 333 397
#     4  12  27  42  69 100 140 176 219 282 346 395
#     4   9  21  39  66  99 133 177 220 270 337 402
#
# _framework density 23.699335999999999
#
# number of rings (size 3 to 8) (size 9 to 14) (size 15 to 20)
#    0.750    0.500    2.500    3.375    1.750    2.500 
#    2.250    6.250    0.000    4.500    0.000    0.000 
#    0.000    0.000    0.000    0.000    0.000    0.000 
#
# Total GULP energy -89216.453173 kJ/mol
# GULP energy per Si atom -5576.028323 kJ/mol
# Density = 2.364540 g / cm^3
# Si number density = 23.699336 Si / 1000 Ang^3
#
#
#
# Elastic Constant Matrix: (Units=GPa)
#
#
# Indices 1 2 3 4 5 6 
#
# 1 74.9500 14.7230 23.0863 -8.4997 -11.0518 -32.3197
# 2 14.7230 70.4626 10.9987 1.4444 -1.8801 1.4673
# 3 23.0863 10.9987 63.5482 10.1655 -1.9607 -3.2651
# 4 -8.4997 1.4444 10.1655 31.7959 6.1013 -8.6772
# 5 -11.0518 -1.8801 -1.9607 6.1013 26.4244 8.4111
# 6 -32.3197 1.4673 -3.2651 -8.6772 8.4111 38.2162
#
#
#
# Elastic Compliance Matrix: (Units=1/GPa)
#
#
# Indices 1 2 3 4 5 6 
#
# 1 0.038372 -0.007107 -0.015122 0.026635 -0.003934 0.038346
# 2 -0.007107 0.015965 0.000318 -0.005380 0.002062 -0.008271
# 3 -0.015122 0.000318 0.023143 -0.016475 0.004146 -0.015477
# 4 0.026635 -0.005380 -0.016475 0.057434 -0.015770 0.037835
# 5 -0.003934 0.002062 0.004146 -0.015770 0.045600 -0.016669
# 6 0.038346 -0.008271 -0.015477 0.037835 -0.016669 0.069851
#
#
# Mechanical properties :
#
#
# Convention : Reuss Voigt Hill
#
# Bulk Modulus (GPa) = 29.71069 34.06409 31.88739
# Shear Modulus (GPa) = 16.37177 29.96416 23.16797
#
# Velocity S-wave (km/s) = 2.63118 3.55962 3.13002
# Velocity P-wave (km/s) = 4.66846 5.59457 5.15236
#
# Compressibility (1/GPa) = 0.03365792
#
# Stress axis : x y z
#
# Youngs Moduli (GPa) = 26.06090 62.63784 43.21013
#
# Poissons Ratio (x) = 0.44515 0.65341
# Poissons Ratio (y) = 0.18521 -0.01373
# Poissons Ratio (z) = 0.39409 -0.01991
#
# Static dielectric constant tensor:
#      x y z
#    x 1.913250 0.018690 -0.018940 
#    y 0.018690 2.025420 -0.054530 
#    z -0.018940 -0.054530 1.954630 
# 
# From -- ./inp_files/78174.got.cif
#   From: 2010.05.17/outbox.cif.g08.bks.cpg/sg2_40_cif.got.tgz:78174.got - 2010.06.03 11:33:40.
