data_PCOD9089487
_publ_section_title
;
Structure prediction by ZEFSAII (Michael W. Deem and Ramdas Pophale) SiO2 
 PCOD9089487
Probable space group: P -1
;
_chemical_formula_sum "Si O2"
_cell_formula_units_Z 16
_cell_length_a 19.608745
_cell_length_b 13.185356
_cell_length_c 9.001763
_cell_angle_alpha 119.162832
_cell_angle_beta 112.298846
_cell_angle_gamma 22.051163
_cell_volume 744.282006
_symmetry_space_group_name_H-M "P -1"
_symmetry_group_IT_number 2
_symmetry_cell_setting 'triclinic'
loop_
_space_group_symop_operation_xyz
x,y,z
-x,-y,-z
loop_
_atom_site_type_symbol
_atom_site_label
_atom_site_fract_x
_atom_site_fract_y
_atom_site_fract_z
Si Si1 0.414353 0.442170 0.162552
Si Si2 0.426379 0.542470 0.694738
Si Si3 0.752147 0.335659 0.123509
Si Si4 0.656249 0.846439 0.433881
Si Si5 0.349074 0.953008 0.658701
Si Si6 0.099211 0.974553 0.516928
Si Si7 0.008536 0.641814 0.440059
Si Si8 0.026712 0.767991 0.799658
O O1 0.513427 0.418067 0.178096
O O2 0.560289 0.162234 0.187248
O O3 0.241452 0.730153 0.329276
O O4 0.333663 0.503026 0.990525
O O5 0.404460 0.483147 0.767285
O O6 0.566154 0.290641 0.506256
O O7 0.227314 0.831875 0.656618
O O8 0.877396 0.261714 0.229484
O O9 0.890637 0.027054 0.985526
O O10 0.792275 0.568024 0.247770
O O11 0.798484 0.684760 0.565963
O O12 0.500000 0.000000 0.500000
O O13 0.587680 0.042200 0.403503
O O14 0.127858 0.252891 0.672867
O O15 0.973605 0.267965 0.580486
O O16 0.000000 0.000000 0.500000
O O17 0.920370 0.829807 0.650620
#
# Coordination Sequence:
#
# PCOD9089487 Si02
#       8
#     2   2   2   2   2   2   2   2
#     4  11  21  36  56  88 123 147 193 239 291 348
#     4  11  21  34  60  90 120 146 196 234 291 355
#     4  11  20  37  58  86 119 161 180 237 296 348
#     4  10  22  37  59  89 110 149 201 243 286 341
#     4  11  20  38  60  87 116 152 187 249 291 331
#     4  11  20  33  57  90 120 148 187 249 291 331
#     4  10  19  38  57  85 117 144 190 238 291 339
#     4   9  21  35  57  83 117 147 196 233 284 352
#
# _framework density 21.497226999999999
#
# number of rings (size 3 to 8) (size 9 to 14) (size 15 to 20)
#    0.750    0.750    3.750    3.000    5.250    0.000 
#    0.000    0.625    0.000    2.250    0.000    0.000 
#    0.000    0.000    0.000    0.000    0.000    0.000 
#
# Total GULP energy -89158.794417 kJ/mol
# GULP energy per Si atom -5572.424651 kJ/mol
# Density = 2.144830 g / cm^3
# Si number density = 21.497227 Si / 1000 Ang^3
#
#
#
# Elastic Constant Matrix: (Units=GPa)
#
#
# Indices 1 2 3 4 5 6 
#
# 1 87.0755 13.5968 9.6883 -14.7114 -13.3574 -6.0633
# 2 13.5968 86.1215 20.8740 -25.6049 -2.5828 -1.3007
# 3 9.6883 20.8740 38.5290 -16.9230 -4.0967 -1.4847
# 4 -14.7114 -25.6049 -16.9230 30.8866 3.3090 2.2628
# 5 -13.3574 -2.5828 -4.0967 3.3090 26.9835 -3.0691
# 6 -6.0633 -1.3007 -1.4847 2.2628 -3.0691 35.9811
#
#
#
# Elastic Compliance Matrix: (Units=1/GPa)
#
#
# Indices 1 2 3 4 5 6 
#
# 1 0.013580 -0.000313 -0.000170 0.005259 0.006303 0.002477
# 2 -0.000313 0.015815 -0.003733 0.011008 -0.000601 -0.000379
# 3 -0.000170 -0.003733 0.035305 0.015802 0.003045 0.000559
# 4 0.005259 0.011008 0.015802 0.052833 -0.000586 -0.001436
# 5 0.006303 -0.000601 0.003045 -0.000586 0.041193 0.004717
# 6 0.002477 -0.000379 0.000559 -0.001436 0.004717 0.028712
#
#
# Mechanical properties :
#
#
# Convention : Reuss Voigt Hill
#
# Bulk Modulus (GPa) = 17.77155 33.33826 25.55490
# Shear Modulus (GPa) = 23.29645 29.94136 26.61891
#
# Velocity S-wave (km/s) = 3.29552 3.73607 3.52269
# Velocity P-wave (km/s) = 4.77132 5.84404 5.33471
#
# Compressibility (1/GPa) = 0.05626972
#
# Stress axis : x y z
#
# Youngs Moduli (GPa) = 73.63786 63.23204 28.32442
#
# Poissons Ratio (x) = 0.01978 0.00480
# Poissons Ratio (y) = 0.02304 0.10573
# Poissons Ratio (z) = 0.01249 0.23603
#
# Static dielectric constant tensor:
#      x y z
#    x 1.792750 0.009370 -0.005320 
#    y 0.009370 1.853780 -0.021820 
#    z -0.005320 -0.021820 1.781740 
# 
# From -- ./inp_files/333531.got.cif
#   From: 2010.05.17/outbox.cif.g08.bks.cpg/sg2_167_cif.got.tgz:333531.got - 2010.06.03 11:33:40.
