data_PCOD9089654
_publ_section_title
;
Structure prediction by ZEFSAII (Michael W. Deem and Ramdas Pophale) SiO2 
 PCOD9089654
Probable space group: P -1
;
_chemical_formula_sum "Si O2"
_cell_formula_units_Z 14
_cell_length_a 11.678816
_cell_length_b 7.944107
_cell_length_c 16.232790
_cell_angle_alpha 137.633674
_cell_angle_beta 140.034580
_cell_angle_gamma 70.686376
_cell_volume 546.909312
_symmetry_space_group_name_H-M "P -1"
_symmetry_group_IT_number 2
_symmetry_cell_setting 'triclinic'
loop_
_space_group_symop_operation_xyz
x,y,z
-x,-y,-z
loop_
_atom_site_type_symbol
_atom_site_label
_atom_site_fract_x
_atom_site_fract_y
_atom_site_fract_z
Si Si1 0.960708 0.694787 0.661655
Si Si2 0.597130 0.088709 0.787322
Si Si3 0.701219 0.397585 0.254598
Si Si4 0.825234 0.994413 0.457392
Si Si5 0.958866 0.615292 0.811342
Si Si6 0.410243 0.684813 0.384750
Si Si7 0.304322 0.327495 0.043290
O O1 0.162609 0.658623 0.755533
O O2 0.801504 0.447798 0.419038
O O3 0.873460 0.655061 0.691448
O O4 0.068654 0.038490 0.819111
O O5 0.395028 0.045967 0.710408
O O6 0.685508 0.401848 0.900862
O O7 0.516094 0.820663 0.580721
O O8 0.796218 0.122481 0.954710
O O9 0.752167 0.725887 0.381401
O O10 0.446367 0.215820 0.039736
O O11 0.944188 0.308764 0.679835
O O12 0.000000 0.000000 0.500000
O O13 0.831807 0.547651 0.801458
O O14 0.425408 0.478711 0.251152
O O15 0.500000 0.000000 0.500000
#
# Coordination Sequence:
#
# PCOD9089654 Si02
#       7
#     2   2   2   2   2   2   2
#     4  11  23  38  58  86 120 161 190 241 294 352
#     4   9  21  38  61  89 114 153 196 246 294 340
#     4  10  22  41  58  82 122 161 194 237 292 348
#     4  10  19  38  60  87 117 152 197 243 286 342
#     4  11  22  38  60  93 119 149 200 244 295 350
#     4   9  21  40  62  86 118 153 196 248 295 346
#     4  10  21  39  60  85 114 158 200 233 295 356
#
# _framework density 25.598395
#
# number of rings (size 3 to 8) (size 9 to 14) (size 15 to 20)
#    0.000    2.000    1.429    2.143    0.000    6.857 
#    2.571    1.429    0.000    0.000    0.000    0.000 
#    0.000    0.000    0.000    0.000    0.000    0.000 
#
# Total GULP energy -78064.012494 kJ/mol
# GULP energy per Si atom -5576.000892 kJ/mol
# Density = 2.554013 g / cm^3
# Si number density = 25.598395 Si / 1000 Ang^3
#
#
#
# Elastic Constant Matrix: (Units=GPa)
#
#
# Indices 1 2 3 4 5 6 
#
# 1 135.8056 17.2679 13.6090 -9.9711 22.4184 -1.4977
# 2 17.2679 43.9976 1.5515 12.8387 12.2433 4.1646
# 3 13.6090 1.5515 61.5795 2.4561 23.3798 5.4269
# 4 -9.9711 12.8387 2.4561 28.7038 -4.1832 -2.2124
# 5 22.4184 12.2433 23.3798 -4.1832 26.8683 11.2859
# 6 -1.4977 4.1646 5.4269 -2.2124 11.2859 30.9041
#
#
#
# Elastic Compliance Matrix: (Units=1/GPa)
#
#
# Indices 1 2 3 4 5 6 
#
# 1 0.009306 -0.002840 0.000595 0.003577 -0.008086 0.003938
# 2 -0.002840 0.038309 0.011687 -0.023302 -0.029643 0.001805
# 3 0.000595 0.011687 0.029307 -0.012287 -0.035503 0.005393
# 4 0.003577 -0.023302 -0.012287 0.051383 0.026556 -0.000548
# 5 -0.008086 -0.029643 -0.035503 0.026556 0.103437 -0.026036
# 6 0.003938 0.001805 0.005393 -0.000548 -0.026036 0.040828
#
#
# Mechanical properties :
#
#
# Convention : Reuss Voigt Hill
#
# Bulk Modulus (GPa) = 10.43768 34.02660 22.23214
# Shear Modulus (GPa) = 17.50581 31.22552 24.36566
#
# Velocity S-wave (km/s) = 2.61792 3.49639 3.08854
# Velocity P-wave (km/s) = 3.63652 5.44251 4.62846
#
# Compressibility (1/GPa) = 0.09580672
#
# Stress axis : x y z
#
# Youngs Moduli (GPa) = 107.46066 26.10380 34.12128
#
# Poissons Ratio (x) = 0.07413 -0.02031
# Poissons Ratio (y) = 0.30517 -0.39878
# Poissons Ratio (z) = -0.06395 -0.30508
#
# Static dielectric constant tensor:
#      x y z
#    x 2.168410 0.046460 0.110610 
#    y 0.046460 2.066060 -0.018170 
#    z 0.110610 -0.018170 2.088340 
# 
# From -- ./inp_files/51317.got.cif
#   From: 2010.05.17/outbox.cif.g08.bks.cpg/sg2_26_cif.got.tgz:51317.got - 2010.06.03 11:33:40.
