data_PCOD9089857
_publ_section_title
;
Structure prediction by ZEFSAII (Michael W. Deem and Ramdas Pophale) SiO2 
 PCOD9089857
Probable space group: P -1
;
_chemical_formula_sum "Si O2"
_cell_formula_units_Z 16
_cell_length_a 7.405517
_cell_length_b 10.163163
_cell_length_c 8.617529
_cell_angle_alpha 96.155695
_cell_angle_beta 72.989154
_cell_angle_gamma 105.668759
_cell_volume 596.881147
_symmetry_space_group_name_H-M "P -1"
_symmetry_group_IT_number 2
_symmetry_cell_setting 'triclinic'
loop_
_space_group_symop_operation_xyz
x,y,z
-x,-y,-z
loop_
_atom_site_type_symbol
_atom_site_label
_atom_site_fract_x
_atom_site_fract_y
_atom_site_fract_z
Si Si1 0.383123 0.182429 0.168469
Si Si2 0.258705 0.794288 0.493021
Si Si3 0.324180 0.458299 0.253521
Si Si4 0.894640 0.386475 0.208141
Si Si5 0.955666 0.839646 0.958805
Si Si6 0.135371 0.352821 0.608719
Si Si7 0.454035 0.236416 0.829618
Si Si8 0.223540 0.070694 0.501548
O O1 0.449702 0.345658 0.196224
O O2 0.152563 0.168023 0.182600
O O3 0.366328 0.096608 0.317390
O O4 0.480311 0.161297 0.977522
O O5 0.234744 0.694053 0.630213
O O6 0.451209 0.817684 0.345834
O O7 0.083858 0.718241 0.409051
O O8 0.256630 0.943790 0.574207
O O9 0.247417 0.442508 0.447460
O O10 0.445782 0.603212 0.183716
O O11 0.125489 0.425775 0.199133
O O12 0.857065 0.538320 0.240068
O O13 0.893666 0.256142 0.078221
O O14 0.775329 0.779410 0.108734
O O15 0.000000 0.000000 0.000000
O O16 0.225384 0.222020 0.577381
O O17 0.000000 0.000000 0.500000
#
# Coordination Sequence:
#
# PCOD9089857 Si02
#       8
#     2   2   2   2   2   2   2   2
#     4   8  18  26  44  65  98 122 142 189 229 270
#     4  10  17  27  47  74 100 123 147 177 235 295
#     4   9  13  25  42  71  93 118 136 184 241 274
#     4  10  16  28  50  68  94 124 150 189 228 272
#     4   9  20  32  43  64  94 125 159 195 232 260
#     4   9  15  25  44  69 100 118 148 182 222 285
#     4  10  17  26  46  67 100 119 149 189 236 269
#     4   9  17  28  42  70 103 126 145 172 233 298
#
# _framework density 26.806004000000001
#
# number of rings (size 3 to 8) (size 9 to 14) (size 15 to 20)
#    0.750    2.000    2.500    3.375    0.000    0.500 
#    0.000    0.625    0.000    0.000    0.000    8.750 
#    0.000    3.750    0.000    0.000    0.000    0.000 
#
# Total GULP energy -89177.986502 kJ/mol
# GULP energy per Si atom -5573.624156 kJ/mol
# Density = 2.674499 g / cm^3
# Si number density = 26.806004 Si / 1000 Ang^3
#
#
#
# Elastic Constant Matrix: (Units=GPa)
#
#
# Indices 1 2 3 4 5 6 
#
# 1 51.8428 33.3800 22.2130 -3.9780 -0.0437 -4.3498
# 2 33.3800 223.0391 55.5923 -0.2026 -9.3717 -16.6578
# 3 22.2130 55.5923 123.4397 -4.8696 -27.6728 -9.6619
# 4 -3.9780 -0.2026 -4.8696 47.4447 -8.4773 -3.5097
# 5 -0.0437 -9.3717 -27.6728 -8.4773 22.5112 -1.3784
# 6 -4.3498 -16.6578 -9.6619 -3.5097 -1.3784 36.2783
#
#
#
# Elastic Compliance Matrix: (Units=1/GPa)
#
#
# Indices 1 2 3 4 5 6 
#
# 1 0.022837 -0.002591 -0.004291 0.000379 -0.006153 0.000209
# 2 -0.002591 0.005463 -0.001886 -0.000273 -0.000049 0.001668
# 3 -0.004291 -0.001886 0.014457 0.004782 0.019004 0.003655
# 4 0.000379 -0.000273 0.004782 0.024640 0.015299 0.004159
# 5 -0.006153 -0.000049 0.019004 0.015299 0.074038 0.008594
# 6 0.000209 0.001668 0.003655 0.004159 0.008594 0.030058
#
#
# Mechanical properties :
#
#
# Convention : Reuss Voigt Hill
#
# Bulk Modulus (GPa) = 39.64573 68.96578 54.30575
# Shear Modulus (GPa) = 25.32462 40.38927 32.85694
#
# Velocity S-wave (km/s) = 3.07699 3.88587 3.50484
# Velocity P-wave (km/s) = 5.23888 6.77620 6.05651
#
# Compressibility (1/GPa) = 0.02522340
#
# Stress axis : x y z
#
# Youngs Moduli (GPa) = 43.78810 183.03358 69.16885
#
# Poissons Ratio (x) = 0.47423 0.29680
# Poissons Ratio (y) = 0.11345 0.13042
# Poissons Ratio (z) = 0.18789 0.34511
#
# Static dielectric constant tensor:
#      x y z
#    x 2.226470 0.070130 0.049280 
#    y 0.070130 2.144160 0.123260 
#    z 0.049280 0.123260 2.123250 
# 
# From -- ./inp_files/530663.got.cif
#   From: 2010.05.17/outbox.cif.g08.bks.cpg/sg2_266_cif.got.tgz:530663.got - 2010.06.03 11:33:40.
