data_PCOD9089172
_publ_section_title
;
Structure prediction by ZEFSAII (Michael W. Deem and Ramdas Pophale) SiO2 
 PCOD9089172
Probable space group: P -1
;
_chemical_formula_sum "Si O2"
_cell_formula_units_Z 12
_cell_length_a 7.772395
_cell_length_b 10.872736
_cell_length_c 9.310446
_cell_angle_alpha 113.523025
_cell_angle_beta 111.191451
_cell_angle_gamma 55.594506
_cell_volume 585.518877
_symmetry_space_group_name_H-M "P -1"
_symmetry_group_IT_number 2
_symmetry_cell_setting 'triclinic'
loop_
_space_group_symop_operation_xyz
x,y,z
-x,-y,-z
loop_
_atom_site_type_symbol
_atom_site_label
_atom_site_fract_x
_atom_site_fract_y
_atom_site_fract_z
Si Si1 0.432866 0.408414 0.216877
Si Si2 0.935581 0.156443 0.469087
Si Si3 0.451351 0.354831 0.506828
Si Si4 0.862538 0.159507 0.115813
Si Si5 0.135603 0.369348 0.604337
Si Si6 0.750373 0.453173 0.047448
O O1 0.344209 0.390902 0.334440
O O2 0.563794 0.497294 0.344167
O O3 0.606008 0.248247 0.118206
O O4 0.242569 0.514141 0.102906
O O5 0.047345 0.258912 0.575628
O O6 0.694143 0.257839 0.493486
O O7 0.953841 0.134302 0.292378
O O8 0.000000 0.000000 0.500000
O O9 0.358641 0.274913 0.542809
O O10 0.876068 0.284747 0.075590
O O11 0.000000 0.000000 0.000000
O O12 0.188441 0.443189 0.789446
O O13 0.000000 0.500000 0.500000
O O14 0.500000 0.500000 0.000000
#
# Coordination Sequence:
#
# PCOD9089172 Si02
#       6
#     2   2   2   2   2   2
#     4   9  18  36  62  96 124 175 215 266 331 382
#     4  11  26  42  64 102 134 176 223 275 343 396
#     4  10  20  41  66  92 137 169 217 285 319 389
#     4  10  20  37  60  92 135 169 210 272 333 386
#     4  12  21  42  71  97 129 179 229 269 330 404
#     4  10  19  37  66 101 126 173 228 268 325 398
#
# _framework density 20.494644000000001
#
# number of rings (size 3 to 8) (size 9 to 14) (size 15 to 20)
#    0.000    1.667    5.000    2.000    2.333    0.667 
#    0.000    5.000    0.000    7.000    0.000    0.000 
#    0.000    0.000    0.000    0.000    0.000    0.000 
#
# Total GULP energy -66818.343952 kJ/mol
# GULP energy per Si atom -5568.195329 kJ/mol
# Density = 2.044800 g / cm^3
# Si number density = 20.494644 Si / 1000 Ang^3
#
#
#
# Elastic Constant Matrix: (Units=GPa)
#
#
# Indices 1 2 3 4 5 6 
#
# 1 104.1183 55.7616 57.3474 3.6446 -7.2749 14.2071
# 2 55.7616 143.4288 83.9050 0.9056 -10.7030 22.6032
# 3 57.3474 83.9050 160.9595 -7.7417 -8.8320 14.9444
# 4 3.6446 0.9056 -7.7417 32.9730 -0.2897 -15.5087
# 5 -7.2749 -10.7030 -8.8320 -0.2897 27.5609 5.3135
# 6 14.2071 22.6032 14.9444 -15.5087 5.3135 28.2220
#
#
#
# Elastic Compliance Matrix: (Units=1/GPa)
#
#
# Indices 1 2 3 4 5 6 
#
# 1 0.013957 -0.002052 -0.003320 -0.005697 0.003181 -0.007355
# 2 -0.002052 0.012834 -0.004970 -0.006467 0.004920 -0.011094
# 3 -0.003320 -0.004970 0.009931 0.004082 -0.000092 0.002654
# 4 -0.005697 -0.006467 0.004082 0.047953 -0.008735 0.033882
# 5 0.003181 0.004920 -0.000092 -0.008735 0.042437 -0.018283
# 6 -0.007355 -0.011094 0.002654 0.033882 -0.018283 0.068677
#
#
# Mechanical properties :
#
#
# Convention : Reuss Voigt Hill
#
# Bulk Modulus (GPa) = 62.34818 89.17050 75.75934
# Shear Modulus (GPa) = 22.54095 31.85068 27.19582
#
# Velocity S-wave (km/s) = 3.31999 3.94648 3.64671
# Velocity P-wave (km/s) = 6.72192 8.02309 7.40115
#
# Compressibility (1/GPa) = 0.01603896
#
# Stress axis : x y z
#
# Youngs Moduli (GPa) = 71.64849 77.92104 100.69363
#
# Poissons Ratio (x) = 0.15987 0.33428
# Poissons Ratio (y) = 0.14700 0.50043
# Poissons Ratio (z) = 0.23786 0.38726
#
# Static dielectric constant tensor:
#      x y z
#    x 1.867120 0.064620 0.047040 
#    y 0.064620 1.947060 0.063230 
#    z 0.047040 0.063230 1.895760 
# 
# From -- ./inp_files/172434.got.cif
#   From: 2010.05.17/outbox.cif.g08.bks.cpg/sg2_87_cif.got.tgz:172434.got - 2010.06.03 11:33:40.
