data_PCOD9089063
_publ_section_title
;
Structure prediction by ZEFSAII (Michael W. Deem and Ramdas Pophale) SiO2 
 PCOD9089063
Probable space group: P -1
;
_chemical_formula_sum "Si O2"
_cell_formula_units_Z 16
_cell_length_a 8.338631
_cell_length_b 19.591380
_cell_length_c 11.173078
_cell_angle_alpha 128.157816
_cell_angle_beta 63.083936
_cell_angle_gamma 147.796128
_cell_volume 754.115749
_symmetry_space_group_name_H-M "P -1"
_symmetry_group_IT_number 2
_symmetry_cell_setting 'triclinic'
loop_
_space_group_symop_operation_xyz
x,y,z
-x,-y,-z
loop_
_atom_site_type_symbol
_atom_site_label
_atom_site_fract_x
_atom_site_fract_y
_atom_site_fract_z
Si Si1 0.217386 0.667651 0.605166
Si Si2 0.626704 0.726070 0.358453
Si Si3 0.994009 0.601909 0.114655
Si Si4 0.837858 0.667141 0.597496
Si Si5 0.849925 0.110200 0.481709
Si Si6 0.679572 0.684271 0.911617
Si Si7 0.052878 0.372705 0.116198
Si Si8 0.363090 0.159417 0.759508
O O1 0.514044 0.745520 0.524741
O O2 0.000000 0.500000 0.500000
O O3 0.051907 0.674215 0.584781
O O4 0.207079 0.698697 0.778586
O O5 0.352188 0.551000 0.232072
O O6 0.681072 0.807372 0.313704
O O7 0.933320 0.798263 0.375815
O O8 0.287412 0.738374 0.240860
O O9 0.661760 0.489601 0.158345
O O10 0.000000 0.500000 0.000000
O O11 0.024250 0.646841 0.017626
O O12 0.500000 0.500000 0.500000
O O13 0.803041 0.720716 0.776714
O O14 0.991377 0.772528 0.547770
O O15 0.500000 0.000000 0.500000
O O16 0.839670 0.004248 0.336639
O O17 0.863264 0.692886 0.948604
O O18 0.678642 0.782327 0.063484
#
# Coordination Sequence:
#
# PCOD9089063 Si02
#       8
#     2   2   2   2   2   2   2   2
#     4   9  20  36  63  95 130 166 213 274 330 384
#     4  11  22  41  64  94 134 181 224 276 334 399
#     4  10  20  35  61  98 132 171 217 274 324 394
#     4  11  24  43  70 100 132 174 228 280 328 398
#     4  12  28  45  67  97 135 181 222 281 342 401
#     4  10  22  38  64  96 132 175 220 275 331 393
#     4  10  19  37  65 102 131 170 226 279 333 386
#     4  11  25  40  63  96 138 180 222 271 342 405
#
# _framework density 21.216902000000001
#
# number of rings (size 3 to 8) (size 9 to 14) (size 15 to 20)
#    0.000    1.500    2.500    3.750    5.250    3.500 
#    0.000    0.000    0.000    3.750    0.000    0.000 
#    0.000    0.000    0.000    0.000    0.000    0.000 
#
# Total GULP energy -89418.386454 kJ/mol
# GULP energy per Si atom -5588.649153 kJ/mol
# Density = 2.116861 g / cm^3
# Si number density = 21.216902 Si / 1000 Ang^3
#
#
#
# Elastic Constant Matrix: (Units=GPa)
#
#
# Indices 1 2 3 4 5 6 
#
# 1 102.3364 56.1989 48.1224 -16.6485 20.8344 -6.7805
# 2 56.1989 102.4224 46.7341 -6.4137 10.8041 -12.1663
# 3 48.1224 46.7341 77.8384 -3.0709 -7.9312 -12.2177
# 4 -16.6485 -6.4137 -3.0709 27.2943 -7.0794 -6.7383
# 5 20.8344 10.8041 -7.9312 -7.0794 40.8289 -0.7804
# 6 -6.7805 -12.1663 -12.2177 -6.7383 -0.7804 36.8715
#
#
#
# Elastic Compliance Matrix: (Units=1/GPa)
#
#
# Indices 1 2 3 4 5 6 
#
# 1 0.020790 -0.005083 -0.010540 0.007673 -0.009984 -0.000156
# 2 -0.005083 0.016043 -0.006470 -0.000298 -0.002920 0.002099
# 3 -0.010540 -0.006470 0.025097 -0.000979 0.011878 0.004315
# 4 0.007673 -0.000298 -0.000979 0.044403 0.003848 0.009184
# 5 -0.009984 -0.002920 0.011878 0.003848 0.033383 0.002546
# 6 -0.000156 0.002099 0.004315 0.009184 0.002546 0.030947
#
#
# Mechanical properties :
#
#
# Convention : Reuss Voigt Hill
#
# Bulk Modulus (GPa) = 56.35602 64.96755 60.66178
# Shear Modulus (GPa) = 22.64858 29.76840 26.20849
#
# Velocity S-wave (km/s) = 3.27077 3.74980 3.51845
# Velocity P-wave (km/s) = 6.39402 7.03101 6.72007
#
# Compressibility (1/GPa) = 0.01774433
#
# Stress axis : x y z
#
# Youngs Moduli (GPa) = 48.10009 62.33180 39.84544
#
# Poissons Ratio (x) = 0.31682 0.41999
# Poissons Ratio (y) = 0.24448 0.25779
# Poissons Ratio (z) = 0.50699 0.40327
#
# Static dielectric constant tensor:
#      x y z
#    x 1.764810 0.040290 -0.014680 
#    y 0.040290 1.757100 0.007750 
#    z -0.014680 0.007750 1.822650 
# 
# From -- ./inp_files/404854.got.cif
#   From: 2010.05.17/outbox.cif.g08.bks.cpg/sg2_203_cif.got.tgz:404854.got - 2010.06.03 11:33:40.
