data_PCOD9089007
_publ_section_title
;
Structure prediction by ZEFSAII (Michael W. Deem and Ramdas Pophale) SiO2 
 PCOD9089007
Probable space group: P -1
;
_chemical_formula_sum "Si O2"
_cell_formula_units_Z 12
_cell_length_a 12.280912
_cell_length_b 8.867734
_cell_length_c 10.058097
_cell_angle_alpha 125.544165
_cell_angle_beta 127.513437
_cell_angle_gamma 35.323961
_cell_volume 493.772592
_symmetry_space_group_name_H-M "P -1"
_symmetry_group_IT_number 2
_symmetry_cell_setting 'triclinic'
loop_
_space_group_symop_operation_xyz
x,y,z
-x,-y,-z
loop_
_atom_site_type_symbol
_atom_site_label
_atom_site_fract_x
_atom_site_fract_y
_atom_site_fract_z
Si Si1 0.120849 0.457798 0.187875
Si Si2 0.258562 0.719679 0.929339
Si Si3 0.719709 0.985382 0.718228
Si Si4 0.493494 0.853124 0.801445
Si Si5 0.146563 0.976338 0.686339
Si Si6 0.303215 0.278523 0.647400
O O1 0.216263 0.200014 0.204702
O O2 0.294233 0.411879 0.230793
O O3 0.953904 0.731014 0.276324
O O4 0.000000 0.500000 0.000000
O O5 0.165399 0.903364 0.819646
O O6 0.208672 0.549846 0.787335
O O7 0.500000 0.500000 0.000000
O O8 0.211488 0.876744 0.112557
O O9 0.795980 0.783316 0.550411
O O10 0.479365 0.202469 0.648777
O O11 0.370182 0.791477 0.715226
O O12 0.397508 0.061885 0.719210
O O13 0.500000 0.000000 0.000000
O O14 0.000000 0.000000 0.500000
#
# Coordination Sequence:
#
# PCOD9089007 Si02
#       6
#     2   2   2   2   2   2
#     4  11  20  39  67  94 128 173 219 266 328 393
#     4  10  19  37  64  92 127 177 213 267 338 390
#     4   9  17  34  60  90 126 168 211 265 329 386
#     4  11  22  42  70  96 128 180 220 267 335 400
#     4  12  25  42  68 101 134 169 225 281 328 393
#     4   9  19  35  62  92 122 168 217 264 326 391
#
# _framework density 24.302683999999999
#
# number of rings (size 3 to 8) (size 9 to 14) (size 15 to 20)
#    0.000    1.667    3.333    3.000    0.000    2.000 
#    0.000    5.000    0.000    8.000    0.000    0.000 
#    0.000    0.000    0.000    0.000    0.000    0.000 
#
# Total GULP energy -66817.124769 kJ/mol
# GULP energy per Si atom -5568.093731 kJ/mol
# Density = 2.424737 g / cm^3
# Si number density = 24.302684 Si / 1000 Ang^3
#
#
#
# Elastic Constant Matrix: (Units=GPa)
#
#
# Indices 1 2 3 4 5 6 
#
# 1 50.4139 8.1076 32.4707 -17.2244 10.5961 -10.9173
# 2 8.1076 55.8075 21.6421 2.1263 10.7344 -2.8073
# 3 32.4707 21.6421 200.7571 4.1383 30.2734 6.6030
# 4 -17.2244 2.1263 4.1383 41.1118 2.0766 4.3111
# 5 10.5961 10.7344 30.2734 2.0766 29.5876 -1.7520
# 6 -10.9173 -2.8073 6.6030 4.3111 -1.7520 27.1252
#
#
#
# Elastic Compliance Matrix: (Units=1/GPa)
#
#
# Indices 1 2 3 4 5 6 
#
# 1 0.031023 -0.001487 -0.004555 0.012687 -0.006148 0.011028
# 2 -0.001487 0.019718 -0.001111 -0.001431 -0.005290 0.001598
# 3 -0.004555 -0.001111 0.006741 -0.001901 -0.004943 -0.003606
# 4 0.012687 -0.001431 -0.001901 0.030076 -0.004168 0.000372
# 5 -0.006148 -0.005290 -0.004943 -0.004168 0.043366 0.001645
# 6 0.011028 0.001598 -0.003606 0.000372 0.001645 0.042395
#
#
# Mechanical properties :
#
#
# Convention : Reuss Voigt Hill
#
# Bulk Modulus (GPa) = 23.15992 47.93548 35.54770
# Shear Modulus (GPa) = 24.75047 35.88211 30.31629
#
# Velocity S-wave (km/s) = 3.19474 3.84665 3.53575
# Velocity P-wave (km/s) = 4.81237 6.28460 5.59710
#
# Compressibility (1/GPa) = 0.04317804
#
# Stress axis : x y z
#
# Youngs Moduli (GPa) = 32.23364 50.71559 148.35223
#
# Poissons Ratio (x) = 0.07541 0.67569
# Poissons Ratio (y) = 0.04793 0.16475
# Poissons Ratio (z) = 0.14681 0.05632
#
# Static dielectric constant tensor:
#      x y z
#    x 2.034180 -0.027750 0.072080 
#    y -0.027750 1.887000 0.078400 
#    z 0.072080 0.078400 2.055270 
# 
# From -- ./inp_files/210969.got.cif
#   From: 2010.05.17/outbox.cif.g08.bks.cpg/sg2_106_cif.got.tgz:210969.got - 2010.06.03 11:33:40.
