data_PCOD9089686
_publ_section_title
;
Structure prediction by ZEFSAII (Michael W. Deem and Ramdas Pophale) SiO2 
 PCOD9089686
Probable space group: P -1
;
_chemical_formula_sum "Si O2"
_cell_formula_units_Z 14
_cell_length_a 15.119733
_cell_length_b 12.583625
_cell_length_c 8.624770
_cell_angle_alpha 129.515461
_cell_angle_beta 42.448190
_cell_angle_gamma 152.493840
_cell_volume 510.629878
_symmetry_space_group_name_H-M "P -1"
_symmetry_group_IT_number 2
_symmetry_cell_setting 'triclinic'
loop_
_space_group_symop_operation_xyz
x,y,z
-x,-y,-z
loop_
_atom_site_type_symbol
_atom_site_label
_atom_site_fract_x
_atom_site_fract_y
_atom_site_fract_z
Si Si1 0.815197 0.011129 0.620365
Si Si2 0.265374 0.366881 0.567118
Si Si3 0.084898 0.339967 0.300175
Si Si4 0.525190 0.174922 0.563117
Si Si5 0.359789 0.309684 0.870319
Si Si6 0.303583 0.840755 0.936576
Si Si7 0.096716 0.464315 0.070157
O O1 0.048934 0.204832 0.589455
O O2 0.885716 0.132417 0.477324
O O3 0.741553 0.792793 0.508520
O O4 0.646753 0.961662 0.893442
O O5 0.524820 0.440276 0.634078
O O6 0.236033 0.452503 0.818933
O O7 0.267671 0.575813 0.388155
O O8 0.046824 0.402062 0.256463
O O9 0.168594 0.260106 0.057534
O O10 0.332620 0.126582 0.786501
O O11 0.559795 0.162737 0.327465
O O12 0.500000 0.000000 0.500000
O O13 0.500000 0.500000 0.000000
O O14 0.114573 0.702899 0.923507
O O15 0.221555 0.706420 0.079042
#
# Coordination Sequence:
#
# PCOD9089686 Si02
#       7
#     2   2   2   2   2   2   2
#     4  10  21  35  64  92 119 160 209 253 301 366
#     4  10  19  38  60  90 121 165 203 244 310 368
#     4  11  23  40  62  95 124 161 209 261 303 360
#     4  11  23  40  64  92 124 168 208 247 312 372
#     4  10  20  38  63  88 123 162 204 252 305 365
#     4  10  21  40  63  88 124 165 204 253 315 371
#     4  10  21  39  65  88 124 161 205 261 311 359
#
# _framework density 27.417119
#
# number of rings (size 3 to 8) (size 9 to 14) (size 15 to 20)
#    0.000    1.714    4.286    1.714    4.000    4.571 
#    0.000    2.143    0.000    0.000    0.000    0.000 
#    0.000    0.000    0.000    0.000    0.000    0.000 
#
# Total GULP energy -78392.189566 kJ/mol
# GULP energy per Si atom -5599.442112 kJ/mol
# Density = 2.735472 g / cm^3
# Si number density = 27.417119 Si / 1000 Ang^3
#
#
#
# Elastic Constant Matrix: (Units=GPa)
#
#
# Indices 1 2 3 4 5 6 
#
# 1 170.7032 45.7692 63.8539 4.7699 2.7130 -10.3117
# 2 45.7692 88.4846 49.6165 22.4090 -8.2904 -28.9447
# 3 63.8539 49.6165 211.9078 22.9787 -39.4928 -26.3102
# 4 4.7699 22.4090 22.9787 42.6126 -14.2338 -5.2225
# 5 2.7130 -8.2904 -39.4928 -14.2338 50.5624 -5.5103
# 6 -10.3117 -28.9447 -26.3102 -5.2225 -5.5103 59.3606
#
#
#
# Elastic Compliance Matrix: (Units=1/GPa)
#
#
# Indices 1 2 3 4 5 6 
#
# 1 0.007616 -0.003792 -0.002233 0.001278 -0.002594 -0.001644
# 2 -0.003792 0.018243 -0.001285 -0.007301 0.000911 0.007110
# 3 -0.002233 -0.001285 0.007131 -0.000747 0.005551 0.002596
# 4 0.001278 -0.007301 -0.000747 0.029665 0.006452 -0.000460
# 5 -0.002594 0.000911 0.005551 0.006452 0.026819 0.005511
# 6 -0.001644 0.007110 0.002596 -0.000460 0.005511 0.021649
#
#
# Mechanical properties :
#
#
# Convention : Reuss Voigt Hill
#
# Bulk Modulus (GPa) = 54.43574 87.73054 71.08314
# Shear Modulus (GPa) = 37.91721 51.29751 44.60736
#
# Velocity S-wave (km/s) = 3.72287 4.33020 4.03797
# Velocity P-wave (km/s) = 6.19495 7.55439 6.90819
#
# Compressibility (1/GPa) = 0.01837028
#
# Stress axis : x y z
#
# Youngs Moduli (GPa) = 131.29515 54.81536 140.23808
#
# Poissons Ratio (x) = 0.20785 0.31321
# Poissons Ratio (y) = 0.49784 0.18017
# Poissons Ratio (z) = 0.29324 0.07043
#
# Static dielectric constant tensor:
#      x y z
#    x 2.171610 0.035390 -0.009980 
#    y 0.035390 2.206940 -0.069760 
#    z -0.009980 -0.069760 2.116300 
# 
# From -- ./inp_files/308471.got.cif
#   From: 2010.05.17/outbox.cif.g08.bks.cpg/sg2_155_cif.got.tgz:308471.got - 2010.06.03 11:33:40.
