data_PCOD9089570
_publ_section_title
;
Structure prediction by ZEFSAII (Michael W. Deem and Ramdas Pophale) SiO2 
 PCOD9089570
Probable space group: P -1
;
_chemical_formula_sum "Si O2"
_cell_formula_units_Z 16
_cell_length_a 8.700516
_cell_length_b 10.340476
_cell_length_c 11.763069
_cell_angle_alpha 98.732609
_cell_angle_beta 123.236776
_cell_angle_gamma 59.926943
_cell_volume 754.904601
_symmetry_space_group_name_H-M "P -1"
_symmetry_group_IT_number 2
_symmetry_cell_setting 'triclinic'
loop_
_space_group_symop_operation_xyz
x,y,z
-x,-y,-z
loop_
_atom_site_type_symbol
_atom_site_label
_atom_site_fract_x
_atom_site_fract_y
_atom_site_fract_z
Si Si1 0.992144 0.301789 0.070172
Si Si2 0.424742 0.539780 0.346681
Si Si3 0.534706 0.093989 0.756860
Si Si4 0.895970 0.139732 0.817730
Si Si5 0.758725 0.623708 0.441619
Si Si6 0.657407 0.853342 0.628630
Si Si7 0.368854 0.912830 0.949219
Si Si8 0.679115 0.623996 0.903806
O O1 0.102582 0.231522 0.226388
O O2 0.154029 0.322566 0.054957
O O3 0.939843 0.187872 0.965971
O O4 0.790833 0.472704 0.008015
O O5 0.500000 0.500000 0.500000
O O6 0.213953 0.704427 0.276513
O O7 0.606851 0.553924 0.355125
O O8 0.379727 0.424056 0.245122
O O9 0.719774 0.089703 0.750556
O O10 0.311954 0.238609 0.655876
O O11 0.536053 0.939270 0.708355
O O12 0.602253 0.116806 0.909435
O O13 0.118912 0.017511 0.838939
O O14 0.689966 0.711542 0.547278
O O15 0.000000 0.500000 0.500000
O O16 0.500000 0.000000 0.500000
O O17 0.480319 0.759672 0.903216
O O18 0.500000 0.000000 0.000000
#
# Coordination Sequence:
#
# PCOD9089570 Si02
#       8
#     2   2   2   2   2   2   2   2
#     4  10  19  38  59  87 120 160 197 240 308 359
#     4  10  22  42  62  83 118 162 200 239 301 366
#     4  10  22  39  59  86 123 161 193 245 302 356
#     4  10  21  39  60  88 119 161 198 240 302 361
#     4  10  23  39  58  89 119 154 207 248 293 347
#     4  10  20  36  59  83 118 163 197 235 300 361
#     4  12  22  36  59  93 120 148 204 249 294 350
#     4  10  22  36  61  91 118 153 200 252 300 353
#
# _framework density 21.194731999999998
#
# number of rings (size 3 to 8) (size 9 to 14) (size 15 to 20)
#    0.000    1.750    2.500    1.125    1.750    2.000 
#    0.000    2.500    0.000    0.000    0.000    0.000 
#    0.000    0.000    0.000    0.000    0.000    0.000 
#
# Total GULP energy -89068.059988 kJ/mol
# GULP energy per Si atom -5566.753749 kJ/mol
# Density = 2.114649 g / cm^3
# Si number density = 21.194732 Si / 1000 Ang^3
#
#
#
# Elastic Constant Matrix: (Units=GPa)
#
#
# Indices 1 2 3 4 5 6 
#
# 1 46.5087 45.7745 9.9580 -5.0806 14.1864 -14.4307
# 2 45.7745 165.0399 54.0182 -23.6063 8.2552 -32.4615
# 3 9.9580 54.0182 134.3862 -13.3159 2.7865 -7.0833
# 4 -5.0806 -23.6063 -13.3159 34.1947 -3.9363 13.0565
# 5 14.1864 8.2552 2.7865 -3.9363 26.0781 -4.1403
# 6 -14.4307 -32.4615 -7.0833 13.0565 -4.1403 31.4983
#
#
#
# Elastic Compliance Matrix: (Units=1/GPa)
#
#
# Indices 1 2 3 4 5 6 
#
# 1 0.037245 -0.009035 0.001123 -0.005263 -0.017054 0.007945
# 2 -0.009035 0.011016 -0.003209 0.003253 0.003144 0.005557
# 3 0.001123 -0.003209 0.008762 0.001954 -0.000506 -0.001698
# 4 -0.005263 0.003253 0.001954 0.037154 0.005113 -0.013348
# 5 -0.017054 0.003144 -0.000506 0.005113 0.047362 -0.000581
# 6 0.007945 0.005557 -0.001698 -0.013348 -0.000581 0.046189
#
#
# Mechanical properties :
#
#
# Convention : Reuss Voigt Hill
#
# Bulk Modulus (GPa) = 28.74984 62.82627 45.78806
# Shear Modulus (GPa) = 22.56671 34.09982 28.33327
#
# Velocity S-wave (km/s) = 3.26656 4.01544 3.66020
# Velocity P-wave (km/s) = 5.27459 7.15577 6.28595
#
# Compressibility (1/GPa) = 0.03478280
#
# Stress axis : x y z
#
# Youngs Moduli (GPa) = 26.84903 90.77548 114.12423
#
# Poissons Ratio (x) = 0.82012 -0.12812
# Poissons Ratio (y) = 0.24257 0.36617
# Poissons Ratio (z) = -0.03014 0.29126
#
# Static dielectric constant tensor:
#      x y z
#    x 1.848430 0.037000 -0.051980 
#    y 0.037000 1.832790 -0.024040 
#    z -0.051980 -0.024040 1.829610 
# 
# From -- ./inp_files/216538.got.cif
#   From: 2010.05.17/outbox.cif.g08.bks.cpg/sg2_109_cif.got.tgz:216538.got - 2010.06.03 11:33:40.
