data_PCOD9089282
_publ_section_title
;
Structure prediction by ZEFSAII (Michael W. Deem and Ramdas Pophale) SiO2 
 PCOD9089282
Probable space group: P -1
;
_chemical_formula_sum "Si O2"
_cell_formula_units_Z 16
_cell_length_a 17.840064
_cell_length_b 8.752811
_cell_length_c 23.995419
_cell_angle_alpha 43.719265
_cell_angle_beta 162.844780
_cell_angle_gamma 135.458861
_cell_volume 759.296442
_symmetry_space_group_name_H-M "P -1"
_symmetry_group_IT_number 2
_symmetry_cell_setting 'triclinic'
loop_
_space_group_symop_operation_xyz
x,y,z
-x,-y,-z
loop_
_atom_site_type_symbol
_atom_site_label
_atom_site_fract_x
_atom_site_fract_y
_atom_site_fract_z
Si Si1 0.313437 0.676921 0.056951
Si Si2 0.919546 0.815104 0.443589
Si Si3 0.783983 0.462004 0.196181
Si Si4 0.493584 0.233466 0.505937
Si Si5 0.895782 0.235152 0.999341
Si Si6 0.782071 0.123018 0.178681
Si Si7 0.152400 0.631987 0.181222
Si Si8 0.805234 0.149094 0.649278
O O1 0.619835 0.712546 0.258912
O O2 0.263240 0.796223 0.048499
O O3 0.170481 0.769133 0.876963
O O4 0.152701 0.434907 0.014096
O O5 0.091576 0.630907 0.635192
O O6 0.950986 0.940864 0.373246
O O7 0.000000 0.000000 0.500000
O O8 0.780466 0.301265 0.181249
O O9 0.959219 0.684853 0.245868
O O10 0.500000 0.500000 0.000000
O O11 0.291962 0.407816 0.329438
O O12 0.730832 0.268695 0.705897
O O13 0.614855 0.269289 0.521207
O O14 0.353897 0.985265 0.476548
O O15 0.763647 0.208077 0.852935
O O16 0.097471 0.057098 0.193358
O O17 0.000000 0.500000 0.000000
O O18 0.500000 0.000000 0.000000
#
# Coordination Sequence:
#
# PCOD9089282 Si02
#       8
#     2   2   2   2   2   2   2   2
#     4  10  19  37  67  90 126 166 223 263 322 372
#     4   9  21  39  63  91 119 171 220 261 315 396
#     4  11  25  42  66  97 134 168 217 277 339 383
#     4  10  22  39  62  95 132 165 222 258 337 385
#     4  10  21  38  63  92 121 175 216 264 328 396
#     4   9  20  41  67  90 123 173 221 263 308 393
#     4  10  21  40  64  96 124 173 217 267 307 419
#     4  11  23  39  62  93 136 174 203 284 333 379
#
# _framework density 21.072139
#
# number of rings (size 3 to 8) (size 9 to 14) (size 15 to 20)
#    0.000    2.000    2.500    0.750    7.000    1.500 
#    2.250    5.000    0.000    0.000    0.000    0.000 
#    0.000    0.000    0.000    0.000    0.000    0.000 
#
# Total GULP energy -89088.146331 kJ/mol
# GULP energy per Si atom -5568.009146 kJ/mol
# Density = 2.102418 g / cm^3
# Si number density = 21.072139 Si / 1000 Ang^3
#
#
#
# Elastic Constant Matrix: (Units=GPa)
#
#
# Indices 1 2 3 4 5 6 
#
# 1 84.0634 29.6729 43.2429 -3.0558 -11.4502 19.6898
# 2 29.6729 94.4805 43.6694 17.6547 1.8205 3.4671
# 3 43.2429 43.6694 122.6710 8.0373 -12.3470 13.8207
# 4 -3.0558 17.6547 8.0373 35.1038 5.5186 -9.0708
# 5 -11.4502 1.8205 -12.3470 5.5186 40.2597 1.1172
# 6 19.6898 3.4671 13.8207 -9.0708 1.1172 25.0419
#
#
#
# Elastic Compliance Matrix: (Units=1/GPa)
#
#
# Indices 1 2 3 4 5 6 
#
# 1 0.018534 -0.004042 -0.003272 0.000490 0.004723 -0.012240
# 2 -0.004042 0.014772 -0.003746 -0.006330 -0.002126 0.001002
# 3 -0.003272 -0.003746 0.011658 -0.002751 0.003316 -0.004487
# 4 0.000490 -0.006330 -0.002751 0.037369 -0.005979 0.015812
# 5 0.004723 -0.002126 0.003316 -0.005979 0.028356 -0.008680
# 6 -0.012240 0.001002 -0.004487 0.015812 -0.008680 0.058010
#
#
# Mechanical properties :
#
#
# Convention : Reuss Voigt Hill
#
# Bulk Modulus (GPa) = 43.77471 59.37614 51.57543
# Shear Modulus (GPa) = 25.19736 32.38973 28.79355
#
# Velocity S-wave (km/s) = 3.46174 3.92482 3.70053
# Velocity P-wave (km/s) = 6.06605 6.98411 6.54121
#
# Compressibility (1/GPa) = 0.02284424
#
# Stress axis : x y z
#
# Youngs Moduli (GPa) = 53.95536 67.69523 85.77447
#
# Poissons Ratio (x) = 0.27360 0.28068
# Poissons Ratio (y) = 0.21807 0.32132
# Poissons Ratio (z) = 0.17656 0.25359
#
# Static dielectric constant tensor:
#      x y z
#    x 1.840270 0.024000 -0.048640 
#    y 0.024000 1.827880 -0.002750 
#    z -0.048640 -0.002750 1.809080 
# 
# From -- ./inp_files/612992.got.cif
#   From: 2010.05.17/outbox.cif.g08.bks.cpg/sg2_307_cif.got.tgz:612992.got - 2010.06.03 11:33:40.
