data_PCOD9089236
_publ_section_title
;
Structure prediction by ZEFSAII (Michael W. Deem and Ramdas Pophale) SiO2 
 PCOD9089236
Probable space group: P -1
;
_chemical_formula_sum "Si O2"
_cell_formula_units_Z 16
_cell_length_a 19.948591
_cell_length_b 12.499017
_cell_length_c 9.741615
_cell_angle_alpha 59.812034
_cell_angle_beta 152.567237
_cell_angle_gamma 131.628556
_cell_volume 809.460101
_symmetry_space_group_name_H-M "P -1"
_symmetry_group_IT_number 2
_symmetry_cell_setting 'triclinic'
loop_
_space_group_symop_operation_xyz
x,y,z
-x,-y,-z
loop_
_atom_site_type_symbol
_atom_site_label
_atom_site_fract_x
_atom_site_fract_y
_atom_site_fract_z
Si Si1 0.772158 0.385733 0.027128
Si Si2 0.373048 0.426738 0.441604
Si Si3 0.699176 0.104689 0.430965
Si Si4 0.831174 0.897103 0.849074
Si Si5 0.677014 0.077957 0.075652
Si Si6 0.365186 0.456940 0.903932
Si Si7 0.163412 0.580466 0.556865
Si Si8 0.039799 0.127523 0.599575
O O1 0.662823 0.212544 0.908725
O O2 0.758241 0.394857 0.161617
O O3 0.969623 0.442601 0.314865
O O4 0.733625 0.494668 0.808674
O O5 0.500000 0.500000 0.500000
O O6 0.268791 0.254273 0.323454
O O7 0.501502 0.482874 0.765955
O O8 0.699405 0.091520 0.273520
O O9 0.836294 0.278671 0.585670
O O10 0.737563 0.986254 0.631915
O O11 0.517226 0.067901 0.189037
O O12 0.884925 0.878272 0.110902
O O13 0.000000 0.000000 0.000000
O O14 0.848938 0.098569 0.306769
O O15 0.274633 0.548298 0.679908
O O16 0.198548 0.286957 0.726325
O O17 0.500000 0.500000 0.000000
O O18 0.000000 0.000000 0.500000
#
# Coordination Sequence:
#
# PCOD9089236 Si02
#       8
#     2   2   2   2   2   2   2   2
#     4  10  19  37  66  95 124 165 221 280 322 380
#     4  12  23  41  70 100 130 169 228 282 323 382
#     4  10  22  35  65 102 131 165 218 277 322 388
#     4  12  24  42  69 104 137 168 226 275 326 393
#     4  10  21  39  62  96 133 169 216 268 334 390
#     4  12  28  46  67  97 136 180 224 271 336 400
#     4  10  20  38  64  94 131 168 217 270 333 384
#     4  12  27  47  67  95 140 182 214 272 343 400
#
# _framework density 19.766262000000001
#
# number of rings (size 3 to 8) (size 9 to 14) (size 15 to 20)
#    0.000    1.000    5.000    1.500    8.750    0.000 
#    0.000    2.500    0.000    0.000    0.000    0.000 
#    0.000    0.000    0.000    0.000    0.000    0.000 
#
# Total GULP energy -89109.842727 kJ/mol
# GULP energy per Si atom -5569.365170 kJ/mol
# Density = 1.972127 g / cm^3
# Si number density = 19.766262 Si / 1000 Ang^3
#
#
#
# Elastic Constant Matrix: (Units=GPa)
#
#
# Indices 1 2 3 4 5 6 
#
# 1 123.0822 36.2078 39.3418 13.7625 31.4283 6.3067
# 2 36.2078 122.5542 35.9350 15.5669 12.1348 4.2414
# 3 39.3418 35.9350 62.9255 3.4025 16.1442 -6.5785
# 4 13.7625 15.5669 3.4025 39.5395 -1.1197 9.6266
# 5 31.4283 12.1348 16.1442 -1.1197 36.4195 4.7011
# 6 6.3067 4.2414 -6.5785 9.6266 4.7011 26.3317
#
#
#
# Elastic Compliance Matrix: (Units=1/GPa)
#
#
# Indices 1 2 3 4 5 6 
#
# 1 0.012614 -0.000888 -0.005246 -0.003466 -0.008182 -0.001461
# 2 -0.000888 0.010451 -0.005382 -0.002933 -0.000200 -0.001708
# 3 -0.005246 -0.005382 0.024817 -0.000707 -0.005948 0.009644
# 4 -0.003466 -0.002933 -0.000707 0.030646 0.006678 -0.011270
# 5 -0.008182 -0.000200 -0.005948 0.006678 0.038566 -0.008821
# 6 -0.001461 -0.001708 0.009644 -0.011270 -0.008821 0.046706
#
#
# Mechanical properties :
#
#
# Convention : Reuss Voigt Hill
#
# Bulk Modulus (GPa) = 40.23800 59.05901 49.64850
# Shear Modulus (GPa) = 25.62572 33.59664 29.61118
#
# Velocity S-wave (km/s) = 3.60451 4.12721 3.87469
# Velocity P-wave (km/s) = 6.14202 7.25640 6.72234
#
# Compressibility (1/GPa) = 0.02485213
#
# Stress axis : x y z
#
# Youngs Moduli (GPa) = 79.27584 95.68022 40.29425
#
# Poissons Ratio (x) = 0.08493 0.21137
# Poissons Ratio (y) = 0.07037 0.21687
# Poissons Ratio (z) = 0.41585 0.51496
#
# Static dielectric constant tensor:
#      x y z
#    x 1.606070 -0.030990 0.099980 
#    y -0.030990 1.685130 -0.009120 
#    z 0.099980 -0.009120 1.660370 
# 
# From -- ./inp_files/284926.got.cif
#   From: 2010.05.17/outbox.cif.g08.bks.cpg/sg2_143_cif.got.tgz:284926.got - 2010.06.03 11:33:40.
