data_PCOD9089165
_publ_section_title
;
Structure prediction by ZEFSAII (Michael W. Deem and Ramdas Pophale) SiO2 
 PCOD9089165
Probable space group: P -1
;
_chemical_formula_sum "Si O2"
_cell_formula_units_Z 12
_cell_length_a 19.554698
_cell_length_b 6.836820
_cell_length_c 13.656576
_cell_angle_alpha 48.706442
_cell_angle_beta 153.229134
_cell_angle_gamma 141.569320
_cell_volume 506.051900
_symmetry_space_group_name_H-M "P -1"
_symmetry_group_IT_number 2
_symmetry_cell_setting 'triclinic'
loop_
_space_group_symop_operation_xyz
x,y,z
-x,-y,-z
loop_
_atom_site_type_symbol
_atom_site_label
_atom_site_fract_x
_atom_site_fract_y
_atom_site_fract_z
Si Si1 0.947088 0.870123 0.586568
Si Si2 0.239310 0.854495 0.670115
Si Si3 0.710239 0.730635 0.731480
Si Si4 0.011512 0.433731 0.923512
Si Si5 0.606723 0.352231 0.224828
Si Si6 0.620978 0.300722 0.922619
O O1 0.054644 0.734456 0.815500
O O2 0.735751 0.560877 0.408439
O O3 0.923837 0.097176 0.552704
O O4 0.000000 0.000000 0.500000
O O5 0.253687 0.637317 0.681574
O O6 0.439342 0.184224 0.793812
O O7 0.164856 0.360113 0.133561
O O8 0.500000 0.500000 0.500000
O O9 0.706896 0.632277 0.872496
O O10 0.459995 0.975274 0.172367
O O11 0.821953 0.111125 0.746845
O O12 0.000000 0.500000 0.000000
O O13 0.250802 0.743028 0.829142
O O14 0.500000 0.500000 0.000000
#
# Coordination Sequence:
#
# PCOD9089165 Si02
#       6
#     2   2   2   2   2   2
#     4  12  24  41  66  98 141 182 227 293 365 408
#     4   9  20  36  63 101 135 161 231 289 344 417
#     4  11  25  49  74  96 143 197 238 293 360 425
#     4  11  29  48  68 108 148 184 248 295 348 444
#     4  10  19  37  65  98 133 172 227 293 342 423
#     4   9  18  39  65  99 132 172 229 288 349 407
#
# _framework density 23.712982
#
# number of rings (size 3 to 8) (size 9 to 14) (size 15 to 20)
#    1.000    0.667    1.667    2.000    2.333    4.000 
#    3.000    0.000    0.000    0.000    0.000    0.000 
#    0.000    0.000    0.000    0.000    0.000    0.000 
#
# Total GULP energy -66959.782618 kJ/mol
# GULP energy per Si atom -5579.981885 kJ/mol
# Density = 2.365901 g / cm^3
# Si number density = 23.712982 Si / 1000 Ang^3
#
#
#
# Elastic Constant Matrix: (Units=GPa)
#
#
# Indices 1 2 3 4 5 6 
#
# 1 106.8601 50.8545 51.3629 -17.8636 15.3128 -16.2348
# 2 50.8545 84.7364 49.0565 -6.9796 19.0330 0.0893
# 3 51.3629 49.0565 74.3194 -11.3366 22.1154 -5.4183
# 4 -17.8636 -6.9796 -11.3366 51.6182 1.4151 -9.2844
# 5 15.3128 19.0330 22.1154 1.4151 34.5217 -10.9162
# 6 -16.2348 0.0893 -5.4183 -9.2844 -10.9162 35.1101
#
#
#
# Elastic Compliance Matrix: (Units=1/GPa)
#
#
# Indices 1 2 3 4 5 6 
#
# 1 0.018094 -0.006876 -0.007451 0.005348 0.003387 0.009702
# 2 -0.006876 0.022303 -0.009245 -0.002507 -0.005440 -0.007017
# 3 -0.007451 -0.009245 0.027947 0.002290 -0.010117 -0.001649
# 4 0.005348 -0.002507 0.002290 0.022971 -0.000645 0.008706
# 5 0.003387 -0.005440 -0.010117 -0.000645 0.040950 0.012580
# 6 0.009702 -0.007017 -0.001649 0.008706 0.012580 0.038945
#
#
# Mechanical properties :
#
#
# Convention : Reuss Voigt Hill
#
# Bulk Modulus (GPa) = 47.16994 63.16264 55.16629
# Shear Modulus (GPa) = 22.18077 31.89280 27.03679
#
# Velocity S-wave (km/s) = 3.06172 3.67134 3.38030
# Velocity P-wave (km/s) = 5.69509 6.68324 6.20886
#
# Compressibility (1/GPa) = 0.02119994
#
# Stress axis : x y z
#
# Youngs Moduli (GPa) = 55.26569 44.83736 35.78231
#
# Poissons Ratio (x) = 0.30830 0.26662
# Poissons Ratio (y) = 0.38001 0.33080
# Poissons Ratio (z) = 0.41180 0.41451
#
# Static dielectric constant tensor:
#      x y z
#    x 1.926660 -0.022240 0.018190 
#    y -0.022240 1.991490 0.003130 
#    z 0.018190 0.003130 1.938870 
# 
# From -- ./inp_files/542491.got.cif
#   From: 2010.05.17/outbox.cif.g08.bks.cpg/sg2_272_cif.got.tgz:542491.got - 2010.06.03 11:33:40.
