data_PCOD9089756
_publ_section_title
;
Structure prediction by ZEFSAII (Michael W. Deem and Ramdas Pophale) SiO2 
 PCOD9089756
Probable space group: P -1
;
_chemical_formula_sum "Si O2"
_cell_formula_units_Z 14
_cell_length_a 18.220330
_cell_length_b 11.288802
_cell_length_c 5.712233
_cell_angle_alpha 111.558033
_cell_angle_beta 117.708980
_cell_angle_gamma 31.507263
_cell_volume 542.539755
_symmetry_space_group_name_H-M "P -1"
_symmetry_group_IT_number 2
_symmetry_cell_setting 'triclinic'
loop_
_space_group_symop_operation_xyz
x,y,z
-x,-y,-z
loop_
_atom_site_type_symbol
_atom_site_label
_atom_site_fract_x
_atom_site_fract_y
_atom_site_fract_z
Si Si1 0.074565 0.705223 0.467906
Si Si2 0.878266 0.562143 0.972819
Si Si3 0.545892 0.194487 0.516526
Si Si4 0.872123 0.111720 0.144518
Si Si5 0.129955 0.117221 0.333771
Si Si6 0.384252 0.644292 0.726378
Si Si7 0.591143 0.086376 0.032714
O O1 0.173216 0.472118 0.328444
O O2 0.128641 0.735695 0.766377
O O3 0.932811 0.814155 0.446974
O O4 0.023582 0.861807 0.292482
O O5 0.000000 0.500000 0.000000
O O6 0.981841 0.358423 0.165196
O O7 0.738855 0.815013 0.044827
O O8 0.452648 0.444727 0.526287
O O9 0.507892 0.158371 0.205028
O O10 0.726062 0.989164 0.623993
O O11 0.519956 0.177809 0.732688
O O12 0.759476 0.224966 0.266218
O O13 0.834357 0.073126 0.837710
O O14 0.369919 0.813276 0.780737
O O15 0.500000 0.500000 0.000000
#
# Coordination Sequence:
#
# PCOD9089756 Si02
#       7
#     2   2   2   2   2   2   2
#     4  10  23  34  59  85 122 160 193 253 304 369
#     4  11  21  36  54  85 122 157 198 246 305 363
#     4  11  22  36  61  91 121 151 202 252 303 354
#     4  10  19  40  55  87 121 153 204 247 307 358
#     4  11  20  34  59  88 119 154 198 247 308 360
#     4  10  19  38  61  88 118 154 204 253 301 352
#     4  11  22  36  57  91 120 157 194 251 304 357
#
# _framework density 25.804562000000001
#
# number of rings (size 3 to 8) (size 9 to 14) (size 15 to 20)
#    0.000    1.429    4.286    3.429    2.000    1.143 
#    0.000    0.000    0.000    4.286    0.000    0.000 
#    0.000    0.000    0.000    0.000    0.000    0.000 
#
# Total GULP energy -78065.106369 kJ/mol
# GULP energy per Si atom -5576.079026 kJ/mol
# Density = 2.574583 g / cm^3
# Si number density = 25.804562 Si / 1000 Ang^3
#
#
#
# Elastic Constant Matrix: (Units=GPa)
#
#
# Indices 1 2 3 4 5 6 
#
# 1 35.9075 7.9491 24.5870 4.6470 -6.3435 4.4400
# 2 7.9491 147.7388 37.2313 33.3919 -8.9628 13.3675
# 3 24.5870 37.2313 107.6868 35.4734 -26.4896 4.2425
# 4 4.6470 33.3919 35.4734 57.9607 3.2081 -2.8659
# 5 -6.3435 -8.9628 -26.4896 3.2081 32.2726 3.6900
# 6 4.4400 13.3675 4.2425 -2.8659 3.6900 19.7944
#
#
#
# Elastic Compliance Matrix: (Units=1/GPa)
#
#
# Indices 1 2 3 4 5 6 
#
# 1 0.033904 0.000430 -0.007974 0.001569 0.000780 -0.006105
# 2 0.000430 0.009016 0.000025 -0.005856 0.004083 -0.007800
# 3 -0.007974 0.000025 0.019690 -0.012717 0.016712 -0.007405
# 4 0.001569 -0.005856 -0.012717 0.029863 -0.016290 0.013689
# 5 0.000780 0.004083 0.016712 -0.016290 0.049684 -0.018135
# 6 -0.006105 -0.007800 -0.007405 0.013689 -0.018135 0.064106
#
#
# Mechanical properties :
#
#
# Convention : Reuss Voigt Hill
#
# Bulk Modulus (GPa) = 21.02027 47.87421 34.44724
# Shear Modulus (GPa) = 21.08310 36.77659 28.92985
#
# Velocity S-wave (km/s) = 2.86147 3.77927 3.35194
# Velocity P-wave (km/s) = 4.36818 6.13488 5.32531
#
# Compressibility (1/GPa) = 0.04757314
#
# Stress axis : x y z
#
# Youngs Moduli (GPa) = 29.49521 110.91154 50.78709
#
# Poissons Ratio (x) = -0.04773 0.40498
# Poissons Ratio (y) = -0.01269 -0.00128
# Poissons Ratio (z) = 0.23520 -0.00280
#
# Static dielectric constant tensor:
#      x y z
#    x 2.080730 0.067570 -0.034020 
#    y 0.067570 2.103160 -0.078700 
#    z -0.034020 -0.078700 2.191730 
# 
# From -- ./inp_files/65838.got.cif
#   From: 2010.05.17/outbox.cif.g08.bks.cpg/sg2_33_cif.got.tgz:65838.got - 2010.06.03 11:33:40.
