data_PCOD9089785
_publ_section_title
;
Structure prediction by ZEFSAII (Michael W. Deem and Ramdas Pophale) SiO2 
 PCOD9089785
Probable space group: P -1
;
_chemical_formula_sum "Si O2"
_cell_formula_units_Z 16
_cell_length_a 12.732626
_cell_length_b 12.481279
_cell_length_c 11.022649
_cell_angle_alpha 106.271044
_cell_angle_beta 133.437551
_cell_angle_gamma 112.518902
_cell_volume 688.570289
_symmetry_space_group_name_H-M "P -1"
_symmetry_group_IT_number 2
_symmetry_cell_setting 'triclinic'
loop_
_space_group_symop_operation_xyz
x,y,z
-x,-y,-z
loop_
_atom_site_type_symbol
_atom_site_label
_atom_site_fract_x
_atom_site_fract_y
_atom_site_fract_z
Si Si1 0.639519 0.335016 0.953769
Si Si2 0.215244 0.309002 0.070891
Si Si3 0.088687 0.396563 0.504292
Si Si4 0.466987 0.299296 0.433958
Si Si5 0.410634 0.941941 0.111654
Si Si6 0.719315 0.054859 0.737535
Si Si7 0.477397 0.460301 0.827503
Si Si8 0.157226 0.597828 0.394853
O O1 0.787710 0.483289 0.234176
O O2 0.516001 0.139435 0.830631
O O3 0.873315 0.456120 0.086543
O O4 0.453612 0.311960 0.751901
O O5 0.269739 0.226695 0.156254
O O6 0.443099 0.539016 0.364150
O O7 0.268575 0.337652 0.979059
O O8 0.956017 0.198764 0.879223
O O9 0.239516 0.383685 0.574166
O O10 0.130951 0.520513 0.478818
O O11 0.785155 0.179540 0.195056
O O12 0.712328 0.406916 0.592104
O O13 0.364917 0.127328 0.369982
O O14 0.239297 0.874744 0.069739
O O15 0.650277 0.175827 0.371154
O O16 0.500000 0.000000 0.500000
O O17 0.500000 0.500000 0.000000
#
# Coordination Sequence:
#
# PCOD9089785 Si02
#       8
#     2   2   2   2   2   2   2   2
#     4  10  22  37  62  89 124 162 207 258 309 362
#     4  11  22  42  70  85 128 171 205 256 320 362
#     4  10  20  41  61  88 120 163 215 255 298 371
#     4  10  23  40  66  98 119 165 214 251 311 389
#     4  10  22  38  62  89 123 161 202 256 313 372
#     4  11  26  41  61 100 132 155 208 264 315 379
#     4  10  23  41  64  93 125 165 211 260 312 367
#     4  10  19  38  61  90 124 155 206 254 309 372
#
# _framework density 23.236552
#
# number of rings (size 3 to 8) (size 9 to 14) (size 15 to 20)
#    0.000    1.750    1.250    3.375    7.000    2.500 
#    0.000    1.250    0.000    5.250    0.000    0.000 
#    0.000    0.000    0.000    0.000    0.000    0.000 
#
# Total GULP energy -89430.560315 kJ/mol
# GULP energy per Si atom -5589.410020 kJ/mol
# Density = 2.318366 g / cm^3
# Si number density = 23.236552 Si / 1000 Ang^3
#
#
#
# Elastic Constant Matrix: (Units=GPa)
#
#
# Indices 1 2 3 4 5 6 
#
# 1 103.0104 37.6448 13.2058 -17.0371 12.1991 -13.4539
# 2 37.6448 145.5578 40.0508 -0.8130 16.1249 -36.5283
# 3 13.2058 40.0508 44.6862 7.6528 -3.7162 -7.4564
# 4 -17.0371 -0.8130 7.6528 24.6200 -2.8958 -0.0257
# 5 12.1991 16.1249 -3.7162 -2.8958 35.6563 -7.8176
# 6 -13.4539 -36.5283 -7.4564 -0.0257 -7.8176 55.6038
#
#
#
# Elastic Compliance Matrix: (Units=1/GPa)
#
#
# Indices 1 2 3 4 5 6 
#
# 1 0.012951 -0.001487 -0.004255 0.009867 -0.003149 0.001148
# 2 -0.001487 0.011905 -0.010031 0.001951 -0.004562 0.005476
# 3 -0.004255 -0.010031 0.035293 -0.013282 0.008210 -0.001738
# 4 0.009867 0.001951 -0.013282 0.051514 -0.001073 0.001761
# 5 -0.003149 -0.004562 0.008210 -0.001073 0.032369 0.001893
# 6 0.001148 0.005476 -0.001738 0.001761 0.001893 0.021893
#
#
# Mechanical properties :
#
#
# Convention : Reuss Voigt Hill
#
# Bulk Modulus (GPa) = 34.95877 52.78413 43.87145
# Shear Modulus (GPa) = 24.15400 36.66623 30.41011
#
# Velocity S-wave (km/s) = 3.22760 3.97666 3.62155
# Velocity P-wave (km/s) = 5.38212 6.62196 6.03397
#
# Compressibility (1/GPa) = 0.02860513
#
# Stress axis : x y z
#
# Youngs Moduli (GPa) = 77.21241 83.99916 28.33406
#
# Poissons Ratio (x) = 0.12487 0.12056
# Poissons Ratio (y) = 0.11478 0.28421
# Poissons Ratio (z) = 0.32854 0.84256
#
# Static dielectric constant tensor:
#      x y z
#    x 1.938080 0.017410 -0.035450 
#    y 0.017410 1.883110 -0.025060 
#    z -0.035450 -0.025060 1.899210 
# 
# From -- ./inp_files/428794.got.cif
#   From: 2010.05.17/outbox.cif.g08.bks.cpg/sg2_215_cif.got.tgz:428794.got - 2010.06.03 11:33:40.
