data_PCOD9089014
_publ_section_title
;
Structure prediction by ZEFSAII (Michael W. Deem and Ramdas Pophale) SiO2 
 PCOD9089014
Probable space group: P -1
;
_chemical_formula_sum "Si O2"
_cell_formula_units_Z 16
_cell_length_a 27.645638
_cell_length_b 9.044469
_cell_length_c 27.776892
_cell_angle_alpha 139.109313
_cell_angle_beta 10.626483
_cell_angle_gamma 138.718113
_cell_volume 836.338186
_symmetry_space_group_name_H-M "P -1"
_symmetry_group_IT_number 2
_symmetry_cell_setting 'triclinic'
loop_
_space_group_symop_operation_xyz
x,y,z
-x,-y,-z
loop_
_atom_site_type_symbol
_atom_site_label
_atom_site_fract_x
_atom_site_fract_y
_atom_site_fract_z
Si Si1 0.797719 0.441988 0.751835
Si Si2 0.704014 0.913250 0.212511
Si Si3 0.638893 0.215722 0.060309
Si Si4 0.741064 0.771008 0.796156
Si Si5 0.901623 0.256383 0.387494
Si Si6 0.179995 0.199230 0.583838
Si Si7 0.634960 0.694486 0.128639
Si Si8 0.217564 0.701465 0.698389
O O1 0.771619 0.622936 0.778540
O O2 0.981005 0.247136 0.506347
O O3 0.952943 0.568422 0.674273
O O4 0.499585 0.345145 0.028096
O O5 0.635217 0.882967 0.216618
O O6 0.458655 0.803739 0.455592
O O7 0.766298 0.166280 0.234117
O O8 0.953289 0.772368 0.948023
O O9 0.908494 0.221447 0.827279
O O10 0.659503 0.014460 0.952290
O O11 0.402992 0.171459 0.318398
O O12 0.621550 0.454238 0.109806
O O13 0.616251 0.311519 0.661684
O O14 0.857496 0.016619 0.398422
O O15 0.099330 0.258202 0.149660
O O16 0.235195 0.433371 0.616263
#
# Coordination Sequence:
#
# PCOD9089014 Si02
#       8
#     2   2   2   2   2   2   2   2
#     4  10  21  39  59  89 120 158 201 255 313 356
#     4  10  20  37  63  91 124 158 204 249 310 351
#     4  12  23  40  66  93 120 158 220 255 293 363
#     4  10  21  37  64  89 113 155 213 263 291 353
#     4  12  26  40  61  91 133 164 197 251 323 372
#     4  12  22  40  64  95 121 159 217 255 292 361
#     4  12  24  42  59  93 131 167 194 251 320 374
#     4  10  19  37  64  94 117 156 210 264 284 351
#
# _framework density 19.131015999999999
#
# number of rings (size 3 to 8) (size 9 to 14) (size 15 to 20)
#    0.000    1.000    3.750    3.750    3.500    0.000 
#    0.000    5.000    0.000    0.000    0.000    0.000 
#    0.000    0.000    0.000    0.000    0.000    0.000 
#
# Total GULP energy -89397.814742 kJ/mol
# GULP energy per Si atom -5587.363421 kJ/mol
# Density = 1.908747 g / cm^3
# Si number density = 19.131016 Si / 1000 Ang^3
#
#
#
# Elastic Constant Matrix: (Units=GPa)
#
#
# Indices 1 2 3 4 5 6 
#
# 1 -40.8660 0.5846 -64.7317 2.0615 6.1776 45.7813
# 2 0.5846 71.3434 -17.7959 3.2970 6.7287 28.1311
# 3 -64.7317 -17.7959 42.2853 -3.4529 1.3714 22.6332
# 4 2.0615 3.2970 -3.4529 26.3297 5.4687 2.1507
# 5 6.1776 6.7287 1.3714 5.4687 39.5371 -5.6200
# 6 45.7813 28.1311 22.6332 2.1507 -5.6200 30.4097
#
#
#
# Elastic Compliance Matrix: (Units=1/GPa)
#
#
# Indices 1 2 3 4 5 6 
#
# 1 0.000864 -0.006634 -0.007791 -0.001836 0.003130 0.011343
# 2 -0.006634 0.016617 -0.000022 -0.000564 -0.002537 -0.005797
# 3 -0.007791 -0.000022 0.008882 0.001022 0.001532 0.005351
# 4 -0.001836 -0.000564 0.001022 0.039531 -0.005298 -0.001251
# 5 0.003130 -0.002537 0.001532 -0.005298 0.026157 0.001702
# 6 0.011343 -0.005797 0.005351 -0.001251 0.001702 0.017591
#
#
# Mechanical properties :
#
#
# Convention : Reuss Voigt Hill
#
# Bulk Modulus (GPa) = -394.97789 -10.12481 -202.55135
# Shear Modulus (GPa) = 36.31273 29.56901 32.94087
#
# Velocity S-wave (km/s) = 4.36145 3.93568 4.15403
# Velocity P-wave (km/s) = 13.47385 3.91778 9.11580
#
# Compressibility (1/GPa) = -0.00253179
#
# Stress axis : x y z
#
# Youngs Moduli (GPa) = 1157.15343 60.18027 112.58964
#
# Poissons Ratio (x) = 0.39921 0.87723
# Poissons Ratio (y) = 7.67599 0.00251
# Poissons Ratio (z) = 9.01589 0.00134
#
# Static dielectric constant tensor:
#      x y z
#    x 1.663990 0.025610 0.019720 
#    y 0.025610 1.681320 0.011100 
#    z 0.019720 0.011100 1.635450 
# 
# From -- ./inp_files/53759.got.cif
#   From: 2010.05.17/outbox.cif.g08.bks.cpg/sg2_27_cif.got.tgz:53759.got - 2010.06.03 11:33:40.
