data_PCOD9089971
_publ_section_title
;
Structure prediction by ZEFSAII (Michael W. Deem and Ramdas Pophale) SiO2 
 PCOD9089971
Probable space group: P -1
;
_chemical_formula_sum "Si O2"
_cell_formula_units_Z 14
_cell_length_a 20.846949
_cell_length_b 15.056995
_cell_length_c 9.323807
_cell_angle_alpha 45.578233
_cell_angle_beta 153.894061
_cell_angle_gamma 148.663423
_cell_volume 640.356979
_symmetry_space_group_name_H-M "P -1"
_symmetry_group_IT_number 2
_symmetry_cell_setting 'triclinic'
loop_
_space_group_symop_operation_xyz
x,y,z
-x,-y,-z
loop_
_atom_site_type_symbol
_atom_site_label
_atom_site_fract_x
_atom_site_fract_y
_atom_site_fract_z
Si Si1 0.363960 0.568068 0.207709
Si Si2 0.158230 0.918441 0.159403
Si Si3 0.211524 0.130725 0.447276
Si Si4 0.401459 0.314176 0.186687
Si Si5 0.931550 0.735131 0.276780
Si Si6 0.765866 0.914293 0.143583
Si Si7 0.269736 0.798770 0.756887
O O1 0.591277 0.708640 0.429630
O O2 0.402388 0.544283 0.475239
O O3 0.217209 0.403331 0.991337
O O4 0.282956 0.659661 0.939347
O O5 0.182042 0.809781 0.422542
O O6 0.315216 0.127219 0.284331
O O7 0.935718 0.848144 0.817593
O O8 0.214447 0.949123 0.068142
O O9 0.284332 0.106870 0.767326
O O10 0.069416 0.942997 0.291822
O O11 0.227290 0.314259 0.863791
O O12 0.395615 0.276785 0.048655
O O13 0.115744 0.745910 0.637224
O O14 0.000000 0.000000 0.500000
O O15 0.500000 0.000000 0.000000
#
# Coordination Sequence:
#
# PCOD9089971 Si02
#       7
#     2   2   2   2   2   2   2
#     4  12  23  35  57  86 116 144 186 227 277 334
#     4   8  17  32  59  80 105 144 185 217 274 323
#     4  10  19  38  63  82 109 146 187 228 280 323
#     4   9  18  35  59  85 109 142 189 227 277 320
#     4  11  22  35  57  85 116 140 185 236 276 318
#     4   8  15  33  60  84 106 146 183 230 275 323
#     4  12  20  35  55  83 114 150 182 225 279 332
#
# _framework density 21.862805000000002
#
# number of rings (size 3 to 8) (size 9 to 14) (size 15 to 20)
#    0.857    1.143    4.286    1.714    0.000    2.286 
#    0.000    1.429    3.143    0.857    0.000    0.000 
#    0.000    0.000    0.000    0.000    0.000    0.000 
#
# Total GULP energy -77955.153574 kJ/mol
# GULP energy per Si atom -5568.225255 kJ/mol
# Density = 2.181304 g / cm^3
# Si number density = 21.862805 Si / 1000 Ang^3
#
#
#
# Elastic Constant Matrix: (Units=GPa)
#
#
# Indices 1 2 3 4 5 6 
#
# 1 61.1066 32.4798 28.6781 -9.0590 -16.7248 -14.0482
# 2 32.4798 76.8747 33.4879 22.8560 -0.8690 -22.6200
# 3 28.6781 33.4879 87.6484 -7.0253 2.5237 -10.6784
# 4 -9.0590 22.8560 -7.0253 47.9169 -10.9015 -5.9240
# 5 -16.7248 -0.8690 2.5237 -10.9015 35.6532 -2.0293
# 6 -14.0482 -22.6200 -10.6784 -5.9240 -2.0293 23.8550
#
#
#
# Elastic Compliance Matrix: (Units=1/GPa)
#
#
# Indices 1 2 3 4 5 6 
#
# 1 0.043550 -0.019950 -0.003730 0.025460 0.028779 0.013831
# 2 -0.019950 0.034168 -0.006648 -0.023012 -0.014481 0.010728
# 3 -0.003730 -0.006648 0.015480 0.004257 -0.001744 -0.000662
# 4 0.025460 -0.023012 0.004257 0.043973 0.024989 0.008124
# 5 0.028779 -0.014481 -0.001744 0.024989 0.049692 0.012869
# 6 0.013831 0.010728 -0.000662 0.008124 0.012869 0.063053
#
#
# Mechanical properties :
#
#
# Convention : Reuss Voigt Hill
#
# Bulk Modulus (GPa) = 30.72840 46.10238 38.41539
# Shear Modulus (GPa) = 15.55604 30.21728 22.88666
#
# Velocity S-wave (km/s) = 2.67035 3.72174 3.23899
# Velocity P-wave (km/s) = 4.85729 6.29296 5.62115
#
# Compressibility (1/GPa) = 0.03254318
#
# Stress axis : x y z
#
# Youngs Moduli (GPa) = 22.96209 29.26748 64.59825
#
# Poissons Ratio (x) = 0.58388 0.24096
# Poissons Ratio (y) = 0.45809 0.42942
# Poissons Ratio (z) = 0.08565 0.19456
#
# Static dielectric constant tensor:
#      x y z
#    x 1.843330 0.004240 -0.027960 
#    y 0.004240 1.848600 0.023460 
#    z -0.027960 0.023460 1.880770 
# 
# From -- ./inp_files/476887.got.cif
#   From: 2010.05.17/outbox.cif.g08.bks.cpg/sg2_239_cif.got.tgz:476887.got - 2010.06.03 11:33:40.
