data_PCOD9089018
_publ_section_title
;
Structure prediction by ZEFSAII (Michael W. Deem and Ramdas Pophale) SiO2 
 PCOD9089018
Probable space group: P -1
;
_chemical_formula_sum "Si O2"
_cell_formula_units_Z 15
_cell_length_a 8.227383
_cell_length_b 17.677060
_cell_length_c 12.263664
_cell_angle_alpha 22.270310
_cell_angle_beta 68.376783
_cell_angle_gamma 62.608687
_cell_volume 591.403012
_symmetry_space_group_name_H-M "P -1"
_symmetry_group_IT_number 2
_symmetry_cell_setting 'triclinic'
loop_
_space_group_symop_operation_xyz
x,y,z
-x,-y,-z
loop_
_atom_site_type_symbol
_atom_site_label
_atom_site_fract_x
_atom_site_fract_y
_atom_site_fract_z
Si Si1 0.727680 0.616521 0.587931
Si Si2 0.463519 0.758821 0.083559
Si Si3 0.120658 0.342853 0.900461
Si Si4 0.000000 0.000000 0.500000
Si Si5 0.269379 0.294603 0.286202
Si Si6 0.862888 0.355461 0.306266
Si Si7 0.636444 0.182086 0.209804
Si Si8 0.578774 0.263972 0.647580
O O1 0.686443 0.722048 0.575757
O O2 0.599461 0.762652 0.332012
O O3 0.659242 0.413907 0.889362
O O4 0.951294 0.523104 0.640261
O O5 0.498479 0.512935 0.372151
O O6 0.349009 0.837110 0.118116
O O7 0.672315 0.749315 0.073201
O O8 0.377693 0.875592 0.837389
O O9 0.044923 0.153822 0.193072
O O10 0.143865 0.457333 0.855760
O O11 0.206929 0.954390 0.565479
O O12 0.440243 0.207163 0.280203
O O13 0.080712 0.241334 0.388839
O O14 0.205875 0.547159 0.925597
O O15 0.738871 0.237544 0.553091
#
# Coordination Sequence:
#
# PCOD9089018 Si02
#       8
#     2   2   2   1   2   2   2   2
#     4   9  17  26  47  74 106 120 151 193 247 282
#     4   9  17  30  48  65 103 129 159 183 235 294
#     4   9  17  32  44  71  97 130 158 199 230 283
#     4  10  22  32  48  66 102 122 172 194 244 268
#     4  10  16  28  47  72 106 120 147 200 244 289
#     4   9  17  28  48  74 102 124 152 191 242 293
#     4  10  18  32  46  74  95 132 152 202 232 287
#     4   9  16  29  45  74  98 133 150 182 239 303
#
# _framework density 25.363415
#
# number of rings (size 3 to 8) (size 9 to 14) (size 15 to 20)
#    0.000    2.667    4.000    0.400    0.000    1.067 
#    0.000    4.000    0.000    0.000    0.000    5.600 
#    0.000    0.000    0.000    0.000    0.000    0.000 
#
# Total GULP energy -83535.797453 kJ/mol
# GULP energy per Si atom -5569.053164 kJ/mol
# Density = 2.530569 g / cm^3
# Si number density = 25.363415 Si / 1000 Ang^3
#
#
#
# Elastic Constant Matrix: (Units=GPa)
#
#
# Indices 1 2 3 4 5 6 
#
# 1 121.3095 39.5331 28.1824 7.3747 45.7428 -20.5970
# 2 39.5331 79.5694 24.6196 15.5703 25.1006 -10.3919
# 3 28.1824 24.6196 72.9427 20.9335 46.7166 -0.9329
# 4 7.3747 15.5703 20.9335 25.7703 17.7380 -4.4610
# 5 45.7428 25.1006 46.7166 17.7380 50.6921 -9.1396
# 6 -20.5970 -10.3919 -0.9329 -4.4610 -9.1396 31.2207
#
#
#
# Elastic Compliance Matrix: (Units=1/GPa)
#
#
# Indices 1 2 3 4 5 6 
#
# 1 0.015922 -0.004479 0.005305 0.007641 -0.018857 0.004743
# 2 -0.004479 0.016954 -0.002272 -0.007212 0.000582 0.001760
# 3 0.005305 -0.002272 0.039177 -0.006601 -0.038979 -0.008439
# 4 0.007641 -0.007212 -0.006601 0.058920 -0.016786 0.005949
# 5 -0.018857 0.000582 -0.038979 -0.016786 0.079601 0.007492
# 6 0.004743 0.001760 -0.008439 0.005949 0.007492 0.038536
#
#
# Mechanical properties :
#
#
# Convention : Reuss Voigt Hill
#
# Bulk Modulus (GPa) = 14.45919 50.94354 32.70136
# Shear Modulus (GPa) = 18.17809 33.63572 25.90690
#
# Velocity S-wave (km/s) = 2.68004 3.64559 3.19945
# Velocity P-wave (km/s) = 3.91024 6.15219 5.15458
#
# Compressibility (1/GPa) = 0.06916018
#
# Stress axis : x y z
#
# Youngs Moduli (GPa) = 62.80594 58.98441 25.52514
#
# Poissons Ratio (x) = 0.26421 -0.13541
# Poissons Ratio (y) = 0.28133 0.05799
# Poissons Ratio (z) = -0.33319 0.13402
#
# Static dielectric constant tensor:
#      x y z
#    x 1.993430 -0.035860 0.009540 
#    y -0.035860 1.939950 0.013770 
#    z 0.009540 0.013770 2.003800 
# 
# From -- ./inp_files/403700.got.cif
#   From: 2010.05.17/outbox.cif.g08.bks.cpg/sg2_202_cif.got.tgz:403700.got - 2010.06.03 11:33:40.
