data_PCOD9089841
_publ_section_title
;
Structure prediction by ZEFSAII (Michael W. Deem and Ramdas Pophale) SiO2 
 PCOD9089841
Probable space group: P -1
;
_chemical_formula_sum "Si O2"
_cell_formula_units_Z 16
_cell_length_a 9.688955
_cell_length_b 11.849898
_cell_length_c 7.283534
_cell_angle_alpha 76.011520
_cell_angle_beta 84.148690
_cell_angle_gamma 69.222663
_cell_volume 758.553475
_symmetry_space_group_name_H-M "P -1"
_symmetry_group_IT_number 2
_symmetry_cell_setting 'triclinic'
loop_
_space_group_symop_operation_xyz
x,y,z
-x,-y,-z
loop_
_atom_site_type_symbol
_atom_site_label
_atom_site_fract_x
_atom_site_fract_y
_atom_site_fract_z
Si Si1 0.015767 0.081059 0.290798
Si Si2 0.300960 0.823413 0.770666
Si Si3 0.135123 0.292681 0.152536
Si Si4 0.310593 0.893576 0.323649
Si Si5 0.549948 0.920572 0.841406
Si Si6 0.867066 0.449920 0.900995
Si Si7 0.665090 0.366327 0.693068
Si Si8 0.350839 0.560043 0.757112
O O1 0.870161 0.121449 0.170017
O O2 0.052489 0.204700 0.288997
O O3 0.000000 0.000000 0.500000
O O4 0.164858 0.990797 0.214809
O O5 0.284939 0.850598 0.545125
O O6 0.414491 0.881672 0.811808
O O7 0.363482 0.675947 0.824511
O O8 0.300867 0.200319 0.122396
O O9 0.137810 0.413724 0.215002
O O10 0.029699 0.357979 0.969796
O O11 0.351737 0.768756 0.250427
O O12 0.414179 0.974033 0.320795
O O13 0.500000 0.000000 0.000000
O O14 0.793207 0.385152 0.790879
O O15 0.769324 0.475028 0.093338
O O16 0.510610 0.458453 0.753663
O O17 0.691517 0.400341 0.464848
#
# Coordination Sequence:
#
# PCOD9089841 Si02
#       8
#     2   2   2   2   2   2   2   2
#     4   9  18  38  65  86 118 163 204 252 305 373
#     4  10  19  38  62  84 114 161 203 247 315 356
#     4  10  23  41  58  92 124 161 211 249 316 366
#     4   9  21  37  59  86 124 150 202 256 300 372
#     4  11  24  36  57  88 122 158 200 257 303 370
#     4  11  22  40  68  84 131 167 200 261 309 368
#     4  10  22  38  63  99 120 163 210 253 312 370
#     4  10  21  38  64  92 125 158 209 257 304 376
#
# _framework density 21.092780000000001
#
# number of rings (size 3 to 8) (size 9 to 14) (size 15 to 20)
#    0.000    2.000    1.250    1.500    3.500    1.000 
#    0.000    5.000    2.750    0.000    0.000    0.000 
#    0.000    0.000    0.000    0.000    0.000    0.000 
#
# Total GULP energy -89151.095375 kJ/mol
# GULP energy per Si atom -5571.943461 kJ/mol
# Density = 2.104477 g / cm^3
# Si number density = 21.092780 Si / 1000 Ang^3
#
#
#
# Elastic Constant Matrix: (Units=GPa)
#
#
# Indices 1 2 3 4 5 6 
#
# 1 141.5481 67.0946 17.0710 -2.0424 21.7754 24.0265
# 2 67.0946 133.6701 24.6331 -24.3559 19.2230 32.2719
# 3 17.0710 24.6331 46.4416 -5.3902 2.5261 10.4125
# 4 -2.0424 -24.3559 -5.3902 26.2217 13.2331 -3.5653
# 5 21.7754 19.2230 2.5261 13.2331 30.2199 -2.0879
# 6 24.0265 32.2719 10.4125 -3.5653 -2.0879 26.0325
#
#
#
# Elastic Compliance Matrix: (Units=1/GPa)
#
#
# Indices 1 2 3 4 5 6 
#
# 1 0.010508 -0.002090 -0.000552 0.001484 -0.007349 -0.007274
# 2 -0.002090 0.028909 -0.000883 0.040906 -0.036858 -0.030910
# 3 -0.000552 -0.000883 0.024787 0.005126 -0.003905 -0.007922
# 4 0.001484 0.040906 0.005126 0.111182 -0.079331 -0.045266
# 5 -0.007349 -0.036858 -0.003905 -0.079331 0.100436 0.051227
# 6 -0.007274 -0.030910 -0.007922 -0.045266 0.051227 0.084523
#
#
# Mechanical properties :
#
#
# Convention : Reuss Voigt Hill
#
# Bulk Modulus (GPa) = 17.49583 59.91746 38.70665
# Shear Modulus (GPa) = 12.93844 30.68556 21.81200
#
# Velocity S-wave (km/s) = 2.47939 3.81831 3.21923
# Velocity P-wave (km/s) = 4.06315 6.92153 5.67524
#
# Compressibility (1/GPa) = 0.05715648
#
# Stress axis : x y z
#
# Youngs Moduli (GPa) = 95.16238 34.59111 40.34389
#
# Poissons Ratio (x) = 0.07228 0.02225
# Poissons Ratio (y) = 0.19885 0.03562
# Poissons Ratio (z) = 0.05248 0.03054
#
# Static dielectric constant tensor:
#      x y z
#    x 0.130290 -0.339250 1.448370 
#    y -0.339250 1.717430 0.259890 
#    z 1.448370 0.259890 0.472610 
# 
# From -- ./inp_files/176375.got.cif
#   From: 2010.05.17/outbox.cif.g08.bks.cpg/sg2_89_cif.got.tgz:176375.got - 2010.06.03 11:33:40.
