data_PCOD9089213
_publ_section_title
;
Structure prediction by ZEFSAII (Michael W. Deem and Ramdas Pophale) SiO2 
 PCOD9089213
Probable space group: P -1
;
_chemical_formula_sum "Si O2"
_cell_formula_units_Z 16
_cell_length_a 6.243584
_cell_length_b 16.350176
_cell_length_c 9.716309
_cell_angle_alpha 87.035685
_cell_angle_beta 44.422221
_cell_angle_gamma 97.874950
_cell_volume 671.515385
_symmetry_space_group_name_H-M "P -1"
_symmetry_group_IT_number 2
_symmetry_cell_setting 'triclinic'
loop_
_space_group_symop_operation_xyz
x,y,z
-x,-y,-z
loop_
_atom_site_type_symbol
_atom_site_label
_atom_site_fract_x
_atom_site_fract_y
_atom_site_fract_z
Si Si1 0.584492 0.777858 0.898964
Si Si2 0.633430 0.492828 0.707845
Si Si3 0.340099 0.251197 0.416810
Si Si4 0.018354 0.959588 0.644929
Si Si5 0.356383 0.765155 0.300874
Si Si6 0.648512 0.892993 0.358396
Si Si7 0.572282 0.384562 0.513887
Si Si8 0.752974 0.615456 0.865723
O O1 0.440672 0.744567 0.818927
O O2 0.810685 0.715647 0.838551
O O3 0.739876 0.876968 0.806882
O O4 0.362708 0.761028 0.134268
O O5 0.467096 0.456106 0.644893
O O6 0.614205 0.579339 0.783566
O O7 0.000000 0.500000 0.500000
O O8 0.485681 0.427353 0.902332
O O9 0.389775 0.178778 0.501535
O O10 0.358046 0.332544 0.497590
O O11 0.991209 0.222244 0.514422
O O12 0.340837 0.929240 0.500367
O O13 0.056641 0.031683 0.738674
O O14 0.000000 0.000000 0.500000
O O15 0.627754 0.843314 0.228163
O O16 0.389324 0.683198 0.378458
O O17 0.916817 0.410636 0.281499
#
# Coordination Sequence:
#
# PCOD9089213 Si02
#       8
#     2   2   2   2   2   2   2   2
#     4  12  22  38  64  91 126 170 209 261 319 370
#     4   9  19  36  65  99 124 163 212 259 315 379
#     4  11  22  41  60  93 131 165 212 264 309 374
#     4  11  21  41  68  92 127 167 213 263 317 368
#     4  11  22  39  61  93 127 165 215 259 308 374
#     4  10  21  41  66  87 128 172 206 262 320 368
#     4  10  20  38  65  89 127 170 208 257 315 373
#     4  10  19  37  66  92 127 167 210 258 319 377
#
# _framework density 23.826708
#
# number of rings (size 3 to 8) (size 9 to 14) (size 15 to 20)
#    0.000    1.500    5.000    0.750    0.000    1.500 
#    4.500    3.125    0.000    4.500    0.000    0.000 
#    0.000    0.000    0.000    0.000    0.000    0.000 
#
# Total GULP energy -89287.494340 kJ/mol
# GULP energy per Si atom -5580.468396 kJ/mol
# Density = 2.377248 g / cm^3
# Si number density = 23.826708 Si / 1000 Ang^3
#
#
#
# Elastic Constant Matrix: (Units=GPa)
#
#
# Indices 1 2 3 4 5 6 
#
# 1 76.2688 33.0775 26.2958 -5.7484 27.8614 10.7825
# 2 33.0775 96.7831 38.6349 1.0438 7.4290 35.1850
# 3 26.2958 38.6349 131.1272 -4.0741 31.2660 10.2529
# 4 -5.7484 1.0438 -4.0741 33.3527 5.6791 11.0969
# 5 27.8614 7.4290 31.2660 5.6791 31.6438 7.1997
# 6 10.7825 35.1850 10.2529 11.0969 7.1997 46.3618
#
#
#
# Elastic Compliance Matrix: (Units=1/GPa)
#
#
# Indices 1 2 3 4 5 6 
#
# 1 0.025883 -0.009260 0.004023 0.009094 -0.026697 0.002087
# 2 -0.009260 0.019749 -0.005924 -0.000639 0.012514 -0.013315
# 3 0.004023 -0.005924 0.012217 0.004263 -0.015498 0.002245
# 4 0.009094 -0.000639 0.004263 0.037966 -0.016824 -0.009048
# 5 -0.026697 0.012514 -0.015498 -0.016824 0.072102 -0.007031
# 6 0.002087 -0.013315 0.002245 -0.009048 -0.007031 0.033950
#
#
# Mechanical properties :
#
#
# Convention : Reuss Voigt Hill
#
# Bulk Modulus (GPa) = 28.14768 55.57727 41.86247
# Shear Modulus (GPa) = 21.18357 36.01640 28.59998
#
# Velocity S-wave (km/s) = 2.98496 3.89214 3.46834
# Velocity P-wave (km/s) = 4.87023 6.60111 5.80059
#
# Compressibility (1/GPa) = 0.03552691
#
# Stress axis : x y z
#
# Youngs Moduli (GPa) = 38.63482 50.63608 81.85059
#
# Poissons Ratio (x) = 0.46887 -0.32926
# Poissons Ratio (y) = 0.35774 0.48492
# Poissons Ratio (z) = -0.15542 0.29999
#
# Static dielectric constant tensor:
#      x y z
#    x 1.931040 0.049440 0.028190 
#    y 0.049440 2.004190 0.006420 
#    z 0.028190 0.006420 1.880810 
# 
# From -- ./inp_files/139023.got.cif
#   From: 2010.05.17/outbox.cif.g08.bks.cpg/sg2_70_cif.got.tgz:139023.got - 2010.06.03 11:33:40.
