data_PCOD9089410
_publ_section_title
;
Structure prediction by ZEFSAII (Michael W. Deem and Ramdas Pophale) SiO2 
 PCOD9089410
Probable space group: P -1
;
_chemical_formula_sum "Si O2"
_cell_formula_units_Z 16
_cell_length_a 11.569955
_cell_length_b 17.602600
_cell_length_c 8.737530
_cell_angle_alpha 31.503339
_cell_angle_beta 119.744033
_cell_angle_gamma 125.280909
_cell_volume 759.055080
_symmetry_space_group_name_H-M "P -1"
_symmetry_group_IT_number 2
_symmetry_cell_setting 'triclinic'
loop_
_space_group_symop_operation_xyz
x,y,z
-x,-y,-z
loop_
_atom_site_type_symbol
_atom_site_label
_atom_site_fract_x
_atom_site_fract_y
_atom_site_fract_z
Si Si1 0.983425 0.155046 0.791164
Si Si2 0.214360 0.661426 0.723596
Si Si3 0.658439 0.426799 0.320830
Si Si4 0.171311 0.337580 0.372690
Si Si5 0.521272 0.636181 0.401229
Si Si6 0.897911 0.958238 0.360897
Si Si7 0.488139 0.166486 0.215429
Si Si8 0.353944 0.247680 0.275889
O O1 0.866826 0.216554 0.531856
O O2 0.127097 0.290455 0.600727
O O3 0.938172 0.103743 0.022941
O O4 0.000000 0.000000 0.000000
O O5 0.238247 0.635399 0.603330
O O6 0.360538 0.724385 0.806443
O O7 0.142563 0.490058 0.039434
O O8 0.611557 0.391120 0.527023
O O9 0.509350 0.337313 0.291267
O O10 0.708336 0.612513 0.017503
O O11 0.337150 0.359710 0.424106
O O12 0.089826 0.189133 0.470945
O O13 0.500000 0.500000 0.500000
O O14 0.544735 0.785342 0.056803
O O15 0.739200 0.891773 0.439482
O O16 0.000000 0.000000 0.500000
O O17 0.374342 0.183827 0.232623
O O18 0.500000 0.000000 0.500000
#
# Coordination Sequence:
#
# PCOD9089410 Si02
#       8
#     2   2   2   2   2   2   2   2
#     4  10  26  43  66  94 134 183 220 278 336 393
#     4  11  22  45  68  99 133 179 229 276 338 396
#     4  10  19  37  71  96 125 170 219 282 329 388
#     4  11  22  44  69  96 136 177 230 276 320 409
#     4  12  21  39  69 108 133 170 226 271 343 398
#     4  11  24  41  66  95 130 184 221 266 342 397
#     4  11  26  36  64 107 139 170 215 284 339 408
#     4  10  19  40  63  92 134 170 215 274 338 393
#
# _framework density 21.07884
#
# number of rings (size 3 to 8) (size 9 to 14) (size 15 to 20)
#    0.000    1.250    5.000    1.125    5.250    2.000 
#    0.000    3.125    0.000    0.000    0.000    0.000 
#    0.000    0.000    0.000    0.000    0.000    0.000 
#
# Total GULP energy -89231.327090 kJ/mol
# GULP energy per Si atom -5576.957943 kJ/mol
# Density = 2.103086 g / cm^3
# Si number density = 21.078840 Si / 1000 Ang^3
#
#
#
# Elastic Constant Matrix: (Units=GPa)
#
#
# Indices 1 2 3 4 5 6 
#
# 1 93.0735 5.2223 53.2037 0.1261 -7.0545 -14.2271
# 2 5.2223 63.5899 21.1212 -4.4210 1.8611 -12.3363
# 3 53.2037 21.1212 149.6905 6.7591 -11.7143 -11.9328
# 4 0.1261 -4.4210 6.7591 26.4948 -3.2421 -0.7914
# 5 -7.0545 1.8611 -11.7143 -3.2421 49.4286 2.7187
# 6 -14.2271 -12.3363 -11.9328 -0.7914 2.7187 26.2286
#
#
#
# Elastic Compliance Matrix: (Units=1/GPa)
#
#
# Indices 1 2 3 4 5 6 
#
# 1 0.014486 0.001802 -0.004921 0.001753 0.000593 0.006458
# 2 0.001802 0.018510 -0.002843 0.003900 -0.001333 0.008646
# 3 -0.004921 -0.002843 0.009047 -0.002593 0.001385 -0.000112
# 4 0.001753 0.003900 -0.002593 0.039361 0.001928 0.002593
# 5 0.000593 -0.001333 0.001385 0.001928 0.020919 -0.001785
# 6 0.006458 0.008646 -0.000112 0.002593 -0.001785 0.045908
#
#
# Mechanical properties :
#
#
# Convention : Reuss Voigt Hill
#
# Bulk Modulus (GPa) = 33.20265 51.71646 42.45956
# Shear Modulus (GPa) = 29.37836 35.55085 32.46461
#
# Velocity S-wave (km/s) = 3.73733 4.11124 3.92873
# Velocity P-wave (km/s) = 5.86595 6.86472 6.38489
#
# Compressibility (1/GPa) = 0.03011808
#
# Stress axis : x y z
#
# Youngs Moduli (GPa) = 69.03390 54.02594 110.53231
#
# Poissons Ratio (x) = -0.09736 0.54390
# Poissons Ratio (y) = -0.12440 0.31429
# Poissons Ratio (z) = 0.33970 0.15362
#
# Static dielectric constant tensor:
#      x y z
#    x 1.837480 -0.005460 -0.056910 
#    y -0.005460 1.782750 0.024530 
#    z -0.056910 0.024530 1.814610 
# 
# From -- ./inp_files/243409.got.cif
#   From: 2010.05.17/outbox.cif.g08.bks.cpg/sg2_122_cif.got.tgz:243409.got - 2010.06.03 11:33:40.
