data_PCOD9089777
_publ_section_title
;
Structure prediction by ZEFSAII (Michael W. Deem and Ramdas Pophale) SiO2 
 PCOD9089777
Probable space group: P -1
;
_chemical_formula_sum "Si O2"
_cell_formula_units_Z 16
_cell_length_a 18.982739
_cell_length_b 10.843291
_cell_length_c 9.059722
_cell_angle_alpha 137.052192
_cell_angle_beta 50.354387
_cell_angle_gamma 149.152003
_cell_volume 651.246017
_symmetry_space_group_name_H-M "P -1"
_symmetry_group_IT_number 2
_symmetry_cell_setting 'triclinic'
loop_
_space_group_symop_operation_xyz
x,y,z
-x,-y,-z
loop_
_atom_site_type_symbol
_atom_site_label
_atom_site_fract_x
_atom_site_fract_y
_atom_site_fract_z
Si Si1 0.032206 0.806664 0.449177
Si Si2 0.558975 0.842330 0.701195
Si Si3 0.293756 0.294229 0.694586
Si Si4 0.061533 0.429958 0.130889
Si Si5 0.291267 0.823796 0.922391
Si Si6 0.294758 0.624369 0.179928
Si Si7 0.183109 0.017121 0.115318
Si Si8 0.282170 0.537646 0.445517
O O1 0.028590 0.594938 0.327437
O O2 0.883057 0.672438 0.519086
O O3 0.141538 0.071321 0.636687
O O4 0.097623 0.900440 0.280446
O O5 0.402702 0.548759 0.660527
O O6 0.650281 0.827963 0.480559
O O7 0.599904 0.097384 0.809162
O O8 0.611464 0.927296 0.875168
O O9 0.298942 0.423518 0.945641
O O10 0.145047 0.479370 0.202613
O O11 0.167381 0.574116 0.976201
O O12 0.922617 0.123977 0.002780
O O13 0.339509 0.728973 0.675674
O O14 0.242100 0.902332 0.941061
O O15 0.329545 0.688212 0.359558
O O16 0.294771 0.340121 0.254724
#
# Coordination Sequence:
#
# PCOD9089777 Si02
#       8
#     2   2   2   2   2   2   2   2
#     4  11  20  38  64  97 121 162 210 255 306 365
#     4  10  23  44  71  90 113 167 218 266 293 351
#     4  11  22  41  70  92 119 160 219 258 302 360
#     4  10  19  38  61  89 127 162 208 253 302 363
#     4  10  20  39  62  91 119 160 215 256 301 357
#     4  11  25  41  58  99 129 163 199 254 321 372
#     4  11  20  36  59  93 126 164 209 250 301 371
#     4  12  25  36  63  96 134 166 189 251 330 376
#
# _framework density 24.568286000000001
#
# number of rings (size 3 to 8) (size 9 to 14) (size 15 to 20)
#    0.000    1.250    6.250    2.250    3.500    3.500 
#    0.000    0.625    0.000    2.250    0.000    0.000 
#    0.000    0.000    0.000    0.000    0.000    0.000 
#
# Total GULP energy -89599.179080 kJ/mol
# GULP energy per Si atom -5599.948692 kJ/mol
# Density = 2.451237 g / cm^3
# Si number density = 24.568286 Si / 1000 Ang^3
#
#
#
# Elastic Constant Matrix: (Units=GPa)
#
#
# Indices 1 2 3 4 5 6 
#
# 1 65.4999 2.7242 26.2171 -0.2402 -3.6322 1.7470
# 2 2.7242 35.0954 9.5383 12.5883 2.4618 4.1347
# 3 26.2171 9.5383 105.6566 26.2409 -1.0617 -2.4718
# 4 -0.2402 12.5883 26.2409 22.0576 -2.7779 2.6925
# 5 -3.6322 2.4618 -1.0617 -2.7779 27.1798 6.0698
# 6 1.7470 4.1347 -2.4718 2.6925 6.0698 26.1331
#
#
#
# Elastic Compliance Matrix: (Units=1/GPa)
#
#
# Indices 1 2 3 4 5 6 
#
# 1 0.018770 -0.003686 -0.007372 0.012110 0.004616 -0.003689
# 2 -0.003686 0.038043 0.004200 -0.027414 -0.006335 -0.001080
# 3 -0.007372 0.004200 0.016861 -0.023656 -0.004205 0.004837
# 4 0.012110 -0.027414 -0.023656 0.092620 0.015279 -0.011801
# 5 0.004616 -0.006335 -0.004205 0.015279 0.041835 -0.010995
# 6 -0.003689 -0.001080 0.004837 -0.011801 -0.010995 0.042910
#
#
# Mechanical properties :
#
#
# Convention : Reuss Voigt Hill
#
# Bulk Modulus (GPa) = 16.67879 31.46792 24.07335
# Shear Modulus (GPa) = 17.55973 26.25893 21.90933
#
# Velocity S-wave (km/s) = 2.67635 3.27282 2.98950
# Velocity P-wave (km/s) = 4.04400 5.20749 4.66218
#
# Compressibility (1/GPa) = 0.05995640
#
# Stress axis : x y z
#
# Youngs Moduli (GPa) = 53.27602 26.28600 59.30896
#
# Poissons Ratio (x) = 0.09690 0.43725
# Poissons Ratio (y) = 0.19640 -0.24909
# Poissons Ratio (z) = 0.39277 -0.11040
#
# Static dielectric constant tensor:
#      x y z
#    x 1.946880 0.036370 -0.027810 
#    y 0.036370 1.953280 0.003270 
#    z -0.027810 0.003270 1.936750 
# 
# From -- ./inp_files/346448.got.cif
#   From: 2010.05.17/outbox.cif.g08.bks.cpg/sg2_174_cif.got.tgz:346448.got - 2010.06.03 11:33:40.
