data_PCOD9089963
_publ_section_title
;
Structure prediction by ZEFSAII (Michael W. Deem and Ramdas Pophale) SiO2 
 PCOD9089963
Probable space group: P -1
;
_chemical_formula_sum "Si O2"
_cell_formula_units_Z 16
_cell_length_a 11.493114
_cell_length_b 8.885110
_cell_length_c 14.900192
_cell_angle_alpha 140.713084
_cell_angle_beta 117.725263
_cell_angle_gamma 84.272432
_cell_volume 755.315893
_symmetry_space_group_name_H-M "P -1"
_symmetry_group_IT_number 2
_symmetry_cell_setting 'triclinic'
loop_
_space_group_symop_operation_xyz
x,y,z
-x,-y,-z
loop_
_atom_site_type_symbol
_atom_site_label
_atom_site_fract_x
_atom_site_fract_y
_atom_site_fract_z
Si Si1 0.726188 0.117529 0.944346
Si Si2 0.644552 0.041007 0.512832
Si Si3 0.726181 0.728063 0.533968
Si Si4 0.608029 0.516174 0.677891
Si Si5 0.749245 0.745426 0.009580
Si Si6 0.960946 0.070681 0.919284
Si Si7 0.450178 0.667779 0.122418
Si Si8 0.677663 0.196747 0.164725
O O1 0.590661 0.135278 0.857288
O O2 0.685302 0.805680 0.795008
O O3 0.872419 0.236324 0.990103
O O4 0.742645 0.238748 0.105883
O O5 0.744310 0.966626 0.580985
O O6 0.581015 0.828143 0.312582
O O7 0.500000 0.000000 0.500000
O O8 0.690260 0.331141 0.618523
O O9 0.564685 0.638966 0.479732
O O10 0.850746 0.833058 0.703586
O O11 0.713355 0.469885 0.355512
O O12 0.614730 0.594746 0.821391
O O13 0.700936 0.541588 0.979511
O O14 0.747224 0.023421 0.158701
O O15 0.892179 0.789661 0.024408
O O16 0.000000 0.000000 0.000000
O O17 0.500000 0.500000 0.000000
O O18 0.500000 0.000000 0.000000
#
# Coordination Sequence:
#
# PCOD9089963 Si02
#       8
#     2   2   2   2   2   2   2   2
#     4  11  23  41  68  99 137 175 224 278 337 397
#     4  10  19  38  63 101 129 167 224 282 330 396
#     4  11  22  38  72  96 133 182 222 279 345 393
#     4  10  20  40  69  96 129 170 231 277 329 387
#     4  11  23  44  64  95 141 173 217 279 336 397
#     4  12  26  46  62 101 139 183 231 271 333 408
#     4  12  24  40  70 103 136 170 224 286 341 391
#     4  11  19  41  70  99 130 173 224 281 336 391
#
# _framework density 21.183191000000001
#
# number of rings (size 3 to 8) (size 9 to 14) (size 15 to 20)
#    0.000    1.000    7.500    3.000    0.000    3.000 
#    0.000    0.000    0.000    1.500    0.000    0.000 
#    0.000    0.000    0.000    0.000    0.000    0.000 
#
# Total GULP energy -89235.274705 kJ/mol
# GULP energy per Si atom -5577.204669 kJ/mol
# Density = 2.113498 g / cm^3
# Si number density = 21.183191 Si / 1000 Ang^3
#
#
#
# Elastic Constant Matrix: (Units=GPa)
#
#
# Indices 1 2 3 4 5 6 
#
# 1 84.9468 28.4740 46.4748 10.2758 -14.9192 -3.4793
# 2 28.4740 111.8017 46.3823 7.7157 -8.9780 -5.6852
# 3 46.4748 46.3823 127.4335 -13.2932 -21.2558 -3.9663
# 4 10.2758 7.7157 -13.2932 28.9579 -4.6620 -1.2950
# 5 -14.9192 -8.9780 -21.2558 -4.6620 37.9921 -1.4343
# 6 -3.4793 -5.6852 -3.9663 -1.2950 -1.4343 22.0223
#
#
#
# Elastic Compliance Matrix: (Units=1/GPa)
#
#
# Indices 1 2 3 4 5 6 
#
# 1 0.016944 -0.000891 -0.006385 -0.008362 0.001880 0.000928
# 2 -0.000891 0.011336 -0.004344 -0.004722 -0.000617 0.001685
# 3 -0.006385 -0.004344 0.013851 0.010741 0.005585 0.001360
# 4 -0.008362 -0.004722 0.010741 0.044964 0.007222 0.002509
# 5 0.001880 -0.000617 0.005585 0.007222 0.031060 0.003591
# 6 0.000928 0.001685 0.001360 0.002509 0.003591 0.046616
#
#
# Mechanical properties :
#
#
# Convention : Reuss Voigt Hill
#
# Bulk Modulus (GPa) = 52.93657 62.98268 57.95962
# Shear Modulus (GPa) = 25.73239 31.31787 28.52513
#
# Velocity S-wave (km/s) = 3.48911 3.84921 3.67358
# Velocity P-wave (km/s) = 6.42464 7.03933 6.73900
#
# Compressibility (1/GPa) = 0.01889053
#
# Stress axis : x y z
#
# Youngs Moduli (GPa) = 59.01934 88.21823 72.19586
#
# Poissons Ratio (x) = 0.07862 0.46095
# Poissons Ratio (y) = 0.05260 0.31361
# Poissons Ratio (z) = 0.37682 0.38321
#
# Static dielectric constant tensor:
#      x y z
#    x 1.817300 0.049940 0.039990 
#    y 0.049940 1.907060 0.058870 
#    z 0.039990 0.058870 1.802200 
# 
# From -- ./inp_files/514769.got.cif
#   From: 2010.05.17/outbox.cif.g08.bks.cpg/sg2_258_cif.got.tgz:514769.got - 2010.06.03 11:33:40.
