data_PCOD9089534
_publ_section_title
;
Structure prediction by ZEFSAII (Michael W. Deem and Ramdas Pophale) SiO2 
 PCOD9089534
Probable space group: P -1
;
_chemical_formula_sum "Si O2"
_cell_formula_units_Z 16
_cell_length_a 18.043070
_cell_length_b 9.041287
_cell_length_c 8.099591
_cell_angle_alpha 129.411600
_cell_angle_beta 130.192811
_cell_angle_gamma 43.395744
_cell_volume 657.853157
_symmetry_space_group_name_H-M "P -1"
_symmetry_group_IT_number 2
_symmetry_cell_setting 'triclinic'
loop_
_space_group_symop_operation_xyz
x,y,z
-x,-y,-z
loop_
_atom_site_type_symbol
_atom_site_label
_atom_site_fract_x
_atom_site_fract_y
_atom_site_fract_z
Si Si1 0.026078 0.119104 0.268482
Si Si2 0.216969 0.854033 0.594360
Si Si3 0.166237 0.326131 0.898666
Si Si4 0.646420 0.675492 0.028661
Si Si5 0.493935 0.940725 0.670255
Si Si6 0.903533 0.579602 0.584578
Si Si7 0.623537 0.302984 0.606205
Si Si8 0.277058 0.381900 0.406962
O O1 0.103355 0.212961 0.375718
O O2 0.922624 0.355667 0.360351
O O3 0.093158 0.951227 0.397743
O O4 0.000000 0.000000 0.000000
O O5 0.301336 0.796698 0.520105
O O6 0.265610 0.620310 0.595294
O O7 0.204636 0.070317 0.820542
O O8 0.242556 0.311895 0.840821
O O9 0.029453 0.471072 0.777670
O O10 0.206300 0.430009 0.168659
O O11 0.578911 0.799812 0.187210
O O12 0.564921 0.812750 0.851084
O O13 0.672546 0.423403 0.871889
O O14 0.404546 0.863142 0.460445
O O15 0.594597 0.826406 0.597465
O O16 0.796025 0.664036 0.605061
O O17 0.500000 0.500000 0.500000
#
# Coordination Sequence:
#
# PCOD9089534 Si02
#       8
#     2   2   2   2   2   2   2   2
#     4  10  23  41  60  74 107 151 198 225 264 325
#     4  11  20  32  56  87 108 143 184 228 274 323
#     4  10  19  31  53  82 117 139 179 228 278 327
#     4   9  16  26  46  75 112 142 172 212 271 323
#     4   9  17  27  46  77 112 143 170 213 274 324
#     4  10  23  40  55  82 110 148 185 227 276 333
#     4  10  16  28  48  78 114 136 176 224 266 322
#     4  11  21  33  55  85 121 140 172 229 290 326
#
# _framework density 24.321536999999999
#
# number of rings (size 3 to 8) (size 9 to 14) (size 15 to 20)
#    0.000    2.000    5.000    1.125    1.750    3.000 
#    0.000    0.000    0.000    0.750    0.000    1.750 
#    0.000    0.000    0.000    0.000    0.000    0.000 
#
# Total GULP energy -89382.447995 kJ/mol
# GULP energy per Si atom -5586.403000 kJ/mol
# Density = 2.426618 g / cm^3
# Si number density = 24.321537 Si / 1000 Ang^3
#
#
#
# Elastic Constant Matrix: (Units=GPa)
#
#
# Indices 1 2 3 4 5 6 
#
# 1 147.8125 22.0251 18.3312 14.1405 -4.6534 -5.4885
# 2 22.0251 103.7777 6.9036 10.5184 12.7094 -9.9500
# 3 18.3312 6.9036 80.1293 19.1995 23.9731 -2.6069
# 4 14.1405 10.5184 19.1995 24.9163 1.1538 9.9270
# 5 -4.6534 12.7094 23.9731 1.1538 35.6759 -2.6228
# 6 -5.4885 -9.9500 -2.6069 9.9270 -2.6228 16.8601
#
#
#
# Elastic Compliance Matrix: (Units=1/GPa)
#
#
# Indices 1 2 3 4 5 6 
#
# 1 0.007846 -0.000755 -0.000874 -0.005902 0.002500 0.005838
# 2 -0.000755 0.013467 0.005346 -0.015734 -0.006749 0.016743
# 3 -0.000874 0.005346 0.024397 -0.028059 -0.015985 0.020677
# 4 -0.005902 -0.015734 -0.028059 0.099680 0.015182 -0.071874
# 5 0.002500 -0.006749 -0.015985 0.015182 0.040401 -0.008295
# 6 0.005838 0.016743 0.020677 -0.071874 -0.008295 0.115318
#
#
# Mechanical properties :
#
#
# Convention : Reuss Voigt Hill
#
# Bulk Modulus (GPa) = 18.81610 47.35994 33.08802
# Shear Modulus (GPa) = 16.05704 34.45443 25.25573
#
# Velocity S-wave (km/s) = 2.57222 3.76789 3.22593
# Velocity P-wave (km/s) = 4.07123 6.20032 5.24495
#
# Compressibility (1/GPa) = 0.05314598
#
# Stress axis : x y z
#
# Youngs Moduli (GPa) = 127.44826 74.25461 40.98817
#
# Poissons Ratio (x) = 0.05608 0.03581
# Poissons Ratio (y) = 0.09626 -0.21914
# Poissons Ratio (z) = 0.11133 -0.39700
#
# Static dielectric constant tensor:
#      x y z
#    x 1.931390 -0.022480 -0.035760 
#    y -0.022480 2.058440 -0.059620 
#    z -0.035760 -0.059620 2.004850 
# 
# From -- ./inp_files/329643.got.cif
#   From: 2010.05.17/outbox.cif.g08.bks.cpg/sg2_165_cif.got.tgz:329643.got - 2010.06.03 11:33:40.
