data_PCOD9089209
_publ_section_title
;
Structure prediction by ZEFSAII (Michael W. Deem and Ramdas Pophale) SiO2 
 PCOD9089209
Probable space group: P -1
;
_chemical_formula_sum "Si O2"
_cell_formula_units_Z 16
_cell_length_a 7.626284
_cell_length_b 23.412584
_cell_length_c 18.918805
_cell_angle_alpha 157.379581
_cell_angle_beta 32.632063
_cell_angle_gamma 135.551453
_cell_volume 666.980279
_symmetry_space_group_name_H-M "P -1"
_symmetry_group_IT_number 2
_symmetry_cell_setting 'triclinic'
loop_
_space_group_symop_operation_xyz
x,y,z
-x,-y,-z
loop_
_atom_site_type_symbol
_atom_site_label
_atom_site_fract_x
_atom_site_fract_y
_atom_site_fract_z
Si Si1 0.763817 0.024803 0.679055
Si Si2 0.318988 0.873419 0.577766
Si Si3 0.633978 0.607331 0.383910
Si Si4 0.586351 0.651236 0.886584
Si Si5 0.357931 0.185401 0.255216
Si Si6 0.757913 0.670580 0.081240
Si Si7 0.973961 0.204418 0.000851
Si Si8 0.127779 0.715820 0.253831
O O1 0.468114 0.944344 0.673379
O O2 0.002067 0.906019 0.518575
O O3 0.000000 0.000000 0.500000
O O4 0.576309 0.209498 0.955312
O O5 0.629522 0.763813 0.302690
O O6 0.044491 0.783111 0.582611
O O7 0.145845 0.026534 0.763943
O O8 0.360127 0.519526 0.357986
O O9 0.538760 0.751136 0.633857
O O10 0.813469 0.653830 0.307785
O O11 0.934551 0.480863 0.179618
O O12 0.891956 0.689844 0.868255
O O13 0.299727 0.670607 0.067771
O O14 0.568229 0.241657 0.188034
O O15 0.500000 0.000000 0.000000
O O16 0.422971 0.646208 0.131351
O O17 0.889001 0.768726 0.090805
#
# Coordination Sequence:
#
# PCOD9089209 Si02
#       8
#     2   2   2   2   2   2   2   2
#     4   9  18  36  58  91 128 157 193 247 305 357
#     4  10  19  37  66  92 122 159 204 254 297 359
#     4  12  23  38  61  92 126 158 202 255 306 360
#     4   9  20  37  60  92 125 157 198 255 303 357
#     4  10  23  43  62  85 123 166 205 248 304 364
#     4  11  21  35  62  96 120 154 207 258 301 353
#     4   9  21  40  62  86 126 165 202 244 305 359
#     4  10  20  36  59  94 129 157 195 248 315 358
#
# _framework density 23.988717999999999
#
# number of rings (size 3 to 8) (size 9 to 14) (size 15 to 20)
#    0.000    2.000    1.250    3.375    0.000    2.000 
#    2.250    0.000    2.750    2.250    0.000    0.000 
#    0.000    0.000    0.000    0.000    0.000    0.000 
#
# Total GULP energy -89440.994504 kJ/mol
# GULP energy per Si atom -5590.062157 kJ/mol
# Density = 2.393412 g / cm^3
# Si number density = 23.988718 Si / 1000 Ang^3
#
#
#
# Elastic Constant Matrix: (Units=GPa)
#
#
# Indices 1 2 3 4 5 6 
#
# 1 49.4140 -7.6451 24.7056 4.0979 -3.9813 22.4940
# 2 -7.6451 95.5400 24.5712 -12.3205 -9.1345 32.9620
# 3 24.7056 24.5712 64.3429 17.0399 23.7639 7.9410
# 4 4.0979 -12.3205 17.0399 33.4602 1.2295 -1.3356
# 5 -3.9813 -9.1345 23.7639 1.2295 34.3644 17.6192
# 6 22.4940 32.9620 7.9410 -1.3356 17.6192 31.8683
#
#
#
# Elastic Compliance Matrix: (Units=1/GPa)
#
#
# Indices 1 2 3 4 5 6 
#
# 1 0.002597 -0.012771 0.011662 -0.009409 -0.020882 0.019621
# 2 -0.012771 -0.000023 0.009377 -0.002029 -0.015757 0.015328
# 3 0.011662 0.009377 0.006758 -0.002976 0.013116 -0.026991
# 4 -0.009409 -0.002029 -0.002976 0.032758 -0.008805 0.015723
# 5 -0.020882 -0.015757 0.013116 -0.008805 -0.000433 0.027639
# 6 0.019621 0.015328 -0.026991 0.015723 0.027639 -0.006220
#
#
# Mechanical properties :
#
#
# Convention : Reuss Voigt Hill
#
# Bulk Modulus (GPa) = 38.65474 32.50668 35.58071
# Shear Modulus (GPa) = 181.67493 31.11627 106.39560
#
# Velocity S-wave (km/s) = 8.71194 3.60546 6.66698
# Velocity P-wave (km/s) = 10.83263 5.55992 8.60984
#
# Compressibility (1/GPa) = 0.02587005
#
# Stress axis : x y z
#
# Youngs Moduli (GPa) = 385.09207 -43317.90590 147.97134
#
# Poissons Ratio (x) = -553.19665 -1.72569
# Poissons Ratio (y) = 4.91787 -1.38759
# Poissons Ratio (z) = -4.49107 406.21118
#
# Static dielectric constant tensor:
#      x y z
#    x 1.967690 0.053820 0.025790 
#    y 0.053820 1.931670 -0.002010 
#    z 0.025790 -0.002010 1.944700 
# 
# From -- ./inp_files/591976.got.cif
#   From: 2010.05.17/outbox.cif.g08.bks.cpg/sg2_296_cif.got.tgz:591976.got - 2010.06.03 11:33:40.
