data_PCOD9089308
_publ_section_title
;
Structure prediction by ZEFSAII (Michael W. Deem and Ramdas Pophale) SiO2 
 PCOD9089308
Probable space group: P -1
;
_chemical_formula_sum "Si O2"
_cell_formula_units_Z 16
_cell_length_a 11.113304
_cell_length_b 11.749427
_cell_length_c 21.955341
_cell_angle_alpha 25.049940
_cell_angle_beta 30.660056
_cell_angle_gamma 37.842575
_cell_volume 618.267479
_symmetry_space_group_name_H-M "P -1"
_symmetry_group_IT_number 2
_symmetry_cell_setting 'triclinic'
loop_
_space_group_symop_operation_xyz
x,y,z
-x,-y,-z
loop_
_atom_site_type_symbol
_atom_site_label
_atom_site_fract_x
_atom_site_fract_y
_atom_site_fract_z
Si Si1 0.068054 0.027929 0.570968
Si Si2 0.597934 0.790685 0.110821
Si Si3 0.274046 0.437458 0.361633
Si Si4 0.444095 0.875713 0.275187
Si Si5 0.517402 0.222336 0.251793
Si Si6 0.914042 0.732187 0.200093
Si Si7 0.952806 0.914477 0.233038
Si Si8 0.214175 0.422239 0.126470
O O1 0.159940 0.154484 0.532354
O O2 0.086730 0.506627 0.203334
O O3 0.831557 0.197538 0.569299
O O4 0.982121 0.727932 0.755037
O O5 0.474376 0.511006 0.286506
O O6 0.521089 0.870047 0.173955
O O7 0.500000 0.000000 0.000000
O O8 0.875409 0.836541 0.963225
O O9 0.413779 0.461983 0.223687
O O10 0.069717 0.672524 0.338828
O O11 0.643112 0.715801 0.304452
O O12 0.417188 0.186116 0.157914
O O13 0.288663 0.057510 0.415608
O O14 0.693059 0.024716 0.309607
O O15 0.676164 0.340359 0.073537
O O16 0.937722 0.786633 0.234346
O O17 0.000000 0.000000 0.000000
#
# Coordination Sequence:
#
# PCOD9089308 Si02
#       8
#     2   2   2   2   2   2   2   2
#     4   8  23  42  62  98 129 173 212 260 327 385
#     4  10  19  37  67  97 120 173 220 258 325 383
#     4   9  22  42  64  92 132 167 215 264 320 387
#     4  10  22  42  62  94 135 164 212 268 320 377
#     4  10  20  41  66  90 131 168 213 263 326 373
#     4  12  23  38  67 103 120 175 221 259 327 383
#     4  11  22  39  65  98 128 165 225 267 316 387
#     4  10  21  41  67  88 136 165 214 267 316 385
#
# _framework density 25.878767
#
# number of rings (size 3 to 8) (size 9 to 14) (size 15 to 20)
#    1.500    0.500    2.500    1.500    0.000    3.500 
#    0.000    6.250    0.000    6.000    0.000    0.000 
#    0.000    0.000    0.000    0.000    0.000    0.000 
#
# Total GULP energy -89395.183321 kJ/mol
# GULP energy per Si atom -5587.198958 kJ/mol
# Density = 2.581987 g / cm^3
# Si number density = 25.878767 Si / 1000 Ang^3
#
#
#
# Elastic Constant Matrix: (Units=GPa)
#
#
# Indices 1 2 3 4 5 6 
#
# 1 113.6198 28.2279 59.5494 6.4036 -23.8734 13.1863
# 2 28.2279 72.7521 21.9435 2.3655 -8.7125 0.0552
# 3 59.5494 21.9435 154.5614 -0.4343 -29.3489 -13.1602
# 4 6.4036 2.3655 -0.4343 42.7464 -1.1891 -16.4402
# 5 -23.8734 -8.7125 -29.3489 -1.1891 45.0924 2.5784
# 6 13.1863 0.0552 -13.1602 -16.4402 2.5784 31.6883
#
#
#
# Elastic Compliance Matrix: (Units=1/GPa)
#
#
# Indices 1 2 3 4 5 6 
#
# 1 0.015476 -0.003516 -0.005753 -0.006984 0.004317 -0.012798
# 2 -0.003516 0.015362 -0.000599 0.000156 0.000652 0.001215
# 3 -0.005753 -0.000599 0.010093 0.004398 0.003031 0.008622
# 4 -0.006984 0.000156 0.004398 0.032856 -0.001190 0.021875
# 5 0.004317 0.000652 0.003031 -0.001190 0.026720 -0.003330
# 6 -0.012798 0.001215 0.008622 0.021875 -0.003330 0.052082
#
#
# Mechanical properties :
#
#
# Convention : Reuss Voigt Hill
#
# Bulk Modulus (GPa) = 47.17726 62.26389 54.72057
# Shear Modulus (GPa) = 27.87223 39.31958 33.59591
#
# Velocity S-wave (km/s) = 3.28538 3.90215 3.60697
# Velocity P-wave (km/s) = 5.71500 6.66441 6.20788
#
# Compressibility (1/GPa) = 0.02119665
#
# Stress axis : x y z
#
# Youngs Moduli (GPa) = 64.61621 65.09543 99.07446
#
# Poissons Ratio (x) = 0.22885 0.56997
# Poissons Ratio (y) = 0.22717 0.05932
# Poissons Ratio (z) = 0.37173 0.03898
#
# Static dielectric constant tensor:
#      x y z
#    x 2.069420 -0.045050 0.001620 
#    y -0.045050 1.997580 -0.027420 
#    z 0.001620 -0.027420 2.105420 
# 
# From -- ./inp_files/610188.got.cif
#   From: 2010.05.17/outbox.cif.g08.bks.cpg/sg2_306_cif.got.tgz:610188.got - 2010.06.03 11:33:40.
