data_PCOD9089684
_publ_section_title
;
Structure prediction by ZEFSAII (Michael W. Deem and Ramdas Pophale) SiO2 
 PCOD9089684
Probable space group: P -1
;
_chemical_formula_sum "Si O2"
_cell_formula_units_Z 16
_cell_length_a 10.100046
_cell_length_b 13.451910
_cell_length_c 10.316374
_cell_angle_alpha 131.049193
_cell_angle_beta 83.642251
_cell_angle_gamma 131.762403
_cell_volume 641.897655
_symmetry_space_group_name_H-M "P -1"
_symmetry_group_IT_number 2
_symmetry_cell_setting 'triclinic'
loop_
_space_group_symop_operation_xyz
x,y,z
-x,-y,-z
loop_
_atom_site_type_symbol
_atom_site_label
_atom_site_fract_x
_atom_site_fract_y
_atom_site_fract_z
Si Si1 0.652138 0.233123 0.401839
Si Si2 0.967757 0.598281 0.180187
Si Si3 0.420986 0.625726 0.261469
Si Si4 0.168719 0.663210 0.796257
Si Si5 0.640860 0.969104 0.326951
Si Si6 0.813765 0.749229 0.343900
Si Si7 0.972755 0.872656 0.713059
Si Si8 0.012170 0.814742 0.944952
O O1 0.526642 0.247432 0.505525
O O2 0.673780 0.256142 0.266220
O O3 0.571944 0.029543 0.288268
O O4 0.910566 0.444924 0.597617
O O5 0.193393 0.827951 0.416543
O O6 0.815522 0.420686 0.157140
O O7 0.864506 0.652050 0.186231
O O8 0.000000 0.500000 0.000000
O O9 0.589448 0.640178 0.239597
O O10 0.189406 0.385085 0.115853
O O11 0.460007 0.757797 0.252901
O O12 0.184991 0.832936 0.962724
O O13 0.786206 0.976174 0.238404
O O14 0.825786 0.730534 0.481198
O O15 0.000000 0.000000 0.500000
O O16 0.947842 0.769192 0.759311
O O17 0.932873 0.992977 0.858678
#
# Coordination Sequence:
#
# PCOD9089684 Si02
#       8
#     2   2   2   2   2   2   2   2
#     4   9  18  34  58  87 116 148 204 253 307 352
#     4  10  22  37  64  87 117 168 214 240 301 384
#     4  11  22  36  62  96 121 161 209 254 311 362
#     4   9  18  34  60  85 116 155 203 258 299 356
#     4  10  19  38  60  90 120 159 200 262 306 364
#     4  11  23  42  62  86 128 171 198 248 319 378
#     4  10  21  40  65  85 126 165 208 245 318 374
#     4  10  22  38  64  96 117 162 210 264 299 365
#
# _framework density 24.926093000000002
#
# number of rings (size 3 to 8) (size 9 to 14) (size 15 to 20)
#    0.000    2.000    3.750    0.375    7.000    1.000 
#    0.000    1.250    0.000    1.500    0.000    0.000 
#    0.000    0.000    0.000    0.000    0.000    0.000 
#
# Total GULP energy -89563.293105 kJ/mol
# GULP energy per Si atom -5597.705819 kJ/mol
# Density = 2.486936 g / cm^3
# Si number density = 24.926093 Si / 1000 Ang^3
#
#
#
# Elastic Constant Matrix: (Units=GPa)
#
#
# Indices 1 2 3 4 5 6 
#
# 1 83.1595 50.8274 33.4872 1.3749 -36.6230 -11.1637
# 2 50.8274 187.3207 53.3833 -13.0560 -8.2183 -23.9081
# 3 33.4872 53.3833 114.3247 -0.2083 -25.5682 -6.3569
# 4 1.3749 -13.0560 -0.2083 37.7052 2.4577 0.9367
# 5 -36.6230 -8.2183 -25.5682 2.4577 43.3282 11.4983
# 6 -11.1637 -23.9081 -6.3569 0.9367 11.4983 35.6729
#
#
#
# Elastic Compliance Matrix: (Units=1/GPa)
#
#
# Indices 1 2 3 4 5 6 
#
# 1 0.024881 -0.006660 0.000350 -0.004505 0.021105 -0.003299
# 2 -0.006660 0.008787 -0.003570 0.003633 -0.007755 0.005573
# 3 0.000350 -0.003570 0.011812 -0.001600 0.007344 -0.002503
# 4 -0.004505 0.003633 -0.001600 0.028289 -0.006197 0.001994
# 5 0.021105 -0.007755 0.007344 -0.006197 0.047426 -0.012408
# 6 -0.003299 0.005573 -0.002503 0.001994 -0.012408 0.034236
#
#
# Mechanical properties :
#
#
# Convention : Reuss Voigt Hill
#
# Bulk Modulus (GPa) = 38.87987 73.35565 56.11776
# Shear Modulus (GPa) = 27.20876 39.81506 33.51191
#
# Velocity S-wave (km/s) = 3.30749 4.00099 3.67065
# Velocity P-wave (km/s) = 5.49708 7.13001 6.36612
#
# Compressibility (1/GPa) = 0.02572025
#
# Stress axis : x y z
#
# Youngs Moduli (GPa) = 40.19154 113.80050 84.66077
#
# Poissons Ratio (x) = 0.75793 -0.02967
# Poissons Ratio (y) = 0.26768 0.30225
# Poissons Ratio (z) = -0.01408 0.40628
#
# Static dielectric constant tensor:
#      x y z
#    x 2.000870 -0.002910 0.072350 
#    y -0.002910 1.910940 -0.016990 
#    z 0.072350 -0.016990 2.075600 
# 
# From -- ./inp_files/434300.got.cif
#   From: 2010.05.17/outbox.cif.g08.bks.cpg/sg2_218_cif.got.tgz:434300.got - 2010.06.03 11:33:40.
