data_PCOD9089189
_publ_section_title
;
Structure prediction by ZEFSAII (Michael W. Deem and Ramdas Pophale) SiO2 
 PCOD9089189
Probable space group: P -1
;
_chemical_formula_sum "Si O2"
_cell_formula_units_Z 14
_cell_length_a 9.046335
_cell_length_b 9.424580
_cell_length_c 8.790289
_cell_angle_alpha 77.538146
_cell_angle_beta 107.237164
_cell_angle_gamma 122.365468
_cell_volume 603.065780
_symmetry_space_group_name_H-M "P -1"
_symmetry_group_IT_number 2
_symmetry_cell_setting 'triclinic'
loop_
_space_group_symop_operation_xyz
x,y,z
-x,-y,-z
loop_
_atom_site_type_symbol
_atom_site_label
_atom_site_fract_x
_atom_site_fract_y
_atom_site_fract_z
Si Si1 0.716391 0.611519 0.483283
Si Si2 0.891840 0.825922 0.913615
Si Si3 0.220923 0.607382 0.226694
Si Si4 0.058078 0.872579 0.615367
Si Si5 0.512302 0.292649 0.278627
Si Si6 0.436067 0.128759 0.592153
Si Si7 0.833212 0.484941 0.113666
O O1 0.708787 0.513347 0.659282
O O2 0.606842 0.470084 0.359386
O O3 0.644336 0.741910 0.442669
O O4 0.930907 0.715029 0.505237
O O5 0.689125 0.776956 0.823204
O O6 0.996175 0.840760 0.781714
O O7 0.861564 0.668841 0.043510
O O8 0.000000 0.000000 0.000000
O O9 0.377279 0.791889 0.279328
O O10 0.018399 0.530521 0.241753
O O11 0.191970 0.596302 0.041480
O O12 0.269235 0.955187 0.638088
O O13 0.000000 0.000000 0.500000
O O14 0.489092 0.152709 0.425772
O O15 0.656485 0.349531 0.177222
#
# Coordination Sequence:
#
# PCOD9089189 Si02
#       7
#     2   2   2   2   2   2   2
#     4  10  19  37  66  89 116 155 214 245 285 349
#     4  12  25  39  60  95 126 152 197 253 306 361
#     4  10  21  41  61  85 123 162 205 244 294 369
#     4  10  20  37  61  89 119 156 199 242 302 346
#     4  11  22  37  62  89 118 153 208 252 290 343
#     4  10  20  36  63  91 116 160 204 245 293 349
#     4  11  24  39  59  90 124 163 195 246 313 351
#
# _framework density 23.214714000000001
#
# number of rings (size 3 to 8) (size 9 to 14) (size 15 to 20)
#    0.000    1.429    4.286    3.000    6.000    2.286 
#    0.000    2.143    0.000    5.143    0.000    0.000 
#    0.000    0.000    0.000    0.000    0.000    0.000 
#
# Total GULP energy -78066.900621 kJ/mol
# GULP energy per Si atom -5576.207187 kJ/mol
# Density = 2.316188 g / cm^3
# Si number density = 23.214714 Si / 1000 Ang^3
#
#
#
# Elastic Constant Matrix: (Units=GPa)
#
#
# Indices 1 2 3 4 5 6 
#
# 1 92.2259 54.4840 52.9708 3.0788 11.4178 42.4373
# 2 54.4840 140.0885 47.1200 13.9457 12.2040 55.7295
# 3 52.9708 47.1200 83.0346 6.7376 4.9911 21.7046
# 4 3.0788 13.9457 6.7376 44.8953 14.2439 12.7778
# 5 11.4178 12.2040 4.9911 14.2439 36.9447 -4.0681
# 6 42.4373 55.7295 21.7046 12.7778 -4.0681 61.1449
#
#
#
# Elastic Compliance Matrix: (Units=1/GPa)
#
#
# Indices 1 2 3 4 5 6 
#
# 1 0.027354 0.001256 -0.013416 0.008831 -0.012448 -0.018042
# 2 0.001256 0.013607 -0.005089 0.001949 -0.006301 -0.012294
# 3 -0.013416 -0.005089 0.021534 -0.004674 0.005562 0.007652
# 4 0.008831 0.001949 -0.004674 0.030797 -0.016130 -0.013756
# 5 -0.012448 -0.006301 0.005562 -0.016130 0.040497 0.018473
# 6 -0.018042 -0.012294 0.007652 -0.013756 0.018473 0.041469
#
#
# Mechanical properties :
#
#
# Convention : Reuss Voigt Hill
#
# Bulk Modulus (GPa) = 35.71606 69.38873 52.55239
# Shear Modulus (GPa) = 22.82192 39.31524 31.06858
#
# Velocity S-wave (km/s) = 3.13881 4.11974 3.66227
# Velocity P-wave (km/s) = 5.34366 7.25152 6.36943
#
# Compressibility (1/GPa) = 0.02799861
#
# Stress axis : x y z
#
# Youngs Moduli (GPa) = 36.55749 73.49143 46.43829
#
# Poissons Ratio (x) = -0.09232 0.62299
# Poissons Ratio (y) = -0.04592 0.23632
# Poissons Ratio (z) = 0.49044 0.37399
#
# Static dielectric constant tensor:
#      x y z
#    x 1.995730 -0.096250 -0.002560 
#    y -0.096250 2.105050 -0.095310 
#    z -0.002560 -0.095310 1.908140 
# 
# From -- ./inp_files/187696.got.cif
#   From: 2010.05.17/outbox.cif.g08.bks.cpg/sg2_94_cif.got.tgz:187696.got - 2010.06.03 11:33:40.
