data_PCOD9089019
_publ_section_title
;
Structure prediction by ZEFSAII (Michael W. Deem and Ramdas Pophale) SiO2 
 PCOD9089019
Probable space group: P -1
;
_chemical_formula_sum "Si O2"
_cell_formula_units_Z 11
_cell_length_a 7.072749
_cell_length_b 9.519825
_cell_length_c 8.631466
_cell_angle_alpha 96.686299
_cell_angle_beta 126.288467
_cell_angle_gamma 64.682141
_cell_volume 415.938712
_symmetry_space_group_name_H-M "P -1"
_symmetry_group_IT_number 2
_symmetry_cell_setting 'triclinic'
loop_
_space_group_symop_operation_xyz
x,y,z
-x,-y,-z
loop_
_atom_site_type_symbol
_atom_site_label
_atom_site_fract_x
_atom_site_fract_y
_atom_site_fract_z
Si Si1 0.371678 0.687272 0.922606
Si Si2 0.413142 0.304987 0.671037
Si Si3 0.250392 0.905850 0.431299
Si Si4 0.000000 0.000000 0.000000
Si Si5 0.562769 0.894636 0.865468
Si Si6 0.872215 0.345004 0.490552
O O1 0.554344 0.735692 0.905988
O O2 0.137642 0.709101 0.697526
O O3 0.500000 0.500000 0.000000
O O4 0.349301 0.765855 0.095278
O O5 0.484684 0.181566 0.552971
O O6 0.350151 0.474190 0.590902
O O7 0.155467 0.337478 0.646877
O O8 0.816939 0.898670 0.918477
O O9 0.326348 0.965343 0.632883
O O10 0.182368 0.765596 0.434951
O O11 0.039906 0.998425 0.212036
O O12 0.500000 0.000000 0.000000
#
# Coordination Sequence:
#
# PCOD9089019 Si02
#       6
#     2   2   2   1   2   2
#     4   9  19  38  64  93 125 164 211 264 324 387
#     4  10  19  37  64  94 126 163 210 265 327 389
#     4  11  24  40  62  94 128 169 221 265 317 388
#     4  12  26  42  64  92 130 176 218 266 320 384
#     4  11  25  44  65  93 131 174 221 270 324 389
#     4   9  20  38  63  92 128 166 205 266 330 382
#
# _framework density 26.446206
#
# number of rings (size 3 to 8) (size 9 to 14) (size 15 to 20)
#    0.000    1.818    0.000    3.273    0.000    5.091 
#    0.000    0.000    0.000   19.636    0.000    0.000 
#    0.000    0.000    0.000    0.000    0.000    0.000 
#
# Total GULP energy -61366.454587 kJ/mol
# GULP energy per Si atom -5578.768599 kJ/mol
# Density = 2.638601 g / cm^3
# Si number density = 26.446206 Si / 1000 Ang^3
#
#
#
# Elastic Constant Matrix: (Units=GPa)
#
#
# Indices 1 2 3 4 5 6 
#
# 1 130.1324 18.1022 45.2944 -26.3932 2.8177 46.3075
# 2 18.1022 99.3339 47.7654 -4.1402 -14.1308 27.1765
# 3 45.2944 47.7654 248.8984 -3.1348 -2.6118 6.8193
# 4 -26.3932 -4.1402 -3.1348 52.3197 5.5009 -21.8395
# 5 2.8177 -14.1308 -2.6118 5.5009 47.2243 -1.3093
# 6 46.3075 27.1765 6.8193 -21.8395 -1.3093 56.0621
#
#
#
# Elastic Compliance Matrix: (Units=1/GPa)
#
#
# Indices 1 2 3 4 5 6 
#
# 1 0.012142 0.001439 -0.002204 0.002186 -0.000937 -0.009629
# 2 0.001439 0.013845 -0.002677 -0.002241 0.003938 -0.008356
# 3 -0.002204 -0.002677 0.004860 0.000065 -0.000338 0.002545
# 4 0.002186 -0.002241 0.000065 0.023954 -0.003351 0.008526
# 5 -0.000937 0.003938 -0.000338 -0.003351 0.022730 -0.001868
# 6 -0.009629 -0.008356 0.002545 0.008526 -0.001868 0.032809
#
#
# Mechanical properties :
#
#
# Convention : Reuss Voigt Hill
#
# Bulk Modulus (GPa) = 41.73079 77.85431 59.79255
# Shear Modulus (GPa) = 39.93284 55.60141 47.76713
#
# Velocity S-wave (km/s) = 3.89004 4.59021 4.25455
# Velocity P-wave (km/s) = 5.99919 7.58920 6.84055
#
# Compressibility (1/GPa) = 0.02396312
#
# Stress axis : x y z
#
# Youngs Moduli (GPa) = 82.36171 72.22977 205.75746
#
# Poissons Ratio (x) = -0.10397 0.45354
# Poissons Ratio (y) = -0.11856 0.55078
# Poissons Ratio (z) = 0.18155 0.19335
#
# Static dielectric constant tensor:
#      x y z
#    x 2.042530 -0.004120 0.059880 
#    y -0.004120 2.110610 -0.012630 
#    z 0.059880 -0.012630 2.038000 
# 
# From -- ./inp_files/151081.got.cif
#   From: 2010.05.17/outbox.cif.g08.bks.cpg/sg2_76_cif.got.tgz:151081.got - 2010.06.03 11:33:40.
