data_PCOD9089329
_publ_section_title
;
Structure prediction by ZEFSAII (Michael W. Deem and Ramdas Pophale) SiO2 
 PCOD9089329
Probable space group: P -1
;
_chemical_formula_sum "Si O2"
_cell_formula_units_Z 16
_cell_length_a 11.202872
_cell_length_b 14.469133
_cell_length_c 8.004465
_cell_angle_alpha 122.483672
_cell_angle_beta 111.008623
_cell_angle_gamma 38.176730
_cell_volume 671.428707
_symmetry_space_group_name_H-M "P -1"
_symmetry_group_IT_number 2
_symmetry_cell_setting 'triclinic'
loop_
_space_group_symop_operation_xyz
x,y,z
-x,-y,-z
loop_
_atom_site_type_symbol
_atom_site_label
_atom_site_fract_x
_atom_site_fract_y
_atom_site_fract_z
Si Si1 0.539851 0.286629 0.381957
Si Si2 0.908103 0.741730 0.857589
Si Si3 0.335747 0.248579 0.021135
Si Si4 0.723615 0.098277 0.609045
Si Si5 0.339002 0.054811 0.348904
Si Si6 0.439068 0.579506 0.786404
Si Si7 0.691917 0.572983 0.105354
Si Si8 0.943997 0.117949 0.936637
O O1 0.383725 0.303879 0.245423
O O2 0.678385 0.129129 0.421199
O O3 0.467006 0.439773 0.596988
O O4 0.621897 0.295606 0.268661
O O5 0.786443 0.768926 0.974913
O O6 0.128842 0.559273 0.811411
O O7 0.916479 0.868757 0.994771
O O8 0.812220 0.773325 0.661785
O O9 0.534400 0.077566 0.868774
O O10 0.245244 0.374074 0.943665
O O11 0.775710 0.955569 0.599549
O O12 0.511459 0.263252 0.748026
O O13 0.889057 0.079650 0.714107
O O14 0.500000 0.000000 0.500000
O O15 0.264276 0.695839 0.939216
O O16 0.630842 0.507085 0.897907
O O17 0.000000 0.000000 0.000000
#
# Coordination Sequence:
#
# PCOD9089329 Si02
#       8
#     2   2   2   2   2   2   2   2
#     4  10  19  37  68  90 122 169 213 252 317 372
#     4  12  22  38  67  94 123 169 212 254 316 373
#     4  10  23  42  64  90 128 165 207 263 320 373
#     4  10  20  40  63  92 128 167 205 256 313 366
#     4  11  24  44  63  87 126 169 210 256 318 383
#     4   9  20  39  64  95 129 166 207 262 317 364
#     4   9  20  39  66  94 126 163 207 262 307 372
#     4  11  22  40  63  93 134 168 211 257 306 374
#
# _framework density 23.829782000000002
#
# number of rings (size 3 to 8) (size 9 to 14) (size 15 to 20)
#    0.000    1.750    1.250    3.750    0.000    2.000 
#    0.000   18.125    8.250    0.000    0.000    0.000 
#    0.000    0.000    0.000    0.000    0.000    0.000 
#
# Total GULP energy -89410.510877 kJ/mol
# GULP energy per Si atom -5588.156930 kJ/mol
# Density = 2.377554 g / cm^3
# Si number density = 23.829782 Si / 1000 Ang^3
#
#
#
# Elastic Constant Matrix: (Units=GPa)
#
#
# Indices 1 2 3 4 5 6 
#
# 1 150.3866 35.2528 15.9830 -12.0017 7.1293 30.5078
# 2 35.2528 110.5029 36.0025 -44.6325 -2.7692 10.6730
# 3 15.9830 36.0025 54.3864 -20.9800 4.5335 2.2801
# 4 -12.0017 -44.6325 -20.9800 44.5561 7.4053 -5.0088
# 5 7.1293 -2.7692 4.5335 7.4053 28.5282 -7.4618
# 6 30.5078 10.6730 2.2801 -5.0088 -7.4618 36.0840
#
#
#
# Elastic Compliance Matrix: (Units=1/GPa)
#
#
# Indices 1 2 3 4 5 6 
#
# 1 0.008996 -0.002047 -0.000622 -0.000077 -0.004389 -0.007879
# 2 -0.002047 0.017281 -0.005156 0.014363 -0.001054 -0.001279
# 3 -0.000622 -0.005156 0.025494 0.007751 -0.006356 0.000201
# 4 -0.000077 0.014363 0.007751 0.042173 -0.011055 -0.001105
# 5 -0.004389 -0.001054 -0.006356 -0.011055 0.043009 0.011784
# 6 -0.007879 -0.001279 0.000201 -0.001105 0.011784 0.037023
#
#
# Mechanical properties :
#
#
# Convention : Reuss Voigt Hill
#
# Bulk Modulus (GPa) = 27.68474 54.41694 41.05084
# Shear Modulus (GPa) = 24.79343 37.03616 30.91480
#
# Velocity S-wave (km/s) = 3.22908 3.94661 3.60574
# Velocity P-wave (km/s) = 5.05426 6.60703 5.88211
#
# Compressibility (1/GPa) = 0.03612098
#
# Stress axis : x y z
#
# Youngs Moduli (GPa) = 111.16263 57.86829 39.22466
#
# Poissons Ratio (x) = 0.11847 0.02439
# Poissons Ratio (y) = 0.22757 0.20223
# Poissons Ratio (z) = 0.06913 0.29835
#
# Static dielectric constant tensor:
#      x y z
#    x 1.921590 0.026830 0.015750 
#    y 0.026830 1.961250 0.017290 
#    z 0.015750 0.017290 1.930570 
# 
# From -- ./inp_files/274133.got.cif
#   From: 2010.05.17/outbox.cif.g08.bks.cpg/sg2_138_cif.got.tgz:274133.got - 2010.06.03 11:33:40.
