data_PCOD9089650
_publ_section_title
;
Structure prediction by ZEFSAII (Michael W. Deem and Ramdas Pophale) SiO2 
 PCOD9089650
Probable space group: P -1
;
_chemical_formula_sum "Si O2"
_cell_formula_units_Z 16
_cell_length_a 10.991918
_cell_length_b 7.693351
_cell_length_c 19.958353
_cell_angle_alpha 68.350076
_cell_angle_beta 147.330114
_cell_angle_gamma 125.769947
_cell_volume 709.394836
_symmetry_space_group_name_H-M "P -1"
_symmetry_group_IT_number 2
_symmetry_cell_setting 'triclinic'
loop_
_space_group_symop_operation_xyz
x,y,z
-x,-y,-z
loop_
_atom_site_type_symbol
_atom_site_label
_atom_site_fract_x
_atom_site_fract_y
_atom_site_fract_z
Si Si1 0.345611 0.637634 0.245804
Si Si2 0.812880 0.781391 0.139546
Si Si3 0.146177 0.950299 0.132081
Si Si4 0.860811 0.746718 0.717764
Si Si5 0.246940 0.753978 0.587758
Si Si6 0.268096 0.665986 0.841699
Si Si7 0.770803 0.031698 0.317063
Si Si8 0.324203 0.141963 0.498082
O O1 0.171941 0.747265 0.146625
O O2 0.213868 0.376184 0.227563
O O3 0.478612 0.712790 0.371074
O O4 0.569681 0.769965 0.274696
O O5 0.822971 0.571924 0.198471
O O6 0.971794 0.861463 0.131445
O O7 0.510447 0.714167 0.995306
O O8 0.949339 0.989375 0.221952
O O9 0.449251 0.161913 0.259617
O O10 0.000000 0.000000 0.000000
O O11 0.621494 0.727550 0.564760
O O12 0.031543 0.659950 0.773643
O O13 0.160086 0.852963 0.594381
O O14 0.000000 0.500000 0.500000
O O15 0.300552 0.907177 0.525106
O O16 0.358400 0.858673 0.801325
O O17 0.035166 0.088574 0.394006
#
# Coordination Sequence:
#
# PCOD9089650 Si02
#       8
#     2   2   2   2   2   2   2   2
#     4  10  19  38  60  86 124 159 206 257 310 369
#     4  11  22  38  64  87 122 167 207 256 311 367
#     4  10  21  41  61  89 126 166 207 250 320 369
#     4  11  22  38  62  90 120 158 211 254 310 375
#     4  10  21  36  60  92 128 154 213 263 296 374
#     4  10  22  41  60  86 126 163 208 259 311 367
#     4   9  19  37  62  81 117 168 200 246 326 359
#     4   9  20  37  58  84 121 163 200 250 317 368
#
# _framework density 22.554435999999999
#
# number of rings (size 3 to 8) (size 9 to 14) (size 15 to 20)
#    0.000    2.250    1.250    3.750    1.750    2.000 
#    0.000    6.250    0.000    0.000    0.000    0.000 
#    0.000    0.000    0.000    0.000    0.000    0.000 
#
# Total GULP energy -89281.344332 kJ/mol
# GULP energy per Si atom -5580.084021 kJ/mol
# Density = 2.250310 g / cm^3
# Si number density = 22.554436 Si / 1000 Ang^3
#
#
#
# Elastic Constant Matrix: (Units=GPa)
#
#
# Indices 1 2 3 4 5 6 
#
# 1 38.9147 1.4133 6.0847 -3.9539 9.8241 10.0333
# 2 1.4133 112.8132 35.6462 -7.4207 -5.2921 7.9632
# 3 6.0847 35.6462 94.4306 -22.0513 9.8099 -1.2082
# 4 -3.9539 -7.4207 -22.0513 35.8283 5.8611 -4.2703
# 5 9.8241 -5.2921 9.8099 5.8611 17.4814 0.5512
# 6 10.0333 7.9632 -1.2082 -4.2703 0.5512 32.1859
#
#
#
# Elastic Compliance Matrix: (Units=1/GPa)
#
#
# Indices 1 2 3 4 5 6 
#
# 1 0.034323 -0.001112 0.002309 0.007715 -0.023226 -0.008916
# 2 -0.001112 0.011109 -0.005758 -0.003112 0.008363 -0.003174
# 3 0.002309 -0.005758 0.017519 0.013091 -0.017368 0.003397
# 4 0.007715 -0.003112 0.013091 0.041086 -0.026549 0.004762
# 5 -0.023226 0.008363 -0.017368 -0.026549 0.091453 -0.000569
# 6 -0.008916 -0.003174 0.003397 0.004762 -0.000569 0.035403
#
#
# Mechanical properties :
#
#
# Convention : Reuss Voigt Hill
#
# Bulk Modulus (GPa) = 18.57761 36.93855 27.75808
# Shear Modulus (GPa) = 19.38292 30.63340 25.00816
#
# Velocity S-wave (km/s) = 2.93471 3.68937 3.33346
# Velocity P-wave (km/s) = 4.44275 5.87892 5.21055
#
# Compressibility (1/GPa) = 0.05382825
#
# Stress axis : x y z
#
# Youngs Moduli (GPa) = 29.13509 90.01565 57.07997
#
# Poissons Ratio (x) = 0.10011 -0.13177
# Poissons Ratio (y) = 0.03240 0.32867
# Poissons Ratio (z) = -0.06726 0.51831
#
# Static dielectric constant tensor:
#      x y z
#    x 1.873860 0.070120 -0.009450 
#    y 0.070120 2.000350 0.001480 
#    z -0.009450 0.001480 1.853960 
# 
# From -- ./inp_files/594083.got.cif
#   From: 2010.05.17/outbox.cif.g08.bks.cpg/sg2_298_cif.got.tgz:594083.got - 2010.06.03 11:33:40.
