data_PCOD9089526
_publ_section_title
;
Structure prediction by ZEFSAII (Michael W. Deem and Ramdas Pophale) SiO2 
 PCOD9089526
Probable space group: P -1
;
_chemical_formula_sum "Si O2"
_cell_formula_units_Z 14
_cell_length_a 9.166125
_cell_length_b 9.254468
_cell_length_c 9.419563
_cell_angle_alpha 93.964167
_cell_angle_beta 123.238123
_cell_angle_gamma 76.271483
_cell_volume 647.393900
_symmetry_space_group_name_H-M "P -1"
_symmetry_group_IT_number 2
_symmetry_cell_setting 'triclinic'
loop_
_space_group_symop_operation_xyz
x,y,z
-x,-y,-z
loop_
_atom_site_type_symbol
_atom_site_label
_atom_site_fract_x
_atom_site_fract_y
_atom_site_fract_z
Si Si1 0.583855 0.732750 0.247076
Si Si2 0.545280 0.047702 0.186882
Si Si3 0.178272 0.236924 0.116634
Si Si4 0.820006 0.211735 0.009305
Si Si5 0.892925 0.132725 0.351104
Si Si6 0.111256 0.368055 0.403367
Si Si7 0.797013 0.550615 0.110018
O O1 0.371406 0.784334 0.160045
O O2 0.709889 0.625616 0.417435
O O3 0.632862 0.652519 0.115883
O O4 0.642590 0.888567 0.293784
O O5 0.358892 0.117485 0.168392
O O6 0.681948 0.155117 0.278775
O O7 0.500000 0.000000 0.000000
O O8 0.173927 0.289057 0.280629
O O9 0.175050 0.370744 0.015239
O O10 0.992234 0.186047 0.998436
O O11 0.875931 0.105762 0.169431
O O12 0.783271 0.383295 0.058933
O O13 0.991792 0.268591 0.412751
O O14 0.000000 0.000000 0.500000
O O15 0.974819 0.523601 0.301159
#
# Coordination Sequence:
#
# PCOD9089526 Si02
#       7
#     2   2   2   2   2   2   2
#     4  12  22  38  62  92 121 154 204 244 288 360
#     4  12  22  38  63  90 119 157 201 239 296 359
#     4  10  22  42  60  85 123 160 192 246 300 350
#     4  10  22  38  61  91 117 160 199 244 300 344
#     4  10  19  38  58  86 119 153 194 242 292 350
#     4  10  23  40  61  91 120 157 198 244 301 346
#     4  10  20  41  64  83 121 160 199 247 291 348
#
# _framework density 21.625164000000002
#
# number of rings (size 3 to 8) (size 9 to 14) (size 15 to 20)
#    0.000    1.714    4.286    2.571    0.000    2.286 
#    0.000    4.286    0.000    0.000    0.000    0.000 
#    0.000    0.000    0.000    0.000    0.000    0.000 
#
# Total GULP energy -78055.030264 kJ/mol
# GULP energy per Si atom -5575.359305 kJ/mol
# Density = 2.157594 g / cm^3
# Si number density = 21.625164 Si / 1000 Ang^3
#
#
#
# Elastic Constant Matrix: (Units=GPa)
#
#
# Indices 1 2 3 4 5 6 
#
# 1 152.7821 33.2673 39.8070 7.3485 9.3845 -20.6279
# 2 33.2673 72.8170 23.9117 -10.7387 -12.5587 -11.8358
# 3 39.8070 23.9117 77.6643 -9.7898 15.4387 8.7336
# 4 7.3485 -10.7387 -9.7898 29.9300 -0.5598 -3.0715
# 5 9.3845 -12.5587 15.4387 -0.5598 33.3981 -3.8897
# 6 -20.6279 -11.8358 8.7336 -3.0715 -3.8897 33.2956
#
#
#
# Elastic Compliance Matrix: (Units=1/GPa)
#
#
# Indices 1 2 3 4 5 6 
#
# 1 0.009460 -0.002358 -0.005230 -0.004279 -0.000507 0.005941
# 2 -0.002358 0.023670 -0.009566 0.007460 0.015503 0.011962
# 3 -0.005230 -0.009566 0.023466 0.003803 -0.014558 -0.014145
# 4 -0.004279 0.007460 0.003803 0.038747 0.003243 0.002956
# 5 -0.000507 0.015503 -0.014558 0.003243 0.044387 0.014500
# 6 0.005941 0.011962 -0.014145 0.002956 0.014500 0.043644
#
#
# Mechanical properties :
#
#
# Convention : Reuss Voigt Hill
#
# Bulk Modulus (GPa) = 44.86383 55.24838 50.05611
# Shear Modulus (GPa) = 22.21154 33.07657 27.64405
#
# Velocity S-wave (km/s) = 3.20834 3.91518 3.57925
# Velocity P-wave (km/s) = 5.87501 6.78541 6.34656
#
# Compressibility (1/GPa) = 0.02228967
#
# Stress axis : x y z
#
# Youngs Moduli (GPa) = 105.70581 42.24826 42.61551
#
# Poissons Ratio (x) = 0.09961 0.22286
# Poissons Ratio (y) = 0.24922 0.40765
# Poissons Ratio (z) = 0.55280 0.40413
#
# Static dielectric constant tensor:
#      x y z
#    x 1.808970 0.036290 0.024080 
#    y 0.036290 1.834280 0.007730 
#    z 0.024080 0.007730 1.864440 
# 
# From -- ./inp_files/158841.got.cif
#   From: 2010.05.17/outbox.cif.g08.bks.cpg/sg2_80_cif.got.tgz:158841.got - 2010.06.03 11:33:40.
