data_PCOD9089242
_publ_section_title
;
Structure prediction by ZEFSAII (Michael W. Deem and Ramdas Pophale) SiO2 
 PCOD9089242
Probable space group: P -1
;
_chemical_formula_sum "Si O2"
_cell_formula_units_Z 16
_cell_length_a 9.439465
_cell_length_b 17.877831
_cell_length_c 15.057626
_cell_angle_alpha 23.709888
_cell_angle_beta 128.220860
_cell_angle_gamma 142.183679
_cell_volume 567.301766
_symmetry_space_group_name_H-M "P -1"
_symmetry_group_IT_number 2
_symmetry_cell_setting 'triclinic'
loop_
_space_group_symop_operation_xyz
x,y,z
-x,-y,-z
loop_
_atom_site_type_symbol
_atom_site_label
_atom_site_fract_x
_atom_site_fract_y
_atom_site_fract_z
Si Si1 0.085196 0.204804 0.233567
Si Si2 0.889282 0.744112 0.371650
Si Si3 0.809582 0.542810 0.162532
Si Si4 0.472550 0.395940 0.742978
Si Si5 0.823034 0.527937 0.862474
Si Si6 0.218320 0.849799 0.521636
Si Si7 0.758310 0.245047 0.783442
Si Si8 0.495587 0.202956 0.567145
O O1 0.269160 0.453903 0.100243
O O2 0.798984 0.067381 0.246187
O O3 0.000000 0.000000 0.500000
O O4 0.215675 0.302780 0.081409
O O5 0.682325 0.594469 0.533408
O O6 0.788484 0.817645 0.180000
O O7 0.843647 0.513734 0.555052
O O8 0.157577 0.934571 0.320044
O O9 0.884666 0.425890 0.253957
O O10 0.571177 0.289740 0.400183
O O11 0.021447 0.724116 0.124182
O O12 0.590686 0.321314 0.930940
O O13 0.476413 0.575706 0.614544
O O14 0.035310 0.784623 0.602164
O O15 0.000000 0.500000 0.000000
O O16 0.500000 0.000000 0.500000
O O17 0.684625 0.209240 0.690463
O O18 0.500000 0.000000 0.000000
#
# Coordination Sequence:
#
# PCOD9089242 Si02
#       8
#     2   2   2   2   2   2   2   2
#     4  12  24  41  62  93 129 174 221 260 331 391
#     4   8  18  34  63  90 120 165 217 261 318 395
#     4  11  23  40  63  99 130 170 221 269 322 394
#     4   9  18  37  59  87 120 166 212 263 325 375
#     4  11  21  38  63  87 122 169 219 268 318 388
#     4  10  20  38  63  94 128 168 215 270 328 384
#     4  10  19  37  66  96 125 169 214 264 329 388
#     4  11  22  38  64  93 133 169 209 273 330 387
#
# _framework density 28.203683999999999
#
# number of rings (size 3 to 8) (size 9 to 14) (size 15 to 20)
#    0.000    1.750    3.750    1.125    0.000    0.500 
#    0.000    0.000    0.000    1.500    0.000    0.000 
#    0.000    0.000    0.000    0.000    0.000    0.000 
#
# Total GULP energy -89334.620795 kJ/mol
# GULP energy per Si atom -5583.413800 kJ/mol
# Density = 2.813949 g / cm^3
# Si number density = 28.203684 Si / 1000 Ang^3
#
#
#
# Elastic Constant Matrix: (Units=GPa)
#
#
# Indices 1 2 3 4 5 6 
#
# 1 74.1091 27.7219 27.5430 3.1653 -24.7981 -16.3326
# 2 27.7219 275.3351 58.6154 48.8530 1.6184 16.8748
# 3 27.5430 58.6154 109.1847 28.4079 -37.3459 1.7382
# 4 3.1653 48.8530 28.4079 57.1866 1.0758 -0.5452
# 5 -24.7981 1.6184 -37.3459 1.0758 48.4064 -2.0416
# 6 -16.3326 16.8748 1.7382 -0.5452 -2.0416 48.5979
#
#
#
# Elastic Compliance Matrix: (Units=1/GPa)
#
#
# Indices 1 2 3 4 5 6 
#
# 1 0.019796 -0.002658 -0.000604 0.001362 0.010073 0.008036
# 2 -0.002658 0.005143 -0.002461 -0.002985 -0.003483 -0.002771
# 3 -0.000604 -0.002461 0.016656 -0.006374 0.012787 0.000522
# 4 0.001362 -0.002985 -0.006374 0.023230 -0.004560 0.001791
# 5 0.010073 -0.003483 0.012787 -0.004560 0.036138 0.005604
# 6 0.008036 -0.002771 0.000522 0.001791 0.005604 0.024477
#
#
# Mechanical properties :
#
#
# Convention : Reuss Voigt Hill
#
# Bulk Modulus (GPa) = 33.16828 76.26549 54.71688
# Shear Modulus (GPa) = 34.02841 53.82143 43.92492
#
# Velocity S-wave (km/s) = 3.47727 4.37316 3.95069
# Velocity P-wave (km/s) = 5.28277 7.25252 6.34456
#
# Compressibility (1/GPa) = 0.03014928
#
# Stress axis : x y z
#
# Youngs Moduli (GPa) = 50.51630 194.42072 60.03791
#
# Poissons Ratio (x) = 0.51676 0.03624
# Poissons Ratio (y) = 0.13427 0.14778
# Poissons Ratio (z) = 0.03049 0.47854
#
# Static dielectric constant tensor:
#      x y z
#    x 2.315330 0.076190 0.220740 
#    y 0.076190 2.467500 0.319520 
#    z 0.220740 0.319520 2.712000 
# 
# From -- ./inp_files/523890.got.cif
#   From: 2010.05.17/outbox.cif.g08.bks.cpg/sg2_262_cif.got.tgz:523890.got - 2010.06.03 11:33:40.
