data_PCOD9089589
_publ_section_title
;
Structure prediction by ZEFSAII (Michael W. Deem and Ramdas Pophale) SiO2 
 PCOD9089589
Probable space group: P -1
;
_chemical_formula_sum "Si O2"
_cell_formula_units_Z 16
_cell_length_a 9.899527
_cell_length_b 13.873522
_cell_length_c 7.990074
_cell_angle_alpha 91.393683
_cell_angle_beta 107.796886
_cell_angle_gamma 129.997018
_cell_volume 762.894869
_symmetry_space_group_name_H-M "P -1"
_symmetry_group_IT_number 2
_symmetry_cell_setting 'triclinic'
loop_
_space_group_symop_operation_xyz
x,y,z
-x,-y,-z
loop_
_atom_site_type_symbol
_atom_site_label
_atom_site_fract_x
_atom_site_fract_y
_atom_site_fract_z
Si Si1 0.088503 0.975078 0.176050
Si Si2 0.484595 0.073543 0.246902
Si Si3 0.843136 0.506771 0.227844
Si Si4 0.216529 0.297003 0.749011
Si Si5 0.385980 0.063643 0.832292
Si Si6 0.280849 0.646857 0.485718
Si Si7 0.050379 0.108476 0.394058
Si Si8 0.420023 0.650993 0.184076
O O1 0.911833 0.834290 0.188515
O O2 0.258613 0.980051 0.201965
O O3 0.183906 0.107721 0.323856
O O4 0.000000 0.000000 0.000000
O O5 0.604703 0.202314 0.413258
O O6 0.559243 0.998874 0.271557
O O7 0.492770 0.104894 0.053454
O O8 0.824470 0.613199 0.215632
O O9 0.729256 0.417677 0.347183
O O10 0.063914 0.577170 0.345616
O O11 0.755825 0.425032 0.018349
O O12 0.441212 0.370897 0.828221
O O13 0.141214 0.238885 0.530584
O O14 0.449690 0.193243 0.783011
O O15 0.154025 0.955595 0.766067
O O16 0.360853 0.624660 0.355194
O O17 0.000000 0.000000 0.500000
#
# Coordination Sequence:
#
# PCOD9089589 Si02
#       8
#     2   2   2   2   2   2   2   2
#     4  11  21  39  63  99 133 166 211 266 338 390
#     4  11  23  40  66 100 129 172 217 269 337 392
#     4  11  26  49  64  96 134 174 232 268 323 387
#     4  11  24  42  67  97 134 173 215 274 324 399
#     4  11  22  39  63  96 136 169 213 274 329 391
#     4  11  26  45  71  93 132 179 220 279 324 388
#     4  10  19  38  59  89 131 166 200 262 329 376
#     4  12  23  46  69  94 134 175 220 275 329 388
#
# _framework density 20.972746000000001
#
# number of rings (size 3 to 8) (size 9 to 14) (size 15 to 20)
#    0.000    1.000    5.000    2.250    3.500    1.000 
#    2.250    0.000    0.000    0.000    0.000    0.000 
#    0.000    0.000    0.000    0.000    0.000    0.000 
#
# Total GULP energy -89261.359895 kJ/mol
# GULP energy per Si atom -5578.834993 kJ/mol
# Density = 2.092501 g / cm^3
# Si number density = 20.972746 Si / 1000 Ang^3
#
#
#
# Elastic Constant Matrix: (Units=GPa)
#
#
# Indices 1 2 3 4 5 6 
#
# 1 108.6543 23.1588 7.4874 -0.3396 -9.8846 2.7427
# 2 23.1588 42.9653 25.1290 -1.5520 -5.1078 -1.5228
# 3 7.4874 25.1290 105.9123 12.9210 -5.6879 4.6517
# 4 -0.3396 -1.5520 12.9210 26.3901 4.6765 -0.6915
# 5 -9.8846 -5.1078 -5.6879 4.6765 31.3630 -1.4975
# 6 2.7427 -1.5228 4.6517 -0.6915 -1.4975 27.5986
#
#
#
# Elastic Compliance Matrix: (Units=1/GPa)
#
#
# Indices 1 2 3 4 5 6 
#
# 1 0.010726 -0.006188 0.001073 -0.001266 0.002686 -0.001474
# 2 -0.006188 0.031683 -0.007864 0.005533 0.001144 0.003889
# 3 0.001073 -0.007864 0.012313 -0.006937 0.002197 -0.002671
# 4 -0.001266 0.005533 -0.006937 0.042907 -0.007044 0.002293
# 5 0.002686 0.001144 0.002197 -0.007044 0.034420 0.001117
# 6 -0.001474 0.003889 -0.002671 0.002293 0.001117 0.037163
#
#
# Mechanical properties :
#
#
# Convention : Reuss Voigt Hill
#
# Bulk Modulus (GPa) = 34.76443 41.00914 37.88678
# Shear Modulus (GPa) = 24.41905 30.52078 27.46992
#
# Velocity S-wave (km/s) = 3.41592 3.81892 3.62303
# Velocity P-wave (km/s) = 5.67186 6.24833 5.96706
#
# Compressibility (1/GPa) = 0.02876504
#
# Stress axis : x y z
#
# Youngs Moduli (GPa) = 93.23116 31.56245 81.21265
#
# Poissons Ratio (x) = 0.19531 -0.08717
# Poissons Ratio (y) = 0.57691 0.63867
# Poissons Ratio (z) = -0.10007 0.24821
#
# Static dielectric constant tensor:
#      x y z
#    x 1.998400 0.023430 -0.330730 
#    y 0.023430 1.733450 -0.002490 
#    z -0.330730 -0.002490 2.232550 
# 
# From -- ./inp_files/202597.got.cif
#   From: 2010.05.17/outbox.cif.g08.bks.cpg/sg2_102_cif.got.tgz:202597.got - 2010.06.03 11:33:40.
