data_PCOD9089658
_publ_section_title
;
Structure prediction by ZEFSAII (Michael W. Deem and Ramdas Pophale) SiO2 
 PCOD9089658
Probable space group: P -1
;
_chemical_formula_sum "Si O2"
_cell_formula_units_Z 16
_cell_length_a 14.946520
_cell_length_b 9.946291
_cell_length_c 16.104833
_cell_angle_alpha 50.744182
_cell_angle_beta 27.481787
_cell_angle_gamma 63.196129
_cell_volume 813.617870
_symmetry_space_group_name_H-M "P -1"
_symmetry_group_IT_number 2
_symmetry_cell_setting 'triclinic'
loop_
_space_group_symop_operation_xyz
x,y,z
-x,-y,-z
loop_
_atom_site_type_symbol
_atom_site_label
_atom_site_fract_x
_atom_site_fract_y
_atom_site_fract_z
Si Si1 0.487129 0.596700 0.836918
Si Si2 0.028901 0.504752 0.876537
Si Si3 0.935619 0.438113 0.715659
Si Si4 0.675388 0.934265 0.423188
Si Si5 0.081048 0.273545 0.501419
Si Si6 0.647517 0.581786 0.137475
Si Si7 0.769044 0.645681 0.358343
Si Si8 0.042568 0.876520 0.736963
O O1 0.573455 0.768925 0.636057
O O2 0.681667 0.608096 0.728597
O O3 0.432075 0.420522 0.890083
O O4 0.291683 0.608856 0.042775
O O5 0.151252 0.381173 0.786916
O O6 0.127882 0.720144 0.688340
O O7 0.798882 0.457324 0.051517
O O8 0.000000 0.500000 0.000000
O O9 0.995236 0.641469 0.548308
O O10 0.964663 0.311837 0.664496
O O11 0.086162 0.418409 0.671869
O O12 0.774765 0.845975 0.303418
O O13 0.500000 0.000000 0.500000
O O14 0.846445 0.073497 0.284890
O O15 0.072988 0.063599 0.589853
O O16 0.460339 0.484861 0.387990
O O17 0.800360 0.766734 0.976674
#
# Coordination Sequence:
#
# PCOD9089658 Si02
#       8
#     2   2   2   2   2   2   2   2
#     4  10  19  38  60  87 120 159 198 244 302 367
#     4  10  23  40  62  84 123 164 201 241 310 367
#     4  11  19  36  67  85 116 163 206 243 309 358
#     4  10  22  40  63  89 126 153 208 257 300 357
#     4  10  21  38  59  91 121 155 207 254 297 358
#     4   9  20  36  61  79 126 150 198 244 299 355
#     4  11  21  41  63  87 117 169 202 240 308 371
#     4   9  20  41  56  87 128 147 197 269 287 346
#
# _framework density 19.665251000000001
#
# number of rings (size 3 to 8) (size 9 to 14) (size 15 to 20)
#    0.750    1.250    5.000    0.375    3.500    0.500 
#    6.750    4.375    0.000    0.000    0.000    0.000 
#    0.000    0.000    0.000    0.000    0.000    0.000 
#
# Total GULP energy -89091.274864 kJ/mol
# GULP energy per Si atom -5568.204679 kJ/mol
# Density = 1.962049 g / cm^3
# Si number density = 19.665251 Si / 1000 Ang^3
#
#
#
# Elastic Constant Matrix: (Units=GPa)
#
#
# Indices 1 2 3 4 5 6 
#
# 1 66.3124 30.1102 13.7862 -7.2094 -14.4488 -0.8401
# 2 30.1102 79.1004 31.8069 16.8585 -2.0896 1.1282
# 3 13.7862 31.8069 82.8634 22.8714 -12.1575 19.5439
# 4 -7.2094 16.8585 22.8714 34.6744 4.4222 0.8508
# 5 -14.4488 -2.0896 -12.1575 4.4222 28.4981 -7.0066
# 6 -0.8401 1.1282 19.5439 0.8508 -7.0066 28.3893
#
#
#
# Elastic Compliance Matrix: (Units=1/GPa)
#
#
# Indices 1 2 3 4 5 6 
#
# 1 0.023310 -0.009751 -0.002650 0.009983 0.009649 0.004984
# 2 -0.009751 0.019835 -0.004639 -0.008154 -0.003857 0.001409
# 3 -0.002650 -0.004639 0.022003 -0.013327 0.006570 -0.013021
# 4 0.009983 -0.008154 -0.013327 0.044319 -0.006407 0.006885
# 5 0.009649 -0.003857 0.006570 -0.006407 0.045287 0.007285
# 6 0.004984 0.001409 -0.013021 0.006885 0.007285 0.045871
#
#
# Mechanical properties :
#
#
# Convention : Reuss Voigt Hill
#
# Bulk Modulus (GPa) = 32.18851 42.18697 37.18774
# Shear Modulus (GPa) = 20.40299 28.48388 24.44344
#
# Velocity S-wave (km/s) = 3.22454 3.80996 3.52941
# Velocity P-wave (km/s) = 5.50157 6.39168 5.96326
#
# Compressibility (1/GPa) = 0.03106698
#
# Stress axis : x y z
#
# Youngs Moduli (GPa) = 42.90076 50.41538 45.44803
#
# Poissons Ratio (x) = 0.49160 0.12046
# Poissons Ratio (y) = 0.41833 0.21084
# Poissons Ratio (z) = 0.11371 0.23388
#
# Static dielectric constant tensor:
#      x y z
#    x 1.775560 -0.006230 0.007840 
#    y -0.006230 1.735590 -0.013700 
#    z 0.007840 -0.013700 1.706960 
# 
# From -- ./inp_files/529459.got.cif
#   From: 2010.05.17/outbox.cif.g08.bks.cpg/sg2_265_cif.got.tgz:529459.got - 2010.06.03 11:33:40.
