data_PCOD9089864
_publ_section_title
;
Structure prediction by ZEFSAII (Michael W. Deem and Ramdas Pophale) SiO2 
 PCOD9089864
Probable space group: P -1
;
_chemical_formula_sum "Si O2"
_cell_formula_units_Z 16
_cell_length_a 14.184561
_cell_length_b 10.916542
_cell_length_c 12.806249
_cell_angle_alpha 141.694710
_cell_angle_beta 144.614746
_cell_angle_gamma 42.014566
_cell_volume 681.714342
_symmetry_space_group_name_H-M "P -1"
_symmetry_group_IT_number 2
_symmetry_cell_setting 'triclinic'
loop_
_space_group_symop_operation_xyz
x,y,z
-x,-y,-z
loop_
_atom_site_type_symbol
_atom_site_label
_atom_site_fract_x
_atom_site_fract_y
_atom_site_fract_z
Si Si1 0.667798 0.903265 0.019481
Si Si2 0.967785 0.791270 0.369290
Si Si3 0.884915 0.610260 0.872031
Si Si4 0.605904 0.277596 0.073321
Si Si5 0.800913 0.640943 0.287947
Si Si6 0.331487 0.921093 0.220745
Si Si7 0.074906 0.794430 0.002283
Si Si8 0.301521 0.308071 0.548425
O O1 0.803801 0.789065 0.150996
O O2 0.689195 0.106330 0.118786
O O3 0.704965 0.742523 0.847654
O O4 0.500000 0.000000 0.000000
O O5 0.899180 0.788849 0.422281
O O6 0.112831 0.582073 0.330362
O O7 0.000000 0.000000 0.500000
O O8 0.000000 0.500000 0.000000
O O9 0.985249 0.755884 0.002000
O O10 0.643282 0.487314 0.281351
O O11 0.401091 0.311120 0.894954
O O12 0.694247 0.194320 0.986144
O O13 0.821204 0.647920 0.434492
O O14 0.893811 0.417209 0.175023
O O15 0.263645 0.826152 0.197422
O O16 0.533132 0.855341 0.363257
O O17 0.260629 0.171026 0.326573
O O18 0.000000 0.000000 0.000000
#
# Coordination Sequence:
#
# PCOD9089864 Si02
#       8
#     2   2   2   2   2   2   2   2
#     4  11  22  41  67  92 120 175 225 263 326 399
#     4  10  22  43  65  93 130 169 216 275 330 385
#     4   9  22  39  62  89 124 170 218 258 329 403
#     4  11  19  39  64  90 134 160 216 271 330 379
#     4  10  19  38  62  86 124 176 207 267 326 393
#     4  10  20  36  59  92 125 164 207 261 322 387
#     4  11  20  36  60  86 124 171 213 258 331 385
#     4  10  20  34  61  94 120 162 210 259 327 381
#
# _framework density 23.47024
#
# number of rings (size 3 to 8) (size 9 to 14) (size 15 to 20)
#    0.000    1.750    3.750    1.500    0.000    2.000 
#    6.750    3.750    0.000    0.000    0.000    0.000 
#    0.000    0.000    0.000    0.000    0.000    0.000 
#
# Total GULP energy -89129.834427 kJ/mol
# GULP energy per Si atom -5570.614652 kJ/mol
# Density = 2.341682 g / cm^3
# Si number density = 23.470240 Si / 1000 Ang^3
#
#
#
# Elastic Constant Matrix: (Units=GPa)
#
#
# Indices 1 2 3 4 5 6 
#
# 1 152.6367 40.2525 35.1288 18.0754 13.2710 -18.1352
# 2 40.2525 92.7718 14.7106 25.6849 -4.0444 -12.4275
# 3 35.1288 14.7106 82.6682 32.8392 3.9303 -6.0202
# 4 18.0754 25.6849 32.8392 43.0850 4.3670 -6.8791
# 5 13.2710 -4.0444 3.9303 4.3670 28.1792 13.4491
# 6 -18.1352 -12.4275 -6.0202 -6.8791 13.4491 39.5640
#
#
#
# Elastic Compliance Matrix: (Units=1/GPa)
#
#
# Indices 1 2 3 4 5 6 
#
# 1 0.009403 -0.003856 -0.003654 0.002803 -0.007583 0.005608
# 2 -0.003856 0.014973 0.002636 -0.009868 0.005195 -0.000145
# 3 -0.003654 0.002636 0.018882 -0.014900 0.002440 -0.001394
# 4 0.002803 -0.009868 -0.014900 0.041358 -0.010207 0.006579
# 5 -0.007583 0.005195 0.002440 -0.010207 0.050844 -0.020531
# 6 0.005608 -0.000145 -0.001394 0.006579 -0.020531 0.035711
#
#
# Mechanical properties :
#
#
# Convention : Reuss Voigt Hill
#
# Bulk Modulus (GPa) = 29.84122 56.47338 43.15730
# Shear Modulus (GPa) = 26.02963 38.03130 32.03046
#
# Velocity S-wave (km/s) = 3.33385 4.02979 3.69823
# Velocity P-wave (km/s) = 5.24991 6.76507 6.05507
#
# Compressibility (1/GPa) = 0.03351069
#
# Stress axis : x y z
#
# Youngs Moduli (GPa) = 106.34932 66.78620 52.96186
#
# Poissons Ratio (x) = 0.25751 0.19352
# Poissons Ratio (y) = 0.41006 -0.13962
# Poissons Ratio (z) = 0.38860 -0.17607
#
# Static dielectric constant tensor:
#      x y z
#    x 1.980700 -0.069420 -0.013550 
#    y -0.069420 2.010530 -0.065630 
#    z -0.013550 -0.065630 2.069640 
# 
# From -- ./inp_files/515084.got.cif
#   From: 2010.05.17/outbox.cif.g08.bks.cpg/sg2_258_cif.got.tgz:515084.got - 2010.06.03 11:33:40.
