data_PCOD9089286
_publ_section_title
;
Structure prediction by ZEFSAII (Michael W. Deem and Ramdas Pophale) SiO2 
 PCOD9089286
Probable space group: P -1
;
_chemical_formula_sum "Si O2"
_cell_formula_units_Z 12
_cell_length_a 7.661240
_cell_length_b 7.691175
_cell_length_c 12.216983
_cell_angle_alpha 89.996129
_cell_angle_beta 57.312832
_cell_angle_gamma 124.435145
_cell_volume 448.719845
_symmetry_space_group_name_H-M "P -1"
_symmetry_group_IT_number 2
_symmetry_cell_setting 'triclinic'
loop_
_space_group_symop_operation_xyz
x,y,z
-x,-y,-z
loop_
_atom_site_type_symbol
_atom_site_label
_atom_site_fract_x
_atom_site_fract_y
_atom_site_fract_z
Si Si1 0.234600 0.084680 0.830512
Si Si2 0.750529 0.897389 0.417122
Si Si3 0.123262 0.666171 0.563296
Si Si4 0.089827 0.638280 0.166190
Si Si5 0.499610 0.111402 0.161772
Si Si6 0.464963 0.409141 0.318576
O O1 0.110919 0.028074 0.749436
O O2 0.479141 0.369815 0.750032
O O3 0.360640 0.963975 0.812246
O O4 0.000000 0.000000 0.000000
O O5 0.434692 0.774239 0.486149
O O6 0.709890 0.708332 0.509399
O O7 0.859694 0.117621 0.453684
O O8 0.000000 0.500000 0.500000
O O9 0.952615 0.534643 0.731365
O O10 0.784477 0.532753 0.238283
O O11 0.267784 0.884869 0.168196
O O12 0.261513 0.685187 0.000920
O O13 0.376294 0.204902 0.267842
#
# Coordination Sequence:
#
# PCOD9089286 Si02
#       6
#     2   2   2   2   2   2
#     4  12  24  40  67  96 128 171 213 257 318 381
#     4  10  22  38  61  94 127 162 214 258 313 375
#     4  10  19  37  67  92 121 169 211 259 315 374
#     4  10  21  38  65  94 126 163 211 262 314 373
#     4  11  23  42  64  96 127 166 213 263 316 377
#     4  11  23  43  68  91 128 170 207 267 318 367
#
# _framework density 26.742744999999999
#
# number of rings (size 3 to 8) (size 9 to 14) (size 15 to 20)
#    0.000    1.333    1.667    6.000    2.333    0.000 
#    0.000    8.333    0.000    9.000    0.000    0.000 
#    0.000    0.000    0.000    0.000    0.000    0.000 
#
# Total GULP energy -67309.312587 kJ/mol
# GULP energy per Si atom -5609.109382 kJ/mol
# Density = 2.668188 g / cm^3
# Si number density = 26.742745 Si / 1000 Ang^3
#
#
#
# Elastic Constant Matrix: (Units=GPa)
#
#
# Indices 1 2 3 4 5 6 
#
# 1 116.8814 10.6370 30.8689 0.5326 4.5216 -5.6223
# 2 10.6370 150.4305 39.3962 16.1869 16.9310 -12.2531
# 3 30.8689 39.3962 198.1858 -3.7615 33.4204 -16.8353
# 4 0.5326 16.1869 -3.7615 42.3790 -4.7983 9.1107
# 5 4.5216 16.9310 33.4204 -4.7983 35.2860 -2.6684
# 6 -5.6223 -12.2531 -16.8353 9.1107 -2.6684 46.1462
#
#
#
# Elastic Compliance Matrix: (Units=1/GPa)
#
#
# Indices 1 2 3 4 5 6 
#
# 1 0.008952 -0.000234 -0.001344 -0.000243 0.000250 0.000601
# 2 -0.000234 0.007875 -0.000847 -0.003959 -0.003307 0.002344
# 3 -0.001344 -0.000847 0.006482 -0.000060 -0.005442 0.001673
# 4 -0.000243 -0.003959 -0.000060 0.027014 0.005197 -0.006135
# 5 0.000250 -0.003307 -0.005442 0.005197 0.035620 -0.001800
# 6 0.000601 0.002344 0.001673 -0.006135 -0.001800 0.024084
#
#
# Mechanical properties :
#
#
# Convention : Reuss Voigt Hill
#
# Bulk Modulus (GPa) = 54.17298 69.70019 61.93658
# Shear Modulus (GPa) = 41.31205 50.40195 45.85700
#
# Velocity S-wave (km/s) = 3.93465 4.34602 4.14544
# Velocity P-wave (km/s) = 6.39867 7.16266 6.79142
#
# Compressibility (1/GPa) = 0.01845939
#
# Stress axis : x y z
#
# Youngs Moduli (GPa) = 111.70476 126.98202 154.26757
#
# Poissons Ratio (x) = 0.02974 0.20727
# Poissons Ratio (y) = 0.02616 0.13071
# Poissons Ratio (z) = 0.15008 0.10759
#
# Static dielectric constant tensor:
#      x y z
#    x 2.116350 0.017560 -0.037020 
#    y 0.017560 2.111820 -0.010700 
#    z -0.037020 -0.010700 2.068000 
# 
# From -- ./inp_files/269843.got.cif
#   From: 2010.05.17/outbox.cif.g08.bks.cpg/sg2_135_cif.got.tgz:269843.got - 2010.06.03 11:33:40.
