data_PCOD9089721
_publ_section_title
;
Structure prediction by ZEFSAII (Michael W. Deem and Ramdas Pophale) SiO2 
 PCOD9089721
Probable space group: P -1
;
_chemical_formula_sum "Si O2"
_cell_formula_units_Z 16
_cell_length_a 22.322045
_cell_length_b 9.241729
_cell_length_c 12.695818
_cell_angle_alpha 144.193138
_cell_angle_beta 28.453331
_cell_angle_gamma 136.873877
_cell_volume 728.723952
_symmetry_space_group_name_H-M "P -1"
_symmetry_group_IT_number 2
_symmetry_cell_setting 'triclinic'
loop_
_space_group_symop_operation_xyz
x,y,z
-x,-y,-z
loop_
_atom_site_type_symbol
_atom_site_label
_atom_site_fract_x
_atom_site_fract_y
_atom_site_fract_z
Si Si1 0.548704 0.358961 0.943870
Si Si2 0.722916 0.686836 0.625697
Si Si3 0.857016 0.712023 0.856724
Si Si4 0.810855 0.407707 0.530283
Si Si5 0.205703 0.708991 0.883342
Si Si6 0.369479 0.116386 0.788848
Si Si7 0.077517 0.501398 0.151543
Si Si8 0.964166 0.003164 0.384346
O O1 0.419221 0.224409 0.103953
O O2 0.591502 0.594207 0.087806
O O3 0.500000 0.500000 0.000000
O O4 0.680984 0.236793 0.644593
O O5 0.768730 0.600792 0.619558
O O6 0.732917 0.443117 0.394235
O O7 0.825380 0.881601 0.533631
O O8 0.840379 0.533226 0.673610
O O9 0.861329 0.579245 0.882020
O O10 0.740686 0.888342 0.130980
O O11 0.988402 0.864329 0.718173
O O12 0.947754 0.333137 0.235423
O O13 0.298566 0.955980 0.897305
O O14 0.177034 0.531012 0.921638
O O15 0.067975 0.803625 0.125082
O O16 0.500000 0.000000 0.500000
O O17 0.032106 0.779850 0.405875
#
# Coordination Sequence:
#
# PCOD9089721 Si02
#       8
#     2   2   2   2   2   2   2   2
#     4   9  19  32  54  86 111 142 186 237 283 315
#     4  11  20  33  54  90 120 141 189 252 280 328
#     4   9  21  37  60  83 111 150 196 231 286 342
#     4   9  18  33  58  78 111 147 192 228 281 321
#     4  11  22  33  58  90 115 146 193 238 292 325
#     4  10  19  38  61  84 109 149 191 236 273 345
#     4  11  21  37  59  83 115 152 191 236 288 341
#     4  10  20  33  57  84 111 149 195 237 273 333
#
# _framework density 21.956187
#
# number of rings (size 3 to 8) (size 9 to 14) (size 15 to 20)
#    0.000    2.000    2.500    3.000    7.000    0.000 
#    0.000    1.250    5.500    6.750    0.000    0.000 
#    0.000    0.000    0.000    0.000    0.000    0.000 
#
# Total GULP energy -89103.167186 kJ/mol
# GULP energy per Si atom -5568.947949 kJ/mol
# Density = 2.190621 g / cm^3
# Si number density = 21.956187 Si / 1000 Ang^3
#
#
#
# Elastic Constant Matrix: (Units=GPa)
#
#
# Indices 1 2 3 4 5 6 
#
# 1 80.1900 38.0017 36.4769 -22.7624 -0.0678 -18.5368
# 2 38.0017 58.3685 37.4806 -41.6496 -10.1526 -1.9137
# 3 36.4769 37.4806 98.0589 -36.2173 -16.7283 3.5639
# 4 -22.7624 -41.6496 -36.2173 46.3066 14.4096 -3.3987
# 5 -0.0678 -10.1526 -16.7283 14.4096 32.7168 -9.6371
# 6 -18.5368 -1.9137 3.5639 -3.3987 -9.6371 32.8366
#
#
#
# Elastic Compliance Matrix: (Units=1/GPa)
#
#
# Indices 1 2 3 4 5 6 
#
# 1 0.023581 -0.015392 -0.005525 -0.005148 -0.001761 0.011965
# 2 -0.015392 0.060947 -0.000356 0.047709 -0.002585 -0.000919
# 3 -0.005525 -0.000356 0.016168 0.008261 0.003630 -0.002974
# 4 -0.005148 0.047709 0.008261 0.072386 -0.011994 0.002950
# 5 -0.001761 -0.002585 0.003630 -0.011994 0.039494 0.008811
# 6 0.011965 -0.000919 -0.002974 0.002950 0.008811 0.040369
#
#
# Mechanical properties :
#
#
# Convention : Reuss Voigt Hill
#
# Bulk Modulus (GPa) = 17.19743 51.17062 34.18403
# Shear Modulus (GPa) = 15.87939 30.68255 23.28097
#
# Velocity S-wave (km/s) = 2.69221 3.74230 3.25982
# Velocity P-wave (km/s) = 4.18493 6.48301 5.45633
#
# Compressibility (1/GPa) = 0.05814821
#
# Stress axis : x y z
#
# Youngs Moduli (GPa) = 42.40682 16.40782 61.85081
#
# Poissons Ratio (x) = 0.25256 0.34174
# Poissons Ratio (y) = 0.65275 0.02202
# Poissons Ratio (z) = 0.23431 0.00584
#
# Static dielectric constant tensor:
#      x y z
#    x 1.815630 0.055960 0.028310 
#    y 0.055960 1.878710 -0.000410 
#    z 0.028310 -0.000410 1.901910 
# 
# From -- ./inp_files/189315.got.cif
#   From: 2010.05.17/outbox.cif.g08.bks.cpg/sg2_95_cif.got.tgz:189315.got - 2010.06.03 11:33:40.
