data_PCOD9089947
_publ_section_title
;
Structure prediction by ZEFSAII (Michael W. Deem and Ramdas Pophale) SiO2 
 PCOD9089947
Probable space group: P -1
;
_chemical_formula_sum "Si O2"
_cell_formula_units_Z 16
_cell_length_a 7.413805
_cell_length_b 10.892058
_cell_length_c 19.776766
_cell_angle_alpha 147.143412
_cell_angle_beta 121.193398
_cell_angle_gamma 67.054248
_cell_volume 737.644261
_symmetry_space_group_name_H-M "P -1"
_symmetry_group_IT_number 2
_symmetry_cell_setting 'triclinic'
loop_
_space_group_symop_operation_xyz
x,y,z
-x,-y,-z
loop_
_atom_site_type_symbol
_atom_site_label
_atom_site_fract_x
_atom_site_fract_y
_atom_site_fract_z
Si Si1 0.657488 0.089560 0.965830
Si Si2 0.093146 0.289284 0.101656
Si Si3 0.547230 0.508293 0.812671
Si Si4 0.188160 0.425169 0.598655
Si Si5 0.923072 0.304614 0.623018
Si Si6 0.682488 0.889082 0.333348
Si Si7 0.810919 0.647922 0.584621
Si Si8 0.457780 0.844765 0.691695
O O1 0.542620 0.279021 0.069560
O O2 0.845408 0.214176 0.013845
O O3 0.780502 0.931326 0.966131
O O4 0.502311 0.931798 0.815643
O O5 0.208669 0.437168 0.133426
O O6 0.120851 0.445853 0.247134
O O7 0.414040 0.479771 0.703288
O O8 0.487127 0.288426 0.745369
O O9 0.198512 0.291220 0.468329
O O10 0.045607 0.307571 0.576779
O O11 0.051759 0.633905 0.648615
O O12 0.093604 0.218965 0.668274
O O13 0.721114 0.124130 0.492300
O O14 0.630845 0.962859 0.282541
O O15 0.676300 0.792840 0.673808
O O16 0.694464 0.389806 0.447438
#
# Coordination Sequence:
#
# PCOD9089947 Si02
#       8
#     2   2   2   2   2   2   2   2
#     4  11  24  42  66  93 126 171 210 268 306 374
#     4  11  23  42  68  93 125 167 217 261 312 370
#     4  11  24  43  65  97 125 169 216 256 311 381
#     4  10  19  38  62  94 127 156 205 273 315 366
#     4  10  20  42  65  91 127 166 207 263 316 371
#     4  10  22  40  63  91 127 169 206 260 317 372
#     4  10  22  37  62  93 130 157 209 270 319 372
#     4  11  23  40  61  91 125 176 207 253 326 374
#
# _framework density 21.690671999999999
#
# number of rings (size 3 to 8) (size 9 to 14) (size 15 to 20)
#    0.000    1.500    3.750    1.875    5.250    1.000 
#    6.750    0.625    0.000    0.000    0.000    0.000 
#    0.000    0.000    0.000    0.000    0.000    0.000 
#
# Total GULP energy -89405.935748 kJ/mol
# GULP energy per Si atom -5587.870984 kJ/mol
# Density = 2.164130 g / cm^3
# Si number density = 21.690672 Si / 1000 Ang^3
#
#
#
# Elastic Constant Matrix: (Units=GPa)
#
#
# Indices 1 2 3 4 5 6 
#
# 1 74.6599 4.4370 2.3861 10.8934 8.9364 18.1726
# 2 4.4370 57.8710 3.4492 -4.8078 -6.7896 8.4971
# 3 2.3861 3.4492 54.2021 11.9454 1.4350 6.6014
# 4 10.8934 -4.8078 11.9454 23.7613 2.5006 8.0383
# 5 8.9364 -6.7896 1.4350 2.5006 19.0107 -0.1355
# 6 18.1726 8.4971 6.6014 8.0383 -0.1355 23.4988
#
#
#
# Elastic Compliance Matrix: (Units=1/GPa)
#
#
# Indices 1 2 3 4 5 6 
#
# 1 0.018164 -0.000989 0.001998 -0.004289 -0.008570 -0.012833
# 2 -0.000989 0.020175 -0.002089 0.007773 0.006745 -0.008563
# 3 0.001998 -0.002089 0.021302 -0.010803 -0.001894 -0.003090
# 4 -0.004289 0.007773 -0.010803 0.056619 -0.001953 -0.015838
# 5 -0.008570 0.006745 -0.001894 -0.001953 0.059480 0.005732
# 6 -0.012833 -0.008563 -0.003090 -0.015838 0.005732 0.061895
#
#
# Mechanical properties :
#
#
# Convention : Reuss Voigt Hill
#
# Bulk Modulus (GPa) = 17.39707 23.03084 20.21395
# Shear Modulus (GPa) = 19.30843 25.01820 22.16332
#
# Velocity S-wave (km/s) = 2.98681 3.39987 3.20001
# Velocity P-wave (km/s) = 4.46460 5.10422 4.79509
#
# Compressibility (1/GPa) = 0.05748094
#
# Stress axis : x y z
#
# Youngs Moduli (GPa) = 55.05334 49.56737 46.94443
#
# Poissons Ratio (x) = 0.04904 -0.09382
# Poissons Ratio (y) = 0.05446 0.09807
# Poissons Ratio (z) = -0.11002 0.10354
#
# Static dielectric constant tensor:
#      x y z
#    x 1.816520 0.006600 0.029560 
#    y 0.006600 1.810030 -0.000300 
#    z 0.029560 -0.000300 1.788680 
# 
# From -- ./inp_files/588780.got.cif
#   From: 2010.05.17/outbox.cif.g08.bks.cpg/sg2_295_cif.got.tgz:588780.got - 2010.06.03 11:33:40.
