data_PCOD9089370
_publ_section_title
;
Structure prediction by ZEFSAII (Michael W. Deem and Ramdas Pophale) SiO2 
 PCOD9089370
Probable space group: P -1
;
_chemical_formula_sum "Si O2"
_cell_formula_units_Z 14
_cell_length_a 9.882487
_cell_length_b 14.518883
_cell_length_c 15.687565
_cell_angle_alpha 28.496390
_cell_angle_beta 143.051391
_cell_angle_gamma 143.832678
_cell_volume 600.752346
_symmetry_space_group_name_H-M "P -1"
_symmetry_group_IT_number 2
_symmetry_cell_setting 'triclinic'
loop_
_space_group_symop_operation_xyz
x,y,z
-x,-y,-z
loop_
_atom_site_type_symbol
_atom_site_label
_atom_site_fract_x
_atom_site_fract_y
_atom_site_fract_z
Si Si1 0.773310 0.743806 0.973109
Si Si2 0.100880 0.400165 0.007329
Si Si3 0.224970 0.485928 0.675073
Si Si4 0.601379 0.136745 0.199714
Si Si5 0.395506 0.572599 0.305300
Si Si6 0.711770 0.898220 0.076658
Si Si7 0.286379 0.226219 0.383587
O O1 0.587669 0.837381 0.846097
O O2 0.021973 0.934022 0.923228
O O3 0.716522 0.627758 0.948842
O O4 0.824386 0.587205 0.193183
O O5 0.225201 0.629015 0.922598
O O6 0.855065 0.387273 0.848274
O O7 0.084921 0.243372 0.203542
O O8 0.274099 0.294627 0.813119
O O9 0.460437 0.687810 0.611916
O O10 0.000000 0.500000 0.500000
O O11 0.748274 0.001979 0.418358
O O12 0.458395 0.028801 0.130343
O O13 0.500000 0.500000 0.500000
O O14 0.588051 0.788801 0.189891
O O15 0.335897 0.388769 0.354128
#
# Coordination Sequence:
#
# PCOD9089370 Si02
#       7
#     2   2   2   2   2   2   2
#     4  11  23  41  69 106 145 175 224 291 346 411
#     4  12  26  46  68 103 149 177 231 291 342 413
#     4  10  19  37  69 100 138 177 226 282 344 409
#     4  11  23  45  73 104 139 182 227 281 358 414
#     4  11  27  48  71  99 139 185 241 287 340 408
#     4  10  22  42  68  99 136 182 236 282 337 410
#     4  11  24  45  72 100 136 191 225 284 350 404
#
# _framework density 23.304110999999999
#
# number of rings (size 3 to 8) (size 9 to 14) (size 15 to 20)
#    0.000    1.143    4.286    4.286    6.000    2.857 
#    0.000    0.000    0.000    0.000    0.000    0.000 
#    0.000    0.000    0.000    0.000    0.000    0.000 
#
# Total GULP energy -78299.672171 kJ/mol
# GULP energy per Si atom -5592.833727 kJ/mol
# Density = 2.325107 g / cm^3
# Si number density = 23.304111 Si / 1000 Ang^3
#
#
#
# Elastic Constant Matrix: (Units=GPa)
#
#
# Indices 1 2 3 4 5 6 
#
# 1 93.4045 2.6697 47.7931 19.1868 -11.3522 0.9104
# 2 2.6697 47.9657 20.7517 13.0217 -0.2278 12.1696
# 3 47.7931 20.7517 174.7821 24.9561 -4.7638 -9.1184
# 4 19.1868 13.0217 24.9561 44.1734 -2.2774 0.8700
# 5 -11.3522 -0.2278 -4.7638 -2.2774 23.0421 10.7683
# 6 0.9104 12.1696 -9.1184 0.8700 10.7683 31.0501
#
#
#
# Elastic Compliance Matrix: (Units=1/GPa)
#
#
# Indices 1 2 3 4 5 6 
#
# 1 0.014654 0.003660 -0.003838 -0.004708 0.008751 -0.005894
# 2 0.003660 0.027948 -0.003883 -0.006966 0.007398 -0.014572
# 3 -0.003838 -0.003883 0.007663 -0.001759 -0.002813 0.004910
# 4 -0.004708 -0.006966 -0.001759 0.027647 -0.000903 0.001890
# 5 0.008751 0.007398 -0.002813 -0.000903 0.058432 -0.024221
# 6 -0.005894 -0.014572 0.004910 0.001890 -0.024221 0.047879
#
#
# Mechanical properties :
#
#
# Convention : Reuss Voigt Hill
#
# Bulk Modulus (GPa) = 23.72927 50.95345 37.34136
# Shear Modulus (GPa) = 24.22587 35.98232 30.10410
#
# Velocity S-wave (km/s) = 3.22771 3.93368 3.59805
# Velocity P-wave (km/s) = 4.90870 6.52256 5.77231
#
# Compressibility (1/GPa) = 0.04214205
#
# Stress axis : x y z
#
# Youngs Moduli (GPa) = 68.24231 35.78089 130.50409
#
# Poissons Ratio (x) = -0.13097 0.50091
# Poissons Ratio (y) = -0.24978 0.50674
# Poissons Ratio (z) = 0.26193 0.13894
#
# Static dielectric constant tensor:
#      x y z
#    x 1.927980 0.024850 -0.003380 
#    y 0.024850 1.979540 0.078580 
#    z -0.003380 0.078580 1.920330 
# 
# From -- ./inp_files/505183.got.cif
#   From: 2010.05.17/outbox.cif.g08.bks.cpg/sg2_253_cif.got.tgz:505183.got - 2010.06.03 11:33:40.
