data_PCOD9089038
_publ_section_title
;
Structure prediction by ZEFSAII (Michael W. Deem and Ramdas Pophale) SiO2 
 PCOD9089038
Probable space group: P -1
;
_chemical_formula_sum "Si O2"
_cell_formula_units_Z 14
_cell_length_a 18.895081
_cell_length_b 12.158703
_cell_length_c 16.370114
_cell_angle_alpha 26.051572
_cell_angle_beta 23.944119
_cell_angle_gamma 28.503977
_cell_volume 634.238049
_symmetry_space_group_name_H-M "P -1"
_symmetry_group_IT_number 2
_symmetry_cell_setting 'triclinic'
loop_
_space_group_symop_operation_xyz
x,y,z
-x,-y,-z
loop_
_atom_site_type_symbol
_atom_site_label
_atom_site_fract_x
_atom_site_fract_y
_atom_site_fract_z
Si Si1 0.325382 0.248943 0.670457
Si Si2 0.886608 0.445610 0.468097
Si Si3 0.378056 0.305286 0.271111
Si Si4 0.883657 0.844386 0.895296
Si Si5 0.366176 0.943459 0.111450
Si Si6 0.268569 0.725778 0.507133
Si Si7 0.701184 0.767585 0.781229
O O1 0.214990 0.401238 0.607027
O O2 0.395719 0.446546 0.522583
O O3 0.486587 0.984870 0.654104
O O4 0.186657 0.167532 0.931901
O O5 0.777567 0.590021 0.566469
O O6 0.105024 0.405437 0.268593
O O7 0.876556 0.148386 0.682570
O O8 0.295317 0.279315 0.287054
O O9 0.500000 0.500000 0.000000
O O10 0.091015 0.678697 0.764907
O O11 0.739623 0.821687 0.993528
O O12 0.221510 0.881536 0.366333
O O13 0.516379 0.728249 0.040509
O O14 0.500000 0.000000 0.000000
O O15 0.323169 0.923778 0.378107
#
# Coordination Sequence:
#
# PCOD9089038 Si02
#       7
#     2   2   2   2   2   2   2
#     4  12  24  41  72 103 129 176 224 274 331 402
#     4  11  24  44  72  96 133 178 225 273 331 392
#     4  12  24  47  72  90 135 181 228 272 330 389
#     4  11  21  43  66  99 138 175 216 272 338 396
#     4  10  19  37  64  95 135 179 209 260 335 397
#     4  10  23  39  68 101 137 168 217 273 341 394
#     4  10  23  43  71  99 134 179 212 280 339 393
#
# _framework density 22.073730000000001
#
# number of rings (size 3 to 8) (size 9 to 14) (size 15 to 20)
#    0.000    1.143    4.286    1.714    4.000    0.571 
#    0.000    2.143    0.000    0.000    0.000    0.000 
#    0.000    0.000    0.000    0.000    0.000    0.000 
#
# Total GULP energy -78079.442005 kJ/mol
# GULP energy per Si atom -5577.103000 kJ/mol
# Density = 2.202349 g / cm^3
# Si number density = 22.073730 Si / 1000 Ang^3
#
#
#
# Elastic Constant Matrix: (Units=GPa)
#
#
# Indices 1 2 3 4 5 6 
#
# 1 117.8735 29.5557 20.1441 -9.1581 17.3522 3.3906
# 2 29.5557 108.8181 6.5918 -3.8704 -2.3747 -1.3095
# 3 20.1441 6.5918 70.9949 15.2345 18.3840 1.9925
# 4 -9.1581 -3.8704 15.2345 38.3074 0.8271 3.1825
# 5 17.3522 -2.3747 18.3840 0.8271 41.5456 2.1963
# 6 3.3906 -1.3095 1.9925 3.1825 2.1963 36.0447
#
#
#
# Elastic Compliance Matrix: (Units=1/GPa)
#
#
# Indices 1 2 3 4 5 6 
#
# 1 0.010361 -0.002628 -0.002516 0.003370 -0.003377 -0.001023
# 2 -0.002628 0.010028 -0.000858 0.000643 0.002012 0.000480
# 3 -0.002516 -0.000858 0.018368 -0.007868 -0.006986 0.000310
# 4 0.003370 0.000643 -0.007868 0.030287 0.001647 -0.002633
# 5 -0.003377 0.002012 -0.006986 0.001647 0.028713 -0.001118
# 6 -0.001023 0.000480 0.000310 -0.002633 -0.001118 0.028140
#
#
# Mechanical properties :
#
#
# Convention : Reuss Voigt Hill
#
# Bulk Modulus (GPa) = 37.37827 45.58552 41.48189
# Shear Modulus (GPa) = 34.05579 39.27253 36.66416
#
# Velocity S-wave (km/s) = 3.93214 4.22258 4.07994
# Velocity P-wave (km/s) = 6.13072 6.66857 6.40529
#
# Compressibility (1/GPa) = 0.02675351
#
# Stress axis : x y z
#
# Youngs Moduli (GPa) = 96.51643 99.72166 54.44399
#
# Poissons Ratio (x) = 0.26206 0.13696
# Poissons Ratio (y) = 0.25363 0.04671
# Poissons Ratio (z) = 0.24280 0.08555
#
# Static dielectric constant tensor:
#      x y z
#    x 1.868280 -0.025020 -0.087090 
#    y -0.025020 1.850630 -0.034390 
#    z -0.087090 -0.034390 1.969680 
# 
# From -- ./inp_files/402215.got.cif
#   From: 2010.05.17/outbox.cif.g08.bks.cpg/sg2_202_cif.got.tgz:402215.got - 2010.06.03 11:33:40.
