data_PCOD9089499
_publ_section_title
;
Structure prediction by ZEFSAII (Michael W. Deem and Ramdas Pophale) SiO2 
 PCOD9089499
Probable space group: P -1
;
_chemical_formula_sum "Si O2"
_cell_formula_units_Z 16
_cell_length_a 11.858659
_cell_length_b 12.392505
_cell_length_c 12.163619
_cell_angle_alpha 38.109654
_cell_angle_beta 48.906464
_cell_angle_gamma 32.570169
_cell_volume 593.807039
_symmetry_space_group_name_H-M "P -1"
_symmetry_group_IT_number 2
_symmetry_cell_setting 'triclinic'
loop_
_space_group_symop_operation_xyz
x,y,z
-x,-y,-z
loop_
_atom_site_type_symbol
_atom_site_label
_atom_site_fract_x
_atom_site_fract_y
_atom_site_fract_z
Si Si1 0.613665 0.229876 0.429898
Si Si2 0.831722 0.813198 0.086475
Si Si3 0.930249 0.746337 0.302310
Si Si4 0.211547 0.728011 0.537345
Si Si5 0.995320 0.962451 0.271456
Si Si6 0.755631 0.667544 0.051690
Si Si7 0.625338 0.543699 0.816420
Si Si8 0.285852 0.256548 0.227457
O O1 0.606031 0.300336 0.504102
O O2 0.432928 0.390792 0.326938
O O3 0.793767 0.197198 0.279371
O O4 0.695371 0.965427 0.594896
O O5 0.765039 0.848823 0.228026
O O6 0.044230 0.520269 0.181414
O O7 0.706350 0.852839 0.027597
O O8 0.884160 0.972916 0.907310
O O9 0.125783 0.685532 0.166954
O O10 0.000000 0.500000 0.500000
O O11 0.893805 0.905084 0.299837
O O12 0.251141 0.510198 0.740595
O O13 0.155853 0.752778 0.425583
O O14 0.000000 0.000000 0.500000
O O15 0.648540 0.750889 0.933645
O O16 0.000000 0.500000 0.000000
O O17 0.602215 0.737750 0.747615
O O18 0.500000 0.500000 0.000000
#
# Coordination Sequence:
#
# PCOD9089499 Si02
#       8
#     2   2   2   2   2   2   2   2
#     4  11  20  35  58  86 115 153 198 243 292 350
#     4  10  19  32  52  81 113 147 187 238 288 340
#     4  11  23  40  59  86 120 156 195 242 295 351
#     4  10  18  30  53  84 113 148 194 244 289 344
#     4  11  20  35  58  86 115 153 198 243 292 350
#     4  10  16  28  48  76 111 146 184 238 289 334
#     4  11  23  40  59  86 120 156 195 242 295 351
#     4  10  19  32  52  81 113 147 187 238 288 340
#
# _framework density 26.944780999999999
#
# number of rings (size 3 to 8) (size 9 to 14) (size 15 to 20)
#    0.000    1.500    0.000   12.000    0.000    0.000 
#    0.000    0.625    0.000    0.000    0.000    6.125 
#    0.000    0.000    0.000    0.000    0.000    0.000 
#
# Total GULP energy -89529.459147 kJ/mol
# GULP energy per Si atom -5595.591197 kJ/mol
# Density = 2.688345 g / cm^3
# Si number density = 26.944781 Si / 1000 Ang^3
#
#
#
# Elastic Constant Matrix: (Units=GPa)
#
#
# Indices 1 2 3 4 5 6 
#
# 1 203.8330 28.3045 52.8848 -3.1184 47.9857 52.8576
# 2 28.3045 78.7320 3.4770 19.8410 5.5541 25.2433
# 3 52.8848 3.4770 148.7942 1.3063 16.4350 25.4881
# 4 -3.1184 19.8410 1.3063 27.8033 9.4989 0.5658
# 5 47.9857 5.5541 16.4350 9.4989 63.6215 5.8806
# 6 52.8576 25.2433 25.4881 0.5658 5.8806 62.9887
#
#
#
# Elastic Compliance Matrix: (Units=1/GPa)
#
#
# Indices 1 2 3 4 5 6 
#
# 1 0.008361 -0.002048 -0.001431 0.004612 -0.005975 -0.005100
# 2 -0.002048 0.018937 0.001264 -0.014465 0.002323 -0.006469
# 3 -0.001431 0.001264 0.007681 -0.001162 -0.000625 -0.002345
# 4 0.004612 -0.014465 -0.001162 0.050103 -0.009659 0.002849
# 5 -0.005975 0.002323 -0.000625 -0.009659 0.021401 0.002425
# 6 -0.005100 -0.006469 -0.002345 0.002849 0.002425 0.023445
#
#
# Mechanical properties :
#
#
# Convention : Reuss Voigt Hill
#
# Bulk Modulus (GPa) = 32.73378 66.74354 49.73866
# Shear Modulus (GPa) = 34.59183 53.99556 44.29370
#
# Velocity S-wave (km/s) = 3.58691 4.48139 4.05886
# Velocity P-wave (km/s) = 5.41566 7.18341 6.36124
#
# Compressibility (1/GPa) = 0.03054948
#
# Stress axis : x y z
#
# Youngs Moduli (GPa) = 119.59613 52.80570 130.19761
#
# Poissons Ratio (x) = 0.10816 0.18629
# Poissons Ratio (y) = 0.24496 -0.16457
# Poissons Ratio (z) = 0.17112 -0.06675
#
# Static dielectric constant tensor:
#      x y z
#    x 2.230550 -0.061560 0.058300 
#    y -0.061560 2.151850 0.091940 
#    z 0.058300 0.091940 2.027210 
# 
# From -- ./inp_files/427361.got.cif
#   From: 2010.05.17/outbox.cif.g08.bks.cpg/sg2_214_cif.got.tgz:427361.got - 2010.06.03 11:33:40.
