data_PCOD9089001
_publ_section_title
;
Structure prediction by ZEFSAII (Michael W. Deem and Ramdas Pophale) SiO2 
 PCOD9089001
Probable space group: P -1
;
_chemical_formula_sum "Si O2"
_cell_formula_units_Z 16
_cell_length_a 9.348310
_cell_length_b 5.093586
_cell_length_c 19.410759
_cell_angle_alpha 106.749573
_cell_angle_beta 117.029082
_cell_angle_gamma 62.663889
_cell_volume 727.675726
_symmetry_space_group_name_H-M "P -1"
_symmetry_group_IT_number 2
_symmetry_cell_setting 'triclinic'
loop_
_space_group_symop_operation_xyz
x,y,z
-x,-y,-z
loop_
_atom_site_type_symbol
_atom_site_label
_atom_site_fract_x
_atom_site_fract_y
_atom_site_fract_z
Si Si1 0.819176 0.219121 0.509529
Si Si2 0.514306 0.548611 0.368477
Si Si3 0.739860 0.883924 0.594303
Si Si4 0.930397 0.405416 0.868580
Si Si5 0.567173 0.315578 0.789170
Si Si6 0.223822 0.299442 0.266753
Si Si7 0.411486 0.480635 0.051210
Si Si8 0.191098 0.104397 0.008049
O O1 0.667422 0.305085 0.425272
O O2 0.794685 0.548223 0.554471
O O3 0.794150 0.047948 0.557697
O O4 0.000000 0.000000 0.500000
O O5 0.545752 0.561586 0.294740
O O6 0.341338 0.475491 0.331158
O O7 0.457703 0.881521 0.412935
O O8 0.821681 0.845511 0.686510
O O9 0.746754 0.369200 0.826626
O O10 0.939110 0.504461 0.799980
O O11 0.084153 0.134364 0.916505
O O12 0.910229 0.669442 0.936969
O O13 0.489805 0.463844 0.855926
O O14 0.642491 0.959212 0.772307
O O15 0.500000 0.500000 0.000000
O O16 0.349251 0.210775 0.030777
O O17 0.243952 0.786437 0.030249
#
# Coordination Sequence:
#
# PCOD9089001 Si02
#       8
#     2   2   2   2   2   2   2   2
#     4  12  26  43  64  94 131 165 200 255 316 375
#     4  10  22  40  69  93 121 164 214 259 302 371
#     4  11  23  42  66  93 121 163 211 255 301 372
#     4   9  19  34  58  90 116 145 194 260 312 341
#     4   9  20  35  61  89 120 155 205 253 303 360
#     4  10  19  37  64  92 121 152 207 263 299 359
#     4  11  22  39  57  83 122 167 206 240 294 372
#     4  10  21  35  59  84 115 153 199 252 301 349
#
# _framework density 21.987814
#
# number of rings (size 3 to 8) (size 9 to 14) (size 15 to 20)
#    0.000    1.750    2.500    1.500    5.250    1.500 
#    0.000    2.500    0.000    0.000    0.000    0.000 
#    0.000    0.000    0.000    0.000    0.000    0.000 
#
# Total GULP energy -89195.436016 kJ/mol
# GULP energy per Si atom -5574.714751 kJ/mol
# Density = 2.193777 g / cm^3
# Si number density = 21.987814 Si / 1000 Ang^3
#
#
#
# Elastic Constant Matrix: (Units=GPa)
#
#
# Indices 1 2 3 4 5 6 
#
# 1 50.9957 30.8990 50.0120 4.2218 -22.1930 8.2937
# 2 30.8990 105.3163 50.9799 -12.4259 -1.8400 17.3104
# 3 50.0120 50.9799 167.8542 -25.5828 -28.9821 -4.3735
# 4 4.2218 -12.4259 -25.5828 45.4645 7.3557 -4.3390
# 5 -22.1930 -1.8400 -28.9821 7.3557 32.9423 -0.3869
# 6 8.2937 17.3104 -4.3735 -4.3390 -0.3869 26.9999
#
#
#
# Elastic Compliance Matrix: (Units=1/GPa)
#
#
# Indices 1 2 3 4 5 6 
#
# 1 0.053934 -0.009702 -0.011423 -0.020397 0.030121 -0.015043
# 2 -0.009702 0.015139 -0.002812 0.004314 -0.009205 -0.006620
# 3 -0.011423 -0.002812 0.011740 0.007561 0.000887 0.008441
# 4 -0.020397 0.004314 0.007561 0.032517 -0.013995 0.009749
# 5 0.030121 -0.009205 0.000887 -0.013995 0.053985 -0.004682
# 6 -0.015043 -0.006620 0.008441 0.009749 -0.004682 0.048769
#
#
# Mechanical properties :
#
#
# Convention : Reuss Voigt Hill
#
# Bulk Modulus (GPa) = 30.35771 65.32756 47.84263
# Shear Modulus (GPa) = 18.18588 33.89968 26.04278
#
# Velocity S-wave (km/s) = 2.87904 3.93077 3.44527
# Velocity P-wave (km/s) = 4.98882 7.09765 6.13453
#
# Compressibility (1/GPa) = 0.03294056
#
# Stress axis : x y z
#
# Youngs Moduli (GPa) = 18.54104 66.05455 85.17643
#
# Poissons Ratio (x) = 0.64088 0.97295
# Poissons Ratio (y) = 0.17989 0.23948
# Poissons Ratio (z) = 0.21179 0.18572
#
# Static dielectric constant tensor:
#      x y z
#    x 1.857050 0.010240 -0.007950 
#    y 0.010240 1.893590 0.017560 
#    z -0.007950 0.017560 1.879070 
# 
# From -- ./inp_files/116255.got.cif
#   From: 2010.05.17/outbox.cif.g08.bks.cpg/sg2_59_cif.got.tgz:116255.got - 2010.06.03 11:33:40.
