data_PCOD9089516
_publ_section_title
;
Structure prediction by ZEFSAII (Michael W. Deem and Ramdas Pophale) SiO2 
 PCOD9089516
Probable space group: P -1
;
_chemical_formula_sum "Si O2"
_cell_formula_units_Z 14
_cell_length_a 12.471365
_cell_length_b 8.767985
_cell_length_c 18.840634
_cell_angle_alpha 130.997748
_cell_angle_beta 37.985762
_cell_angle_gamma 103.280047
_cell_volume 751.914279
_symmetry_space_group_name_H-M "P -1"
_symmetry_group_IT_number 2
_symmetry_cell_setting 'triclinic'
loop_
_space_group_symop_operation_xyz
x,y,z
-x,-y,-z
loop_
_atom_site_type_symbol
_atom_site_label
_atom_site_fract_x
_atom_site_fract_y
_atom_site_fract_z
Si Si1 0.252687 0.763870 0.207651
Si Si2 0.810311 0.476463 0.109188
Si Si3 0.845409 0.824694 0.506259
Si Si4 0.225811 0.595654 0.589357
Si Si5 0.629596 0.961805 0.513529
Si Si6 0.698118 0.444560 0.305936
Si Si7 0.032017 0.892426 0.210661
O O1 0.167592 0.847346 0.196911
O O2 0.085142 0.730977 0.325878
O O3 0.228816 0.991579 0.331702
O O4 0.500000 0.500000 0.000000
O O5 0.842170 0.353086 0.131822
O O6 0.579818 0.762538 0.318583
O O7 0.816517 0.313343 0.992109
O O8 0.000000 0.500000 0.000000
O O9 0.836449 0.591158 0.449755
O O10 0.682895 0.984039 0.573330
O O11 0.490634 0.445902 0.401664
O O12 0.176627 0.685883 0.725315
O O13 0.099208 0.829477 0.672071
O O14 0.599440 0.742610 0.459868
O O15 0.844068 0.868040 0.326908
#
# Coordination Sequence:
#
# PCOD9089516 Si02
#       7
#     2   2   2   2   2   2   2
#     4  10  21  42  64  86 107 145 200 249 290 341
#     4  12  21  32  59  91 115 159 199 234 276 331
#     4   9  21  40  64  82 111 154 188 243 297 338
#     4  10  21  39  57  87 121 157 188 229 293 348
#     4  10  19  38  58  84 118 156 202 230 273 345
#     4  10  20  37  59  82 125 160 189 232 278 343
#     4  11  22  36  60  86 119 152 195 241 282 346
#
# _framework density 18.619143999999999
#
# number of rings (size 3 to 8) (size 9 to 14) (size 15 to 20)
#    0.000    1.714    2.857    2.143    0.000    1.143 
#    2.571    0.714    0.000    0.000    0.000    0.000 
#    0.000    0.000    0.000    0.000    0.000    0.000 
#
# Total GULP energy -78158.456815 kJ/mol
# GULP energy per Si atom -5582.746915 kJ/mol
# Density = 1.857677 g / cm^3
# Si number density = 18.619144 Si / 1000 Ang^3
#
#
#
# Elastic Constant Matrix: (Units=GPa)
#
#
# Indices 1 2 3 4 5 6 
#
# 1 133.8311 49.0506 50.7834 -2.1424 17.6071 -6.7447
# 2 49.0506 94.3353 15.1677 -3.8300 6.0976 -3.4090
# 3 50.7834 15.1677 64.3474 -5.2165 10.5990 -8.2995
# 4 -2.1424 -3.8300 -5.2165 25.9912 -8.6198 4.1496
# 5 17.6071 6.0976 10.5990 -8.6198 33.9459 -1.5101
# 6 -6.7447 -3.4090 -8.2995 4.1496 -1.5101 35.9202
#
#
#
# Elastic Compliance Matrix: (Units=1/GPa)
#
#
# Indices 1 2 3 4 5 6 
#
# 1 0.013209 -0.005321 -0.008744 -0.002747 -0.003858 0.000110
# 2 -0.005321 0.013231 0.001193 0.001862 0.000498 0.000338
# 3 -0.008744 0.001193 0.023167 0.002889 -0.002028 0.003405
# 4 -0.002747 0.001862 0.002889 0.043435 0.011030 -0.004226
# 5 -0.003858 0.000498 -0.002028 0.011030 0.034762 -0.000958
# 6 0.000110 0.000338 0.003405 -0.004226 -0.000958 0.029127
#
#
# Mechanical properties :
#
#
# Convention : Reuss Voigt Hill
#
# Bulk Modulus (GPa) = 41.90321 58.05746 49.98033
# Shear Modulus (GPa) = 26.22905 31.00560 28.61732
#
# Velocity S-wave (km/s) = 3.75736 4.08518 3.92469
# Velocity P-wave (km/s) = 6.43257 7.31443 6.88763
#
# Compressibility (1/GPa) = 0.02386452
#
# Stress axis : x y z
#
# Youngs Moduli (GPa) = 75.70511 75.58135 43.16416
#
# Poissons Ratio (x) = 0.40213 0.37741
# Poissons Ratio (y) = 0.40279 -0.05148
# Poissons Ratio (z) = 0.66193 -0.09015
#
# Static dielectric constant tensor:
#      x y z
#    x 1.654690 -0.016820 0.018440 
#    y -0.016820 1.647290 -0.017840 
#    z 0.018440 -0.017840 1.637200 
# 
# From -- ./inp_files/39241.got.cif
#   From: 2010.05.17/outbox.cif.g08.bks.cpg/sg2_20_cif.got.tgz:39241.got - 2010.06.03 11:33:40.
