data_PCOD9089211
_publ_section_title
;
Structure prediction by ZEFSAII (Michael W. Deem and Ramdas Pophale) SiO2 
 PCOD9089211
Probable space group: P -1
;
_chemical_formula_sum "Si O2"
_cell_formula_units_Z 16
_cell_length_a 13.747656
_cell_length_b 21.377726
_cell_length_c 6.643869
_cell_angle_alpha 92.926821
_cell_angle_beta 83.321904
_cell_angle_gamma 158.275169
_cell_volume 709.175027
_symmetry_space_group_name_H-M "P -1"
_symmetry_group_IT_number 2
_symmetry_cell_setting 'triclinic'
loop_
_space_group_symop_operation_xyz
x,y,z
-x,-y,-z
loop_
_atom_site_type_symbol
_atom_site_label
_atom_site_fract_x
_atom_site_fract_y
_atom_site_fract_z
Si Si1 0.636542 0.675538 0.095158
Si Si2 0.738366 0.170938 0.835867
Si Si3 0.787466 0.957337 0.974930
Si Si4 0.718659 0.036381 0.256249
Si Si5 0.626150 0.887538 0.586596
Si Si6 0.413312 0.659095 0.289221
Si Si7 0.165212 0.344798 0.914179
Si Si8 0.096751 0.619875 0.880763
O O1 0.504271 0.641887 0.286381
O O2 0.724061 0.659016 0.149836
O O3 0.418600 0.536552 0.949651
O O4 0.914952 0.870339 0.982097
O O5 0.972417 0.258962 0.776087
O O6 0.561858 0.093237 0.682904
O O7 0.874840 0.307912 0.952022
O O8 0.500000 0.000000 0.000000
O O9 0.808241 0.969285 0.732874
O O10 0.582165 0.784903 0.077684
O O11 0.678525 0.959690 0.079085
O O12 0.767128 0.023361 0.437478
O O13 0.970260 0.224327 0.140054
O O14 0.503654 0.758956 0.460417
O O15 0.378554 0.773237 0.736715
O O16 0.109466 0.485380 0.264354
O O17 0.000000 0.500000 0.000000
#
# Coordination Sequence:
#
# PCOD9089211 Si02
#       8
#     2   2   2   2   2   2   2   2
#     4  10  20  37  62  88 120 167 215 246 299 366
#     4  10  19  37  66  92 123 164 205 252 315 372
#     4  10  20  38  61  89 125 163 199 251 312 364
#     4   9  19  38  64  92 123 156 204 249 315 376
#     4  11  22  38  62  93 126 160 196 260 319 371
#     4  11  22  37  60  93 124 160 204 252 311 375
#     4   9  19  37  64  88 119 168 210 255 299 363
#     4  12  21  39  66  94 127 157 200 260 320 373
#
# _framework density 22.561423999999999
#
# number of rings (size 3 to 8) (size 9 to 14) (size 15 to 20)
#    0.000    1.750    3.750    1.500    0.000    0.500 
#    0.000    3.125    2.750    4.500    0.000    0.000 
#    0.000    0.000    0.000    0.000    0.000    0.000 
#
# Total GULP energy -89338.330238 kJ/mol
# GULP energy per Si atom -5583.645640 kJ/mol
# Density = 2.251007 g / cm^3
# Si number density = 22.561424 Si / 1000 Ang^3
#
#
#
# Elastic Constant Matrix: (Units=GPa)
#
#
# Indices 1 2 3 4 5 6 
#
# 1 83.1635 16.8161 1.5624 8.8208 -4.8627 22.9654
# 2 16.8161 98.6365 6.1299 11.9302 8.2829 10.9821
# 3 1.5624 6.1299 60.5206 5.4853 9.4604 -0.3706
# 4 8.8208 11.9302 5.4853 19.1208 0.1241 3.1333
# 5 -4.8627 8.2829 9.4604 0.1241 11.6481 -0.0122
# 6 22.9654 10.9821 -0.3706 3.1333 -0.0122 40.1633
#
#
#
# Elastic Compliance Matrix: (Units=1/GPa)
#
#
# Indices 1 2 3 4 5 6 
#
# 1 0.015662 -0.001910 -0.001262 -0.004402 0.008960 -0.008099
# 2 -0.001910 0.012269 0.001010 -0.006713 -0.010272 -0.001733
# 3 -0.001262 0.001010 0.019663 -0.005753 -0.017153 0.001070
# 4 -0.004402 -0.006713 -0.005753 0.060188 0.006967 -0.000394
# 5 0.008960 -0.010272 -0.017153 0.006967 0.110749 -0.002982
# 6 -0.008099 -0.001733 0.001070 -0.000394 -0.002982 0.030043
#
#
# Mechanical properties :
#
#
# Convention : Reuss Voigt Hill
#
# Bulk Modulus (GPa) = 23.11090 32.37083 27.74087
# Shear Modulus (GPa) = 18.70420 28.70725 23.70572
#
# Velocity S-wave (km/s) = 2.88242 3.57095 3.24500
# Velocity P-wave (km/s) = 4.61991 5.60190 5.13443
#
# Compressibility (1/GPa) = 0.04326962
#
# Stress axis : x y z
#
# Youngs Moduli (GPa) = 63.85035 81.50941 50.85740
#
# Poissons Ratio (x) = 0.15567 0.06418
# Poissons Ratio (y) = 0.12195 -0.05138
# Poissons Ratio (z) = 0.08058 -0.08234
#
# Static dielectric constant tensor:
#      x y z
#    x 1.941410 0.014190 0.029910 
#    y 0.014190 1.823410 0.018320 
#    z 0.029910 0.018320 1.846030 
# 
# From -- ./inp_files/101161.got.cif
#   From: 2010.05.17/outbox.cif.g08.bks.cpg/sg2_51_cif.got.tgz:101161.got - 2010.06.03 11:33:40.
