data_PCOD9089270
_publ_section_title
;
Structure prediction by ZEFSAII (Michael W. Deem and Ramdas Pophale) SiO2 
 PCOD9089270
Probable space group: P -1
;
_chemical_formula_sum "Si O2"
_cell_formula_units_Z 16
_cell_length_a 7.762248
_cell_length_b 23.236819
_cell_length_c 13.192167
_cell_angle_alpha 161.999917
_cell_angle_beta 104.251817
_cell_angle_gamma 70.670071
_cell_volume 674.363111
_symmetry_space_group_name_H-M "P -1"
_symmetry_group_IT_number 2
_symmetry_cell_setting 'triclinic'
loop_
_space_group_symop_operation_xyz
x,y,z
-x,-y,-z
loop_
_atom_site_type_symbol
_atom_site_label
_atom_site_fract_x
_atom_site_fract_y
_atom_site_fract_z
Si Si1 0.562114 0.718116 0.279883
Si Si2 0.988534 0.479689 0.139358
Si Si3 0.584718 0.060377 0.717657
Si Si4 0.102447 0.703267 0.371737
Si Si5 0.402647 0.846251 0.694144
Si Si6 0.804244 0.630864 0.818503
Si Si7 0.865351 0.282768 0.100062
Si Si8 0.636638 0.492199 0.236417
O O1 0.493231 0.760088 0.454872
O O2 0.606076 0.899163 0.538096
O O3 0.728381 0.509497 0.955575
O O4 0.404076 0.680092 0.121536
O O5 0.981376 0.671522 0.394739
O O6 0.161520 0.393398 0.096386
O O7 0.807743 0.534184 0.275207
O O8 0.979681 0.316292 0.782344
O O9 0.500000 0.000000 0.500000
O O10 0.411085 0.255227 0.047985
O O11 0.779016 0.107904 0.811091
O O12 0.184096 0.880279 0.697335
O O13 0.458397 0.683508 0.518422
O O14 0.500000 0.000000 0.000000
O O15 0.873060 0.410949 0.414201
O O16 0.939996 0.745421 0.980578
O O17 0.704010 0.427790 0.249210
#
# Coordination Sequence:
#
# PCOD9089270 Si02
#       8
#     2   2   2   2   2   2   2   2
#     4  11  21  40  60  92 124 160 204 255 308 380
#     4  10  19  37  67  86 116 164 211 250 300 380
#     4  12  24  40  65  99 129 166 218 261 317 380
#     4  10  20  39  65  88 119 165 208 247 316 373
#     4  11  23  37  62  93 120 159 204 261 309 366
#     4  10  24  42  65  93 129 171 215 261 323 374
#     4  10  23  44  65  94 126 176 210 265 321 377
#     4  10  19  41  66  83 123 160 208 249 314 375
#
# _framework density 23.726091
#
# number of rings (size 3 to 8) (size 9 to 14) (size 15 to 20)
#    0.000    1.500    3.750    1.875    3.500    1.500 
#    2.250    0.625    0.000    0.000    0.000    0.000 
#    0.000    0.000    0.000    0.000    0.000    0.000 
#
# Total GULP energy -89388.535067 kJ/mol
# GULP energy per Si atom -5586.783442 kJ/mol
# Density = 2.367209 g / cm^3
# Si number density = 23.726091 Si / 1000 Ang^3
#
#
#
# Elastic Constant Matrix: (Units=GPa)
#
#
# Indices 1 2 3 4 5 6 
#
# 1 54.0314 5.9653 18.4320 -0.5541 25.9697 3.4916
# 2 5.9653 110.0770 21.4207 -5.9552 10.0802 -0.1596
# 3 18.4320 21.4207 72.5906 -11.7294 39.1107 4.5166
# 4 -0.5541 -5.9552 -11.7294 28.0520 -2.7401 10.2808
# 5 25.9697 10.0802 39.1107 -2.7401 43.2771 4.4280
# 6 3.4916 -0.1596 4.5166 10.2808 4.4280 31.4409
#
#
#
# Elastic Compliance Matrix: (Units=1/GPa)
#
#
# Indices 1 2 3 4 5 6 
#
# 1 0.026521 -0.000406 0.003869 0.000540 -0.019183 -0.000978
# 2 -0.000406 0.009672 -0.003060 0.000782 0.000788 0.000167
# 3 0.003869 -0.003060 0.031280 0.011400 -0.028682 -0.004627
# 4 0.000540 0.000782 0.011400 0.045755 -0.006298 -0.015768
# 5 -0.019183 0.000788 -0.028682 -0.006298 0.059970 -0.000132
# 6 -0.000978 0.000167 -0.004627 -0.015768 -0.000132 0.037754
#
#
# Mechanical properties :
#
#
# Convention : Reuss Voigt Hill
#
# Bulk Modulus (GPa) = 14.64557 36.48167 25.56362
# Shear Modulus (GPa) = 21.46781 33.27941 27.37361
#
# Velocity S-wave (km/s) = 3.01128 3.74926 3.40035
# Velocity P-wave (km/s) = 4.27511 5.84399 5.12000
#
# Compressibility (1/GPa) = 0.06828005
#
# Stress axis : x y z
#
# Youngs Moduli (GPa) = 37.70546 103.38751 31.96922
#
# Poissons Ratio (x) = 0.04194 -0.12369
# Poissons Ratio (y) = 0.01530 0.09783
# Poissons Ratio (z) = -0.14588 0.31638
#
# Static dielectric constant tensor:
#      x y z
#    x 2.005770 -0.034940 0.037160 
#    y -0.034940 1.903500 0.019390 
#    z 0.037160 0.019390 1.947830 
# 
# From -- ./inp_files/347217.got.cif
#   From: 2010.05.17/outbox.cif.g08.bks.cpg/sg2_174_cif.got.tgz:347217.got - 2010.06.03 11:33:40.
