data_PCOD9089958
_publ_section_title
;
Structure prediction by ZEFSAII (Michael W. Deem and Ramdas Pophale) SiO2 
 PCOD9089958
Probable space group: P -1
;
_chemical_formula_sum "Si O2"
_cell_formula_units_Z 16
_cell_length_a 11.531384
_cell_length_b 16.415189
_cell_length_c 5.356799
_cell_angle_alpha 58.674395
_cell_angle_beta 129.266514
_cell_angle_gamma 125.095535
_cell_volume 622.531823
_symmetry_space_group_name_H-M "P -1"
_symmetry_group_IT_number 2
_symmetry_cell_setting 'triclinic'
loop_
_space_group_symop_operation_xyz
x,y,z
-x,-y,-z
loop_
_atom_site_type_symbol
_atom_site_label
_atom_site_fract_x
_atom_site_fract_y
_atom_site_fract_z
Si Si1 0.775674 0.294899 0.490653
Si Si2 0.842347 0.510111 0.154423
Si Si3 0.942559 0.094402 0.212131
Si Si4 0.418325 0.188432 0.243559
Si Si5 0.753428 0.746615 0.467567
Si Si6 0.007471 0.670075 0.762547
Si Si7 0.380122 0.390977 0.108736
Si Si8 0.164016 0.976825 0.317966
O O1 0.723532 0.393921 0.215767
O O2 0.881005 0.302286 0.875003
O O3 0.603293 0.205263 0.436587
O O4 0.880157 0.302904 0.369156
O O5 0.000000 0.500000 0.500000
O O6 0.889268 0.553088 0.870048
O O7 0.784945 0.586774 0.115033
O O8 0.109622 0.190337 0.246707
O O9 0.859220 0.096431 0.360149
O O10 0.000000 0.000000 0.500000
O O11 0.827259 0.075997 0.848791
O O12 0.328256 0.179860 0.869827
O O13 0.398724 0.291658 0.163552
O O14 0.311647 0.082789 0.398481
O O15 0.614561 0.643633 0.539975
O O16 0.872351 0.720395 0.483097
O O17 0.500000 0.500000 0.000000
O O18 0.000000 0.000000 0.000000
#
# Coordination Sequence:
#
# PCOD9089958 Si02
#       8
#     2   2   2   2   2   2   2   2
#     4  11  24  44  62  92 132 178 216 270 331 386
#     4   9  20  41  63  85 124 185 222 260 313 400
#     4  10  19  38  62  99 124 159 214 276 324 382
#     4  12  25  38  71  99 134 171 221 283 338 379
#     4  11  25  39  70  99 127 177 223 280 322 398
#     4  10  25  43  64  90 130 179 224 261 319 402
#     4  11  23  41  57 100 139 166 218 278 334 378
#     4  10  20  37  63  98 127 164 212 273 330 395
#
# _framework density 25.701498000000001
#
# number of rings (size 3 to 8) (size 9 to 14) (size 15 to 20)
#    0.000    1.500    3.750    1.875    7.000    0.500 
#    2.250    0.000    0.000    4.500    0.000    0.000 
#    0.000    0.000    0.000    0.000    0.000    0.000 
#
# Total GULP energy -89206.767746 kJ/mol
# GULP energy per Si atom -5575.422984 kJ/mol
# Density = 2.564300 g / cm^3
# Si number density = 25.701498 Si / 1000 Ang^3
#
#
#
# Elastic Constant Matrix: (Units=GPa)
#
#
# Indices 1 2 3 4 5 6 
#
# 1 149.1900 46.8626 56.8318 7.9586 -21.3496 19.2934
# 2 46.8626 103.1958 18.4375 -15.4149 -15.7221 34.5667
# 3 56.8318 18.4375 101.9447 -5.9855 -19.1314 7.1464
# 4 7.9586 -15.4149 -5.9855 34.2848 -0.0827 -7.3387
# 5 -21.3496 -15.7221 -19.1314 -0.0827 48.8408 -3.2525
# 6 19.2934 34.5667 7.1464 -7.3387 -3.2525 50.7925
#
#
#
# Elastic Compliance Matrix: (Units=1/GPa)
#
#
# Indices 1 2 3 4 5 6 
#
# 1 0.010581 -0.004112 -0.005168 -0.005463 0.001187 -0.001206
# 2 -0.004112 0.015475 0.001002 0.006384 0.003055 -0.007992
# 3 -0.005168 0.001002 0.013354 0.004032 0.003314 0.000197
# 4 -0.005463 0.006384 0.004032 0.034493 0.001454 0.002240
# 5 0.001187 0.003055 0.003314 0.001454 0.023191 -0.001301
# 6 -0.001206 -0.007992 0.000197 0.002240 -0.001301 0.025798
#
#
# Mechanical properties :
#
#
# Convention : Reuss Voigt Hill
#
# Bulk Modulus (GPa) = 43.75790 66.51044 55.13417
# Shear Modulus (GPa) = 33.99841 42.26354 38.13098
#
# Velocity S-wave (km/s) = 3.64100 4.05952 3.85594
# Velocity P-wave (km/s) = 5.89392 6.92150 6.42827
#
# Compressibility (1/GPa) = 0.02285302
#
# Stress axis : x y z
#
# Youngs Moduli (GPa) = 94.51181 64.62046 74.88418
#
# Poissons Ratio (x) = 0.26575 0.38701
# Poissons Ratio (y) = 0.38868 -0.07505
# Poissons Ratio (z) = 0.48844 -0.06477
#
# Static dielectric constant tensor:
#      x y z
#    x 2.226200 -0.091420 -0.149020 
#    y -0.091420 2.285800 0.041930 
#    z -0.149020 0.041930 2.054680 
# 
# From -- ./inp_files/81267.got.cif
#   From: 2010.05.17/outbox.cif.g08.bks.cpg/sg2_41_cif.got.tgz:81267.got - 2010.06.03 11:33:40.
