data_PCOD9089853
_publ_section_title
;
Structure prediction by ZEFSAII (Michael W. Deem and Ramdas Pophale) SiO2 
 PCOD9089853
Probable space group: P -1
;
_chemical_formula_sum "Si O2"
_cell_formula_units_Z 14
_cell_length_a 9.194302
_cell_length_b 8.485231
_cell_length_c 14.162725
_cell_angle_alpha 91.610078
_cell_angle_beta 60.450622
_cell_angle_gamma 49.548565
_cell_volume 622.160858
_symmetry_space_group_name_H-M "P -1"
_symmetry_group_IT_number 2
_symmetry_cell_setting 'triclinic'
loop_
_space_group_symop_operation_xyz
x,y,z
-x,-y,-z
loop_
_atom_site_type_symbol
_atom_site_label
_atom_site_fract_x
_atom_site_fract_y
_atom_site_fract_z
Si Si1 0.500362 0.615423 0.857618
Si Si2 0.066703 0.253869 0.344952
Si Si3 0.892666 0.297597 0.899835
Si Si4 0.181108 0.880975 0.661739
Si Si5 0.410704 0.002567 0.794354
Si Si6 0.375158 0.232153 0.484953
Si Si7 0.076887 0.784725 0.419355
O O1 0.701235 0.488471 0.879610
O O2 0.400013 0.858161 0.863068
O O3 0.641224 0.443302 0.716774
O O4 0.286284 0.646385 0.961066
O O5 0.375263 0.035289 0.229277
O O6 0.943299 0.195432 0.327570
O O7 0.912717 0.526806 0.379717
O O8 0.998974 0.283662 0.478451
O O9 0.060567 0.030318 0.799669
O O10 0.115878 0.255329 0.864894
O O11 0.484523 0.695202 0.552066
O O12 0.086848 0.080270 0.620072
O O13 0.555181 0.857696 0.647043
O O14 0.500000 0.000000 0.500000
O O15 0.000000 0.000000 0.500000
#
# Coordination Sequence:
#
# PCOD9089853 Si02
#       7
#     2   2   2   2   2   2   2
#     4  10  19  38  62  86 116 158 203 250 289 355
#     4  11  21  35  56  89 124 157 188 249 317 352
#     4   9  21  38  62  86 114 157 211 243 290 353
#     4   9  20  37  56  83 122 158 195 244 302 357
#     4  11  22  34  60  87 119 151 204 247 295 353
#     4  11  22  34  57  89 124 156 206 248 290 364
#     4   9  18  34  57  84 117 152 189 238 303 355
#
# _framework density 22.502220999999999
#
# number of rings (size 3 to 8) (size 9 to 14) (size 15 to 20)
#    0.000    2.000    1.429    2.143    6.000    0.000 
#    0.000    0.714    0.000   13.714    0.000    0.000 
#    0.000    0.000    0.000    0.000    0.000    0.000 
#
# Total GULP energy -77961.798357 kJ/mol
# GULP energy per Si atom -5568.699883 kJ/mol
# Density = 2.245101 g / cm^3
# Si number density = 22.502221 Si / 1000 Ang^3
#
#
#
# Elastic Constant Matrix: (Units=GPa)
#
#
# Indices 1 2 3 4 5 6 
#
# 1 105.8163 10.4577 21.0248 4.4415 -33.6624 -2.9507
# 2 10.4577 74.8178 8.0944 -7.5365 -7.6143 -7.4066
# 3 21.0248 8.0944 81.3425 -9.7635 -17.7642 -10.3844
# 4 4.4415 -7.5365 -9.7635 26.6578 -9.8088 -6.1393
# 5 -33.6624 -7.6143 -17.7642 -9.8088 26.1355 10.2413
# 6 -2.9507 -7.4066 -10.3844 -6.1393 10.2413 20.1813
#
#
#
# Elastic Compliance Matrix: (Units=1/GPa)
#
#
# Indices 1 2 3 4 5 6 
#
# 1 0.018668 0.000101 0.001587 0.006788 0.031812 -0.010495
# 2 0.000101 0.015308 0.001720 0.008764 0.006802 0.005732
# 3 0.001587 0.001720 0.018212 0.014911 0.018389 0.005439
# 4 0.006788 0.008764 0.014911 0.061569 0.040621 0.009997
# 5 0.031812 0.006802 0.018389 0.040621 0.121840 -0.032862
# 6 -0.010495 0.005732 0.005439 0.009997 -0.032862 0.072636
#
#
# Mechanical properties :
#
#
# Convention : Reuss Voigt Hill
#
# Bulk Modulus (GPa) = 16.94790 37.90339 27.42565
# Shear Modulus (GPa) = 15.57224 29.42158 22.49691
#
# Velocity S-wave (km/s) = 2.63350 3.61986 3.16533
# Velocity P-wave (km/s) = 4.09819 5.86106 5.05703
#
# Compressibility (1/GPa) = 0.05900436
#
# Stress axis : x y z
#
# Youngs Moduli (GPa) = 53.56898 65.32508 54.90779
#
# Poissons Ratio (x) = -0.00662 -0.08715
# Poissons Ratio (y) = -0.00543 -0.09442
# Poissons Ratio (z) = -0.08502 -0.11234
#
# Static dielectric constant tensor:
#      x y z
#    x 2.183240 0.038020 0.138070 
#    y 0.038020 1.996870 0.159980 
#    z 0.138070 0.159980 2.045970 
# 
# From -- ./inp_files/214056.got.cif
#   From: 2010.05.17/outbox.cif.g08.bks.cpg/sg2_108_cif.got.tgz:214056.got - 2010.06.03 11:33:40.
