data_PCOD9089550
_publ_section_title
;
Structure prediction by ZEFSAII (Michael W. Deem and Ramdas Pophale) SiO2 
 PCOD9089550
Probable space group: P -1
;
_chemical_formula_sum "Si O2"
_cell_formula_units_Z 16
_cell_length_a 14.388243
_cell_length_b 10.602340
_cell_length_c 9.154395
_cell_angle_alpha 88.695465
_cell_angle_beta 39.657016
_cell_angle_gamma 69.118617
_cell_volume 754.905489
_symmetry_space_group_name_H-M "P -1"
_symmetry_group_IT_number 2
_symmetry_cell_setting 'triclinic'
loop_
_space_group_symop_operation_xyz
x,y,z
-x,-y,-z
loop_
_atom_site_type_symbol
_atom_site_label
_atom_site_fract_x
_atom_site_fract_y
_atom_site_fract_z
Si Si1 0.908053 0.323286 0.434881
Si Si2 0.844841 0.340062 0.851137
Si Si3 0.406008 0.386936 0.679954
Si Si4 0.991710 0.890379 0.125945
Si Si5 0.660632 0.916871 0.501188
Si Si6 0.298585 0.148262 0.877961
Si Si7 0.088144 0.416611 0.740484
Si Si8 0.266860 0.647068 0.625773
O O1 0.866048 0.331684 0.654133
O O2 0.881713 0.473838 0.394672
O O3 0.774567 0.309602 0.493669
O O4 0.111331 0.205223 0.166375
O O5 0.892105 0.182227 0.868686
O O6 0.973129 0.380806 0.774110
O O7 0.664082 0.480327 0.118645
O O8 0.329751 0.284228 0.807025
O O9 0.347219 0.479611 0.596456
O O10 0.610514 0.301814 0.455577
O O11 0.797076 0.950424 0.403904
O O12 0.077649 0.741512 0.924577
O O13 0.000000 0.000000 0.000000
O O14 0.682738 0.927002 0.299806
O O15 0.739342 0.743002 0.438360
O O16 0.462804 0.027532 0.775536
O O17 0.000000 0.500000 0.000000
#
# Coordination Sequence:
#
# PCOD9089550 Si02
#       8
#     2   2   2   2   2   2   2   2
#     4  12  21  36  61  88 121 154 189 249 308 345
#     4  10  22  35  59  89 116 151 201 243 297 359
#     4  10  20  37  57  87 113 155 204 246 281 352
#     4  10  19  38  59  81 112 160 196 239 292 358
#     4  10  20  33  56  90 113 147 203 241 281 347
#     4  11  20  33  59  87 119 148 192 249 291 343
#     4  11  18  36  60  86 113 156 200 237 285 350
#     4  10  21  35  59  84 115 153 204 244 290 345
#
# _framework density 21.194706
#
# number of rings (size 3 to 8) (size 9 to 14) (size 15 to 20)
#    0.000    1.500    3.750    3.375    0.000    0.500 
#    0.000    3.125    2.750    0.000    0.000    0.000 
#    0.000    0.000    0.000    0.000    0.000    0.000 
#
# Total GULP energy -89144.526364 kJ/mol
# GULP energy per Si atom -5571.532898 kJ/mol
# Density = 2.114647 g / cm^3
# Si number density = 21.194706 Si / 1000 Ang^3
#
#
#
# Elastic Constant Matrix: (Units=GPa)
#
#
# Indices 1 2 3 4 5 6 
#
# 1 93.3220 23.6884 42.9278 -2.1399 9.2127 -25.0919
# 2 23.6884 103.1817 28.0383 6.3523 2.4102 -26.1977
# 3 42.9278 28.0383 77.9097 4.4462 3.9050 -26.8982
# 4 -2.1399 6.3523 4.4462 31.9205 -17.3560 -3.8659
# 5 9.2127 2.4102 3.9050 -17.3560 37.8240 -7.7956
# 6 -25.0919 -26.1977 -26.8982 -3.8659 -7.7956 31.6024
#
#
#
# Elastic Compliance Matrix: (Units=1/GPa)
#
#
# Indices 1 2 3 4 5 6 
#
# 1 0.015655 -0.000243 -0.006192 0.002543 -0.000520 0.007141
# 2 -0.000243 0.012439 -0.001139 -0.000661 0.001001 0.009316
# 3 -0.006192 -0.001139 0.020818 -0.000749 0.001594 0.012160
# 4 0.002543 -0.000661 -0.000749 0.045675 0.022949 0.012083
# 5 -0.000520 0.001001 0.001594 0.022949 0.039836 0.014408
# 6 0.007141 0.009316 0.012160 0.012083 0.014408 0.060418
#
#
# Mechanical properties :
#
#
# Convention : Reuss Voigt Hill
#
# Bulk Modulus (GPa) = 29.61655 51.52471 40.57063
# Shear Modulus (GPa) = 22.59926 32.25331 27.42628
#
# Velocity S-wave (km/s) = 3.26892 3.90521 3.60115
# Velocity P-wave (km/s) = 5.31523 6.68559 6.03941
#
# Compressibility (1/GPa) = 0.03376491
#
# Stress axis : x y z
#
# Youngs Moduli (GPa) = 63.87615 80.38919 48.03466
#
# Poissons Ratio (x) = 0.01951 0.29744
# Poissons Ratio (y) = 0.01550 0.05472
# Poissons Ratio (z) = 0.39553 0.09158
#
# Static dielectric constant tensor:
#      x y z
#    x 1.857590 0.028100 -0.062320 
#    y 0.028100 1.865020 0.018470 
#    z -0.062320 0.018470 1.781860 
# 
# From -- ./inp_files/307259.got.cif
#   From: 2010.05.17/outbox.cif.g08.bks.cpg/sg2_154_cif.got.tgz:307259.got - 2010.06.03 11:33:40.
