data_PCOD9089110
_publ_section_title
;
Structure prediction by ZEFSAII (Michael W. Deem and Ramdas Pophale) SiO2 
 PCOD9089110
Probable space group: P -1
;
_chemical_formula_sum "Si O2"
_cell_formula_units_Z 16
_cell_length_a 9.465546
_cell_length_b 22.978503
_cell_length_c 9.653468
_cell_angle_alpha 28.449794
_cell_angle_beta 132.751125
_cell_angle_gamma 120.992780
_cell_volume 714.080742
_symmetry_space_group_name_H-M "P -1"
_symmetry_group_IT_number 2
_symmetry_cell_setting 'triclinic'
loop_
_space_group_symop_operation_xyz
x,y,z
-x,-y,-z
loop_
_atom_site_type_symbol
_atom_site_label
_atom_site_fract_x
_atom_site_fract_y
_atom_site_fract_z
Si Si1 0.114315 0.738134 0.275644
Si Si2 0.702598 0.754395 0.843584
Si Si3 0.346627 0.496461 0.529122
Si Si4 0.647186 0.881310 0.270699
Si Si5 0.012411 0.982789 0.377282
Si Si6 0.437692 0.976195 0.662715
Si Si7 0.070081 0.488737 0.912636
Si Si8 0.493522 0.613303 0.648878
O O1 0.113612 0.623016 0.618058
O O2 0.321722 0.724664 0.364637
O O3 0.052813 0.874016 0.021160
O O4 0.939339 0.728619 0.072519
O O5 0.648619 0.769540 0.614901
O O6 0.620438 0.886826 0.588828
O O7 0.626867 0.644551 0.097435
O O8 0.500000 0.500000 0.500000
O O9 0.398048 0.578412 0.516362
O O10 0.117171 0.534707 0.248692
O O11 0.864201 0.906859 0.377222
O O12 0.500000 0.000000 0.000000
O O13 0.581526 0.888646 0.051629
O O14 0.240055 0.926249 0.618498
O O15 0.000000 0.000000 0.500000
O O16 0.500000 0.000000 0.500000
O O17 0.278370 0.390666 0.229059
O O18 0.000000 0.500000 0.000000
O O19 0.500000 0.500000 0.000000
#
# Coordination Sequence:
#
# PCOD9089110 Si02
#       8
#     2   2   2   2   2   2   2   2
#     4   9  20  37  64  88 123 160 204 255 304 356
#     4   9  20  39  64  87 121 168 208 245 314 369
#     4  11  22  41  62  86 130 167 199 255 311 365
#     4  10  19  37  65  92 114 162 211 246 302 375
#     4  11  19  40  65  89 123 167 202 247 312 369
#     4  10  22  40  62  95 129 156 202 264 306 361
#     4  10  20  38  61  87 122 157 205 249 304 367
#     4  10  22  39  61  92 118 158 209 256 299 360
#
# _framework density 22.406427999999998
#
# number of rings (size 3 to 8) (size 9 to 14) (size 15 to 20)
#    0.000    2.000    5.000    0.000    0.000    9.000 
#    2.250    1.250   11.000    0.000    0.000    0.000 
#    0.000    0.000    0.000    0.000    0.000    0.000 
#
# Total GULP energy -89396.660885 kJ/mol
# GULP energy per Si atom -5587.291305 kJ/mol
# Density = 2.235543 g / cm^3
# Si number density = 22.406428 Si / 1000 Ang^3
#
#
#
# Elastic Constant Matrix: (Units=GPa)
#
#
# Indices 1 2 3 4 5 6 
#
# 1 160.4030 61.3948 68.2262 39.1859 -15.0920 21.3275
# 2 61.3948 96.0267 48.3182 32.2865 -0.7976 18.5473
# 3 68.2262 48.3182 131.1185 21.8442 -16.0645 7.8169
# 4 39.1859 32.2865 21.8442 38.5932 -2.2202 -2.3706
# 5 -15.0920 -0.7976 -16.0645 -2.2202 29.7140 5.7461
# 6 21.3275 18.5473 7.8169 -2.3706 5.7461 41.3725
#
#
#
# Elastic Compliance Matrix: (Units=1/GPa)
#
#
# Indices 1 2 3 4 5 6 
#
# 1 0.011467 -0.001854 -0.002964 -0.008495 0.004630 -0.005650
# 2 -0.001854 0.019128 -0.003804 -0.012533 -0.002002 -0.007341
# 3 -0.002964 -0.003804 0.011019 0.000235 0.004256 0.000574
# 4 -0.008495 -0.012533 0.000235 0.045481 -0.003652 0.013066
# 5 0.004630 -0.002002 0.004256 -0.003652 0.039526 -0.007992
# 6 -0.005650 -0.007341 0.000574 0.013066 -0.007992 0.032124
#
#
# Mechanical properties :
#
#
# Convention : Reuss Voigt Hill
#
# Bulk Modulus (GPa) = 41.03414 82.60297 61.81856
# Shear Modulus (GPa) = 27.15743 35.90987 31.53365
#
# Velocity S-wave (km/s) = 3.48521 4.00767 3.75553
# Velocity P-wave (km/s) = 5.87783 7.63943 6.81579
#
# Compressibility (1/GPa) = 0.02436995
#
# Stress axis : x y z
#
# Youngs Moduli (GPa) = 87.20915 52.27870 90.75342
#
# Poissons Ratio (x) = 0.09692 0.26901
# Poissons Ratio (y) = 0.16168 0.34521
# Poissons Ratio (z) = 0.25850 0.19886
#
# Static dielectric constant tensor:
#      x y z
#    x 1.801020 0.035880 0.008630 
#    y 0.035880 1.859420 -0.050620 
#    z 0.008630 -0.050620 1.908480 
# 
# From -- ./inp_files/225866.got.cif
#   From: 2010.05.17/outbox.cif.g08.bks.cpg/sg2_113_cif.got.tgz:225866.got - 2010.06.03 11:33:40.
