data_PCOD9089803
_publ_section_title
;
Structure prediction by ZEFSAII (Michael W. Deem and Ramdas Pophale) SiO2 
 PCOD9089803
Probable space group: P -1
;
_chemical_formula_sum "Si O2"
_cell_formula_units_Z 16
_cell_length_a 9.456974
_cell_length_b 26.088414
_cell_length_c 8.134322
_cell_angle_alpha 55.307787
_cell_angle_beta 94.291825
_cell_angle_gamma 140.534362
_cell_volume 751.497366
_symmetry_space_group_name_H-M "P -1"
_symmetry_group_IT_number 2
_symmetry_cell_setting 'triclinic'
loop_
_space_group_symop_operation_xyz
x,y,z
-x,-y,-z
loop_
_atom_site_type_symbol
_atom_site_label
_atom_site_fract_x
_atom_site_fract_y
_atom_site_fract_z
Si Si1 0.744216 0.547979 0.015508
Si Si2 0.101759 0.970717 0.871445
Si Si3 0.627615 0.266748 0.282591
Si Si4 0.685087 0.878513 0.805840
Si Si5 0.455021 0.339558 0.175181
Si Si6 0.220948 0.966682 0.247630
Si Si7 0.691830 0.616715 0.176259
Si Si8 0.709382 0.075984 0.215647
O O1 0.552646 0.409023 0.230042
O O2 0.821112 0.615279 0.064120
O O3 0.500000 0.500000 0.000000
O O4 0.074184 0.655446 0.773743
O O5 0.229700 0.970155 0.753968
O O6 0.759686 0.855731 0.990667
O O7 0.324942 0.118445 0.612342
O O8 0.121978 0.953050 0.087534
O O9 0.582507 0.238690 0.133814
O O10 0.624622 0.339761 0.172749
O O11 0.663944 0.934137 0.801170
O O12 0.000000 0.000000 0.500000
O O13 0.086752 0.183516 0.426736
O O14 0.500334 0.407195 0.906365
O O15 0.500080 0.027387 0.148975
O O16 0.500000 0.500000 0.500000
O O17 0.968670 0.762406 0.021935
O O18 0.500000 0.000000 0.500000
#
# Coordination Sequence:
#
# PCOD9089803 Si02
#       8
#     2   2   2   2   2   2   2   2
#     4  10  24  43  66  90 131 179 219 271 336 402
#     4  11  24  37  66 103 135 166 218 284 339 401
#     4  11  22  43  68  97 131 176 226 271 344 409
#     4  10  19  38  61  91 130 172 209 273 339 393
#     4  11  23  42  67  92 134 178 222 277 346 395
#     4  12  23  38  63 101 136 170 222 281 338 396
#     4  11  25  45  67  96 132 181 231 278 332 406
#     4  12  23  42  69  98 135 177 226 277 342 402
#
# _framework density 21.290825999999999
#
# number of rings (size 3 to 8) (size 9 to 14) (size 15 to 20)
#    0.000    1.000    3.750    4.875    3.500    2.000 
#    0.000    0.625    0.000    0.000    0.000    0.000 
#    0.000    0.000    0.000    0.000    0.000    0.000 
#
# Total GULP energy -89263.308669 kJ/mol
# GULP energy per Si atom -5578.956792 kJ/mol
# Density = 2.124237 g / cm^3
# Si number density = 21.290826 Si / 1000 Ang^3
#
#
#
# Elastic Constant Matrix: (Units=GPa)
#
#
# Indices 1 2 3 4 5 6 
#
# 1 119.2644 27.3527 23.8586 -7.4807 10.4515 -4.3685
# 2 27.3527 70.7421 7.3275 0.8457 11.3919 5.6004
# 3 23.8586 7.3275 58.3164 11.1393 20.2852 5.5967
# 4 -7.4807 0.8457 11.1393 27.4280 7.6696 4.7888
# 5 10.4515 11.3919 20.2852 7.6696 25.5257 -3.8762
# 6 -4.3685 5.6004 5.5967 4.7888 -3.8762 52.7410
#
#
#
# Elastic Compliance Matrix: (Units=1/GPa)
#
#
# Indices 1 2 3 4 5 6 
#
# 1 0.010570 -0.003747 -0.004897 0.004744 0.000017 0.001364
# 2 -0.003747 0.016951 0.002663 0.000346 -0.008717 -0.003065
# 3 -0.004897 0.002663 0.027274 -0.006215 -0.019668 -0.004464
# 4 0.004744 0.000346 -0.006215 0.043989 -0.010949 -0.003783
# 5 0.000017 -0.008717 -0.019668 -0.010949 0.063295 0.008660
# 6 0.001364 -0.003065 -0.004464 -0.003783 0.008660 0.020853
#
#
# Mechanical properties :
#
#
# Convention : Reuss Voigt Hill
#
# Bulk Modulus (GPa) = 23.34616 40.60004 31.97310
# Shear Modulus (GPa) = 23.90408 33.79120 28.84764
#
# Velocity S-wave (km/s) = 3.35437 3.98820 3.68493
# Velocity P-wave (km/s) = 5.09819 6.34967 5.75803
#
# Compressibility (1/GPa) = 0.04283359
#
# Stress axis : x y z
#
# Youngs Moduli (GPa) = 94.61068 58.99340 36.66533
#
# Poissons Ratio (x) = 0.22105 0.17953
# Poissons Ratio (y) = 0.35451 -0.09765
# Poissons Ratio (z) = 0.46327 -0.15711
#
# Static dielectric constant tensor:
#      x y z
#    x 1.817880 0.049270 -0.001370 
#    y 0.049270 1.846920 0.011060 
#    z -0.001370 0.011060 1.795200 
# 
# From -- ./inp_files/227393.got.cif
#   From: 2010.05.17/outbox.cif.g08.bks.cpg/sg2_114_cif.got.tgz:227393.got - 2010.06.03 11:33:40.
