data_PCOD9089605
_publ_section_title
;
Structure prediction by ZEFSAII (Michael W. Deem and Ramdas Pophale) SiO2 
 PCOD9089605
Probable space group: P -1
;
_chemical_formula_sum "Si O2"
_cell_formula_units_Z 16
_cell_length_a 11.501947
_cell_length_b 18.633875
_cell_length_c 5.303982
_cell_angle_alpha 44.152491
_cell_angle_beta 60.773216
_cell_angle_gamma 50.535691
_cell_volume 610.223529
_symmetry_space_group_name_H-M "P -1"
_symmetry_group_IT_number 2
_symmetry_cell_setting 'triclinic'
loop_
_space_group_symop_operation_xyz
x,y,z
-x,-y,-z
loop_
_atom_site_type_symbol
_atom_site_label
_atom_site_fract_x
_atom_site_fract_y
_atom_site_fract_z
Si Si1 0.370924 0.270419 0.313387
Si Si2 0.897789 0.191709 0.989058
Si Si3 0.852238 0.022837 0.818751
Si Si4 0.407231 0.427303 0.243265
Si Si5 0.777069 0.767945 0.919976
Si Si6 0.116588 0.648412 0.024879
Si Si7 0.328081 0.751455 0.286164
Si Si8 0.626420 0.015670 0.670096
O O1 0.403214 0.376545 0.098447
O O2 0.268150 0.276445 0.171862
O O3 0.527619 0.154534 0.378575
O O4 0.293053 0.255616 0.690253
O O5 0.916322 0.102817 0.417799
O O6 0.929715 0.291983 0.802439
O O7 0.726585 0.249268 0.937082
O O8 0.018479 0.098542 0.906179
O O9 0.739570 0.113178 0.908670
O O10 0.759853 0.995529 0.772732
O O11 0.506656 0.319656 0.594563
O O12 0.500000 0.500000 0.000000
O O13 0.231715 0.512218 0.274579
O O14 0.958240 0.697453 0.928750
O O15 0.698326 0.911344 0.649839
O O16 0.224360 0.697363 0.661620
O O17 0.500000 0.000000 0.000000
#
# Coordination Sequence:
#
# PCOD9089605 Si02
#       8
#     2   2   2   2   2   2   2   2
#     4  11  25  47  70 100 137 182 227 283 345 406
#     4  10  21  36  62  96 130 173 219 279 346 405
#     4  10  19  38  59  93 136 163 223 279 342 410
#     4  10  23  47  66  98 134 177 236 288 337 397
#     4  11  25  45  71 100 139 179 227 282 342 418
#     4  10  23  41  63  95 132 176 233 280 336 398
#     4  10  21  39  64  94 132 177 222 284 342 405
#     4  10  21  41  65  97 136 179 223 277 346 418
#
# _framework density 26.219899000000002
#
# number of rings (size 3 to 8) (size 9 to 14) (size 15 to 20)
#    0.000    1.750    2.500    0.750    1.750    2.500 
#    9.000    0.000    0.000    0.000    0.000    0.000 
#    0.000    0.000    0.000    0.000    0.000    0.000 
#
# Total GULP energy -89413.760506 kJ/mol
# GULP energy per Si atom -5588.360032 kJ/mol
# Density = 2.616022 g / cm^3
# Si number density = 26.219899 Si / 1000 Ang^3
#
#
#
# Elastic Constant Matrix: (Units=GPa)
#
#
# Indices 1 2 3 4 5 6 
#
# 1 222.9667 106.7082 45.9675 -19.9378 37.2717 6.4237
# 2 106.7082 176.7704 50.4560 -25.7150 23.2845 -2.0787
# 3 45.9675 50.4560 45.7530 -3.4633 13.9857 -5.3628
# 4 -19.9378 -25.7150 -3.4633 45.1617 -7.8968 4.2725
# 5 37.2717 23.2845 13.9857 -7.8968 45.3559 0.4155
# 6 6.4237 -2.0787 -5.3628 4.2725 0.4155 66.7208
#
#
#
# Elastic Compliance Matrix: (Units=1/GPa)
#
#
# Indices 1 2 3 4 5 6 
#
# 1 0.007160 -0.002921 -0.003026 0.000788 -0.003304 -0.001053
# 2 -0.002921 0.010325 -0.008295 0.004048 0.000365 -0.000325
# 3 -0.003026 -0.008295 0.035625 -0.004515 -0.005056 0.003217
# 4 0.000788 0.004048 -0.004515 0.025169 0.003067 -0.001943
# 5 -0.003304 0.000365 -0.005056 0.003067 0.026673 -0.000439
# 6 -0.001053 -0.000325 0.003217 -0.001943 -0.000439 0.015465
#
#
# Mechanical properties :
#
#
# Convention : Reuss Voigt Hill
#
# Bulk Modulus (GPa) = 40.60765 94.63925 67.62345
# Shear Modulus (GPa) = 31.82507 47.60491 39.71499
#
# Velocity S-wave (km/s) = 3.48771 4.26561 3.89612
# Velocity P-wave (km/s) = 5.63381 7.77389 6.78871
#
# Compressibility (1/GPa) = 0.02462590
#
# Stress axis : x y z
#
# Youngs Moduli (GPa) = 139.66727 96.85385 28.07014
#
# Poissons Ratio (x) = 0.28290 0.08494
# Poissons Ratio (y) = 0.40796 0.23284
# Poissons Ratio (z) = 0.42264 0.80340
#
# Static dielectric constant tensor:
#      x y z
#    x 2.055130 0.009580 -0.093490 
#    y 0.009580 2.248250 0.110680 
#    z -0.093490 0.110680 2.255420 
# 
# From -- ./inp_files/81109.got.cif
#   From: 2010.05.17/outbox.cif.g08.bks.cpg/sg2_41_cif.got.tgz:81109.got - 2010.06.03 11:33:40.
