data_PCOD9089327
_publ_section_title
;
Structure prediction by ZEFSAII (Michael W. Deem and Ramdas Pophale) SiO2 
 PCOD9089327
Probable space group: P -1
;
_chemical_formula_sum "Si O2"
_cell_formula_units_Z 14
_cell_length_a 7.792925
_cell_length_b 26.180247
_cell_length_c 5.602731
_cell_angle_alpha 95.532095
_cell_angle_beta 88.919483
_cell_angle_gamma 147.182100
_cell_volume 612.519418
_symmetry_space_group_name_H-M "P -1"
_symmetry_group_IT_number 2
_symmetry_cell_setting 'triclinic'
loop_
_space_group_symop_operation_xyz
x,y,z
-x,-y,-z
loop_
_atom_site_type_symbol
_atom_site_label
_atom_site_fract_x
_atom_site_fract_y
_atom_site_fract_z
Si Si1 0.362193 0.674867 0.175750
Si Si2 0.632529 0.417827 0.520450
Si Si3 0.103912 0.053019 0.270922
Si Si4 0.299793 0.731770 0.597976
Si Si5 0.771317 0.550856 0.833016
Si Si6 0.743688 0.752800 0.794919
Si Si7 0.684841 0.049214 0.268115
O O1 0.426524 0.638052 0.294289
O O2 0.265162 0.705121 0.312864
O O3 0.696639 0.763532 0.065257
O O4 0.048070 0.588226 0.980983
O O5 0.607912 0.470311 0.616891
O O6 0.409837 0.341518 0.278828
O O7 0.000000 0.500000 0.500000
O O8 0.479315 0.163258 0.320043
O O9 0.918157 0.059688 0.273240
O O10 0.000000 0.000000 0.500000
O O11 0.000000 0.000000 0.000000
O O12 0.509790 0.734203 0.661950
O O13 0.981813 0.645680 0.724138
O O14 0.500000 0.500000 0.000000
O O15 0.089099 0.844239 0.715732
O O16 0.500000 0.000000 0.500000
O O17 0.500000 0.000000 0.000000
#
# Coordination Sequence:
#
# PCOD9089327 Si02
#       7
#     2   2   2   2   2   2   2
#     4  10  19  37  68  84 118 168 222 260 313 400
#     4  11  19  38  61  92 116 165 224 257 311 406
#     4  11  25  45  74  99 133 182 236 279 339 422
#     4   9  21  39  64  90 121 171 224 261 329 408
#     4  11  23  38  57  92 133 164 205 270 339 386
#     4   9  21  36  67  91 122 167 224 267 325 405
#     4  11  25  45  70 103 141 174 223 293 356 389
#
# _framework density 22.856414999999998
#
# number of rings (size 3 to 8) (size 9 to 14) (size 15 to 20)
#    0.000    1.714    4.286    1.286   12.000    0.571 
#    2.571    2.857    0.000    0.000    0.000    0.000 
#    0.000    0.000    0.000    0.000    0.000    0.000 
#
# Total GULP energy -77974.167536 kJ/mol
# GULP energy per Si atom -5569.583395 kJ/mol
# Density = 2.280439 g / cm^3
# Si number density = 22.856415 Si / 1000 Ang^3
#
#
#
# Elastic Constant Matrix: (Units=GPa)
#
#
# Indices 1 2 3 4 5 6 
#
# 1 58.1372 28.9693 18.8114 -5.2313 -10.4321 4.8895
# 2 28.9693 186.0685 84.8039 -9.8329 -36.2595 7.6733
# 3 18.8114 84.8039 118.0848 -6.4041 -29.6927 10.0833
# 4 -5.2313 -9.8329 -6.4041 38.8992 3.9264 -10.4136
# 5 -10.4321 -36.2595 -29.6927 3.9264 44.6353 -3.3383
# 6 4.8895 7.6733 10.0833 -10.4136 -3.3383 25.3179
#
#
#
# Elastic Compliance Matrix: (Units=1/GPa)
#
#
# Indices 1 2 3 4 5 6 
#
# 1 0.019130 -0.002070 -0.000828 0.001180 0.001986 -0.001990
# 2 -0.002070 0.008653 -0.005102 0.000914 0.003115 0.000596
# 3 -0.000828 -0.005102 0.013666 -0.000506 0.004547 -0.003345
# 4 0.001180 0.000914 -0.000506 0.029217 -0.001022 0.011579
# 5 0.001986 0.003115 0.004547 -0.001022 0.028529 0.000202
# 6 -0.001990 0.000596 -0.003345 0.011579 0.000202 0.045823
#
#
# Mechanical properties :
#
#
# Convention : Reuss Voigt Hill
#
# Bulk Modulus (GPa) = 39.29346 69.71775 54.50560
# Shear Modulus (GPa) = 29.49849 37.08422 33.29136
#
# Velocity S-wave (km/s) = 3.59639 4.03238 3.82061
# Velocity P-wave (km/s) = 5.87147 7.22833 6.58494
#
# Compressibility (1/GPa) = 0.02544953
#
# Stress axis : x y z
#
# Youngs Moduli (GPa) = 52.27454 115.56778 73.17256
#
# Poissons Ratio (x) = 0.23917 0.06057
# Poissons Ratio (y) = 0.10818 0.37336
# Poissons Ratio (z) = 0.04327 0.58968
#
# Static dielectric constant tensor:
#      x y z
#    x 1.805960 0.013740 -0.121300 
#    y 0.013740 1.899270 0.074480 
#    z -0.121300 0.074480 2.137960 
# 
# From -- ./inp_files/44129.got.cif
#   From: 2010.05.17/outbox.cif.g08.bks.cpg/sg2_23_cif.got.tgz:44129.got - 2010.06.03 11:33:40.
