data_PCOD9089241
_publ_section_title
;
Structure prediction by ZEFSAII (Michael W. Deem and Ramdas Pophale) SiO2 
 PCOD9089241
Probable space group: P -1
;
_chemical_formula_sum "Si O2"
_cell_formula_units_Z 16
_cell_length_a 17.103007
_cell_length_b 20.666608
_cell_length_c 5.379099
_cell_angle_alpha 74.913240
_cell_angle_beta 90.000094
_cell_angle_gamma 149.604405
_cell_volume 824.949249
_symmetry_space_group_name_H-M "P -1"
_symmetry_group_IT_number 2
_symmetry_cell_setting 'triclinic'
loop_
_space_group_symop_operation_xyz
x,y,z
-x,-y,-z
loop_
_atom_site_type_symbol
_atom_site_label
_atom_site_fract_x
_atom_site_fract_y
_atom_site_fract_z
Si Si1 0.485778 0.205799 0.794205
Si Si2 0.642658 0.668149 0.831854
Si Si3 0.832580 0.421606 0.578394
Si Si4 0.568094 0.354576 0.145426
Si Si5 0.874149 0.839349 0.160654
Si Si6 0.965813 0.554552 0.945448
Si Si7 0.915900 0.138517 0.861499
Si Si8 0.019103 0.295546 0.204470
O O1 0.626575 0.251441 0.748562
O O2 0.518921 0.275068 0.475162
O O3 0.518918 0.275065 0.974713
O O4 0.290642 0.030475 0.969523
O O5 0.545786 0.665225 0.834774
O O6 0.758016 0.751234 0.498766
O O7 0.500000 0.500000 0.000000
O O8 0.758011 0.751230 0.998781
O O9 0.000000 0.500000 0.500000
O O10 0.863203 0.485405 0.762496
O O11 0.863201 0.485402 0.266694
O O12 0.771406 0.532563 0.967436
O O13 0.989004 0.860192 0.139806
O O14 0.000000 0.000000 0.000000
O O15 0.084376 0.711243 0.788756
O O16 0.000000 0.500000 0.000000
O O17 0.970035 0.219152 0.531205
O O18 0.970024 0.219135 0.030562
#
# Coordination Sequence:
#
# PCOD9089241 Si02
#       8
#     2   2   2   2   2   2   2   2
#     4  12  23  42  63 100 125 168 213 265 304 388
#     4  12  25  42  63  92 127 162 220 280 320 368
#     4  10  19  37  66  96 121 159 212 256 299 367
#     4  12  23  40  68  93 119 169 230 264 308 380
#     4  12  25  45  63  88 129 184 215 257 329 399
#     4  10  20  38  66  96 121 162 212 256 307 384
#     4  12  26  40  64  94 140 166 209 271 337 372
#     4  12  23  42  64 100 129 168 213 268 328 381
#
# _framework density 19.395130999999999
#
# number of rings (size 3 to 8) (size 9 to 14) (size 15 to 20)
#    0.000    0.500    2.500    7.500    0.000    0.000 
#    0.000    0.000    0.000   18.000    0.000    0.000 
#    0.000    0.000    0.000    0.000    0.000    0.000 
#
# Total GULP energy -89085.757990 kJ/mol
# GULP energy per Si atom -5567.859874 kJ/mol
# Density = 1.935099 g / cm^3
# Si number density = 19.395131 Si / 1000 Ang^3
#
#
#
# Elastic Constant Matrix: (Units=GPa)
#
#
# Indices 1 2 3 4 5 6 
#
# 1 165.5821 53.5684 52.0418 -8.8025 -0.0768 6.0211
# 2 53.5684 178.7180 107.4634 8.3148 -1.7528 -2.0599
# 3 52.0418 107.4634 186.7841 13.1956 7.2340 1.7361
# 4 -8.8025 8.3148 13.1956 51.1023 1.8708 -5.7775
# 5 -0.0768 -1.7528 7.2340 1.8708 66.3014 19.7524
# 6 6.0211 -2.0599 1.7361 -5.7775 19.7524 53.0849
#
#
#
# Elastic Compliance Matrix: (Units=1/GPa)
#
#
# Indices 1 2 3 4 5 6 
#
# 1 0.007012 -0.001433 -0.001251 0.001671 0.000277 -0.000731
# 2 -0.001433 0.008890 -0.004712 -0.000459 0.000650 0.000370
# 3 -0.001251 -0.004712 0.008568 -0.001641 -0.000974 -0.000137
# 4 0.001671 -0.000459 -0.001641 0.020684 -0.001169 0.002533
# 5 0.000277 0.000650 -0.000974 -0.001169 0.017173 -0.006492
# 6 -0.000731 0.000370 -0.000137 0.002533 -0.006492 0.021631
#
#
# Mechanical properties :
#
#
# Convention : Reuss Voigt Hill
#
# Bulk Modulus (GPa) = 103.32408 106.35903 104.84156
# Shear Modulus (GPa) = 49.03134 55.29842 52.16488
#
# Velocity S-wave (km/s) = 5.03340 5.34541 5.19175
# Velocity P-wave (km/s) = 9.33643 9.64650 9.49273
#
# Compressibility (1/GPa) = 0.00967829
#
# Stress axis : x y z
#
# Youngs Moduli (GPa) = 142.61988 112.48576 116.71048
#
# Poissons Ratio (x) = 0.16116 0.14604
# Poissons Ratio (y) = 0.20433 0.54991
# Poissons Ratio (z) = 0.17846 0.53001
#
# Static dielectric constant tensor:
#      x y z
#    x 0.960680 0.086040 0.014940 
#    y 0.086040 1.666450 -0.005360 
#    z 0.014940 -0.005360 1.674750 
# 
# From -- ./inp_files/112216.got.cif
#   From: 2010.05.17/outbox.cif.g08.bks.cpg/sg2_57_cif.got.tgz:112216.got - 2010.06.03 11:33:40.
