data_PCOD9089358
_publ_section_title
;
Structure prediction by ZEFSAII (Michael W. Deem and Ramdas Pophale) SiO2 
 PCOD9089358
Probable space group: P -1
;
_chemical_formula_sum "Si O2"
_cell_formula_units_Z 12
_cell_length_a 8.590266
_cell_length_b 24.097127
_cell_length_c 12.147691
_cell_angle_alpha 24.655367
_cell_angle_beta 32.680501
_cell_angle_gamma 36.909898
_cell_volume 559.670829
_symmetry_space_group_name_H-M "P -1"
_symmetry_group_IT_number 2
_symmetry_cell_setting 'triclinic'
loop_
_space_group_symop_operation_xyz
x,y,z
-x,-y,-z
loop_
_atom_site_type_symbol
_atom_site_label
_atom_site_fract_x
_atom_site_fract_y
_atom_site_fract_z
Si Si1 0.401203 0.375676 0.719490
Si Si2 0.342250 0.868813 0.843720
Si Si3 0.278921 0.385668 0.533107
Si Si4 0.827108 0.025561 0.776152
Si Si5 0.237121 0.688912 0.775237
Si Si6 0.158280 0.815958 0.827380
O O1 0.500000 0.500000 0.500000
O O2 0.462287 0.384779 0.537150
O O3 0.545769 0.233590 0.942287
O O4 0.051059 0.379440 0.926958
O O5 0.370447 0.785485 0.861379
O O6 0.500000 0.000000 0.500000
O O7 0.998684 0.933937 0.934710
O O8 0.477074 0.398199 0.287448
O O9 0.000000 0.500000 0.500000
O O10 0.130941 0.251626 0.858224
O O11 0.826713 0.183371 0.500135
O O12 0.035611 0.972500 0.643294
O O13 0.500000 0.000000 0.000000
O O14 0.280835 0.757140 0.744963
#
# Coordination Sequence:
#
# PCOD9089358 Si02
#       6
#     2   2   2   2   2   2
#     4  11  24  42  67  97 137 176 227 283 340 405
#     4  10  20  40  66 100 139 171 218 281 339 395
#     4  11  24  43  66  94 133 180 235 275 330 419
#     4  10  19  37  68  97 132 171 223 272 331 400
#     4  11  21  42  67  96 131 183 221 282 338 395
#     4   9  21  36  66  93 130 171 226 270 331 402
#
# _framework density 21.441172999999999
#
# number of rings (size 3 to 8) (size 9 to 14) (size 15 to 20)
#    1.000    0.667    3.333    1.500    0.000    3.333 
#    0.000    5.833    0.000    0.000    0.000    0.000 
#    0.000    0.000    0.000    0.000    0.000    0.000 
#
# Total GULP energy -66873.422118 kJ/mol
# GULP energy per Si atom -5572.785176 kJ/mol
# Density = 2.139237 g / cm^3
# Si number density = 21.441173 Si / 1000 Ang^3
#
#
#
# Elastic Constant Matrix: (Units=GPa)
#
#
# Indices 1 2 3 4 5 6 
#
# 1 128.6024 42.7437 27.0455 0.8875 8.7714 7.4733
# 2 42.7437 108.6923 29.8475 16.8733 7.0851 1.1067
# 3 27.0455 29.8475 61.7183 -0.6043 -0.6117 6.7938
# 4 0.8875 16.8733 -0.6043 40.4494 4.7401 -0.2085
# 5 8.7714 7.0851 -0.6117 4.7401 37.2299 -6.4508
# 6 7.4733 1.1067 6.7938 -0.2085 -6.4508 40.0940
#
#
#
# Elastic Compliance Matrix: (Units=1/GPa)
#
#
# Indices 1 2 3 4 5 6 
#
# 1 0.009573 -0.003118 -0.002518 0.001296 -0.002147 -0.001610
# 2 -0.003118 0.012623 -0.004896 -0.005156 -0.000938 0.000884
# 3 -0.002518 -0.004896 0.019992 0.002252 0.001118 -0.002592
# 4 0.001296 -0.005156 0.002252 0.027213 -0.002891 -0.000805
# 5 -0.002147 -0.000938 0.001118 -0.002891 0.028772 0.004851
# 6 -0.001610 0.000884 -0.002592 -0.000805 0.004851 0.026433
#
#
# Mechanical properties :
#
#
# Convention : Reuss Voigt Hill
#
# Bulk Modulus (GPa) = 47.33813 55.36513 51.35163
# Shear Modulus (GPa) = 32.74157 36.84640 34.79399
#
# Velocity S-wave (km/s) = 3.91198 4.14996 4.03273
# Velocity P-wave (km/s) = 6.52157 6.98862 6.75913
#
# Compressibility (1/GPa) = 0.02112462
#
# Stress axis : x y z
#
# Youngs Moduli (GPa) = 104.46119 79.21832 50.01949
#
# Poissons Ratio (x) = 0.24699 0.12597
# Poissons Ratio (y) = 0.32570 0.24488
# Poissons Ratio (z) = 0.26308 0.38782
#
# Static dielectric constant tensor:
#      x y z
#    x 1.855650 -0.021220 0.053130 
#    y -0.021220 1.860930 -0.051190 
#    z 0.053130 -0.051190 1.829040 
# 
# From -- ./inp_files/406859.got.cif
#   From: 2010.05.17/outbox.cif.g08.bks.cpg/sg2_204_cif.got.tgz:406859.got - 2010.06.03 11:33:40.
