data_PCOD9089076
_publ_section_title
;
Structure prediction by ZEFSAII (Michael W. Deem and Ramdas Pophale) SiO2 
 PCOD9089076
Probable space group: P -1
;
_chemical_formula_sum "Si O2"
_cell_formula_units_Z 14
_cell_length_a 11.021415
_cell_length_b 7.391864
_cell_length_c 14.605242
_cell_angle_alpha 107.120318
_cell_angle_beta 117.627625
_cell_angle_gamma 124.136813
_cell_volume 570.862316
_symmetry_space_group_name_H-M "P -1"
_symmetry_group_IT_number 2
_symmetry_cell_setting 'triclinic'
loop_
_space_group_symop_operation_xyz
x,y,z
-x,-y,-z
loop_
_atom_site_type_symbol
_atom_site_label
_atom_site_fract_x
_atom_site_fract_y
_atom_site_fract_z
Si Si1 0.251422 0.157238 0.311790
Si Si2 0.186028 0.649679 0.266619
Si Si3 0.704220 0.191568 0.461593
Si Si4 0.192061 0.864853 0.073050
Si Si5 0.231771 0.281763 0.860147
Si Si6 0.490511 0.053006 0.898773
Si Si7 0.888844 0.131503 0.376694
O O1 0.500000 0.500000 0.500000
O O2 0.186861 0.878458 0.290407
O O3 0.254922 0.109673 0.197806
O O4 0.032725 0.053111 0.238827
O O5 0.226382 0.675366 0.391611
O O6 0.416149 0.849546 0.316097
O O7 0.953902 0.272834 0.092840
O O8 0.805180 0.110809 0.442644
O O9 0.835672 0.499578 0.491624
O O10 0.431687 0.029631 0.150393
O O11 0.000000 0.500000 0.000000
O O12 0.177470 0.157004 0.717710
O O13 0.500000 0.500000 0.000000
O O14 0.289763 0.549761 0.964077
O O15 0.260767 0.903139 0.754248
O O16 0.500000 0.000000 0.000000
#
# Coordination Sequence:
#
# PCOD9089076 Si02
#       7
#     2   2   2   2   2   2   2
#     4  11  22  39  65  94 130 167 214 264 325 379
#     4  10  20  37  64  89 121 162 221 257 305 378
#     4  10  21  37  61  90 122 167 209 263 311 386
#     4  10  19  37  65  87 115 168 214 253 309 386
#     4  10  22  38  60  93 130 166 207 268 320 378
#     4  11  21  38  64  93 121 163 219 262 313 388
#     4  10  21  37  60  86 129 166 201 253 334 369
#
# _framework density 24.524301999999999
#
# number of rings (size 3 to 8) (size 9 to 14) (size 15 to 20)
#    0.000    1.714    2.857    3.429    2.000    1.143 
#    2.571    0.714    0.000    4.286    0.000    0.000 
#    0.000    0.000    0.000    0.000    0.000    0.000 
#
# Total GULP energy -77983.375032 kJ/mol
# GULP energy per Si atom -5570.241074 kJ/mol
# Density = 2.446848 g / cm^3
# Si number density = 24.524302 Si / 1000 Ang^3
#
#
#
# Elastic Constant Matrix: (Units=GPa)
#
#
# Indices 1 2 3 4 5 6 
#
# 1 130.2461 25.1620 60.0629 13.0309 -7.2574 39.1118
# 2 25.1620 27.0205 23.8752 -8.4986 15.0507 14.5779
# 3 60.0629 23.8752 204.9259 13.6354 -12.7628 17.3912
# 4 13.0309 -8.4986 13.6354 25.4653 1.5271 -3.0144
# 5 -7.2574 15.0507 -12.7628 1.5271 45.7523 3.9115
# 6 39.1118 14.5779 17.3912 -3.0144 3.9115 33.0430
#
#
#
# Elastic Compliance Matrix: (Units=1/GPa)
#
#
# Indices 1 2 3 4 5 6 
#
# 1 0.020161 -0.024780 0.000719 -0.021798 0.013725 -0.016923
# 2 -0.024780 0.123761 -0.014000 0.063759 -0.050151 -0.006147
# 3 0.000719 -0.014000 0.007396 -0.009460 0.007122 -0.000274
# 4 -0.021798 0.063759 -0.009460 0.080235 -0.030914 0.013630
# 5 0.013725 -0.050151 0.007122 -0.030914 0.044055 -0.005903
# 6 -0.016923 -0.006147 -0.000274 0.013630 -0.005903 0.055093
#
#
# Mechanical properties :
#
#
# Convention : Reuss Voigt Hill
#
# Bulk Modulus (GPa) = 13.29871 64.48807 38.89339
# Shear Modulus (GPa) = 11.57711 37.72496 24.65104
#
# Velocity S-wave (km/s) = 2.17507 3.92633 3.17388
# Velocity P-wave (km/s) = 3.42671 6.84890 5.41525
#
# Compressibility (1/GPa) = 0.07519529
#
# Stress axis : x y z
#
# Youngs Moduli (GPa) = 49.60174 8.08012 135.20237
#
# Poissons Ratio (x) = 0.20023 -0.09727
# Poissons Ratio (y) = 1.22915 1.89283
# Poissons Ratio (z) = -0.03568 0.11312
#
# Static dielectric constant tensor:
#      x y z
#    x 2.026500 -0.004530 0.056730 
#    y -0.004530 2.021440 -0.077180 
#    z 0.056730 -0.077180 2.044590 
# 
# From -- ./inp_files/391937.got.cif
#   From: 2010.05.17/outbox.cif.g08.bks.cpg/sg2_196_cif.got.tgz:391937.got - 2010.06.03 11:33:40.
