data_PCOD9089948
_publ_section_title
;
Structure prediction by ZEFSAII (Michael W. Deem and Ramdas Pophale) SiO2 
 PCOD9089948
Probable space group: P -1
;
_chemical_formula_sum "Si O2"
_cell_formula_units_Z 16
_cell_length_a 9.595784
_cell_length_b 9.551361
_cell_length_c 16.382816
_cell_angle_alpha 47.321908
_cell_angle_beta 122.918235
_cell_angle_gamma 135.410465
_cell_volume 769.577395
_symmetry_space_group_name_H-M "P -1"
_symmetry_group_IT_number 2
_symmetry_cell_setting 'triclinic'
loop_
_space_group_symop_operation_xyz
x,y,z
-x,-y,-z
loop_
_atom_site_type_symbol
_atom_site_label
_atom_site_fract_x
_atom_site_fract_y
_atom_site_fract_z
Si Si1 0.997835 0.579685 0.559317
Si Si2 0.593983 0.253377 0.647951
Si Si3 0.813697 0.681123 0.235852
Si Si4 0.426903 0.619102 0.086725
Si Si5 0.709077 0.000846 0.910484
Si Si6 0.633171 0.940798 0.510713
Si Si7 0.907821 0.810873 0.945280
Si Si8 0.493499 0.432864 0.696870
O O1 0.104670 0.477013 0.684055
O O2 0.000000 0.500000 0.500000
O O3 0.781687 0.459829 0.577076
O O4 0.138311 0.851160 0.496338
O O5 0.660150 0.116956 0.778008
O O6 0.442535 0.095960 0.591565
O O7 0.510187 0.349896 0.647643
O O8 0.608318 0.579040 0.160426
O O9 0.732898 0.673051 0.304330
O O10 0.974469 0.943754 0.160693
O O11 0.226634 0.409052 0.066960
O O12 0.412380 0.638000 0.172607
O O13 0.525176 0.850923 0.973696
O O14 0.763250 0.832325 0.952418
O O15 0.913940 0.181217 0.952694
O O16 0.598986 0.705173 0.623746
O O17 0.500000 0.000000 0.500000
#
# Coordination Sequence:
#
# PCOD9089948 Si02
#       8
#     2   2   2   2   2   2   2   2
#     4  12  24  39  66  99 122 166 222 268 314 385
#     4  12  26  44  65  98 138 167 214 276 320 392
#     4   9  20  38  62  90 125 167 213 252 321 374
#     4   9  21  39  64  93 129 172 214 258 322 384
#     4  10  22  36  64  97 128 168 218 266 324 366
#     4  12  24  44  71  96 124 177 218 267 327 382
#     4  10  19  38  62  94 127 170 213 275 303 379
#     4  10  24  45  64  96 139 169 212 265 331 386
#
# _framework density 20.79063
#
# number of rings (size 3 to 8) (size 9 to 14) (size 15 to 20)
#    0.750    0.750    3.750    0.750    5.250    2.000 
#    2.250    0.625    0.000    0.000    0.000    0.000 
#    0.000    0.000    0.000    0.000    0.000    0.000 
#
# Total GULP energy -89301.310007 kJ/mol
# GULP energy per Si atom -5581.331875 kJ/mol
# Density = 2.074331 g / cm^3
# Si number density = 20.790630 Si / 1000 Ang^3
#
#
#
# Elastic Constant Matrix: (Units=GPa)
#
#
# Indices 1 2 3 4 5 6 
#
# 1 64.5965 32.6161 21.9378 5.1471 -24.0405 -12.7393
# 2 32.6161 119.5507 37.0218 12.0938 -18.7994 3.6990
# 3 21.9378 37.0218 107.6152 -2.6652 -28.1336 5.0507
# 4 5.1471 12.0938 -2.6652 23.3586 -3.6790 -4.2292
# 5 -24.0405 -18.7994 -28.1336 -3.6790 30.5768 4.7733
# 6 -12.7393 3.6990 5.0507 -4.2292 4.7733 28.3918
#
#
#
# Elastic Compliance Matrix: (Units=1/GPa)
#
#
# Indices 1 2 3 4 5 6 
#
# 1 0.025661 -0.004982 0.000238 0.001209 0.015976 0.009615
# 2 -0.004982 0.011357 -0.002695 -0.005761 0.000546 -0.004186
# 3 0.000238 -0.002695 0.013585 0.004183 0.012058 -0.003363
# 4 0.001209 -0.005761 0.004183 0.048166 0.006004 0.006714
# 5 0.015976 0.000546 0.012058 0.006004 0.058028 -0.003909
# 6 0.009615 -0.004186 -0.003363 0.006714 -0.003909 0.042337
#
#
# Mechanical properties :
#
#
# Convention : Reuss Voigt Hill
#
# Bulk Modulus (GPa) = 27.99212 52.76821 40.38016
# Shear Modulus (GPa) = 22.13191 29.81123 25.97157
#
# Velocity S-wave (km/s) = 3.26623 3.79077 3.53823
# Velocity P-wave (km/s) = 5.26473 6.67800 6.01303
#
# Compressibility (1/GPa) = 0.03572434
#
# Stress axis : x y z
#
# Youngs Moduli (GPa) = 38.96963 88.05467 73.61321
#
# Poissons Ratio (x) = 0.43871 -0.01753
# Poissons Ratio (y) = 0.19416 0.19837
# Poissons Ratio (z) = -0.00928 0.23729
#
# Static dielectric constant tensor:
#      x y z
#    x 1.758270 -0.009710 -0.000780 
#    y -0.009710 1.694020 0.037870 
#    z -0.000780 0.037870 1.810600 
# 
# From -- ./inp_files/565757.got.cif
#   From: 2010.05.17/outbox.cif.g08.bks.cpg/sg2_283_cif.got.tgz:565757.got - 2010.06.03 11:33:40.
