data_PCOD9089140
_publ_section_title
;
Structure prediction by ZEFSAII (Michael W. Deem and Ramdas Pophale) SiO2 
 PCOD9089140
Probable space group: P -1
;
_chemical_formula_sum "Si O2"
_cell_formula_units_Z 16
_cell_length_a 13.556399
_cell_length_b 13.220100
_cell_length_c 11.218581
_cell_angle_alpha 113.399078
_cell_angle_beta 147.000597
_cell_angle_gamma 44.673589
_cell_volume 657.403864
_symmetry_space_group_name_H-M "P -1"
_symmetry_group_IT_number 2
_symmetry_cell_setting 'triclinic'
loop_
_space_group_symop_operation_xyz
x,y,z
-x,-y,-z
loop_
_atom_site_type_symbol
_atom_site_label
_atom_site_fract_x
_atom_site_fract_y
_atom_site_fract_z
Si Si1 0.453739 0.348977 0.577540
Si Si2 0.629343 0.606804 0.220935
Si Si3 0.368828 0.039639 0.254758
Si Si4 0.068657 0.931202 0.232920
Si Si5 0.976218 0.394737 0.093691
Si Si6 0.086082 0.288342 0.414436
Si Si7 0.644571 0.361551 0.433123
Si Si8 0.139484 0.848791 0.663663
O O1 0.517672 0.345297 0.779149
O O2 0.698149 0.167823 0.677565
O O3 0.166141 0.415093 0.306321
O O4 0.419710 0.481254 0.539670
O O5 0.805670 0.635520 0.436904
O O6 0.825095 0.412748 0.295156
O O7 0.443818 0.722316 0.972294
O O8 0.146150 0.238417 0.102444
O O9 0.500000 0.000000 0.500000
O O10 0.634211 0.909396 0.376508
O O11 0.210710 0.995274 0.067839
O O12 0.168838 0.788077 0.354945
O O13 0.028097 0.054556 0.336813
O O14 0.981832 0.323338 0.190232
O O15 0.653515 0.562679 0.826627
O O16 0.803904 0.277211 0.428546
O O17 0.000000 0.000000 0.500000
#
# Coordination Sequence:
#
# PCOD9089140 Si02
#       8
#     2   2   2   2   2   2   2   2
#     4  11  25  40  66 105 132 172 227 281 321 402
#     4  10  19  37  65  95 127 172 220 271 324 391
#     4  10  20  38  65  95 130 177 217 271 338 389
#     4  11  23  43  67  97 138 178 217 282 332 395
#     4  10  21  40  66  95 129 175 222 268 334 396
#     4   9  18  36  62  93 128 172 216 268 327 387
#     4  11  23  45  69  94 137 183 221 266 340 398
#     4  10  22  41  69  94 134 180 216 269 339 394
#
# _framework density 24.338159999999998
#
# number of rings (size 3 to 8) (size 9 to 14) (size 15 to 20)
#    0.000    1.750    3.750    0.375    0.000    1.500 
#    2.250    0.000    0.000    3.000    0.000    0.000 
#    0.000    0.000    0.000    0.000    0.000    0.000 
#
# Total GULP energy -89243.950226 kJ/mol
# GULP energy per Si atom -5577.746889 kJ/mol
# Density = 2.428277 g / cm^3
# Si number density = 24.338160 Si / 1000 Ang^3
#
#
#
# Elastic Constant Matrix: (Units=GPa)
#
#
# Indices 1 2 3 4 5 6 
#
# 1 92.4430 35.8855 48.1995 -1.2132 6.9733 -25.6813
# 2 35.8855 129.4324 24.4697 -16.5033 7.4278 -44.9186
# 3 48.1995 24.4697 101.4665 -6.8508 5.7333 -1.2115
# 4 -1.2132 -16.5033 -6.8508 33.5202 1.9878 6.4085
# 5 6.9733 7.4278 5.7333 1.9878 32.5214 3.0625
# 6 -25.6813 -44.9186 -1.2115 6.4085 3.0625 45.5269
#
#
#
# Elastic Compliance Matrix: (Units=1/GPa)
#
#
# Indices 1 2 3 4 5 6 
#
# 1 0.018607 0.000144 -0.008753 -0.002958 -0.003339 0.011046
# 2 0.000144 0.013418 -0.002660 0.003827 -0.004083 0.012985
# 3 -0.008753 -0.002660 0.014729 0.002810 0.000431 -0.007594
# 4 -0.002958 0.003827 0.002810 0.032766 -0.002525 -0.002260
# 5 -0.003339 -0.004083 0.000431 -0.002525 0.033208 -0.007779
# 6 0.011046 0.012985 -0.007594 -0.002260 -0.007779 0.041646
#
#
# Mechanical properties :
#
#
# Convention : Reuss Voigt Hill
#
# Bulk Modulus (GPa) = 41.29466 60.05016 50.67241
# Shear Modulus (GPa) = 27.02921 36.63285 31.83103
#
# Velocity S-wave (km/s) = 3.33614 3.88385 3.62037
# Velocity P-wave (km/s) = 5.64301 6.69621 6.19204
#
# Compressibility (1/GPa) = 0.02421621
#
# Stress axis : x y z
#
# Youngs Moduli (GPa) = 53.74310 74.52910 67.89119
#
# Poissons Ratio (x) = -0.01071 0.59423
# Poissons Ratio (y) = -0.00772 0.18058
# Poissons Ratio (z) = 0.47040 0.19824
#
# Static dielectric constant tensor:
#      x y z
#    x 1.993860 -0.053740 0.010040 
#    y -0.053740 1.995590 -0.013130 
#    z 0.010040 -0.013130 1.944560 
# 
# From -- ./inp_files/455853.got.cif
#   From: 2010.05.17/outbox.cif.g08.bks.cpg/sg2_228_cif.got.tgz:455853.got - 2010.06.03 11:33:40.
