data_PCOD9089259
_publ_section_title
;
Structure prediction by ZEFSAII (Michael W. Deem and Ramdas Pophale) SiO2 
 PCOD9089259
Probable space group: P -1
;
_chemical_formula_sum "Si O2"
_cell_formula_units_Z 14
_cell_length_a 11.034342
_cell_length_b 6.990291
_cell_length_c 16.544517
_cell_angle_alpha 96.598264
_cell_angle_beta 147.105670
_cell_angle_gamma 64.300092
_cell_volume 537.444340
_symmetry_space_group_name_H-M "P -1"
_symmetry_group_IT_number 2
_symmetry_cell_setting 'triclinic'
loop_
_space_group_symop_operation_xyz
x,y,z
-x,-y,-z
loop_
_atom_site_type_symbol
_atom_site_label
_atom_site_fract_x
_atom_site_fract_y
_atom_site_fract_z
Si Si1 0.566370 0.276147 0.382931
Si Si2 0.320473 0.902128 0.903730
Si Si3 0.681391 0.633380 0.239133
Si Si4 0.289749 0.739057 0.171451
Si Si5 0.290183 0.222945 0.500711
Si Si6 0.758478 0.414231 0.613718
Si Si7 0.115816 0.043171 0.628681
O O1 0.302365 0.510578 0.195447
O O2 0.849460 0.282813 0.557385
O O3 0.459999 0.442907 0.420786
O O4 0.793654 0.105730 0.418650
O O5 0.267684 0.850207 0.780957
O O6 0.016791 0.142016 0.780605
O O7 0.500000 0.000000 0.000000
O O8 0.501025 0.689668 0.059858
O O9 0.509667 0.637416 0.216185
O O10 0.607192 0.047709 0.438928
O O11 0.007217 0.391216 0.404800
O O12 0.442110 0.789614 0.326284
O O13 0.000000 0.000000 0.000000
O O14 0.192460 0.384163 0.371014
O O15 0.712147 0.847524 0.279943
#
# Coordination Sequence:
#
# PCOD9089259 Si02
#       7
#     2   2   2   2   2   2   2
#     4  10  23  40  65  97 126 173 238 272 339 408
#     4   9  18  38  64  98 128 170 226 270 341 396
#     4  11  21  40  71  95 134 183 224 285 344 395
#     4  11  25  41  64  98 134 177 227 284 343 408
#     4  11  22  42  68  94 130 178 233 277 337 415
#     4  10  21  40  68  91 134 179 216 276 343 411
#     4  10  19  37  67 100 129 173 224 283 329 401
#
# _framework density 26.049208
#
# number of rings (size 3 to 8) (size 9 to 14) (size 15 to 20)
#    0.000    1.714    5.714    1.286    6.000    1.143 
#    0.000    2.857    0.000    0.000    0.000    0.000 
#    0.000    0.000    0.000    0.000    0.000    0.000 
#
# Total GULP energy -78033.928754 kJ/mol
# GULP energy per Si atom -5573.852054 kJ/mol
# Density = 2.598992 g / cm^3
# Si number density = 26.049208 Si / 1000 Ang^3
#
#
#
# Elastic Constant Matrix: (Units=GPa)
#
#
# Indices 1 2 3 4 5 6 
#
# 1 143.6236 60.9265 16.3426 -8.3776 -8.0652 -8.1562
# 2 60.9265 164.4375 62.9881 -21.5981 -17.0109 2.9494
# 3 16.3426 62.9881 130.8963 -23.3087 -10.7596 2.1673
# 4 -8.3776 -21.5981 -23.3087 52.1578 -4.7617 -12.3472
# 5 -8.0652 -17.0109 -10.7596 -4.7617 50.6366 -12.6841
# 6 -8.1562 2.9494 2.1673 -12.3472 -12.6841 58.1887
#
#
#
# Elastic Compliance Matrix: (Units=1/GPa)
#
#
# Indices 1 2 3 4 5 6 
#
# 1 0.008446 -0.003222 0.000688 0.000813 0.000909 0.001692
# 2 -0.003222 0.009050 -0.003456 0.001878 0.001981 0.000049
# 3 0.000688 -0.003456 0.009963 0.003520 0.001649 0.001007
# 4 0.000813 0.001878 0.003520 0.023559 0.005234 0.006027
# 5 0.000909 0.001981 0.001649 0.005234 0.022923 0.006073
# 6 0.001692 0.000049 0.001007 0.006027 0.006073 0.019985
#
#
# Mechanical properties :
#
#
# Convention : Reuss Voigt Hill
#
# Bulk Modulus (GPa) = 64.61235 79.94131 72.27683
# Shear Modulus (GPa) = 45.01854 52.10998 48.56426
#
# Velocity S-wave (km/s) = 4.16169 4.47748 4.32247
# Velocity P-wave (km/s) = 6.92464 7.58193 7.26073
#
# Compressibility (1/GPa) = 0.01547692
#
# Stress axis : x y z
#
# Youngs Moduli (GPa) = 118.40094 110.49964 100.37552
#
# Poissons Ratio (x) = 0.35605 -0.06902
# Poissons Ratio (y) = 0.38151 0.34691
# Poissons Ratio (z) = -0.08141 0.38189
#
# Static dielectric constant tensor:
#      x y z
#    x 2.139640 -0.145050 -0.037820 
#    y -0.145050 2.112790 0.029600 
#    z -0.037820 0.029600 2.055020 
# 
# From -- ./inp_files/567416.got.cif
#   From: 2010.05.17/outbox.cif.g08.bks.cpg/sg2_284_cif.got.tgz:567416.got - 2010.06.03 11:33:40.
