data_PCOD9089220
_publ_section_title
;
Structure prediction by ZEFSAII (Michael W. Deem and Ramdas Pophale) SiO2 
 PCOD9089220
Probable space group: P -1
;
_chemical_formula_sum "Si O2"
_cell_formula_units_Z 12
_cell_length_a 7.219771
_cell_length_b 10.945265
_cell_length_c 13.434260
_cell_angle_alpha 140.183829
_cell_angle_beta 139.883755
_cell_angle_gamma 45.535217
_cell_volume 421.236538
_symmetry_space_group_name_H-M "P -1"
_symmetry_group_IT_number 2
_symmetry_cell_setting 'triclinic'
loop_
_space_group_symop_operation_xyz
x,y,z
-x,-y,-z
loop_
_atom_site_type_symbol
_atom_site_label
_atom_site_fract_x
_atom_site_fract_y
_atom_site_fract_z
Si Si1 0.423239 0.827016 0.662105
Si Si2 0.489935 0.815251 0.313352
Si Si3 0.869877 0.235979 0.695149
Si Si4 0.715770 0.062798 0.047784
Si Si5 0.407075 0.346556 0.937554
Si Si6 0.933967 0.330416 0.435914
O O1 0.378736 0.765063 0.491329
O O2 0.357209 0.672975 0.620234
O O3 0.719787 0.888591 0.859567
O O4 0.128598 0.023627 0.673437
O O5 0.265745 0.722361 0.224462
O O6 0.472452 0.841176 0.205853
O O7 0.824429 0.681380 0.386040
O O8 0.500000 0.000000 0.500000
O O9 0.056358 0.384977 0.832814
O O10 0.560737 0.268095 0.055208
O O11 0.964043 0.131103 0.255670
O O12 0.500000 0.000000 0.000000
O O13 0.500000 0.500000 0.000000
O O14 0.000000 0.500000 0.500000
#
# Coordination Sequence:
#
# PCOD9089220 Si02
#       6
#     2   2   2   2   2   2
#     4   9  17  38  62  88 126 169 206 264 318 384
#     4  12  22  39  70  96 122 172 228 262 310 401
#     4  10  19  37  66  93 121 163 226 263 310 384
#     4   9  20  36  61  88 124 172 210 252 325 389
#     4  11  23  41  67  95 132 171 214 275 332 379
#     4  11  21  37  62  93 131 169 207 265 335 381
#
# _framework density 28.487556000000001
#
# number of rings (size 3 to 8) (size 9 to 14) (size 15 to 20)
#    0.000    1.667    3.333    3.000    0.000    0.667 
#    0.000    4.167    0.000    0.000    0.000    0.000 
#    0.000    0.000    0.000    0.000    0.000    0.000 
#
# Total GULP energy -66992.983597 kJ/mol
# GULP energy per Si atom -5582.748633 kJ/mol
# Density = 2.842272 g / cm^3
# Si number density = 28.487556 Si / 1000 Ang^3
#
#
#
# Elastic Constant Matrix: (Units=GPa)
#
#
# Indices 1 2 3 4 5 6 
#
# 1 138.7514 23.5588 49.1551 -2.1719 19.4406 42.9613
# 2 23.5588 76.4958 25.1086 2.3222 10.4022 37.7975
# 3 49.1551 25.1086 158.0913 -13.6324 22.5370 22.1564
# 4 -2.1719 2.3222 -13.6324 41.1440 26.9235 3.2611
# 5 19.4406 10.4022 22.5370 26.9235 46.0468 4.5818
# 6 42.9613 37.7975 22.1564 3.2611 4.5818 54.7987
#
#
#
# Elastic Compliance Matrix: (Units=1/GPa)
#
#
# Indices 1 2 3 4 5 6 
#
# 1 0.011299 0.002574 -0.001040 0.005534 -0.007088 -0.009950
# 2 0.002574 0.021181 -0.000631 0.004209 -0.006423 -0.016085
# 3 -0.001040 -0.000631 0.009112 0.009020 -0.008931 -0.002223
# 4 0.005534 0.004209 0.009020 0.052709 -0.037436 -0.010895
# 5 -0.007088 -0.006423 -0.008931 -0.037436 0.051272 0.011539
# 6 -0.009950 -0.016085 -0.002223 -0.010895 0.011539 0.037726
#
#
# Mechanical properties :
#
#
# Convention : Reuss Voigt Hill
#
# Bulk Modulus (GPa) = 23.04335 63.22038 43.13186
# Shear Modulus (GPa) = 25.51547 46.76566 36.14057
#
# Velocity S-wave (km/s) = 2.99602 4.05608 3.56567
# Velocity P-wave (km/s) = 4.48048 6.64652 5.66793
#
# Compressibility (1/GPa) = 0.04339647
#
# Stress axis : x y z
#
# Youngs Moduli (GPa) = 88.50355 47.21243 109.75088
#
# Poissons Ratio (x) = -0.12151 0.11412
# Poissons Ratio (y) = -0.22778 0.06928
# Poissons Ratio (z) = 0.09203 0.02980
#
# Static dielectric constant tensor:
#      x y z
#    x 2.244850 -0.074660 -0.005780 
#    y -0.074660 2.414100 0.330130 
#    z -0.005780 0.330130 2.551140 
# 
# From -- ./inp_files/497132.got.cif
#   From: 2010.05.17/outbox.cif.g08.bks.cpg/sg2_249_cif.got.tgz:497132.got - 2010.06.03 11:33:40.
