data_PCOD9089535
_publ_section_title
;
Structure prediction by ZEFSAII (Michael W. Deem and Ramdas Pophale) SiO2 
 PCOD9089535
Probable space group: P -1
;
_chemical_formula_sum "Si O2"
_cell_formula_units_Z 16
_cell_length_a 15.331462
_cell_length_b 12.116850
_cell_length_c 9.612904
_cell_angle_alpha 130.038141
_cell_angle_beta 140.925505
_cell_angle_gamma 46.310628
_cell_volume 791.170212
_symmetry_space_group_name_H-M "P -1"
_symmetry_group_IT_number 2
_symmetry_cell_setting 'triclinic'
loop_
_space_group_symop_operation_xyz
x,y,z
-x,-y,-z
loop_
_atom_site_type_symbol
_atom_site_label
_atom_site_fract_x
_atom_site_fract_y
_atom_site_fract_z
Si Si1 0.168344 0.988916 0.227414
Si Si2 0.622388 0.061550 0.032220
Si Si3 0.623217 0.366511 0.840735
Si Si4 0.320496 0.641765 0.761890
Si Si5 0.662416 0.887218 0.669281
Si Si6 0.163051 0.476959 0.840098
Si Si7 0.283661 0.128618 0.728755
Si Si8 0.161439 0.443459 0.474810
O O1 0.302884 0.814319 0.264065
O O2 0.215960 0.064549 0.217318
O O3 0.182333 0.087460 0.457570
O O4 0.000000 0.000000 0.000000
O O5 0.677590 0.197791 0.166668
O O6 0.676747 0.994480 0.197282
O O7 0.440740 0.121722 0.852300
O O8 0.673073 0.920450 0.870378
O O9 0.453058 0.497163 0.731375
O O10 0.649398 0.355349 0.032138
O O11 0.720926 0.442208 0.936628
O O12 0.175950 0.595485 0.547575
O O13 0.699860 0.709311 0.529825
O O14 0.500000 0.000000 0.500000
O O15 0.207299 0.307988 0.826355
O O16 0.166361 0.453069 0.656412
O O17 0.994154 0.574252 0.759844
#
# Coordination Sequence:
#
# PCOD9089535 Si02
#       8
#     2   2   2   2   2   2   2   2
#     4  12  24  38  62  96 126 156 207 256 303 360
#     4  11  23  42  64  91 125 164 207 252 311 368
#     4  10  20  34  59  90 121 151 204 256 297 350
#     4  10  20  35  58  92 117 154 205 255 300 348
#     4  12  21  39  64  94 122 160 217 252 295 363
#     4  10  19  38  58  89 124 163 195 245 318 364
#     4  11  24  42  63  90 128 167 199 252 318 374
#     4  10  21  33  61  90 121 156 205 258 298 355
#
# _framework density 20.223206999999999
#
# number of rings (size 3 to 8) (size 9 to 14) (size 15 to 20)
#    0.000    1.250    5.000    1.500    5.250    0.000 
#    0.000    5.000    0.000    0.000    0.000    0.000 
#    0.000    0.000    0.000    0.000    0.000    0.000 
#
# Total GULP energy -89212.133633 kJ/mol
# GULP energy per Si atom -5575.758352 kJ/mol
# Density = 2.017718 g / cm^3
# Si number density = 20.223207 Si / 1000 Ang^3
#
#
#
# Elastic Constant Matrix: (Units=GPa)
#
#
# Indices 1 2 3 4 5 6 
#
# 1 74.8949 19.9614 23.9587 -0.0846 22.9236 11.5705
# 2 19.9614 79.4624 0.3417 19.5841 8.8427 5.4392
# 3 23.9587 0.3417 34.4242 1.7544 15.1734 3.9422
# 4 -0.0846 19.5841 1.7544 24.5946 0.8340 2.4518
# 5 22.9236 8.8427 15.1734 0.8340 26.7629 15.1971
# 6 11.5705 5.4392 3.9422 2.4518 15.1971 17.3686
#
#
#
# Elastic Compliance Matrix: (Units=1/GPa)
#
#
# Indices 1 2 3 4 5 6 
#
# 1 0.021566 -0.005666 -0.011105 0.006012 -0.008527 -0.003460
# 2 -0.005666 0.018298 0.007511 -0.015415 -0.008204 0.005694
# 3 -0.011105 0.007511 0.050274 -0.011077 -0.036572 0.027198
# 4 0.006012 -0.015415 -0.011077 0.054929 0.013953 -0.016626
# 5 -0.008527 -0.008204 -0.036572 0.013953 0.118054 -0.088714
# 6 -0.003460 0.005694 0.027198 -0.016626 -0.088714 0.131893
#
#
# Mechanical properties :
#
#
# Convention : Reuss Voigt Hill
#
# Bulk Modulus (GPa) = 13.96283 30.81168 22.38725
# Shear Modulus (GPa) = 11.43105 23.37986 17.40546
#
# Velocity S-wave (km/s) = 2.38007 3.40382 2.93690
# Velocity P-wave (km/s) = 3.80425 5.54228 4.75338
#
# Compressibility (1/GPa) = 0.07161874
#
# Stress axis : x y z
#
# Youngs Moduli (GPa) = 46.37017 54.65125 19.89117
#
# Poissons Ratio (x) = 0.30963 0.22089
# Poissons Ratio (y) = 0.26272 -0.14941
# Poissons Ratio (z) = 0.51494 -0.41051
#
# Static dielectric constant tensor:
#      x y z
#    x 1.704900 -0.027870 0.030300 
#    y -0.027870 1.770340 0.004780 
#    z 0.030300 0.004780 1.746450 
# 
# From -- ./inp_files/284722.got.cif
#   From: 2010.05.17/outbox.cif.g08.bks.cpg/sg2_143_cif.got.tgz:284722.got - 2010.06.03 11:33:40.
