data_PCOD9089379
_publ_section_title
;
Structure prediction by ZEFSAII (Michael W. Deem and Ramdas Pophale) SiO2 
 PCOD9089379
Probable space group: P -1
;
_chemical_formula_sum "Si O2"
_cell_formula_units_Z 14
_cell_length_a 14.713667
_cell_length_b 8.965174
_cell_length_c 9.606287
_cell_angle_alpha 70.180437
_cell_angle_beta 37.830893
_cell_angle_gamma 91.787157
_cell_volume 625.346253
_symmetry_space_group_name_H-M "P -1"
_symmetry_group_IT_number 2
_symmetry_cell_setting 'triclinic'
loop_
_space_group_symop_operation_xyz
x,y,z
-x,-y,-z
loop_
_atom_site_type_symbol
_atom_site_label
_atom_site_fract_x
_atom_site_fract_y
_atom_site_fract_z
Si Si1 0.457061 0.036618 0.386021
Si Si2 0.129686 0.425361 0.854423
Si Si3 0.073718 0.874018 0.998858
Si Si4 0.611682 0.217125 0.683738
Si Si5 0.057328 0.218088 0.527702
Si Si6 0.607472 0.399533 0.921541
Si Si7 0.910362 0.130453 0.427236
O O1 0.247447 0.934658 0.684875
O O2 0.509433 0.947351 0.224183
O O3 0.500000 0.000000 0.500000
O O4 0.536639 0.249258 0.179316
O O5 0.316334 0.604108 0.561138
O O6 0.000000 0.500000 0.000000
O O7 0.080074 0.326934 0.797334
O O8 0.073520 0.269581 0.087874
O O9 0.086968 0.865204 0.150105
O O10 0.000000 0.000000 0.000000
O O11 0.577571 0.283588 0.850846
O O12 0.754747 0.162999 0.569010
O O13 0.200635 0.430306 0.323174
O O14 0.970980 0.193078 0.491000
O O15 0.133528 0.079352 0.476439
O O16 0.500000 0.500000 0.000000
#
# Coordination Sequence:
#
# PCOD9089379 Si02
#       7
#     2   2   2   2   2   2   2
#     4  12  29  46  68 104 147 180 229 287 353 417
#     4  10  19  37  69  92 121 170 227 273 328 397
#     4  12  21  43  70  97 132 179 231 281 340 402
#     4  11  23  45  70  92 137 188 223 276 352 413
#     4  11  24  40  71 102 133 172 238 284 329 404
#     4  12  27  46  69 100 141 188 228 281 353 420
#     4  10  22  41  67 103 134 170 229 292 334 397
#
# _framework density 22.387595000000001
#
# number of rings (size 3 to 8) (size 9 to 14) (size 15 to 20)
#    0.000    0.857    5.714    2.143    4.000    0.571 
#    2.571    0.714    0.000    0.000    0.000    0.000 
#    0.000    0.000    0.000    0.000    0.000    0.000 
#
# Total GULP energy -78135.659428 kJ/mol
# GULP energy per Si atom -5581.118531 kJ/mol
# Density = 2.233664 g / cm^3
# Si number density = 22.387595 Si / 1000 Ang^3
#
#
#
# Elastic Constant Matrix: (Units=GPa)
#
#
# Indices 1 2 3 4 5 6 
#
# 1 92.9124 46.2208 39.9860 2.9670 35.7879 12.6535
# 2 46.2208 129.3582 40.6522 -4.4819 17.0923 17.0134
# 3 39.9860 40.6522 112.1959 -16.6107 34.6733 14.9202
# 4 2.9670 -4.4819 -16.6107 44.9078 3.1069 7.6455
# 5 35.7879 17.0923 34.6733 3.1069 41.2701 7.9125
# 6 12.6535 17.0134 14.9202 7.6455 7.9125 27.4033
#
#
#
# Elastic Compliance Matrix: (Units=1/GPa)
#
#
# Indices 1 2 3 4 5 6 
#
# 1 0.018716 -0.004515 -0.000882 -0.000876 -0.013309 -0.001272
# 2 -0.004515 0.010292 -0.002051 0.001121 0.002077 -0.004101
# 3 -0.000882 -0.002051 0.014959 0.007030 -0.010446 -0.005409
# 4 -0.000876 0.001121 0.007030 0.027143 -0.005730 -0.010038
# 5 -0.013309 0.002077 -0.010446 -0.005730 0.044240 -0.000632
# 6 -0.001272 -0.004101 -0.005409 -0.010038 -0.000632 0.045554
#
#
# Mechanical properties :
#
#
# Convention : Reuss Voigt Hill
#
# Bulk Modulus (GPa) = 34.39742 65.35384 49.87563
# Shear Modulus (GPa) = 26.95584 36.55675 31.75629
#
# Velocity S-wave (km/s) = 3.47371 4.04530 3.77035
# Velocity P-wave (km/s) = 5.61130 7.14665 6.42501
#
# Compressibility (1/GPa) = 0.02907195
#
# Stress axis : x y z
#
# Youngs Moduli (GPa) = 53.43057 97.16450 66.85114
#
# Poissons Ratio (x) = 0.43867 0.05895
# Poissons Ratio (y) = 0.24123 0.13708
# Poissons Ratio (z) = 0.04712 0.19924
#
# Static dielectric constant tensor:
#      x y z
#    x 1.811980 0.017000 -0.041240 
#    y 0.017000 1.826250 -0.006860 
#    z -0.041240 -0.006860 1.943030 
# 
# From -- ./inp_files/259173.got.cif
#   From: 2010.05.17/outbox.cif.g08.bks.cpg/sg2_130_cif.got.tgz:259173.got - 2010.06.03 11:33:40.
