data_PCOD9089587
_publ_section_title
;
Structure prediction by ZEFSAII (Michael W. Deem and Ramdas Pophale) SiO2 
 PCOD9089587
Probable space group: P -1
;
_chemical_formula_sum "Si O2"
_cell_formula_units_Z 16
_cell_length_a 21.134914
_cell_length_b 15.284000
_cell_length_c 8.441015
_cell_angle_alpha 95.507392
_cell_angle_beta 84.434396
_cell_angle_gamma 20.012206
_cell_volume 776.049021
_symmetry_space_group_name_H-M "P -1"
_symmetry_group_IT_number 2
_symmetry_cell_setting 'triclinic'
loop_
_space_group_symop_operation_xyz
x,y,z
-x,-y,-z
loop_
_atom_site_type_symbol
_atom_site_label
_atom_site_fract_x
_atom_site_fract_y
_atom_site_fract_z
Si Si1 0.452219 0.694831 0.234175
Si Si2 0.378513 0.102065 0.178759
Si Si3 0.247399 0.168041 0.940675
Si Si4 0.116084 0.982569 0.878338
Si Si5 0.403741 0.196249 0.430760
Si Si6 0.294153 0.753305 0.474787
Si Si7 0.393252 0.777540 0.885689
Si Si8 0.350183 0.388796 0.753780
O O1 0.276093 0.864659 0.393246
O O2 0.477680 0.758352 0.310939
O O3 0.688630 0.335500 0.151549
O O4 0.412047 0.748023 0.065803
O O5 0.261783 0.324282 0.366831
O O6 0.551835 0.815573 0.189112
O O7 0.243477 0.212323 0.126884
O O8 0.500000 0.000000 0.000000
O O9 0.401600 0.021069 0.761565
O O10 0.343703 0.942526 0.879939
O O11 0.000000 0.500000 0.000000
O O12 0.106194 0.984702 0.689921
O O13 0.195884 0.975573 0.904848
O O14 0.881399 0.273361 0.060656
O O15 0.308044 0.401647 0.594759
O O16 0.500000 0.000000 0.500000
O O17 0.500000 0.500000 0.500000
O O18 0.383362 0.557030 0.307896
#
# Coordination Sequence:
#
# PCOD9089587 Si02
#       8
#     2   2   2   2   2   2   2   2
#     4  10  19  38  59  89 121 157 198 242 290 349
#     4   9  20  42  58  84 121 154 187 245 307 346
#     4  11  23  39  67  89 113 154 209 248 284 364
#     4  10  22  36  62  87 120 158 199 240 286 366
#     4   9  22  40  62  83 124 157 187 247 308 349
#     4   8  18  36  59  84 122 154 192 238 295 349
#     4  10  20  37  62  86 120 160 192 245 307 334
#     4  11  21  38  64  88 119 158 198 238 301 352
#
# _framework density 20.617253999999999
#
# number of rings (size 3 to 8) (size 9 to 14) (size 15 to 20)
#    0.000    2.500    1.250    1.875   10.500    0.000 
#    0.000    9.375    2.750    0.000    0.000    0.000 
#    0.000    0.000    0.000    0.000    0.000    0.000 
#
# Total GULP energy -89192.031877 kJ/mol
# GULP energy per Si atom -5574.501992 kJ/mol
# Density = 2.057033 g / cm^3
# Si number density = 20.617254 Si / 1000 Ang^3
#
#
#
# Elastic Constant Matrix: (Units=GPa)
#
#
# Indices 1 2 3 4 5 6 
#
# 1 106.9631 17.8538 26.4400 -11.0634 17.9686 23.0016
# 2 17.8538 42.0116 11.7009 -12.0244 -6.9273 17.7738
# 3 26.4400 11.7009 93.6497 -15.3320 10.7726 8.5587
# 4 -11.0634 -12.0244 -15.3320 24.2000 -4.4600 -5.0627
# 5 17.9686 -6.9273 10.7726 -4.4600 31.3950 -7.0181
# 6 23.0016 17.7738 8.5587 -5.0627 -7.0181 24.3326
#
#
#
# Elastic Compliance Matrix: (Units=1/GPa)
#
#
# Indices 1 2 3 4 5 6 
#
# 1 0.015663 -0.001156 -0.001276 -0.000149 -0.012646 -0.017192
# 2 -0.001156 0.039408 -0.000875 0.015095 0.006821 -0.022277
# 3 -0.001276 -0.000875 0.012742 0.005893 -0.003541 -0.002431
# 4 -0.000149 0.015095 0.005893 0.054438 0.009367 0.001070
# 5 -0.012646 0.006821 -0.003541 0.009367 0.048543 0.024167
# 6 -0.017192 -0.022277 -0.002431 0.001070 0.024167 0.081670
#
#
# Mechanical properties :
#
#
# Convention : Reuss Voigt Hill
#
# Bulk Modulus (GPa) = 16.34005 39.40156 27.87081
# Shear Modulus (GPa) = 17.89048 28.42749 23.15898
#
# Velocity S-wave (km/s) = 2.94894 3.71728 3.35518
# Velocity P-wave (km/s) = 4.42014 6.12998 5.34389
#
# Compressibility (1/GPa) = 0.06119932
#
# Stress axis : x y z
#
# Youngs Moduli (GPa) = 63.84306 25.37574 78.47981
#
# Poissons Ratio (x) = 0.02932 0.10017
# Poissons Ratio (y) = 0.07378 0.06867
# Poissons Ratio (z) = 0.08149 0.02220
#
# Static dielectric constant tensor:
#      x y z
#    x 1.775570 -0.001480 0.026230 
#    y -0.001480 1.712040 -0.009290 
#    z 0.026230 -0.009290 1.773490 
# 
# From -- ./inp_files/347288.got.cif
#   From: 2010.05.17/outbox.cif.g08.bks.cpg/sg2_174_cif.got.tgz:347288.got - 2010.06.03 11:33:40.
