data_PCOD9089941
_publ_section_title
;
Structure prediction by ZEFSAII (Michael W. Deem and Ramdas Pophale) SiO2 
 PCOD9089941
Probable space group: P -1
;
_chemical_formula_sum "Si O2"
_cell_formula_units_Z 15
_cell_length_a 4.851728
_cell_length_b 13.882916
_cell_length_c 8.685743
_cell_angle_alpha 73.039033
_cell_angle_beta 95.404856
_cell_angle_gamma 78.753824
_cell_volume 541.681627
_symmetry_space_group_name_H-M "P -1"
_symmetry_group_IT_number 2
_symmetry_cell_setting 'triclinic'
loop_
_space_group_symop_operation_xyz
x,y,z
-x,-y,-z
loop_
_atom_site_type_symbol
_atom_site_label
_atom_site_fract_x
_atom_site_fract_y
_atom_site_fract_z
Si Si1 0.642580 0.113099 0.351702
Si Si2 0.000000 0.000000 0.000000
Si Si3 0.759874 0.419386 0.173609
Si Si4 0.594154 0.190770 0.985560
Si Si5 0.345362 0.315997 0.377593
Si Si6 0.175984 0.700336 0.335162
Si Si7 0.876307 0.904746 0.359113
Si Si8 0.082108 0.374471 0.889925
O O1 0.388585 0.196719 0.378745
O O2 0.896746 0.103936 0.488619
O O3 0.611948 0.998491 0.354302
O O4 0.714675 0.169870 0.174042
O O5 0.325935 0.922850 0.028904
O O6 0.011400 0.044907 0.807082
O O7 0.489860 0.377144 0.228106
O O8 0.725188 0.541919 0.129186
O O9 0.014065 0.368802 0.329006
O O10 0.884218 0.390394 0.022928
O O11 0.732752 0.252707 0.840890
O O12 0.276930 0.257698 0.957576
O O13 0.549071 0.320221 0.531974
O O14 0.914957 0.786306 0.357805
O O15 0.067493 0.607599 0.294334
#
# Coordination Sequence:
#
# PCOD9089941 Si02
#       8
#     2   1   2   2   2   2   2   2
#     4   9  16  35  65  89 135 174 227 273 336 405
#     4   8  16  32  58  92 130 170 214 270 334 402
#     4  11  27  45  70  99 133 186 235 286 339 409
#     4  10  19  38  62  93 129 180 214 285 331 415
#     4  11  24  45  69 100 137 180 232 285 346 402
#     4  10  23  39  66  95 138 176 226 284 350 406
#     4   8  16  32  61  95 127 180 217 280 333 413
#     4  11  25  41  67  97 136 178 236 282 347 401
#
# _framework density 27.691545000000001
#
# number of rings (size 3 to 8) (size 9 to 14) (size 15 to 20)
#    0.000    2.133    1.333    0.800    3.733    2.133 
#    0.000    6.000    5.867    3.200    0.000    0.000 
#    0.000    0.000    0.000    0.000    0.000    0.000 
#
# Total GULP energy -83675.990239 kJ/mol
# GULP energy per Si atom -5578.399349 kJ/mol
# Density = 2.762852 g / cm^3
# Si number density = 27.691545 Si / 1000 Ang^3
#
#
#
# Elastic Constant Matrix: (Units=GPa)
#
#
# Indices 1 2 3 4 5 6 
#
# 1 100.1235 34.3516 29.0535 -2.2106 3.2530 -7.1322
# 2 34.3516 85.8085 59.9753 13.4168 31.4976 -8.3331
# 3 29.0535 59.9753 150.4567 1.5296 4.9491 -9.3241
# 4 -2.2106 13.4168 1.5296 49.3451 -10.9164 1.8935
# 5 3.2530 31.4976 4.9491 -10.9164 33.7457 -1.0975
# 6 -7.1322 -8.3331 -9.3241 1.8935 -1.0975 35.3333
#
#
#
# Elastic Compliance Matrix: (Units=1/GPa)
#
#
# Indices 1 2 3 4 5 6 
#
# 1 0.013242 -0.011400 0.001586 0.006086 0.011113 0.000422
# 2 -0.011400 0.051012 -0.015822 -0.025670 -0.052326 0.005305
# 3 0.001586 -0.015822 0.012062 0.007374 0.015227 -0.000151
# 4 0.006086 -0.025670 0.007374 0.034829 0.033438 -0.003708
# 5 0.011113 -0.052326 0.015227 0.033438 0.085816 -0.005205
# 6 0.000422 0.005305 -0.000151 -0.003708 -0.005205 0.029635
#
#
# Mechanical properties :
#
#
# Convention : Reuss Voigt Hill
#
# Bulk Modulus (GPa) = 39.92941 64.79439 52.36190
# Shear Modulus (GPa) = 17.46923 37.88538 27.67730
#
# Velocity S-wave (km/s) = 2.51440 3.70282 3.16489
# Velocity P-wave (km/s) = 4.78333 6.45992 5.68379
#
# Compressibility (1/GPa) = 0.02504419
#
# Stress axis : x y z
#
# Youngs Moduli (GPa) = 75.51757 19.60306 82.90344
#
# Poissons Ratio (x) = 0.22347 -0.13146
# Poissons Ratio (y) = 0.86086 1.31174
# Poissons Ratio (z) = -0.11975 0.31017
#
# Static dielectric constant tensor:
#      x y z
#    x 2.271540 -0.072480 0.045240 
#    y -0.072480 2.323850 -0.054860 
#    z 0.045240 -0.054860 2.199260 
# 
# From -- ./inp_files/92035.got.cif
#   From: 2010.05.17/outbox.cif.g08.bks.cpg/sg2_47_cif.got.tgz:92035.got - 2010.06.03 11:33:40.
