data_PCOD9089889
_publ_section_title
;
Structure prediction by ZEFSAII (Michael W. Deem and Ramdas Pophale) SiO2 
 PCOD9089889
Probable space group: P -1
;
_chemical_formula_sum "Si O2"
_cell_formula_units_Z 14
_cell_length_a 14.375107
_cell_length_b 5.646930
_cell_length_c 11.520222
_cell_angle_alpha 112.606359
_cell_angle_beta 40.975879
_cell_angle_gamma 119.261845
_cell_volume 534.777836
_symmetry_space_group_name_H-M "P -1"
_symmetry_group_IT_number 2
_symmetry_cell_setting 'triclinic'
loop_
_space_group_symop_operation_xyz
x,y,z
-x,-y,-z
loop_
_atom_site_type_symbol
_atom_site_label
_atom_site_fract_x
_atom_site_fract_y
_atom_site_fract_z
Si Si1 0.157819 0.414567 0.947346
Si Si2 0.488189 0.384049 0.645868
Si Si3 0.121772 0.800600 0.446045
Si Si4 0.588230 0.292905 0.875780
Si Si5 0.410311 0.052666 0.433221
Si Si6 0.913229 0.977447 0.247336
Si Si7 0.732928 0.160659 0.908164
O O1 0.317456 0.371945 0.806392
O O2 0.106618 0.315045 0.846324
O O3 0.188555 0.718906 0.024211
O O4 0.041626 0.206823 0.102921
O O5 0.514574 0.249158 0.474204
O O6 0.580683 0.704513 0.621938
O O7 0.526461 0.199919 0.673614
O O8 0.280572 0.766083 0.334143
O O9 0.072956 0.980965 0.619994
O O10 0.168897 0.932752 0.298467
O O11 0.000000 0.500000 0.500000
O O12 0.697621 0.389712 0.904823
O O13 0.500000 0.500000 0.000000
O O14 0.439089 0.028473 0.957961
O O15 0.241627 0.963391 0.623651
#
# Coordination Sequence:
#
# PCOD9089889 Si02
#       7
#     2   2   2   2   2   2   2
#     4  10  20  37  60  91 129 165 211 264 332 384
#     4   9  19  36  59  89 123 168 209 268 321 390
#     4  10  19  38  62  88 122 159 205 261 312 383
#     4   9  20  38  64  88 117 161 206 250 309 378
#     4   9  19  36  60  88 123 164 219 261 322 387
#     4  10  20  36  62  92 125 169 208 268 327 390
#     4   9  20  38  63  88 119 157 206 259 308 379
#
# _framework density 26.179096999999999
#
# number of rings (size 3 to 8) (size 9 to 14) (size 15 to 20)
#    0.857    1.714    1.429    0.000    2.000    1.143 
#    0.000    2.143    3.143    8.571    0.000    0.000 
#    0.000    0.000    0.000    0.000    0.000    0.000 
#
# Total GULP energy -77938.400923 kJ/mol
# GULP energy per Si atom -5567.028637 kJ/mol
# Density = 2.611951 g / cm^3
# Si number density = 26.179097 Si / 1000 Ang^3
#
#
#
# Elastic Constant Matrix: (Units=GPa)
#
#
# Indices 1 2 3 4 5 6 
#
# 1 74.4290 10.1621 23.1744 1.0499 0.9630 6.1792
# 2 10.1621 94.7250 50.7909 -3.4594 -6.3261 9.3666
# 3 23.1744 50.7909 160.7668 -5.6950 8.0903 18.0697
# 4 1.0499 -3.4594 -5.6950 53.9801 27.1461 -2.6425
# 5 0.9630 -6.3261 8.0903 27.1461 45.0230 9.6312
# 6 6.1792 9.3666 18.0697 -2.6425 9.6312 42.4837
#
#
#
# Elastic Compliance Matrix: (Units=1/GPa)
#
#
# Indices 1 2 3 4 5 6 
#
# 1 0.014185 -0.000363 -0.001847 -0.001022 0.000908 -0.001467
# 2 -0.000363 0.013254 -0.004165 -0.001774 0.004148 -0.002148
# 3 -0.001847 -0.004165 0.008190 0.002026 -0.002916 -0.001510
# 4 -0.001022 -0.001774 0.002026 0.028479 -0.018993 0.005756
# 5 0.000908 0.004148 -0.002916 -0.018993 0.036743 -0.009318
# 6 -0.001467 -0.002148 -0.001510 0.005756 -0.009318 0.027338
#
#
# Mechanical properties :
#
#
# Convention : Reuss Voigt Hill
#
# Bulk Modulus (GPa) = 43.70864 55.35285 49.53075
# Shear Modulus (GPa) = 33.65532 44.68359 39.16945
#
# Velocity S-wave (km/s) = 3.58939 4.13588 3.87229
# Velocity P-wave (km/s) = 5.82327 6.63303 6.24130
#
# Compressibility (1/GPa) = 0.02287877
#
# Stress axis : x y z
#
# Youngs Moduli (GPa) = 70.49828 75.45057 122.09351
#
# Poissons Ratio (x) = 0.02739 0.22551
# Poissons Ratio (y) = 0.02559 0.50852
# Poissons Ratio (z) = 0.13021 0.31425
#
# Static dielectric constant tensor:
#      x y z
#    x 2.497660 -0.034700 0.481010 
#    y -0.034700 2.190450 0.043570 
#    z 0.481010 0.043570 2.346270 
# 
# From -- ./inp_files/536116.got.cif
#   From: 2010.05.17/outbox.cif.g08.bks.cpg/sg2_269_cif.got.tgz:536116.got - 2010.06.03 11:33:40.
