data_PCOD9089561
_publ_section_title
;
Structure prediction by ZEFSAII (Michael W. Deem and Ramdas Pophale) SiO2 
 PCOD9089561
Probable space group: P -1
;
_chemical_formula_sum "Si O2"
_cell_formula_units_Z 15
_cell_length_a 7.435964
_cell_length_b 17.663792
_cell_length_c 6.651490
_cell_angle_alpha 118.363308
_cell_angle_beta 62.744786
_cell_angle_gamma 120.726472
_cell_volume 633.536546
_symmetry_space_group_name_H-M "P -1"
_symmetry_group_IT_number 2
_symmetry_cell_setting 'triclinic'
loop_
_space_group_symop_operation_xyz
x,y,z
-x,-y,-z
loop_
_atom_site_type_symbol
_atom_site_label
_atom_site_fract_x
_atom_site_fract_y
_atom_site_fract_z
Si Si1 0.011138 0.808560 0.421910
Si Si2 0.328389 0.666628 0.319232
Si Si3 0.689972 0.047494 0.802333
Si Si4 0.325406 0.384122 0.665398
Si Si5 0.347221 0.143792 0.595496
Si Si6 0.044026 0.103552 0.034209
Si Si7 0.000000 0.500000 0.500000
Si Si8 0.328375 0.578323 0.802953
O O1 0.908129 0.698372 0.310258
O O2 0.823303 0.838873 0.451052
O O3 0.245980 0.865396 0.273120
O O4 0.007190 0.839033 0.691221
O O5 0.517076 0.631722 0.265688
O O6 0.419934 0.775328 0.461029
O O7 0.109874 0.601201 0.456163
O O8 0.314446 0.647890 0.066285
O O9 0.888123 0.087484 0.904798
O O10 0.678466 0.961140 0.561106
O O11 0.500000 0.000000 0.000000
O O12 0.319399 0.485620 0.808117
O O13 0.446315 0.382743 0.390175
O O14 0.278245 0.151737 0.870559
O O15 0.000000 0.000000 0.000000
O O16 0.859329 0.453694 0.308557
#
# Coordination Sequence:
#
# PCOD9089561 Si02
#       8
#     2   2   2   2   2   2   1   2
#     4  10  19  38  60  86 113 151 202 233 286 352
#     4  10  20  37  60  82 116 152 196 236 286 346
#     4  11  23  38  53  86 125 149 187 245 295 340
#     4   9  20  35  61  89 109 147 196 246 279 340
#     4  10  20  37  60  86 111 152 203 239 281 349
#     4  11  18  36  64  79 108 158 195 238 278 341
#     4  10  22  38  54  82 120 154 182 236 288 358
#     4  10  19  38  59  86 118 146 191 241 295 335
#
# _framework density 23.676611999999999
#
# number of rings (size 3 to 8) (size 9 to 14) (size 15 to 20)
#    0.000    1.867    2.667    2.400    0.000    0.533 
#    4.800    0.000    0.000    0.000    0.000    0.000 
#    0.000    0.000    0.000    0.000    0.000    0.000 
#
# Total GULP energy -83529.283876 kJ/mol
# GULP energy per Si atom -5568.618925 kJ/mol
# Density = 2.362272 g / cm^3
# Si number density = 23.676612 Si / 1000 Ang^3
#
#
#
# Elastic Constant Matrix: (Units=GPa)
#
#
# Indices 1 2 3 4 5 6 
#
# 1 45.1780 28.9242 28.1026 7.7386 7.8032 -4.3608
# 2 28.9242 156.5909 36.9859 -20.8907 5.8341 31.3028
# 3 28.1026 36.9859 76.1221 -11.8853 15.9391 6.0292
# 4 7.7386 -20.8907 -11.8853 28.6696 11.9274 -4.4490
# 5 7.8032 5.8341 15.9391 11.9274 24.0019 -3.2913
# 6 -4.3608 31.3028 6.0292 -4.4490 -3.2913 24.6931
#
#
#
# Elastic Compliance Matrix: (Units=1/GPa)
#
#
# Indices 1 2 3 4 5 6 
#
# 1 0.063847 -0.021320 -0.034270 -0.057815 0.041646 0.041805
# 2 -0.021320 0.017748 0.010229 0.027798 -0.021642 -0.026638
# 3 -0.034270 0.010229 0.039856 0.047996 -0.045247 -0.026135
# 4 -0.057815 0.027798 0.047996 0.118832 -0.085348 -0.047134
# 5 0.041646 -0.021642 -0.045247 -0.085348 0.112070 0.045398
# 6 0.041805 -0.026638 -0.026135 -0.047134 0.045398 0.085588
#
#
# Mechanical properties :
#
#
# Convention : Reuss Voigt Hill
#
# Bulk Modulus (GPa) = 32.54251 51.76849 42.15550
# Shear Modulus (GPa) = 9.27805 27.73145 18.50475
#
# Velocity S-wave (km/s) = 1.98171 3.42608 2.79868
# Velocity P-wave (km/s) = 4.36012 6.12886 5.31853
#
# Compressibility (1/GPa) = 0.03072904
#
# Stress axis : x y z
#
# Youngs Moduli (GPa) = 15.66234 56.34501 25.09015
#
# Poissons Ratio (x) = 1.20130 0.85984
# Poissons Ratio (y) = 0.33393 -0.25666
# Poissons Ratio (z) = 0.53675 -0.57638
#
# Static dielectric constant tensor:
#      x y z
#    x 1.920080 0.047880 -0.084550 
#    y 0.047880 1.967070 -0.111000 
#    z -0.084550 -0.111000 1.910320 
# 
# From -- ./inp_files/42709.got.cif
#   From: 2010.05.17/outbox.cif.g08.bks.cpg/sg2_22_cif.got.tgz:42709.got - 2010.06.03 11:33:40.
