data_PCOD9089352
_publ_section_title
;
Structure prediction by ZEFSAII (Michael W. Deem and Ramdas Pophale) SiO2 
 PCOD9089352
Probable space group: P -1
;
_chemical_formula_sum "Si O2"
_cell_formula_units_Z 16
_cell_length_a 9.376796
_cell_length_b 21.802497
_cell_length_c 7.674933
_cell_angle_alpha 63.959366
_cell_angle_beta 105.614830
_cell_angle_gamma 49.697768
_cell_volume 634.596618
_symmetry_space_group_name_H-M "P -1"
_symmetry_group_IT_number 2
_symmetry_cell_setting 'triclinic'
loop_
_space_group_symop_operation_xyz
x,y,z
-x,-y,-z
loop_
_atom_site_type_symbol
_atom_site_label
_atom_site_fract_x
_atom_site_fract_y
_atom_site_fract_z
Si Si1 0.596572 0.787590 0.829014
Si Si2 0.881548 0.768141 0.551208
Si Si3 0.197877 0.721824 0.416320
Si Si4 0.696545 0.360516 0.822900
Si Si5 0.413114 0.994123 0.655085
Si Si6 0.716699 0.213677 0.092594
Si Si7 0.947587 0.440954 0.020490
Si Si8 0.041639 0.049715 0.059640
O O1 0.418715 0.793351 0.835217
O O2 0.913473 0.632785 0.033505
O O3 0.622424 0.839152 0.911274
O O4 0.367842 0.912353 0.446822
O O5 0.068891 0.718039 0.507613
O O6 0.865919 0.691786 0.634082
O O7 0.610339 0.935952 0.295689
O O8 0.097550 0.692610 0.888670
O O9 0.122957 0.738931 0.166824
O O10 0.020490 0.865309 0.204862
O O11 0.573257 0.579033 0.739360
O O12 0.500000 0.500000 0.500000
O O13 0.522938 0.363618 0.835550
O O14 0.060752 0.102466 0.404956
O O15 0.500000 0.000000 0.500000
O O16 0.772673 0.164460 0.976859
O O17 0.000000 0.500000 0.000000
O O18 0.000000 0.000000 0.000000
#
# Coordination Sequence:
#
# PCOD9089352 Si02
#       8
#     2   2   2   2   2   2   2   2
#     4  11  23  44  68 101 139 183 223 287 354 418
#     4  11  24  44  75  98 137 192 235 286 360 418
#     4  11  25  45  72 105 132 189 237 286 349 424
#     4  10  21  40  71  96 135 177 244 280 330 422
#     4  10  19  37  68  96 126 170 235 279 327 401
#     4   9  22  37  66  97 125 181 225 270 346 411
#     4  12  26  41  69 105 146 178 232 294 358 417
#     4  10  21  38  66  96 135 172 230 278 334 414
#
# _framework density 25.212868
#
# number of rings (size 3 to 8) (size 9 to 14) (size 15 to 20)
#    0.000    1.500    2.500    3.375    8.750    0.000 
#    0.000    3.125   11.000    0.000    0.000    0.000 
#    0.000    0.000    0.000    0.000    0.000    0.000 
#
# Total GULP energy -89354.801998 kJ/mol
# GULP energy per Si atom -5584.675125 kJ/mol
# Density = 2.515548 g / cm^3
# Si number density = 25.212868 Si / 1000 Ang^3
#
#
#
# Elastic Constant Matrix: (Units=GPa)
#
#
# Indices 1 2 3 4 5 6 
#
# 1 237.7480 76.8042 41.3063 -25.3326 -27.0290 6.4442
# 2 76.8042 80.0994 42.8578 -14.0442 -12.9408 11.6022
# 3 41.3063 42.8578 71.7231 -10.2410 -10.3435 7.3240
# 4 -25.3326 -14.0442 -10.2410 35.5219 3.6020 -10.6008
# 5 -27.0290 -12.9408 -10.3435 3.6020 39.5119 -9.3984
# 6 6.4442 11.6022 7.3240 -10.6008 -9.3984 58.7725
#
#
#
# Elastic Compliance Matrix: (Units=1/GPa)
#
#
# Indices 1 2 3 4 5 6 
#
# 1 0.006564 -0.005729 0.000281 0.002601 0.002756 0.001286
# 2 -0.005729 0.024473 -0.010752 0.001699 0.000539 -0.002471
# 3 0.000281 -0.010752 0.020728 0.001768 0.001969 0.000143
# 4 0.002601 0.001699 0.001768 0.032637 0.001064 0.005216
# 5 0.002756 0.000539 0.001969 0.001064 0.028774 0.004139
# 6 0.001286 -0.002471 0.000143 0.005216 0.004139 0.018946
#
#
# Mechanical properties :
#
#
# Convention : Reuss Voigt Hill
#
# Bulk Modulus (GPa) = 51.64158 79.05634 65.34896
# Shear Modulus (GPa) = 29.24374 42.00140 35.62257
#
# Velocity S-wave (km/s) = 3.40939 4.08594 3.76290
# Velocity P-wave (km/s) = 6.00210 7.32690 6.69734
#
# Compressibility (1/GPa) = 0.01936424
#
# Stress axis : x y z
#
# Youngs Moduli (GPa) = 152.35359 40.86075 48.24486
#
# Poissons Ratio (x) = 0.23408 -0.01354
# Poissons Ratio (y) = 0.87280 0.51873
# Poissons Ratio (z) = -0.04275 0.43934
#
# Static dielectric constant tensor:
#      x y z
#    x 1.710880 -0.324450 0.685080 
#    y -0.324450 1.633710 0.723420 
#    z 0.685080 0.723420 0.612160 
# 
# From -- ./inp_files/226282.got.cif
#   From: 2010.05.17/outbox.cif.g08.bks.cpg/sg2_114_cif.got.tgz:226282.got - 2010.06.03 11:33:40.
