data_PCOD9089316
_publ_section_title
;
Structure prediction by ZEFSAII (Michael W. Deem and Ramdas Pophale) SiO2 
 PCOD9089316
Probable space group: P -1
;
_chemical_formula_sum "Si O2"
_cell_formula_units_Z 12
_cell_length_a 15.430691
_cell_length_b 8.252650
_cell_length_c 10.738209
_cell_angle_alpha 110.089493
_cell_angle_beta 27.276769
_cell_angle_gamma 121.406623
_cell_volume 509.220748
_symmetry_space_group_name_H-M "P -1"
_symmetry_group_IT_number 2
_symmetry_cell_setting 'triclinic'
loop_
_space_group_symop_operation_xyz
x,y,z
-x,-y,-z
loop_
_atom_site_type_symbol
_atom_site_label
_atom_site_fract_x
_atom_site_fract_y
_atom_site_fract_z
Si Si1 0.016902 0.234399 0.163294
Si Si2 0.141978 0.739719 0.893335
Si Si3 0.760871 0.647476 0.532133
Si Si4 0.977816 0.413103 0.641560
Si Si5 0.734540 0.023641 0.712726
Si Si6 0.483917 0.349874 0.590229
O O1 0.891198 0.187449 0.180189
O O2 0.114819 0.472368 0.128019
O O3 0.859778 0.117995 0.447652
O O4 0.774867 0.795365 0.107275
O O5 0.379827 0.767019 0.628230
O O6 0.000000 0.500000 0.000000
O O7 0.997383 0.768231 0.190831
O O8 0.795409 0.527557 0.566614
O O9 0.586292 0.492903 0.617478
O O10 0.709208 0.808273 0.696591
O O11 0.000000 0.500000 0.500000
O O12 0.855214 0.177069 0.712121
O O13 0.500000 0.000000 0.000000
O O14 0.500000 0.500000 0.500000
#
# Coordination Sequence:
#
# PCOD9089316 Si02
#       6
#     2   2   2   2   2   2
#     4  11  21  43  67 100 130 168 226 267 320 405
#     4  10  19  37  67  99 128 163 214 270 336 381
#     4  11  21  42  68  96 139 165 215 279 331 387
#     4  10  21  42  66  93 127 176 224 264 310 396
#     4  11  26  44  62  92 137 181 217 271 327 380
#     4  11  19  37  71 100 127 169 211 267 336 392
#
# _framework density 23.565418000000001
#
# number of rings (size 3 to 8) (size 9 to 14) (size 15 to 20)
#    0.000    1.333    6.667    1.500    0.000    0.667 
#    9.000    5.833    0.000    0.000    0.000    0.000 
#    0.000    0.000    0.000    0.000    0.000    0.000 
#
# Total GULP energy -67026.196792 kJ/mol
# GULP energy per Si atom -5585.516399 kJ/mol
# Density = 2.351178 g / cm^3
# Si number density = 23.565418 Si / 1000 Ang^3
#
#
#
# Elastic Constant Matrix: (Units=GPa)
#
#
# Indices 1 2 3 4 5 6 
#
# 1 165.5126 17.5342 43.6419 -5.6084 -25.9926 18.2379
# 2 17.5342 97.1081 9.7044 24.2587 -9.1390 14.9380
# 3 43.6419 9.7044 161.1559 17.8153 -26.2807 -9.5044
# 4 -5.6084 24.2587 17.8153 33.5724 -9.8992 3.9218
# 5 -25.9926 -9.1390 -26.2807 -9.8992 39.2419 2.8798
# 6 18.2379 14.9380 -9.5044 3.9218 2.8798 22.6460
#
#
#
# Elastic Compliance Matrix: (Units=1/GPa)
#
#
# Indices 1 2 3 4 5 6 
#
# 1 0.009190 -0.000932 -0.002702 0.006710 0.006480 -0.009906
# 2 -0.000932 0.013892 0.000180 -0.009218 0.000916 -0.006858
# 3 -0.002702 0.000180 0.008170 -0.005038 0.002005 0.006104
# 4 0.006710 -0.009218 -0.005038 0.044715 0.010980 -0.010578
# 5 0.006480 0.000916 0.002005 0.010980 0.034932 -0.011326
# 6 -0.009906 -0.006858 0.006104 -0.010578 -0.011326 0.062493
#
#
# Mechanical properties :
#
#
# Convention : Reuss Voigt Hill
#
# Bulk Modulus (GPa) = 41.07811 62.83750 51.95781
# Shear Modulus (GPa) = 26.53737 42.61847 34.57792
#
# Velocity S-wave (km/s) = 3.35940 4.25728 3.83471
# Velocity P-wave (km/s) = 5.70235 7.13365 6.45778
#
# Compressibility (1/GPa) = 0.02434387
#
# Stress axis : x y z
#
# Youngs Moduli (GPa) = 108.81972 71.98403 122.40070
#
# Poissons Ratio (x) = 0.06708 0.33069
# Poissons Ratio (y) = 0.10141 -0.02201
# Poissons Ratio (z) = 0.29400 -0.01294
#
# Static dielectric constant tensor:
#      x y z
#    x 1.913340 -0.033150 -0.000920 
#    y -0.033150 1.576540 0.249900 
#    z -0.000920 0.249900 1.793320 
# 
# From -- ./inp_files/447976.got.cif
#   From: 2010.05.17/outbox.cif.g08.bks.cpg/sg2_224_cif.got.tgz:447976.got - 2010.06.03 11:33:40.
