data_PCOD9089851
_publ_section_title
;
Structure prediction by ZEFSAII (Michael W. Deem and Ramdas Pophale) SiO2 
 PCOD9089851
Probable space group: P -1
;
_chemical_formula_sum "Si O2"
_cell_formula_units_Z 16
_cell_length_a 25.494355
_cell_length_b 5.667914
_cell_length_c 10.106491
_cell_angle_alpha 135.650869
_cell_angle_beta 44.619372
_cell_angle_gamma 126.630330
_cell_volume 705.521033
_symmetry_space_group_name_H-M "P -1"
_symmetry_group_IT_number 2
_symmetry_cell_setting 'triclinic'
loop_
_space_group_symop_operation_xyz
x,y,z
-x,-y,-z
loop_
_atom_site_type_symbol
_atom_site_label
_atom_site_fract_x
_atom_site_fract_y
_atom_site_fract_z
Si Si1 0.329192 0.405348 0.418299
Si Si2 0.163693 0.706266 0.104865
Si Si3 0.594854 0.237948 0.044386
Si Si4 0.306999 0.412087 0.764577
Si Si5 0.809320 0.275907 0.240897
Si Si6 0.057039 0.958224 0.998848
Si Si7 0.029783 0.890496 0.544898
Si Si8 0.444845 0.762351 0.172338
O O1 0.341395 0.414389 0.557371
O O2 0.240921 0.425383 0.559816
O O3 0.383265 0.728980 0.383999
O O4 0.358818 0.078515 0.173746
O O5 0.113315 0.325710 0.052080
O O6 0.119286 0.920050 0.367926
O O7 0.249608 0.687021 0.979091
O O8 0.163750 0.798635 0.986314
O O9 0.633611 0.495623 0.188051
O O10 0.505203 0.110932 0.184165
O O11 0.597123 0.359328 0.937746
O O12 0.251652 0.052130 0.738953
O O13 0.882106 0.297680 0.213975
O O14 0.004489 0.893769 0.196510
O O15 0.000000 0.000000 0.000000
O O16 0.000000 0.500000 0.500000
O O17 0.000000 0.000000 0.500000
O O18 0.500000 0.500000 0.000000
#
# Coordination Sequence:
#
# PCOD9089851 Si02
#       8
#     2   2   2   2   2   2   2   2
#     4  10  21  40  63  90 126 164 204 262 319 369
#     4   9  20  39  58  84 121 162 204 262 316 379
#     4  10  21  41  63  93 123 162 209 255 309 377
#     4  10  22  39  63  88 126 164 211 257 311 381
#     4  10  20  39  62  85 128 165 205 260 319 376
#     4  10  21  38  62  89 122 160 213 265 321 379
#     4  10  19  38  62  85 120 165 208 264 322 385
#     4   9  20  39  64  90 128 159 201 259 307 374
#
# _framework density 22.678276
#
# number of rings (size 3 to 8) (size 9 to 14) (size 15 to 20)
#    0.000    2.250    1.250    0.750    0.000    5.000 
#    9.000    8.750    0.000    0.000    0.000    0.000 
#    0.000    0.000    0.000    0.000    0.000    0.000 
#
# Total GULP energy -89266.927232 kJ/mol
# GULP energy per Si atom -5579.182952 kJ/mol
# Density = 2.262666 g / cm^3
# Si number density = 22.678276 Si / 1000 Ang^3
#
#
#
# Elastic Constant Matrix: (Units=GPa)
#
#
# Indices 1 2 3 4 5 6 
#
# 1 144.1617 35.6382 36.7131 -0.1685 2.7017 -4.0330
# 2 35.6382 78.5232 43.1365 -30.6061 20.4057 -7.2386
# 3 36.7131 43.1365 111.7962 -23.9868 -12.6550 1.8288
# 4 -0.1685 -30.6061 -23.9868 43.6778 -11.7615 1.3742
# 5 2.7017 20.4057 -12.6550 -11.7615 39.5771 1.1809
# 6 -4.0330 -7.2386 1.8288 1.3742 1.1809 31.6194
#
#
#
# Elastic Compliance Matrix: (Units=1/GPa)
#
#
# Indices 1 2 3 4 5 6 
#
# 1 0.008532 -0.004205 -0.002125 -0.004190 -0.000352 0.000444
# 2 -0.004205 0.027801 -0.008707 0.010760 -0.013824 0.006380
# 3 -0.002125 -0.008707 0.015562 0.005627 0.011397 -0.003835
# 4 -0.004190 0.010760 0.005627 0.035419 0.007069 -0.000200
# 5 -0.000352 -0.013824 0.011397 0.007069 0.038331 -0.005607
# 6 0.000444 0.006380 -0.003835 -0.000200 -0.005607 0.033583
#
#
# Mechanical properties :
#
#
# Convention : Reuss Voigt Hill
#
# Bulk Modulus (GPa) = 45.82746 62.82850 54.32798
# Shear Modulus (GPa) = 25.43553 37.57441 31.50497
#
# Velocity S-wave (km/s) = 3.35263 4.07485 3.73126
# Velocity P-wave (km/s) = 5.93619 7.06425 6.52465
#
# Compressibility (1/GPa) = 0.02182098
#
# Stress axis : x y z
#
# Youngs Moduli (GPa) = 117.21196 35.96976 64.25802
#
# Poissons Ratio (x) = 0.15126 0.13656
# Poissons Ratio (y) = 0.49291 0.55947
# Poissons Ratio (z) = 0.24909 0.31317
#
# Static dielectric constant tensor:
#      x y z
#    x 1.869390 -0.064820 -0.060190 
#    y -0.064820 1.952410 0.065980 
#    z -0.060190 0.065980 1.876450 
# 
# From -- ./inp_files/107831.got.cif
#   From: 2010.05.17/outbox.cif.g08.bks.cpg/sg2_54_cif.got.tgz:107831.got - 2010.06.03 11:33:40.
