data_PCOD9089264
_publ_section_title
;
Structure prediction by ZEFSAII (Michael W. Deem and Ramdas Pophale) SiO2 
 PCOD9089264
Probable space group: P -1
;
_chemical_formula_sum "Si O2"
_cell_formula_units_Z 16
_cell_length_a 15.922566
_cell_length_b 7.163722
_cell_length_c 5.745351
_cell_angle_alpha 103.624764
_cell_angle_beta 77.320941
_cell_angle_gamma 115.901287
_cell_volume 567.804931
_symmetry_space_group_name_H-M "P -1"
_symmetry_group_IT_number 2
_symmetry_cell_setting 'triclinic'
loop_
_space_group_symop_operation_xyz
x,y,z
-x,-y,-z
loop_
_atom_site_type_symbol
_atom_site_label
_atom_site_fract_x
_atom_site_fract_y
_atom_site_fract_z
Si Si1 0.355235 0.243298 0.992514
Si Si2 0.152998 0.448779 0.220871
Si Si3 0.167380 0.806460 0.602825
Si Si4 0.604759 0.675238 0.507321
Si Si5 0.653679 0.278044 0.385591
Si Si6 0.373433 0.704314 0.089044
Si Si7 0.990069 0.263523 0.962930
Si Si8 0.837888 0.918235 0.693050
O O1 0.390487 0.208791 0.214613
O O2 0.395570 0.497841 0.026035
O O3 0.242304 0.134622 0.071706
O O4 0.376811 0.192746 0.705006
O O5 0.117574 0.614515 0.396572
O O6 0.258533 0.594791 0.123394
O O7 0.091429 0.299384 0.011212
O O8 0.149900 0.296395 0.388597
O O9 0.247199 0.748693 0.662966
O O10 0.087329 0.821785 0.813299
O O11 0.205453 0.012016 0.479296
O O12 0.500000 0.500000 0.500000
O O13 0.663469 0.523620 0.442694
O O14 0.602748 0.195579 0.640451
O O15 0.603200 0.185541 0.143577
O O16 0.939036 0.100604 0.744615
O O17 0.000000 0.500000 0.000000
#
# Coordination Sequence:
#
# PCOD9089264 Si02
#       8
#     2   2   2   2   2   2   2   2
#     4   9  20  36  60  93 132 165 214 260 320 403
#     4  10  21  42  60  88 127 169 227 282 330 379
#     4  11  24  41  62  87 128 174 222 275 334 395
#     4  10  19  37  67 102 130 163 211 270 330 396
#     4   9  18  33  58  86 121 161 204 253 315 388
#     4   8  16  33  55  83 115 163 204 254 310 371
#     4  12  24  41  62  91 129 172 229 286 335 381
#     4  11  25  42  63  92 127 179 223 273 330 393
#
# _framework density 28.178692000000002
#
# number of rings (size 3 to 8) (size 9 to 14) (size 15 to 20)
#    0.000    2.000    1.250    2.625    3.500    0.500 
#    6.750    0.000    0.000    1.500    0.000    0.000 
#    0.000    0.000    0.000    0.000    0.000    0.000 
#
# Total GULP energy -89483.164768 kJ/mol
# GULP energy per Si atom -5592.697798 kJ/mol
# Density = 2.811456 g / cm^3
# Si number density = 28.178692 Si / 1000 Ang^3
#
#
#
# Elastic Constant Matrix: (Units=GPa)
#
#
# Indices 1 2 3 4 5 6 
#
# 1 85.8438 16.1042 22.7263 -3.9885 15.1104 3.9750
# 2 16.1042 86.2287 43.1288 -7.6168 2.0010 -15.8716
# 3 22.7263 43.1288 234.3152 -15.1641 26.9988 -1.7533
# 4 -3.9885 -7.6168 -15.1641 55.3017 -0.7525 6.2326
# 5 15.1104 2.0010 26.9988 -0.7525 36.1749 -6.4030
# 6 3.9750 -15.8716 -1.7533 6.2326 -6.4030 43.7192
#
#
#
# Elastic Compliance Matrix: (Units=1/GPa)
#
#
# Indices 1 2 3 4 5 6 
#
# 1 0.013444 -0.002869 -0.000057 0.000845 -0.005974 -0.003262
# 2 -0.002869 0.014535 -0.002726 0.000433 0.003478 0.005876
# 3 -0.000057 -0.002726 0.005305 0.001193 -0.004031 -0.001532
# 4 0.000845 0.000433 0.001193 0.018822 -0.001363 -0.002755
# 5 -0.005974 0.003478 -0.004031 -0.001363 0.034137 0.006838
# 6 -0.003262 0.005876 -0.001532 -0.002755 0.006838 0.026636
#
#
# Mechanical properties :
#
#
# Convention : Reuss Voigt Hill
#
# Bulk Modulus (GPa) = 45.49562 63.36736 54.43149
# Shear Modulus (GPa) = 38.01929 48.66774 43.34351
#
# Velocity S-wave (km/s) = 3.67716 4.16036 3.92620
# Velocity P-wave (km/s) = 5.84886 6.75386 6.31759
#
# Compressibility (1/GPa) = 0.02198014
#
# Stress axis : x y z
#
# Youngs Moduli (GPa) = 74.38042 68.79717 188.49134
#
# Poissons Ratio (x) = 0.19741 0.01078
# Poissons Ratio (y) = 0.21343 0.51382
# Poissons Ratio (z) = 0.00425 0.18754
#
# Static dielectric constant tensor:
#      x y z
#    x 2.177150 -0.079510 -0.038510 
#    y -0.079510 2.085790 0.005760 
#    z -0.038510 0.005760 2.249540 
# 
# From -- ./inp_files/52309.got.cif
#   From: 2010.05.17/outbox.cif.g08.bks.cpg/sg2_27_cif.got.tgz:52309.got - 2010.06.03 11:33:40.
