data_PCOD9089294
_publ_section_title
;
Structure prediction by ZEFSAII (Michael W. Deem and Ramdas Pophale) SiO2 
 PCOD9089294
Probable space group: P -1
;
_chemical_formula_sum "Si O2"
_cell_formula_units_Z 16
_cell_length_a 28.123705
_cell_length_b 5.939838
_cell_length_c 6.677193
_cell_angle_alpha 77.144930
_cell_angle_beta 41.137894
_cell_angle_gamma 81.926839
_cell_volume 714.777503
_symmetry_space_group_name_H-M "P -1"
_symmetry_group_IT_number 2
_symmetry_cell_setting 'triclinic'
loop_
_space_group_symop_operation_xyz
x,y,z
-x,-y,-z
loop_
_atom_site_type_symbol
_atom_site_label
_atom_site_fract_x
_atom_site_fract_y
_atom_site_fract_z
Si Si1 0.666687 0.828217 0.127767
Si Si2 0.437367 0.817160 0.671470
Si Si3 0.885489 0.803271 0.524575
Si Si4 0.227918 0.988503 0.910276
Si Si5 0.208292 0.312873 0.525902
Si Si6 0.019364 0.778862 0.340155
Si Si7 0.826071 0.383720 0.081285
Si Si8 0.474518 0.504330 0.303029
O O1 0.707028 0.899532 0.190514
O O2 0.595970 0.665355 0.416794
O O3 0.637869 0.066126 0.080079
O O4 0.722482 0.707024 0.830602
O O5 0.450724 0.749266 0.412851
O O6 0.456649 0.585774 0.772957
O O7 0.500000 0.000000 0.500000
O O8 0.859470 0.743859 0.395374
O O9 0.970737 0.822986 0.290143
O O10 0.841000 0.012809 0.718277
O O11 0.856044 0.599342 0.809303
O O12 0.215450 0.135199 0.720859
O O13 0.234058 0.736402 0.847310
O O14 0.200719 0.546093 0.629214
O O15 0.000000 0.500000 0.500000
O O16 0.105670 0.774853 0.065380
O O17 0.000000 0.000000 0.500000
O O18 0.500000 0.500000 0.000000
#
# Coordination Sequence:
#
# PCOD9089294 Si02
#       8
#     2   2   2   2   2   2   2   2
#     4  10  23  40  60  87 125 163 201 251 323 378
#     4   9  21  40  61  89 121 152 194 248 306 371
#     4   9  20  39  59  85 125 164 210 267 328 376
#     4  10  21  38  58  85 120 164 209 258 310 386
#     4  10  23  39  56  87 124 162 211 260 313 384
#     4  10  19  37  67  94 128 176 225 281 343 394
#     4  10  21  38  62  86 124 164 216 264 321 377
#     4  10  22  41  65  91 120 155 201 255 310 377
#
# _framework density 22.384589999999999
#
# number of rings (size 3 to 8) (size 9 to 14) (size 15 to 20)
#    0.000    2.250    1.250    0.000    0.000   12.500 
#    0.000    0.625    0.000    0.000    0.000    0.000 
#    0.000    0.000    0.000    0.000    0.000    0.000 
#
# Total GULP energy -89183.468325 kJ/mol
# GULP energy per Si atom -5573.966770 kJ/mol
# Density = 2.233364 g / cm^3
# Si number density = 22.384590 Si / 1000 Ang^3
#
#
#
# Elastic Constant Matrix: (Units=GPa)
#
#
# Indices 1 2 3 4 5 6 
#
# 1 136.4455 39.9743 44.1596 18.0030 5.9267 16.6242
# 2 39.9743 97.1553 51.0168 34.8884 -0.8125 19.4307
# 3 44.1596 51.0168 72.2939 24.4343 11.5036 11.2113
# 4 18.0030 34.8884 24.4343 37.8700 5.1204 5.5102
# 5 5.9267 -0.8125 11.5036 5.1204 28.8906 8.1621
# 6 16.6242 19.4307 11.2113 5.5102 8.1621 37.5770
#
#
#
# Elastic Compliance Matrix: (Units=1/GPa)
#
#
# Indices 1 2 3 4 5 6 
#
# 1 0.009429 -0.000636 -0.004885 -0.000490 0.000781 -0.002483
# 2 -0.000636 0.023608 -0.011887 -0.013936 0.010427 -0.008601
# 3 -0.004885 -0.011887 0.027634 -0.003552 -0.010516 0.002868
# 4 -0.000490 -0.013936 -0.003552 0.042209 -0.007464 0.003914
# 5 0.000781 0.010427 -0.010516 -0.007464 0.043341 -0.010920
# 6 -0.002483 -0.008601 0.002868 0.003914 -0.010920 0.033100
#
#
# Mechanical properties :
#
#
# Convention : Reuss Voigt Hill
#
# Bulk Modulus (GPa) = 38.67522 64.02180 51.34851
# Shear Modulus (GPa) = 22.44616 32.25046 27.34831
#
# Velocity S-wave (km/s) = 3.17006 3.79983 3.49914
# Velocity P-wave (km/s) = 5.54203 6.92203 6.27012
#
# Compressibility (1/GPa) = 0.02585635
#
# Stress axis : x y z
#
# Youngs Moduli (GPa) = 106.05181 42.35871 36.18764
#
# Poissons Ratio (x) = 0.02692 0.17678
# Poissons Ratio (y) = 0.06740 0.43015
# Poissons Ratio (z) = 0.51807 0.50351
#
# Static dielectric constant tensor:
#      x y z
#    x 1.953000 0.133610 0.016290 
#    y 0.133610 2.233290 0.035940 
#    z 0.016290 0.035940 1.805130 
# 
# From -- ./inp_files/11083.got.cif
#   From: 2010.05.17/outbox.cif.g08.bks.cpg/sg2_6_cif.got.tgz:11083.got - 2010.06.03 11:33:40.
