data_PCOD9089385
_publ_section_title
;
Structure prediction by ZEFSAII (Michael W. Deem and Ramdas Pophale) SiO2 
 PCOD9089385
Probable space group: P -1
;
_chemical_formula_sum "Si O2"
_cell_formula_units_Z 14
_cell_length_a 8.690447
_cell_length_b 10.547036
_cell_length_c 10.757255
_cell_angle_alpha 75.202996
_cell_angle_beta 40.954165
_cell_angle_gamma 94.399845
_cell_volume 565.477889
_symmetry_space_group_name_H-M "P -1"
_symmetry_group_IT_number 2
_symmetry_cell_setting 'triclinic'
loop_
_space_group_symop_operation_xyz
x,y,z
-x,-y,-z
loop_
_atom_site_type_symbol
_atom_site_label
_atom_site_fract_x
_atom_site_fract_y
_atom_site_fract_z
Si Si1 0.020524 0.901690 0.779592
Si Si2 0.786297 0.767609 0.373631
Si Si3 0.695934 0.440519 0.176051
Si Si4 0.394391 0.359936 0.009320
Si Si5 0.874304 0.331373 0.639979
Si Si6 0.243248 0.813501 0.892817
Si Si7 0.510134 0.931343 0.147934
O O1 0.180424 0.842040 0.783984
O O2 0.876847 0.786500 0.785011
O O3 0.188420 0.076446 0.633232
O O4 0.763436 0.900035 0.004643
O O5 0.494581 0.644067 0.573878
O O6 0.917667 0.711897 0.414504
O O7 0.973874 0.778611 0.140609
O O8 0.660042 0.312029 0.133809
O O9 0.630535 0.564561 0.124515
O O10 0.000000 0.500000 0.000000
O O11 0.500000 0.500000 0.000000
O O12 0.621368 0.306439 0.881632
O O13 0.739060 0.217824 0.642543
O O14 0.000000 0.500000 0.500000
O O15 0.452121 0.954195 0.797188
O O16 0.500000 0.000000 0.000000
#
# Coordination Sequence:
#
# PCOD9089385 Si02
#       7
#     2   2   2   2   2   2   2
#     4  10  22  43  68 100 136 179 231 274 338 416
#     4  11  23  44  74  97 135 183 230 277 343 407
#     4  12  26  46  66 105 141 175 229 282 339 414
#     4  11  24  43  68  97 141 176 223 292 338 393
#     4  11  21  40  65 100 133 169 231 278 331 406
#     4  11  23  45  71  97 141 182 223 280 343 399
#     4  10  19  37  69  95 125 176 225 278 332 389
#
# _framework density 24.757819999999999
#
# number of rings (size 3 to 8) (size 9 to 14) (size 15 to 20)
#    0.000    1.143    5.714    2.571    2.000    1.143 
#    2.571    4.286    0.000    0.000    0.000    0.000 
#    0.000    0.000    0.000    0.000    0.000    0.000 
#
# Total GULP energy -78139.021445 kJ/mol
# GULP energy per Si atom -5581.358675 kJ/mol
# Density = 2.470147 g / cm^3
# Si number density = 24.757820 Si / 1000 Ang^3
#
#
#
# Elastic Constant Matrix: (Units=GPa)
#
#
# Indices 1 2 3 4 5 6 
#
# 1 50.1907 3.5688 0.2505 -10.8335 -11.0388 -15.9509
# 2 3.5688 133.4587 20.0410 -14.5282 0.2936 -7.1367
# 3 0.2505 20.0410 84.6759 -13.2767 -11.6350 -3.6188
# 4 -10.8335 -14.5282 -13.2767 48.6929 1.5937 -4.4015
# 5 -11.0388 0.2936 -11.6350 1.5937 18.8876 -2.3489
# 6 -15.9509 -7.1367 -3.6188 -4.4015 -2.3489 46.5474
#
#
#
# Elastic Compliance Matrix: (Units=1/GPa)
#
#
# Indices 1 2 3 4 5 6 
#
# 1 0.030558 0.000032 0.004763 0.008551 0.021657 0.012749
# 2 0.000032 0.008043 -0.001681 0.002100 -0.001163 0.001254
# 3 0.004763 -0.001681 0.014687 0.004493 0.011919 0.003543
# 4 0.008551 0.002100 0.004493 0.024646 0.006431 0.006257
# 5 0.021657 -0.001163 0.011919 0.006431 0.073976 0.012511
# 6 0.012749 0.001254 0.003543 0.006257 0.012511 0.027543
#
#
# Mechanical properties :
#
#
# Convention : Reuss Voigt Hill
#
# Bulk Modulus (GPa) = 16.80145 35.11621 25.95883
# Shear Modulus (GPa) = 25.89846 39.12325 32.51085
#
# Velocity S-wave (km/s) = 3.23781 3.97953 3.62768
# Velocity P-wave (km/s) = 4.55839 5.94393 5.29666
#
# Compressibility (1/GPa) = 0.05951868
#
# Stress axis : x y z
#
# Youngs Moduli (GPa) = 32.72420 124.33735 68.08735
#
# Poissons Ratio (x) = -0.00404 -0.32432
# Poissons Ratio (y) = -0.00106 0.11442
# Poissons Ratio (z) = -0.15588 0.20895
#
# Static dielectric constant tensor:
#      x y z
#    x 1.924620 0.070280 0.028870 
#    y 0.070280 2.085310 0.006140 
#    z 0.028870 0.006140 2.133970 
# 
# From -- ./inp_files/389926.got.cif
#   From: 2010.05.17/outbox.cif.g08.bks.cpg/sg2_195_cif.got.tgz:389926.got - 2010.06.03 11:33:40.
