data_PCOD9089416
_publ_section_title
;
Structure prediction by ZEFSAII (Michael W. Deem and Ramdas Pophale) SiO2 
 PCOD9089416
Probable space group: P -1
;
_chemical_formula_sum "Si O2"
_cell_formula_units_Z 16
_cell_length_a 22.547292
_cell_length_b 7.790829
_cell_length_c 17.813056
_cell_angle_alpha 42.042337
_cell_angle_beta 19.546124
_cell_angle_gamma 41.266758
_cell_volume 682.085902
_symmetry_space_group_name_H-M "P -1"
_symmetry_group_IT_number 2
_symmetry_cell_setting 'triclinic'
loop_
_space_group_symop_operation_xyz
x,y,z
-x,-y,-z
loop_
_atom_site_type_symbol
_atom_site_label
_atom_site_fract_x
_atom_site_fract_y
_atom_site_fract_z
Si Si1 0.828415 0.124064 0.214215
Si Si2 0.846161 0.015612 0.403290
Si Si3 0.850278 0.342893 0.753756
Si Si4 0.448447 0.994812 0.669086
Si Si5 0.554559 0.716006 0.919912
Si Si6 0.605936 0.548293 0.524206
Si Si7 0.694486 0.675777 0.131221
Si Si8 0.822803 0.983610 0.761651
O O1 0.850378 0.038229 0.301666
O O2 0.652089 0.039316 0.419759
O O3 0.789986 0.437515 0.147397
O O4 0.000000 0.000000 0.000000
O O5 0.777173 0.316082 0.418671
O O6 0.695160 0.860717 0.662905
O O7 0.045567 0.856749 0.243195
O O8 0.661228 0.562394 0.913805
O O9 0.824214 0.181101 0.764138
O O10 0.000000 0.500000 0.500000
O O11 0.348306 0.216511 0.657174
O O12 0.365933 0.069457 0.825662
O O13 0.480245 0.706211 0.689041
O O14 0.500000 0.500000 0.000000
O O15 0.362988 0.921929 0.094581
O O16 0.484369 0.401352 0.664618
O O17 0.813785 0.719879 0.903214
O O18 0.000000 0.000000 0.500000
#
# Coordination Sequence:
#
# PCOD9089416 Si02
#       8
#     2   2   2   2   2   2   2   2
#     4  11  23  39  66 102 146 190 230 289 363 430
#     4  11  19  42  70 100 148 188 230 302 354 427
#     4   9  22  42  65  98 132 177 241 290 351 424
#     4  10  20  40  67 102 140 192 241 280 358 434
#     4   9  19  40  71  95 127 187 240 286 359 417
#     4  10  19  37  72 102 138 186 241 290 349 433
#     4  11  21  44  69 101 142 186 236 297 360 429
#     4  11  23  43  70  98 135 186 237 294 367 426
#
# _framework density 23.457457999999999
#
# number of rings (size 3 to 8) (size 9 to 14) (size 15 to 20)
#    0.000    1.750    3.750    0.750    0.000    4.000 
#    9.000    7.500    0.000    0.000    0.000    0.000 
#    0.000    0.000    0.000    0.000    0.000    0.000 
#
# Total GULP energy -89377.874793 kJ/mol
# GULP energy per Si atom -5586.117175 kJ/mol
# Density = 2.340407 g / cm^3
# Si number density = 23.457458 Si / 1000 Ang^3
#
#
#
# Elastic Constant Matrix: (Units=GPa)
#
#
# Indices 1 2 3 4 5 6 
#
# 1 96.7344 81.7609 42.2863 12.7106 4.8160 -27.8461
# 2 81.7609 124.5971 42.0548 8.0864 11.9281 -25.5980
# 3 42.2863 42.0548 135.9914 12.6312 16.7644 -21.8104
# 4 12.7106 8.0864 12.6312 25.4397 1.0913 -1.8034
# 5 4.8160 11.9281 16.7644 1.0913 35.2653 4.6690
# 6 -27.8461 -25.5980 -21.8104 -1.8034 4.6690 56.6728
#
#
#
# Elastic Compliance Matrix: (Units=1/GPa)
#
#
# Indices 1 2 3 4 5 6 
#
# 1 0.026600 -0.015444 -0.002366 -0.006967 0.002300 0.004772
# 2 -0.015444 0.018830 -0.000527 0.002254 -0.004229 0.001134
# 3 -0.002366 -0.000527 0.009450 -0.002984 -0.004228 0.002489
# 4 -0.006967 0.002254 -0.002984 0.043373 0.000559 -0.002219
# 5 0.002300 -0.004229 -0.004228 0.000559 0.032132 -0.005037
# 6 0.004772 0.001134 0.002489 -0.002219 -0.005037 0.021805
#
#
# Mechanical properties :
#
#
# Convention : Reuss Voigt Hill
#
# Bulk Modulus (GPa) = 54.92912 76.61408 65.77160
# Shear Modulus (GPa) = 25.64998 36.22362 30.93680
#
# Velocity S-wave (km/s) = 3.31035 3.93393 3.63553
# Velocity P-wave (km/s) = 6.17078 7.30521 6.76183
#
# Compressibility (1/GPa) = 0.01820528
#
# Stress axis : x y z
#
# Youngs Moduli (GPa) = 37.59408 53.10815 105.82222
#
# Poissons Ratio (x) = 0.82019 0.25041
# Poissons Ratio (y) = 0.58060 0.05576
# Poissons Ratio (z) = 0.08896 0.02798
#
# Static dielectric constant tensor:
#      x y z
#    x 1.871460 -0.040840 0.015360 
#    y -0.040840 2.094860 -0.156980 
#    z 0.015360 -0.156980 2.097990 
# 
# From -- ./inp_files/579044.got.cif
#   From: 2010.05.17/outbox.cif.g08.bks.cpg/sg2_290_cif.got.tgz:579044.got - 2010.06.03 11:33:40.
