data_PCOD9089299
_publ_section_title
;
Structure prediction by ZEFSAII (Michael W. Deem and Ramdas Pophale) SiO2 
 PCOD9089299
Probable space group: P -1
;
_chemical_formula_sum "Si O2"
_cell_formula_units_Z 16
_cell_length_a 15.634333
_cell_length_b 14.648008
_cell_length_c 11.776603
_cell_angle_alpha 51.868386
_cell_angle_beta 30.416259
_cell_angle_gamma 32.742166
_cell_volume 678.772881
_symmetry_space_group_name_H-M "P -1"
_symmetry_group_IT_number 2
_symmetry_cell_setting 'triclinic'
loop_
_space_group_symop_operation_xyz
x,y,z
-x,-y,-z
loop_
_atom_site_type_symbol
_atom_site_label
_atom_site_fract_x
_atom_site_fract_y
_atom_site_fract_z
Si Si1 0.994562 0.566638 0.247025
Si Si2 0.280893 0.331695 0.748884
Si Si3 0.484194 0.626626 0.265971
Si Si4 0.719194 0.274665 0.348285
Si Si5 0.749152 0.923533 0.535268
Si Si6 0.600470 0.765575 0.720256
Si Si7 0.152489 0.090257 0.821595
Si Si8 0.669827 0.334034 0.839592
O O1 0.804106 0.648417 0.296580
O O2 0.853702 0.580258 0.503343
O O3 0.968846 0.715859 0.194707
O O4 0.305308 0.384145 0.000023
O O5 0.457297 0.351534 0.543537
O O6 0.473911 0.129232 0.733546
O O7 0.000000 0.500000 0.000000
O O8 0.671436 0.437510 0.267487
O O9 0.258274 0.773051 0.507612
O O10 0.390882 0.616773 0.263218
O O11 0.948875 0.127889 0.106218
O O12 0.687761 0.820342 0.664639
O O13 0.801947 0.957898 0.325611
O O14 0.018023 0.806192 0.387214
O O15 0.422937 0.931722 0.704337
O O16 0.425878 0.748686 0.971150
O O17 0.500000 0.500000 0.000000
#
# Coordination Sequence:
#
# PCOD9089299 Si02
#       8
#     2   2   2   2   2   2   2   2
#     4  10  19  37  67  95 130 166 225 280 336 395
#     4  12  22  38  68 107 132 168 231 290 335 399
#     4  10  23  43  59  97 133 177 224 277 336 410
#     4  10  22  38  68  92 128 178 225 287 338 385
#     4  11  24  43  68 107 140 174 229 283 338 406
#     4  11  22  41  68  97 139 179 210 292 344 385
#     4  10  19  39  68  98 129 170 228 280 342 393
#     4  12  27  43  67 103 141 182 230 271 343 420
#
# _framework density 23.571947999999999
#
# number of rings (size 3 to 8) (size 9 to 14) (size 15 to 20)
#    0.000    1.250    3.750    3.750    3.500    3.000 
#    0.000    2.500    0.000    2.250    0.000    0.000 
#    0.000    0.000    0.000    0.000    0.000    0.000 
#
# Total GULP energy -89253.042284 kJ/mol
# GULP energy per Si atom -5578.315143 kJ/mol
# Density = 2.351830 g / cm^3
# Si number density = 23.571948 Si / 1000 Ang^3
#
#
#
# Elastic Constant Matrix: (Units=GPa)
#
#
# Indices 1 2 3 4 5 6 
#
# 1 104.9825 18.3383 29.1387 6.7397 -31.0561 -14.9026
# 2 18.3383 70.2934 23.2778 4.7019 -7.8115 0.6322
# 3 29.1387 23.2778 136.2437 20.4663 -18.7482 1.7495
# 4 6.7397 4.7019 20.4663 33.2136 3.1267 -6.2283
# 5 -31.0561 -7.8115 -18.7482 3.1267 32.2506 -2.4993
# 6 -14.9026 0.6322 1.7495 -6.2283 -2.4993 38.3016
#
#
#
# Elastic Compliance Matrix: (Units=1/GPa)
#
#
# Indices 1 2 3 4 5 6 
#
# 1 0.015593 -0.002090 -0.000612 -0.002645 0.014927 0.006674
# 2 -0.002090 0.015561 -0.001996 -0.000806 0.000592 -0.001071
# 3 -0.000612 -0.001996 0.009419 -0.006103 0.004893 -0.001309
# 4 -0.002645 -0.000806 -0.006103 0.036261 -0.009454 0.004543
# 5 0.014927 0.000592 0.004893 -0.009454 0.049851 0.007290
# 6 0.006674 -0.001071 -0.001309 0.004543 0.007290 0.029997
#
#
# Mechanical properties :
#
#
# Convention : Reuss Voigt Hill
#
# Bulk Modulus (GPa) = 32.07324 50.33655 41.20490
# Shear Modulus (GPa) = 28.33343 36.80414 32.56878
#
# Velocity S-wave (km/s) = 3.47074 3.95568 3.72112
# Velocity P-wave (km/s) = 5.44954 6.50108 5.99840
#
# Compressibility (1/GPa) = 0.03117864
#
# Stress axis : x y z
#
# Youngs Moduli (GPa) = 64.13005 64.26164 106.17376
#
# Poissons Ratio (x) = 0.13428 0.06500
# Poissons Ratio (y) = 0.13400 0.21188
# Poissons Ratio (z) = 0.03926 0.12824
#
# Static dielectric constant tensor:
#      x y z
#    x 1.911750 0.016710 0.080500 
#    y 0.016710 1.962930 0.028950 
#    z 0.080500 0.028950 2.054600 
# 
# From -- ./inp_files/455599.got.cif
#   From: 2010.05.17/outbox.cif.g08.bks.cpg/sg2_228_cif.got.tgz:455599.got - 2010.06.03 11:33:40.
