data_PCOD9089863
_publ_section_title
;
Structure prediction by ZEFSAII (Michael W. Deem and Ramdas Pophale) SiO2 
 PCOD9089863
Probable space group: P -1
;
_chemical_formula_sum "Si O2"
_cell_formula_units_Z 14
_cell_length_a 16.407110
_cell_length_b 16.192548
_cell_length_c 5.317060
_cell_angle_alpha 81.387791
_cell_angle_beta 95.270554
_cell_angle_gamma 27.553251
_cell_volume 562.776517
_symmetry_space_group_name_H-M "P -1"
_symmetry_group_IT_number 2
_symmetry_cell_setting 'triclinic'
loop_
_space_group_symop_operation_xyz
x,y,z
-x,-y,-z
loop_
_atom_site_type_symbol
_atom_site_label
_atom_site_fract_x
_atom_site_fract_y
_atom_site_fract_z
Si Si1 0.316862 0.580884 0.032743
Si Si2 0.352508 0.060421 0.367349
Si Si3 0.980946 0.886609 0.426555
Si Si4 0.337681 0.731026 0.143807
Si Si5 0.887116 0.364280 0.779628
Si Si6 0.091648 0.325943 0.670394
Si Si7 0.308909 0.919584 0.371426
O O1 0.337463 0.631150 0.236624
O O2 0.115855 0.798136 0.725289
O O3 0.504836 0.409092 0.977896
O O4 0.271508 0.527913 0.124206
O O5 0.201761 0.193181 0.505583
O O6 0.500000 0.000000 0.500000
O O7 0.435503 0.887515 0.435252
O O8 0.242398 0.187143 0.015832
O O9 0.127505 0.681582 0.442477
O O10 0.884802 0.036876 0.127882
O O11 0.788322 0.016779 0.422301
O O12 0.381551 0.764812 0.337330
O O13 0.908856 0.437127 0.658921
O O14 0.109563 0.135300 0.060156
O O15 0.000000 0.500000 0.500000
#
# Coordination Sequence:
#
# PCOD9089863 Si02
#       7
#     2   2   2   2   2   2   2
#     4  10  22  39  61  94 130 172 229 281 337 411
#     4  11  23  45  71 104 139 182 232 291 356 422
#     4  10  19  38  62  86 124 174 214 272 345 402
#     4  10  22  39  61  94 130 172 229 281 337 411
#     4   9  20  39  63  88 130 175 221 279 343 413
#     4  11  23  45  71 104 139 182 232 291 356 422
#     4   9  20  39  63  88 130 175 221 279 343 413
#
# _framework density 24.876660000000001
#
# number of rings (size 3 to 8) (size 9 to 14) (size 15 to 20)
#    0.000    2.000    1.429    1.286    0.000    7.429 
#    5.143    2.857    0.000    0.000    0.000    0.000 
#    0.000    0.000    0.000    0.000    0.000    0.000 
#
# Total GULP energy -78185.715305 kJ/mol
# GULP energy per Si atom -5584.693950 kJ/mol
# Density = 2.482004 g / cm^3
# Si number density = 24.876660 Si / 1000 Ang^3
#
#
#
# Elastic Constant Matrix: (Units=GPa)
#
#
# Indices 1 2 3 4 5 6 
#
# 1 158.2610 58.5215 38.4711 -6.9496 -7.8310 24.7186
# 2 58.5215 70.8459 15.0513 8.2099 -22.5100 -0.9611
# 3 38.4711 15.0513 88.3772 2.5382 -13.3696 5.7147
# 4 -6.9496 8.2099 2.5382 38.3106 -1.2162 -2.9210
# 5 -7.8310 -22.5100 -13.3696 -1.2162 32.5050 -3.6281
# 6 24.7186 -0.9611 5.7147 -2.9210 -3.6281 45.3215
#
#
#
# Elastic Compliance Matrix: (Units=1/GPa)
#
#
# Indices 1 2 3 4 5 6 
#
# 1 0.013290 -0.013398 -0.004458 0.004745 -0.008553 -0.007349
# 2 -0.013398 0.032282 0.003198 -0.008223 0.021112 0.008749
# 3 -0.004458 0.003198 0.013730 -0.002097 0.006842 0.001181
# 4 0.004745 -0.008223 -0.002097 0.028646 -0.004454 -0.001009
# 5 -0.008553 0.021112 0.006842 -0.004454 0.046833 0.007712
# 6 -0.007349 0.008749 0.001181 -0.001009 0.007712 0.026662
#
#
# Mechanical properties :
#
#
# Convention : Reuss Voigt Hill
#
# Bulk Modulus (GPa) = 33.34773 60.17465 46.76119
# Shear Modulus (GPa) = 24.90625 36.92344 30.91484
#
# Velocity S-wave (km/s) = 3.16759 3.85679 3.52905
# Velocity P-wave (km/s) = 5.17808 6.63889 5.95346
#
# Compressibility (1/GPa) = 0.02998705
#
# Stress axis : x y z
#
# Youngs Moduli (GPa) = 75.24688 30.97672 72.83338
#
# Poissons Ratio (x) = 0.41502 0.32471
# Poissons Ratio (y) = 1.00813 -0.23296
# Poissons Ratio (z) = 0.33547 -0.09908
#
# Static dielectric constant tensor:
#      x y z
#    x 1.987150 -0.009580 0.036460 
#    y -0.009580 2.043490 -0.049240 
#    z 0.036460 -0.049240 2.042490 
# 
# From -- ./inp_files/97922.got.cif
#   From: 2010.05.17/outbox.cif.g08.bks.cpg/sg2_49_cif.got.tgz:97922.got - 2010.06.03 11:33:40.
