data_PCOD9089896
_publ_section_title
;
Structure prediction by ZEFSAII (Michael W. Deem and Ramdas Pophale) SiO2 
 PCOD9089896
Probable space group: P -1
;
_chemical_formula_sum "Si O2"
_cell_formula_units_Z 14
_cell_length_a 9.390142
_cell_length_b 6.986771
_cell_length_c 17.953657
_cell_angle_alpha 116.569552
_cell_angle_beta 142.886579
_cell_angle_gamma 85.604153
_cell_volume 543.391505
_symmetry_space_group_name_H-M "P -1"
_symmetry_group_IT_number 2
_symmetry_cell_setting 'triclinic'
loop_
_space_group_symop_operation_xyz
x,y,z
-x,-y,-z
loop_
_atom_site_type_symbol
_atom_site_label
_atom_site_fract_x
_atom_site_fract_y
_atom_site_fract_z
Si Si1 0.487927 0.344827 0.653310
Si Si2 0.606378 0.756471 0.239323
Si Si3 0.395786 0.950757 0.071576
Si Si4 0.824560 0.788730 0.652045
Si Si5 0.241801 0.609796 0.811394
Si Si6 0.995622 0.286080 0.878446
Si Si7 0.786410 0.848585 0.808980
O O1 0.340039 0.209047 0.644268
O O2 0.316667 0.228676 0.487336
O O3 0.770888 0.343407 0.763279
O O4 0.579988 0.638701 0.743130
O O5 0.596250 0.967832 0.224004
O O6 0.787759 0.654451 0.260430
O O7 0.289027 0.523051 0.058903
O O8 0.536730 0.192537 0.120300
O O9 0.338143 0.719291 0.953471
O O10 0.092589 0.894791 0.956555
O O11 0.670602 0.720809 0.656426
O O12 0.980713 0.637347 0.690589
O O13 0.021452 0.088299 0.802781
O O14 0.851461 0.124730 0.865479
#
# Coordination Sequence:
#
# PCOD9089896 Si02
#       7
#     2   2   2   2   2   2   2
#     4  12  23  38  58  91 127 146 190 241 300 350
#     4  12  23  35  62  94 117 150 188 253 295 333
#     4  10  19  38  62  89 112 150 203 244 281 338
#     4   9  22  42  60  83 116 164 195 232 281 354
#     4  10  20  41  60  83 118 153 202 235 283 349
#     4  10  21  38  59  87 115 154 196 235 285 343
#     4   9  20  37  64  83 115 154 198 237 283 341
#
# _framework density 25.764112000000001
#
# number of rings (size 3 to 8) (size 9 to 14) (size 15 to 20)
#    0.857    0.857    2.857    2.571    0.000    2.286 
#    0.000    0.714    0.000    0.000    0.000    0.000 
#    0.000    0.000    0.000    0.000    0.000    0.000 
#
# Total GULP energy -78314.532874 kJ/mol
# GULP energy per Si atom -5593.895205 kJ/mol
# Density = 2.570547 g / cm^3
# Si number density = 25.764112 Si / 1000 Ang^3
#
#
#
# Elastic Constant Matrix: (Units=GPa)
#
#
# Indices 1 2 3 4 5 6 
#
# 1 79.7122 23.0334 32.8359 -17.8960 -9.9859 -0.8316
# 2 23.0334 115.7046 26.9028 -24.7001 -5.0392 -3.7541
# 3 32.8359 26.9028 86.2481 -28.2007 -33.7285 0.7694
# 4 -17.8960 -24.7001 -28.2007 41.9502 9.7533 0.6871
# 5 -9.9859 -5.0392 -33.7285 9.7533 34.5114 -15.2508
# 6 -0.8316 -3.7541 0.7694 0.6871 -15.2508 46.9177
#
#
#
# Elastic Compliance Matrix: (Units=1/GPa)
#
#
# Indices 1 2 3 4 5 6 
#
# 1 0.015495 -0.001373 -0.005313 0.002662 -0.001831 -0.000382
# 2 -0.001373 0.010277 -0.002011 0.004608 -0.002134 0.000070
# 3 -0.005313 -0.002011 0.026879 0.008623 0.025268 0.007391
# 4 0.002662 0.004608 0.008623 0.033393 0.000395 -0.000086
# 5 -0.001831 -0.002134 0.025268 0.000395 0.061239 0.019283
# 6 -0.000382 0.000070 0.007391 -0.000086 0.019283 0.027461
#
#
# Mechanical properties :
#
#
# Convention : Reuss Voigt Hill
#
# Bulk Modulus (GPa) = 28.36327 49.68991 39.02659
# Shear Modulus (GPa) = 24.52303 37.93538 31.22920
#
# Velocity S-wave (km/s) = 3.08852 3.84136 3.48533
# Velocity P-wave (km/s) = 4.87353 6.24525 5.60154
#
# Compressibility (1/GPa) = 0.03525687
#
# Stress axis : x y z
#
# Youngs Moduli (GPa) = 64.53804 97.30748 37.20315
#
# Poissons Ratio (x) = 0.13361 0.19765
# Poissons Ratio (y) = 0.08862 0.07482
# Poissons Ratio (z) = 0.34288 0.19569
#
# Static dielectric constant tensor:
#      x y z
#    x 2.145200 0.007730 -0.030690 
#    y 0.007730 2.017100 0.050030 
#    z -0.030690 0.050030 2.039250 
# 
# From -- ./inp_files/388357.got.cif
#   From: 2010.05.17/outbox.cif.g08.bks.cpg/sg2_195_cif.got.tgz:388357.got - 2010.06.03 11:33:40.
