data_PCOD9089730
_publ_section_title
;
Structure prediction by ZEFSAII (Michael W. Deem and Ramdas Pophale) SiO2 
 PCOD9089730
Probable space group: P -1
;
_chemical_formula_sum "Si O2"
_cell_formula_units_Z 12
_cell_length_a 7.276850
_cell_length_b 8.581041
_cell_length_c 16.543513
_cell_angle_alpha 127.767646
_cell_angle_beta 139.273935
_cell_angle_gamma 52.485744
_cell_volume 511.357637
_symmetry_space_group_name_H-M "P -1"
_symmetry_group_IT_number 2
_symmetry_cell_setting 'triclinic'
loop_
_space_group_symop_operation_xyz
x,y,z
-x,-y,-z
loop_
_atom_site_type_symbol
_atom_site_label
_atom_site_fract_x
_atom_site_fract_y
_atom_site_fract_z
Si Si1 0.231399 0.088285 0.529727
Si Si2 0.680571 0.671133 0.604227
Si Si3 0.637976 0.331311 0.924834
Si Si4 0.666596 0.513474 0.297975
Si Si5 0.854099 0.839307 0.288417
Si Si6 0.805340 0.611981 0.806207
O O1 0.480493 0.879456 0.565220
O O2 0.988246 0.026252 0.375464
O O3 0.350866 0.270613 0.595430
O O4 0.106123 0.174053 0.604403
O O5 0.500000 0.500000 0.500000
O O6 0.991528 0.591089 0.637660
O O7 0.759998 0.713120 0.735690
O O8 0.512865 0.424832 0.826357
O O9 0.485019 0.151044 0.833973
O O10 0.500000 0.500000 0.000000
O O11 0.982475 0.296697 0.038828
O O12 0.496490 0.384548 0.250931
O O13 0.034545 0.630822 0.238038
#
# Coordination Sequence:
#
# PCOD9089730 Si02
#       6
#     2   2   2   2   2   2
#     4  10  19  38  61  85 122 152 195 242 291 348
#     4  12  21  40  59  86 121 160 193 237 296 350
#     4   9  16  36  64  81 112 161 195 233 290 351
#     4  11  23  39  61  91 119 151 197 246 292 347
#     4   9  17  37  60  84 113 160 192 233 296 341
#     4  11  21  37  64  88 116 158 197 239 295 346
#
# _framework density 23.466940999999998
#
# number of rings (size 3 to 8) (size 9 to 14) (size 15 to 20)
#    0.000    1.667    6.667    1.500    0.000    1.333 
#    3.000    3.333    0.000    5.000    0.000    0.000 
#    0.000    0.000    0.000    0.000    0.000    0.000 
#
# Total GULP energy -67058.649971 kJ/mol
# GULP energy per Si atom -5588.220831 kJ/mol
# Density = 2.341353 g / cm^3
# Si number density = 23.466941 Si / 1000 Ang^3
#
#
#
# Elastic Constant Matrix: (Units=GPa)
#
#
# Indices 1 2 3 4 5 6 
#
# 1 144.7272 54.9965 49.9083 -3.1924 38.9574 -8.5918
# 2 54.9965 91.1534 58.6051 -8.4328 26.6193 -17.5305
# 3 49.9083 58.6051 159.1523 12.7901 36.1822 1.2587
# 4 -3.1924 -8.4328 12.7901 31.2776 9.2496 2.2262
# 5 38.9574 26.6193 36.1822 9.2496 55.0049 2.5524
# 6 -8.5918 -17.5305 1.2587 2.2262 2.5524 22.8184
#
#
#
# Elastic Compliance Matrix: (Units=1/GPa)
#
#
# Indices 1 2 3 4 5 6 
#
# 1 0.010095 -0.003563 -0.000816 0.001854 -0.005270 0.001517
# 2 -0.003563 0.023830 -0.007025 0.009729 -0.006820 0.017167
# 3 -0.000816 -0.007025 0.009908 -0.005216 -0.001404 -0.005585
# 4 0.001854 0.009729 -0.005216 0.039311 -0.009464 0.005683
# 5 -0.005270 -0.006820 -0.001404 -0.009464 0.028164 -0.009374
# 6 0.001517 0.017167 -0.005585 0.005683 -0.009374 0.058386
#
#
# Mechanical properties :
#
#
# Convention : Reuss Voigt Hill
#
# Bulk Modulus (GPa) = 47.56281 80.22808 63.89544
# Shear Modulus (GPa) = 25.06121 37.25506 31.15814
#
# Velocity S-wave (km/s) = 3.27148 3.98874 3.64778
# Velocity P-wave (km/s) = 5.88065 7.44817 6.71034
#
# Compressibility (1/GPa) = 0.02102483
#
# Stress axis : x y z
#
# Youngs Moduli (GPa) = 99.06138 41.96365 100.92373
#
# Poissons Ratio (x) = 0.14953 0.08238
# Poissons Ratio (y) = 0.35300 0.70895
# Poissons Ratio (z) = 0.08086 0.29478
#
# Static dielectric constant tensor:
#      x y z
#    x 1.956960 0.020050 0.034010 
#    y 0.020050 1.915260 0.011410 
#    z 0.034010 0.011410 1.914810 
# 
# From -- ./inp_files/159898.got.cif
#   From: 2010.05.17/outbox.cif.g08.bks.cpg/sg2_80_cif.got.tgz:159898.got - 2010.06.03 11:33:40.
