data_PCOD9089369
_publ_section_title
;
Structure prediction by ZEFSAII (Michael W. Deem and Ramdas Pophale) SiO2 
 PCOD9089369
Probable space group: P -1
;
_chemical_formula_sum "Si O2"
_cell_formula_units_Z 12
_cell_length_a 12.019812
_cell_length_b 21.089323
_cell_length_c 16.342049
_cell_angle_alpha 17.132135
_cell_angle_beta 24.225397
_cell_angle_gamma 21.355134
_cell_volume 434.988432
_symmetry_space_group_name_H-M "P -1"
_symmetry_group_IT_number 2
_symmetry_cell_setting 'triclinic'
loop_
_space_group_symop_operation_xyz
x,y,z
-x,-y,-z
loop_
_atom_site_type_symbol
_atom_site_label
_atom_site_fract_x
_atom_site_fract_y
_atom_site_fract_z
Si Si1 0.142791 0.987461 0.175463
Si Si2 0.355609 0.795016 0.030398
Si Si3 0.507496 0.792994 0.616506
Si Si4 0.811519 0.524439 0.182182
Si Si5 0.158208 0.428393 0.569862
Si Si6 0.950611 0.187069 0.229974
O O1 0.766147 0.153660 0.201243
O O2 0.167351 0.044923 0.183429
O O3 0.211119 0.708259 0.482565
O O4 0.287475 0.138271 0.849204
O O5 0.466953 0.732882 0.125911
O O6 0.388483 0.539566 0.290020
O O7 0.521368 0.937928 0.704891
O O8 0.000000 0.000000 0.000000
O O9 0.869045 0.583400 0.637871
O O10 0.377075 0.732582 0.695353
O O11 0.000000 0.500000 0.000000
O O12 0.965378 0.614222 0.036122
O O13 0.000000 0.500000 0.500000
O O14 0.000000 0.000000 0.500000
#
# Coordination Sequence:
#
# PCOD9089369 Si02
#       6
#     2   2   2   2   2   2
#     4  10  23  41  69 101 126 180 236 274 325 406
#     4  10  22  41  64  95 138 177 209 279 349 394
#     4   9  20  42  68  91 132 177 228 274 331 395
#     4  12  20  39  72 103 130 172 233 280 324 409
#     4  11  25  43  62  95 144 179 219 283 347 395
#     4  10  19  37  69 100 129 166 222 286 328 378
#
# _framework density 27.586940999999999
#
# number of rings (size 3 to 8) (size 9 to 14) (size 15 to 20)
#    1.000    0.667    5.000    0.500    2.333    0.667 
#    9.000    2.500    0.000    0.000    0.000    0.000 
#    0.000    0.000    0.000    0.000    0.000    0.000 
#
# Total GULP energy -67070.071658 kJ/mol
# GULP energy per Si atom -5589.172638 kJ/mol
# Density = 2.752415 g / cm^3
# Si number density = 27.586941 Si / 1000 Ang^3
#
#
#
# Elastic Constant Matrix: (Units=GPa)
#
#
# Indices 1 2 3 4 5 6 
#
# 1 73.7481 -0.7566 78.8249 1.6367 -20.7860 -9.9905
# 2 -0.7566 100.3570 34.1241 -0.5445 -4.4277 -19.8157
# 3 78.8249 34.1241 318.5961 -21.0227 -30.0632 -1.7410
# 4 1.6367 -0.5445 -21.0227 43.1949 -3.4261 -9.4233
# 5 -20.7860 -4.4277 -30.0632 -3.4261 63.6324 -1.0693
# 6 -9.9905 -19.8157 -1.7410 -9.4233 -1.0693 32.1704
#
#
#
# Elastic Compliance Matrix: (Units=1/GPa)
#
#
# Indices 1 2 3 4 5 6 
#
# 1 0.022035 0.003972 -0.005430 -0.001103 0.004998 0.008839
# 2 0.003972 0.012596 -0.002074 0.001131 0.001411 0.009258
# 3 -0.005430 -0.002074 0.004879 0.002142 0.000468 -0.002056
# 4 -0.001103 0.001131 0.002142 0.026225 0.002281 0.008228
# 5 0.004998 0.001411 0.000468 0.002281 0.017852 0.003708
# 6 0.008839 0.009258 -0.002056 0.008228 0.003708 0.041954
#
#
# Mechanical properties :
#
#
# Convention : Reuss Voigt Hill
#
# Bulk Modulus (GPa) = 30.82001 79.67622 55.24812
# Shear Modulus (GPa) = 34.86294 53.16681 44.01487
#
# Velocity S-wave (km/s) = 3.55878 4.39480 3.99870
# Velocity P-wave (km/s) = 5.29932 7.39574 6.43349
#
# Compressibility (1/GPa) = 0.03244645
#
# Stress axis : x y z
#
# Youngs Moduli (GPa) = 45.38289 79.39137 204.97761
#
# Poissons Ratio (x) = -0.31536 1.11303
# Poissons Ratio (y) = -0.18027 0.42503
# Poissons Ratio (z) = 0.24643 0.16462
#
# Static dielectric constant tensor:
#      x y z
#    x 2.134090 0.202120 -0.013230 
#    y 0.202120 2.774370 0.016340 
#    z -0.013230 0.016340 2.071840 
# 
# From -- ./inp_files/612467.got.cif
#   From: 2010.05.17/outbox.cif.g08.bks.cpg/sg2_307_cif.got.tgz:612467.got - 2010.06.03 11:33:40.
