data_PCOD9089408
_publ_section_title
;
Structure prediction by ZEFSAII (Michael W. Deem and Ramdas Pophale) SiO2 
 PCOD9089408
Probable space group: P -1
;
_chemical_formula_sum "Si O2"
_cell_formula_units_Z 16
_cell_length_a 14.699013
_cell_length_b 8.808878
_cell_length_c 9.744343
_cell_angle_alpha 60.018364
_cell_angle_beta 130.533211
_cell_angle_gamma 90.145242
_cell_volume 724.319350
_symmetry_space_group_name_H-M "P -1"
_symmetry_group_IT_number 2
_symmetry_cell_setting 'triclinic'
loop_
_space_group_symop_operation_xyz
x,y,z
-x,-y,-z
loop_
_atom_site_type_symbol
_atom_site_label
_atom_site_fract_x
_atom_site_fract_y
_atom_site_fract_z
Si Si1 0.628597 0.804154 0.123335
Si Si2 0.877018 0.452959 0.870780
Si Si3 0.880834 0.448469 0.378897
Si Si4 0.121968 0.789517 0.769676
Si Si5 0.627656 0.866919 0.398596
Si Si6 0.112061 0.789820 0.259462
Si Si7 0.409331 0.646916 0.015542
Si Si8 0.375554 0.768845 0.619693
O O1 0.744191 0.637745 0.217781
O O2 0.680284 0.847726 0.299031
O O3 0.526175 0.714696 0.105084
O O4 0.535567 0.006917 0.852987
O O5 0.724655 0.645115 0.651985
O O6 0.884982 0.382474 0.754690
O O7 0.898935 0.270325 0.072372
O O8 0.000000 0.500000 0.000000
O O9 0.871461 0.386003 0.243775
O O10 0.912607 0.256664 0.590142
O O11 0.000000 0.500000 0.500000
O O12 0.272183 0.770198 0.912314
O O13 0.000000 0.000000 0.500000
O O14 0.641833 0.018523 0.449037
O O15 0.256386 0.785642 0.399260
O O16 0.000000 0.000000 0.000000
O O17 0.482153 0.407603 0.220496
O O18 0.363261 0.682713 0.795098
#
# Coordination Sequence:
#
# PCOD9089408 Si02
#       8
#     2   2   2   2   2   2   2   2
#     4  10  21  41  72  97 129 182 219 272 339 403
#     4  12  26  43  62  99 143 173 217 282 340 393
#     4  12  24  44  66  99 134 172 226 274 328 399
#     4  12  27  42  66 103 132 177 227 277 329 394
#     4  10  21  38  68  99 127 174 225 264 335 404
#     4  12  23  43  65  94 132 182 221 265 341 398
#     4  10  19  41  67  94 128 171 230 272 316 402
#     4  10  19  37  71  94 123 177 224 268 328 398
#
# _framework density 22.089701999999999
#
# number of rings (size 3 to 8) (size 9 to 14) (size 15 to 20)
#    0.000    1.000    3.750    3.750    3.500    1.000 
#    0.000    6.250    0.000    0.000    0.000    0.000 
#    0.000    0.000    0.000    0.000    0.000    0.000 
#
# Total GULP energy -89316.171880 kJ/mol
# GULP energy per Si atom -5582.260742 kJ/mol
# Density = 2.203943 g / cm^3
# Si number density = 22.089702 Si / 1000 Ang^3
#
#
#
# Elastic Constant Matrix: (Units=GPa)
#
#
# Indices 1 2 3 4 5 6 
#
# 1 59.5256 -1.3469 12.4845 -3.2230 21.3906 1.8754
# 2 -1.3469 95.5084 18.9825 0.1014 21.8524 -1.9866
# 3 12.4845 18.9825 113.1258 -27.2478 10.8555 4.0072
# 4 -3.2230 0.1014 -27.2478 56.4659 -0.2199 3.6898
# 5 21.3906 21.8524 10.8555 -0.2199 30.3851 3.3197
# 6 1.8754 -1.9866 4.0072 3.6898 3.3197 21.8968
#
#
#
# Elastic Compliance Matrix: (Units=1/GPa)
#
#
# Indices 1 2 3 4 5 6 
#
# 1 0.024788 0.005518 -0.001602 0.000433 -0.021039 0.001787
# 2 0.005518 0.014164 -0.002022 -0.000963 -0.013730 0.003426
# 3 -0.001602 -0.002022 0.010825 0.005314 -0.000944 -0.002779
# 4 0.000433 -0.000963 0.005314 0.020587 -0.000877 -0.004433
# 5 -0.021039 -0.013730 -0.000944 -0.000877 0.058805 -0.008039
# 6 0.001787 0.003426 -0.002779 -0.004433 -0.008039 0.048301
#
#
# Mechanical properties :
#
#
# Convention : Reuss Voigt Hill
#
# Bulk Modulus (GPa) = 18.66848 36.48889 27.57869
# Shear Modulus (GPa) = 26.10507 37.61887 31.86197
#
# Velocity S-wave (km/s) = 3.44143 4.13123 3.80200
# Velocity P-wave (km/s) = 4.92552 6.26980 5.63787
#
# Compressibility (1/GPa) = 0.05356623
#
# Stress axis : x y z
#
# Youngs Moduli (GPa) = 40.34261 70.60336 92.38277
#
# Poissons Ratio (x) = -0.38961 0.14796
# Poissons Ratio (y) = -0.22262 0.18675
# Poissons Ratio (z) = 0.06461 0.14272
#
# Static dielectric constant tensor:
#      x y z
#    x 1.826440 0.015930 0.039350 
#    y 0.015930 1.853490 -0.017170 
#    z 0.039350 -0.017170 1.856700 
# 
# From -- ./inp_files/297985.got.cif
#   From: 2010.05.17/outbox.cif.g08.bks.cpg/sg2_149_cif.got.tgz:297985.got - 2010.06.03 11:33:40.
