data_PCOD9089260
_publ_section_title
;
Structure prediction by ZEFSAII (Michael W. Deem and Ramdas Pophale) SiO2 
 PCOD9089260
Probable space group: P -1
;
_chemical_formula_sum "Si O2"
_cell_formula_units_Z 16
_cell_length_a 10.982634
_cell_length_b 9.011767
_cell_length_c 14.397570
_cell_angle_alpha 142.126183
_cell_angle_beta 107.416983
_cell_angle_gamma 97.481932
_cell_volume 651.166933
_symmetry_space_group_name_H-M "P -1"
_symmetry_group_IT_number 2
_symmetry_cell_setting 'triclinic'
loop_
_space_group_symop_operation_xyz
x,y,z
-x,-y,-z
loop_
_atom_site_type_symbol
_atom_site_label
_atom_site_fract_x
_atom_site_fract_y
_atom_site_fract_z
Si Si1 0.121609 0.807508 0.316497
Si Si2 0.765449 0.649975 0.485225
Si Si3 0.121292 0.495023 0.742990
Si Si4 0.122225 0.234425 0.063553
Si Si5 0.797453 0.295772 0.472325
Si Si6 0.704552 0.783706 0.059522
Si Si7 0.390210 0.194551 0.138147
Si Si8 0.442711 0.076900 0.616666
O O1 0.110146 0.501642 0.166089
O O2 0.961093 0.712159 0.286123
O O3 0.156447 0.988938 0.318820
O O4 0.289614 0.055397 0.534627
O O5 0.820297 0.604938 0.376168
O O6 0.814975 0.522097 0.512158
O O7 0.569166 0.424978 0.331986
O O8 0.967353 0.459620 0.646128
O O9 0.269459 0.847912 0.978063
O O10 0.296250 0.339250 0.193753
O O11 0.133855 0.108077 0.905674
O O12 0.000000 0.000000 0.000000
O O13 0.645954 0.171461 0.444048
O O14 0.249127 0.011494 0.739566
O O15 0.587397 0.412816 0.856645
O O16 0.389125 0.152629 0.004761
O O17 0.500000 0.000000 0.500000
#
# Coordination Sequence:
#
# PCOD9089260 Si02
#       8
#     2   2   2   2   2   2   2   2
#     4  11  21  39  69  98 132 187 235 279 335 429
#     4  12  23  40  64 109 145 171 237 301 349 397
#     4  11  23  42  66  98 138 194 232 273 353 424
#     4  10  19  37  67 100 131 182 244 266 338 420
#     4  11  26  41  69 104 142 184 230 297 355 409
#     4  10  20  39  68  99 135 178 239 284 334 406
#     4  10  21  36  71  96 136 186 234 282 337 418
#     4  11  21  42  70  98 135 184 236 280 351 429
#
# _framework density 24.571275
#
# number of rings (size 3 to 8) (size 9 to 14) (size 15 to 20)
#    0.750    0.500    5.000    1.500    0.000    0.000 
#    0.000    1.875    0.000    3.000    0.000    2.625 
#    0.000    0.000    0.000    0.000    0.000    0.000 
#
# Total GULP energy -89363.180414 kJ/mol
# GULP energy per Si atom -5585.198776 kJ/mol
# Density = 2.451535 g / cm^3
# Si number density = 24.571275 Si / 1000 Ang^3
#
#
#
# Elastic Constant Matrix: (Units=GPa)
#
#
# Indices 1 2 3 4 5 6 
#
# 1 120.1063 42.8317 61.4077 15.2756 7.3028 25.3275
# 2 42.8317 79.3956 56.8559 33.8248 -1.6791 8.1494
# 3 61.4077 56.8559 140.5388 30.0925 6.7218 12.0702
# 4 15.2756 33.8248 30.0925 42.3006 4.5551 4.6233
# 5 7.3028 -1.6791 6.7218 4.5551 45.2259 -2.9177
# 6 25.3275 8.1494 12.0702 4.6233 -2.9177 36.0713
#
#
#
# Elastic Compliance Matrix: (Units=1/GPa)
#
#
# Indices 1 2 3 4 5 6 
#
# 1 0.013417 -0.005194 -0.003624 0.003002 -0.002616 -0.007631
# 2 -0.005194 0.025612 -0.005112 -0.015635 0.004248 0.001919
# 3 -0.003624 -0.005112 0.011358 -0.002589 -0.001022 0.000148
# 4 0.003002 -0.015635 -0.002589 0.037723 -0.004668 -0.002921
# 5 -0.002616 0.004248 -0.001022 -0.004668 0.023554 0.003722
# 6 -0.007631 0.001919 0.000148 -0.002921 0.003722 0.033274
#
#
# Mechanical properties :
#
#
# Convention : Reuss Voigt Hill
#
# Bulk Modulus (GPa) = 44.39103 73.58125 58.98614
# Shear Modulus (GPa) = 27.73070 36.64925 32.18998
#
# Velocity S-wave (km/s) = 3.36308 3.86625 3.62341
# Velocity P-wave (km/s) = 5.76072 7.06693 6.44699
#
# Compressibility (1/GPa) = 0.02252708
#
# Stress axis : x y z
#
# Youngs Moduli (GPa) = 74.52957 39.04435 88.04734
#
# Poissons Ratio (x) = 0.20281 0.31904
# Poissons Ratio (y) = 0.38713 0.45010
# Poissons Ratio (z) = 0.27006 0.19960
#
# Static dielectric constant tensor:
#      x y z
#    x 1.988240 0.007790 -0.038280 
#    y 0.007790 2.033950 0.025990 
#    z -0.038280 0.025990 2.018790 
# 
# From -- ./inp_files/594590.got.cif
#   From: 2010.05.17/outbox.cif.g08.bks.cpg/sg2_298_cif.got.tgz:594590.got - 2010.06.03 11:33:40.
