data_PCOD9089713
_publ_section_title
;
Structure prediction by ZEFSAII (Michael W. Deem and Ramdas Pophale) SiO2 
 PCOD9089713
Probable space group: P -1
;
_chemical_formula_sum "Si O2"
_cell_formula_units_Z 16
_cell_length_a 22.556941
_cell_length_b 9.175592
_cell_length_c 19.262747
_cell_angle_alpha 127.285785
_cell_angle_beta 163.475981
_cell_angle_gamma 44.544993
_cell_volume 732.998308
_symmetry_space_group_name_H-M "P -1"
_symmetry_group_IT_number 2
_symmetry_cell_setting 'triclinic'
loop_
_space_group_symop_operation_xyz
x,y,z
-x,-y,-z
loop_
_atom_site_type_symbol
_atom_site_label
_atom_site_fract_x
_atom_site_fract_y
_atom_site_fract_z
Si Si1 0.422454 0.136259 0.262870
Si Si2 0.997836 0.666534 0.599077
Si Si3 0.494652 0.401198 0.657523
Si Si4 0.741230 0.400122 0.791910
Si Si5 0.584347 0.287705 0.876128
Si Si6 0.423445 0.838383 0.703286
Si Si7 0.767709 0.839052 0.678606
Si Si8 0.985911 0.513865 0.697433
O O1 0.358500 0.958418 0.122443
O O2 0.600660 0.111186 0.391827
O O3 0.553940 0.069023 0.466728
O O4 0.211578 0.403137 0.101068
O O5 0.990611 0.589631 0.646899
O O6 0.000000 0.500000 0.500000
O O7 0.753027 0.923857 0.388973
O O8 0.248043 0.667541 0.875345
O O9 0.640808 0.375373 0.744661
O O10 0.654339 0.296556 0.877381
O O11 0.356893 0.277145 0.461511
O O12 0.340100 0.670903 0.574522
O O13 0.500000 0.500000 0.500000
O O14 0.029780 0.175830 0.045373
O O15 0.276449 0.473194 0.591289
O O16 0.726100 0.702937 0.024061
O O17 0.914814 0.690224 0.731076
#
# Coordination Sequence:
#
# PCOD9089713 Si02
#       8
#     2   2   2   2   2   2   2   2
#     4   9  20  37  62  87 108 165 205 238 298 360
#     4  12  25  39  60  96 129 156 198 260 316 358
#     4   9  20  37  62  86 112 161 206 244 291 360
#     4  11  22  37  58  90 127 153 195 257 309 351
#     4  10  21  41  66  85 123 160 211 253 294 366
#     4  11  19  38  67  86 118 160 209 250 299 367
#     4  10  19  38  61  82 120 154 208 252 288 365
#     4  10  20  41  60  89 121 156 211 255 291 365
#
# _framework density 21.828154999999999
#
# number of rings (size 3 to 8) (size 9 to 14) (size 15 to 20)
#    0.000    2.000    6.250    0.000    1.750    2.000 
#    0.000    3.125    0.000    0.000    0.000    0.000 
#    0.000    0.000    0.000    0.000    0.000    0.000 
#
# Total GULP energy -89129.298999 kJ/mol
# GULP energy per Si atom -5570.581187 kJ/mol
# Density = 2.177847 g / cm^3
# Si number density = 21.828155 Si / 1000 Ang^3
#
#
#
# Elastic Constant Matrix: (Units=GPa)
#
#
# Indices 1 2 3 4 5 6 
#
# 1 76.8990 36.5729 26.2968 1.6064 -1.6327 32.0725
# 2 36.5729 115.8743 36.7688 -3.6651 -5.6872 27.0894
# 3 26.2968 36.7688 132.8308 0.3872 -2.1238 7.5783
# 4 1.6064 -3.6651 0.3872 30.6537 -3.1412 0.4065
# 5 -1.6327 -5.6872 -2.1238 -3.1412 16.4269 -2.9986
# 6 32.0725 27.0894 7.5783 0.4065 -2.9986 37.1840
#
#
#
# Elastic Compliance Matrix: (Units=1/GPa)
#
#
# Indices 1 2 3 4 5 6 
#
# 1 0.022130 -0.002268 -0.002815 -0.001408 -0.002328 -0.017034
# 2 -0.002268 0.011677 -0.002410 0.001910 0.002802 -0.005855
# 3 -0.002815 -0.002410 0.008619 -0.000241 0.000404 0.002462
# 4 -0.001408 0.001910 -0.000241 0.033637 0.006934 0.000063
# 5 -0.002328 0.002802 0.000404 0.006934 0.063898 0.004961
# 6 -0.017034 -0.005855 0.002462 0.000063 0.004961 0.045749
#
#
# Mechanical properties :
#
#
# Convention : Reuss Voigt Hill
#
# Bulk Modulus (GPa) = 36.44199 58.32012 47.38105
# Shear Modulus (GPa) = 23.82729 31.91728 27.87228
#
# Velocity S-wave (km/s) = 3.30750 3.82803 3.57724
# Velocity P-wave (km/s) = 5.59618 6.80546 6.23023
#
# Compressibility (1/GPa) = 0.02744088
#
# Stress axis : x y z
#
# Youngs Moduli (GPa) = 45.18820 85.63577 116.01732
#
# Poissons Ratio (x) = 0.19424 0.32653
# Poissons Ratio (y) = 0.10249 0.27962
# Poissons Ratio (z) = 0.12718 0.20639
#
# Static dielectric constant tensor:
#      x y z
#    x 1.783170 0.002950 0.005300 
#    y 0.002950 1.849900 0.011980 
#    z 0.005300 0.011980 1.894600 
# 
# From -- ./inp_files/577380.got.cif
#   From: 2010.05.17/outbox.cif.g08.bks.cpg/sg2_289_cif.got.tgz:577380.got - 2010.06.03 11:33:40.
