data_PCOD9089876
_publ_section_title
;
Structure prediction by ZEFSAII (Michael W. Deem and Ramdas Pophale) SiO2 
 PCOD9089876
Probable space group: P -1
;
_chemical_formula_sum "Si O2"
_cell_formula_units_Z 16
_cell_length_a 11.679361
_cell_length_b 9.996962
_cell_length_c 7.876043
_cell_angle_alpha 46.884479
_cell_angle_beta 78.254951
_cell_angle_gamma 72.351923
_cell_volume 639.679605
_symmetry_space_group_name_H-M "P -1"
_symmetry_group_IT_number 2
_symmetry_cell_setting 'triclinic'
loop_
_space_group_symop_operation_xyz
x,y,z
-x,-y,-z
loop_
_atom_site_type_symbol
_atom_site_label
_atom_site_fract_x
_atom_site_fract_y
_atom_site_fract_z
Si Si1 0.618935 0.135202 0.435119
Si Si2 0.224002 0.500523 0.651473
Si Si3 0.651479 0.238057 0.772033
Si Si4 0.570608 0.980450 0.234298
Si Si5 0.204225 0.111449 0.168475
Si Si6 0.005043 0.307554 0.269492
Si Si7 0.358969 0.563965 0.036383
Si Si8 0.792836 0.678534 0.536948
O O1 0.516440 0.162735 0.586499
O O2 0.556894 0.102411 0.305495
O O3 0.712758 0.957831 0.632969
O O4 0.685303 0.297828 0.226594
O O5 0.341599 0.583583 0.503993
O O6 0.174100 0.460325 0.514268
O O7 0.125509 0.659031 0.638882
O O8 0.235746 0.302150 0.919054
O O9 0.669401 0.319417 0.881994
O O10 0.754312 0.064567 0.818607
O O11 0.550493 0.126198 0.958913
O O12 0.705864 0.859346 0.319088
O O13 0.068295 0.154105 0.243788
O O14 0.094754 0.291532 0.416964
O O15 0.000000 0.500000 0.000000
O O16 0.290031 0.402267 0.233016
O O17 0.500000 0.500000 0.000000
#
# Coordination Sequence:
#
# PCOD9089876 Si02
#       8
#     2   2   2   2   2   2   2   2
#     4  10  21  36  61  94 124 167 206 252 313 373
#     4  10  23  43  64  90 125 168 216 258 314 370
#     4  10  23  40  62  92 125 165 211 256 309 375
#     4  10  19  38  62  87 122 164 211 249 306 374
#     4  11  22  41  63  91 134 161 205 267 316 374
#     4  10  23  40  66  93 122 168 211 262 329 362
#     4  10  21  39  65  98 125 164 217 253 301 386
#     4  11  19  40  69  87 127 165 207 264 303 372
#
# _framework density 25.012521
#
# number of rings (size 3 to 8) (size 9 to 14) (size 15 to 20)
#    0.000    1.750    3.750    0.375    0.000    3.000 
#    0.000    3.125    0.000    0.000    0.000    0.000 
#    0.000    0.000    0.000    0.000    0.000    0.000 
#
# Total GULP energy -89156.815913 kJ/mol
# GULP energy per Si atom -5572.300995 kJ/mol
# Density = 2.495559 g / cm^3
# Si number density = 25.012521 Si / 1000 Ang^3
#
#
#
# Elastic Constant Matrix: (Units=GPa)
#
#
# Indices 1 2 3 4 5 6 
#
# 1 41.4283 15.2629 6.6397 -2.5680 -12.7012 0.8319
# 2 15.2629 150.1698 19.1003 13.5882 0.6692 -5.1394
# 3 6.6397 19.1003 196.8966 7.0035 -24.7414 0.8929
# 4 -2.5680 13.5882 7.0035 42.3763 1.2516 1.8343
# 5 -12.7012 0.6692 -24.7414 1.2516 23.2123 3.4909
# 6 0.8319 -5.1394 0.8929 1.8343 3.4909 29.5985
#
#
#
# Elastic Compliance Matrix: (Units=1/GPa)
#
#
# Indices 1 2 3 4 5 6 
#
# 1 0.031565 -0.003878 0.001717 0.002468 0.019695 -0.004088
# 2 -0.003878 0.007482 -0.000960 -0.002458 -0.003530 0.002006
# 3 0.001717 -0.000960 0.006117 -0.000772 0.007719 -0.001262
# 4 0.002468 -0.002458 -0.000772 0.024761 -0.000443 -0.001955
# 5 0.019695 -0.003530 0.007719 -0.000443 0.063544 -0.008866
# 6 -0.004088 0.002006 -0.001262 -0.001955 -0.008866 0.035454
#
#
# Mechanical properties :
#
#
# Convention : Reuss Voigt Hill
#
# Bulk Modulus (GPa) = 25.69170 52.27782 38.98476
# Shear Modulus (GPa) = 26.57622 42.20356 34.38989
#
# Velocity S-wave (km/s) = 3.26316 4.11213 3.71200
# Velocity P-wave (km/s) = 4.94889 6.59486 5.83025
#
# Compressibility (1/GPa) = 0.03892308
#
# Stress axis : x y z
#
# Youngs Moduli (GPa) = 31.68098 133.65111 163.47369
#
# Poissons Ratio (x) = 0.51824 -0.28074
# Poissons Ratio (y) = 0.12284 0.15698
# Poissons Ratio (z) = -0.05441 0.12835
#
# Static dielectric constant tensor:
#      x y z
#    x 2.015110 0.001920 -0.034050 
#    y 0.001920 2.142890 -0.069100 
#    z -0.034050 -0.069100 2.068370 
# 
# From -- ./inp_files/306184.got.cif
#   From: 2010.05.17/outbox.cif.g08.bks.cpg/sg2_154_cif.got.tgz:306184.got - 2010.06.03 11:33:40.
