data_PCOD9089143
_publ_section_title
;
Structure prediction by ZEFSAII (Michael W. Deem and Ramdas Pophale) SiO2 
 PCOD9089143
Probable space group: P -1
;
_chemical_formula_sum "Si O2"
_cell_formula_units_Z 15
_cell_length_a 18.889300
_cell_length_b 11.784774
_cell_length_c 11.665762
_cell_angle_alpha 40.091942
_cell_angle_beta 151.904035
_cell_angle_gamma 141.810559
_cell_volume 732.876374
_symmetry_space_group_name_H-M "P -1"
_symmetry_group_IT_number 2
_symmetry_cell_setting 'triclinic'
loop_
_space_group_symop_operation_xyz
x,y,z
-x,-y,-z
loop_
_atom_site_type_symbol
_atom_site_label
_atom_site_fract_x
_atom_site_fract_y
_atom_site_fract_z
Si Si1 0.249455 0.545859 0.616679
Si Si2 0.408134 0.212498 0.620299
Si Si3 0.427852 0.312817 0.926940
Si Si4 0.551630 0.441435 0.439814
Si Si5 0.153481 0.653577 0.161200
Si Si6 0.752843 0.207411 0.199192
Si Si7 0.845882 0.057165 0.228249
Si Si8 0.000000 0.500000 0.500000
O O1 0.303771 0.378205 0.773691
O O2 0.164522 0.619139 0.337559
O O3 0.135006 0.495104 0.600999
O O4 0.424996 0.701684 0.779730
O O5 0.424231 0.280821 0.458737
O O6 0.368789 0.373618 0.509070
O O7 0.293265 0.998450 0.646525
O O8 0.586577 0.229935 0.905067
O O9 0.504759 0.477990 0.815405
O O10 0.320620 0.121330 0.859480
O O11 0.688091 0.367920 0.649353
O O12 0.000000 0.500000 0.000000
O O13 0.153870 0.853072 0.964991
O O14 0.854720 0.367771 0.307379
O O15 0.847061 0.198458 0.223621
O O16 0.000000 0.000000 0.500000
#
# Coordination Sequence:
#
# PCOD9089143 Si02
#       8
#     2   2   2   2   2   2   2   1
#     4  10  24  42  64  93 132 177 212 271 339 390
#     4  10  21  37  64  99 125 170 220 271 325 395
#     4  10  21  43  67  94 128 174 221 269 332 398
#     4  10  19  37  65  95 129 163 217 279 316 392
#     4  11  23  40  62  95 126 171 222 269 327 386
#     4  11  23  40  64  97 131 174 221 266 336 390
#     4  12  23  41  69  97 126 169 230 276 323 398
#     4  12  24  40  62  94 140 170 212 276 332 392
#
# _framework density 20.467299000000001
#
# number of rings (size 3 to 8) (size 9 to 14) (size 15 to 20)
#    0.000    1.333    2.667    4.000    1.867    0.533 
#    0.000    2.667    0.000   10.400    0.000    0.000 
#    0.000    0.000    0.000    0.000    0.000    0.000 
#
# Total GULP energy -83528.975477 kJ/mol
# GULP energy per Si atom -5568.598365 kJ/mol
# Density = 2.042071 g / cm^3
# Si number density = 20.467299 Si / 1000 Ang^3
#
#
#
# Elastic Constant Matrix: (Units=GPa)
#
#
# Indices 1 2 3 4 5 6 
#
# 1 117.3217 12.2453 20.6599 1.1773 -6.5318 -6.9661
# 2 12.2453 45.7930 28.4552 7.0862 -19.1369 4.1646
# 3 20.6599 28.4552 93.5690 5.2500 -16.3986 3.1168
# 4 1.1773 7.0862 5.2500 28.4147 -4.2884 -6.8571
# 5 -6.5318 -19.1369 -16.3986 -4.2884 30.6262 -2.5693
# 6 -6.9661 4.1646 3.1168 -6.8571 -2.5693 28.9046
#
#
#
# Elastic Compliance Matrix: (Units=1/GPa)
#
#
# Indices 1 2 3 4 5 6 
#
# 1 0.009170 -0.001727 -0.001584 0.001116 0.000431 0.002933
# 2 -0.001727 0.034767 -0.006813 -0.005973 0.016482 -0.004643
# 3 -0.001584 -0.006813 0.013613 -0.000552 0.002552 -0.000772
# 4 0.001116 -0.005973 -0.000552 0.039765 0.002690 0.010862
# 5 0.000431 0.016482 0.002552 0.002690 0.044961 0.002088
# 6 0.002933 -0.004643 -0.000772 0.010862 0.002088 0.038818
#
#
# Mechanical properties :
#
#
# Convention : Reuss Voigt Hill
#
# Bulk Modulus (GPa) = 26.80920 42.15605 34.48262
# Shear Modulus (GPa) = 23.38885 30.61066 26.99976
#
# Velocity S-wave (km/s) = 3.38411 3.87148 3.63597
# Velocity P-wave (km/s) = 5.32885 6.37385 5.87463
#
# Compressibility (1/GPa) = 0.03730063
#
# Stress axis : x y z
#
# Youngs Moduli (GPa) = 109.05449 28.76264 73.45926
#
# Poissons Ratio (x) = 0.04968 0.11638
# Poissons Ratio (y) = 0.18835 0.50050
# Poissons Ratio (z) = 0.17278 0.19597
#
# Static dielectric constant tensor:
#      x y z
#    x 1.769530 0.024150 -0.027540 
#    y 0.024150 1.754470 -0.021240 
#    z -0.027540 -0.021240 1.737490 
# 
# From -- ./inp_files/442655.got.cif
#   From: 2010.05.17/outbox.cif.g08.bks.cpg/sg2_222_cif.got.tgz:442655.got - 2010.06.03 11:33:40.
