data_PCOD9089655
_publ_section_title
;
Structure prediction by ZEFSAII (Michael W. Deem and Ramdas Pophale) SiO2 
 PCOD9089655
Probable space group: P -1
;
_chemical_formula_sum "Si O2"
_cell_formula_units_Z 16
_cell_length_a 15.031057
_cell_length_b 8.337385
_cell_length_c 11.498364
_cell_angle_alpha 116.887602
_cell_angle_beta 142.334914
_cell_angle_gamma 57.899210
_cell_volume 744.493483
_symmetry_space_group_name_H-M "P -1"
_symmetry_group_IT_number 2
_symmetry_cell_setting 'triclinic'
loop_
_space_group_symop_operation_xyz
x,y,z
-x,-y,-z
loop_
_atom_site_type_symbol
_atom_site_label
_atom_site_fract_x
_atom_site_fract_y
_atom_site_fract_z
Si Si1 0.116258 0.416404 0.407939
Si Si2 0.774798 0.326086 0.536500
Si Si3 0.813198 0.551448 0.250868
Si Si4 0.404829 0.051677 0.542482
Si Si5 0.158208 0.038767 0.651095
Si Si6 0.427371 0.033856 0.069424
Si Si7 0.429920 0.444393 0.162615
Si Si8 0.342567 0.661661 0.351080
O O1 0.102422 0.591425 0.366049
O O2 0.170122 0.480736 0.606748
O O3 0.249600 0.233223 0.438369
O O4 0.949569 0.406468 0.269216
O O5 0.780192 0.115442 0.437551
O O6 0.604340 0.442552 0.349069
O O7 0.780365 0.354048 0.688449
O O8 0.836800 0.756984 0.319662
O O9 0.646587 0.553644 0.039557
O O10 0.500000 0.000000 0.500000
O O11 0.493562 0.066543 0.761914
O O12 0.356767 0.865747 0.449113
O O13 0.000000 0.000000 0.500000
O O14 0.267393 0.997004 0.864071
O O15 0.412117 0.255046 0.142054
O O16 0.500000 0.000000 0.000000
O O17 0.326179 0.619103 0.187093
O O18 0.500000 0.500000 0.500000
#
# Coordination Sequence:
#
# PCOD9089655 Si02
#       8
#     2   2   2   2   2   2   2   2
#     4  11  24  39  60  89 134 164 195 259 332 368
#     4  11  20  37  62  91 117 160 210 252 303 369
#     4  10  23  42  59  91 127 165 201 261 321 371
#     4  12  23  40  63  95 132 166 208 262 320 371
#     4  11  21  39  62  90 119 157 212 257 305 364
#     4  11  20  38  65  94 117 162 211 260 305 363
#     4  10  20  37  66  88 116 158 216 255 297 367
#     4  10  19  38  60  87 118 158 205 253 299 362
#
# _framework density 21.491119999999999
#
# number of rings (size 3 to 8) (size 9 to 14) (size 15 to 20)
#    0.000    1.250    5.000    3.750    0.000    0.500 
#    2.250    2.500    0.000    0.000    0.000    0.000 
#    0.000    0.000    0.000    0.000    0.000    0.000 
#
# Total GULP energy -89100.193892 kJ/mol
# GULP energy per Si atom -5568.762118 kJ/mol
# Density = 2.144221 g / cm^3
# Si number density = 21.491120 Si / 1000 Ang^3
#
#
#
# Elastic Constant Matrix: (Units=GPa)
#
#
# Indices 1 2 3 4 5 6 
#
# 1 110.0237 9.1504 3.4111 4.2667 -8.6440 -12.3502
# 2 9.1504 71.0579 -6.7670 11.3593 -4.5834 -20.5396
# 3 3.4111 -6.7670 58.3392 3.8995 -1.7477 -7.2605
# 4 4.2667 11.3593 3.8995 24.8217 -0.6186 -3.9539
# 5 -8.6440 -4.5834 -1.7477 -0.6186 25.6857 1.1982
# 6 -12.3502 -20.5396 -7.2605 -3.9539 1.1982 29.3651
#
#
#
# Elastic Compliance Matrix: (Units=1/GPa)
#
#
# Indices 1 2 3 4 5 6 
#
# 1 0.009810 0.000320 0.000144 -0.001123 0.003150 0.004105
# 2 0.000320 0.019969 0.004655 -0.007600 0.003147 0.014101
# 3 0.000144 0.004655 0.018906 -0.003904 0.001726 0.007395
# 4 -0.001123 -0.007600 -0.003904 0.044433 -0.000895 -0.000734
# 5 0.003150 0.003147 0.001726 -0.000895 0.040548 0.002177
# 6 0.004105 0.014101 0.007395 -0.000734 0.002177 0.047284
#
#
# Mechanical properties :
#
#
# Convention : Reuss Voigt Hill
#
# Bulk Modulus (GPa) = 16.97185 27.88997 22.43091
# Shear Modulus (GPa) = 26.26703 31.54959 28.90831
#
# Velocity S-wave (km/s) = 3.49983 3.83564 3.67158
# Velocity P-wave (km/s) = 4.92403 5.71155 5.33235
#
# Compressibility (1/GPa) = 0.05892110
#
# Stress axis : x y z
#
# Youngs Moduli (GPa) = 101.93998 50.07744 52.89431
#
# Poissons Ratio (x) = -0.01601 -0.00761
# Poissons Ratio (y) = -0.03259 -0.24621
# Poissons Ratio (z) = -0.01466 -0.23310
#
# Static dielectric constant tensor:
#      x y z
#    x 1.869050 -0.069060 0.000060 
#    y -0.069060 1.846220 -0.049260 
#    z 0.000060 -0.049260 1.817330 
# 
# From -- ./inp_files/448097.got.cif
#   From: 2010.05.17/outbox.cif.g08.bks.cpg/sg2_225_cif.got.tgz:448097.got - 2010.06.03 11:33:40.
