data_PCOD9089603
_publ_section_title
;
Structure prediction by ZEFSAII (Michael W. Deem and Ramdas Pophale) SiO2 
 PCOD9089603
Probable space group: P -1
;
_chemical_formula_sum "Si O2"
_cell_formula_units_Z 14
_cell_length_a 11.083892
_cell_length_b 12.245413
_cell_length_c 9.351893
_cell_angle_alpha 108.064547
_cell_angle_beta 96.346420
_cell_angle_gamma 143.173733
_cell_volume 561.974272
_symmetry_space_group_name_H-M "P -1"
_symmetry_group_IT_number 2
_symmetry_cell_setting 'triclinic'
loop_
_space_group_symop_operation_xyz
x,y,z
-x,-y,-z
loop_
_atom_site_type_symbol
_atom_site_label
_atom_site_fract_x
_atom_site_fract_y
_atom_site_fract_z
Si Si1 0.408933 0.338070 0.097292
Si Si2 0.135095 0.178245 0.289071
Si Si3 0.829743 0.537591 0.693570
Si Si4 0.033581 0.283449 0.667144
Si Si5 0.325208 0.836366 0.555146
Si Si6 0.334985 0.225560 0.616809
Si Si7 0.849065 0.255026 0.915694
O O1 0.270573 0.233477 0.191397
O O2 0.656227 0.461275 0.182915
O O3 0.533654 0.568273 0.183288
O O4 0.169331 0.104702 0.871537
O O5 0.155926 0.332923 0.339537
O O6 0.277765 0.243219 0.468172
O O7 0.798052 0.392299 0.549617
O O8 0.564928 0.326923 0.665160
O O9 0.058909 0.718628 0.911427
O O10 0.902444 0.262972 0.533426
O O11 0.926949 0.230215 0.789407
O O12 0.920291 0.064926 0.515828
O O13 0.500000 0.000000 0.500000
O O14 0.544138 0.027807 0.781600
O O15 0.000000 0.500000 0.000000
#
# Coordination Sequence:
#
# PCOD9089603 Si02
#       7
#     2   2   2   2   2   2   2
#     4  10  23  42  59  90 129 160 207 250 301 360
#     4  10  25  43  62  86 124 175 203 238 308 380
#     4  11  20  38  66  88 120 165 208 242 300 375
#     4  11  22  39  64  98 124 151 208 264 300 356
#     4  10  19  38  59  93 121 154 204 255 309 354
#     4  11  22  41  65  89 124 164 206 248 307 365
#     4  11  20  36  63  94 121 160 197 252 312 357
#
# _framework density 24.912172000000002
#
# number of rings (size 3 to 8) (size 9 to 14) (size 15 to 20)
#    0.000    1.429    5.714    2.143    6.000    1.714 
#    5.143    0.714    0.000    4.286    0.000    0.000 
#    0.000    0.000    0.000    0.000    0.000    0.000 
#
# Total GULP energy -78398.004544 kJ/mol
# GULP energy per Si atom -5599.857467 kJ/mol
# Density = 2.485547 g / cm^3
# Si number density = 24.912172 Si / 1000 Ang^3
#
#
#
# Elastic Constant Matrix: (Units=GPa)
#
#
# Indices 1 2 3 4 5 6 
#
# 1 88.2520 19.8343 43.2962 6.8989 10.7657 -17.1145
# 2 19.8343 76.4232 23.6149 9.4729 4.7488 -10.9580
# 3 43.2962 23.6149 182.1459 29.5837 21.1151 -18.1430
# 4 6.8989 9.4729 29.5837 31.3815 -0.5041 9.8813
# 5 10.7657 4.7488 21.1151 -0.5041 55.4769 5.0555
# 6 -17.1145 -10.9580 -18.1430 9.8813 5.0555 41.1792
#
#
#
# Elastic Compliance Matrix: (Units=1/GPa)
#
#
# Indices 1 2 3 4 5 6 
#
# 1 0.014240 -0.001855 -0.001906 -0.002540 -0.002402 0.005489
# 2 -0.001855 0.015036 0.000070 -0.005737 -0.001445 0.004815
# 3 -0.001906 0.000070 0.008406 -0.009343 -0.003430 0.005593
# 4 -0.002540 -0.005737 -0.009343 0.049157 0.006748 -0.019323
# 5 -0.002402 -0.001445 -0.003430 0.006748 0.020624 -0.007045
# 6 0.005489 0.004815 0.005593 -0.019323 -0.007045 0.035813
#
#
# Mechanical properties :
#
#
# Convention : Reuss Voigt Hill
#
# Bulk Modulus (GPa) = 33.00415 57.81244 45.40830
# Shear Modulus (GPa) = 31.10261 42.94588 37.02424
#
# Velocity S-wave (km/s) = 3.53723 4.15648 3.85930
# Velocity P-wave (km/s) = 5.47354 6.80382 6.17461
#
# Compressibility (1/GPa) = 0.03029922
#
# Stress axis : x y z
#
# Youngs Moduli (GPa) = 70.22714 66.50678 118.95650
#
# Poissons Ratio (x) = 0.12340 0.22679
# Poissons Ratio (y) = 0.13030 -0.00838
# Poissons Ratio (z) = 0.13389 -0.00469
#
# Static dielectric constant tensor:
#      x y z
#    x 1.985150 0.069410 -0.026840 
#    y 0.069410 2.031970 -0.011870 
#    z -0.026840 -0.011870 1.945760 
# 
# From -- ./inp_files/426227.got.cif
#   From: 2010.05.17/outbox.cif.g08.bks.cpg/sg2_214_cif.got.tgz:426227.got - 2010.06.03 11:33:40.
