data_PCOD9089981
_publ_section_title
;
Structure prediction by ZEFSAII (Michael W. Deem and Ramdas Pophale) SiO2 
 PCOD9089981
Probable space group: P -1
;
_chemical_formula_sum "Si O2"
_cell_formula_units_Z 12
_cell_length_a 9.368641
_cell_length_b 14.340274
_cell_length_c 9.628123
_cell_angle_alpha 114.079946
_cell_angle_beta 135.289976
_cell_angle_gamma 42.384471
_cell_volume 594.511288
_symmetry_space_group_name_H-M "P -1"
_symmetry_group_IT_number 2
_symmetry_cell_setting 'triclinic'
loop_
_space_group_symop_operation_xyz
x,y,z
-x,-y,-z
loop_
_atom_site_type_symbol
_atom_site_label
_atom_site_fract_x
_atom_site_fract_y
_atom_site_fract_z
Si Si1 0.150841 0.092686 0.134521
Si Si2 0.351681 0.848357 0.286247
Si Si3 0.300005 0.354367 0.067495
Si Si4 0.788797 0.841721 0.070716
Si Si5 0.570603 0.356908 0.987147
Si Si6 0.231154 0.842045 0.496555
O O1 0.912036 0.221261 0.150535
O O2 0.384969 0.944755 0.288884
O O3 0.203058 0.158295 0.092058
O O4 0.983204 0.063908 0.911323
O O5 0.387694 0.837107 0.468468
O O6 0.498498 0.700407 0.220286
O O7 0.412937 0.374137 0.024650
O O8 0.540602 0.271536 0.301563
O O9 0.243300 0.255772 0.940703
O O10 0.000000 0.500000 0.000000
O O11 0.057466 0.806450 0.296243
O O12 0.500000 0.000000 0.000000
O O13 0.500000 0.500000 0.000000
O O14 0.000000 0.000000 0.500000
#
# Coordination Sequence:
#
# PCOD9089981 Si02
#       6
#     2   2   2   2   2   2
#     4   8  16  33  61  85 122 167 199 255 322 362
#     4   8  17  34  62  85 119 168 205 250 314 376
#     4  12  26  41  66  97 130 169 219 266 324 382
#     4  11  21  39  67  97 130 164 216 269 317 377
#     4  10  19  38  63  84 125 177 204 253 329 382
#     4  11  22  41  68  97 130 167 217 268 321 378
#
# _framework density 20.184646000000001
#
# number of rings (size 3 to 8) (size 9 to 14) (size 15 to 20)
#    1.000    1.000    1.667    3.000    0.000    0.667 
#    0.000    1.667    7.333    0.000    0.000    0.000 
#    0.000    0.000    0.000    0.000    0.000    0.000 
#
# Total GULP energy -66830.422033 kJ/mol
# GULP energy per Si atom -5569.201836 kJ/mol
# Density = 2.013870 g / cm^3
# Si number density = 20.184646 Si / 1000 Ang^3
#
#
#
# Elastic Constant Matrix: (Units=GPa)
#
#
# Indices 1 2 3 4 5 6 
#
# 1 154.9581 64.5103 49.3771 1.8058 -36.1534 8.5630
# 2 64.5103 151.8909 35.1300 4.4883 -14.9748 6.6616
# 3 49.3771 35.1300 100.0241 -0.6522 -6.1894 4.6631
# 4 1.8058 4.4883 -0.6522 18.2459 -4.7402 3.3994
# 5 -36.1534 -14.9748 -6.1894 -4.7402 31.9185 5.8653
# 6 8.5630 6.6616 4.6631 3.3994 5.8653 43.5190
#
#
#
# Elastic Compliance Matrix: (Units=1/GPa)
#
#
# Indices 1 2 3 4 5 6 
#
# 1 0.012008 -0.002890 -0.003951 0.003299 0.012604 -0.003454
# 2 -0.002890 0.008227 -0.001446 -0.001675 0.000135 -0.000423
# 3 -0.003951 -0.001446 0.012291 0.000483 -0.002699 0.000008
# 4 0.003299 -0.001675 0.000483 0.059610 0.013160 -0.006874
# 5 0.012604 0.000135 -0.002699 0.013160 0.048908 -0.009831
# 6 -0.003454 -0.000423 0.000008 -0.006874 -0.009831 0.025584
#
#
# Mechanical properties :
#
#
# Convention : Reuss Voigt Hill
#
# Bulk Modulus (GPa) = 62.67851 78.32309 70.50080
# Shear Modulus (GPa) = 26.52272 35.92705 31.22488
#
# Velocity S-wave (km/s) = 3.62885 4.22349 3.93741
# Velocity P-wave (km/s) = 6.97697 7.91652 7.46155
#
# Compressibility (1/GPa) = 0.01595443
#
# Stress axis : x y z
#
# Youngs Moduli (GPa) = 83.27515 121.55478 81.35834
#
# Poissons Ratio (x) = 0.35127 0.32141
# Poissons Ratio (y) = 0.24065 0.11762
# Poissons Ratio (z) = 0.32898 0.17573
#
# Static dielectric constant tensor:
#      x y z
#    x 1.786230 0.006090 -0.009760 
#    y 0.006090 1.692530 0.016250 
#    z -0.009760 0.016250 1.795220 
# 
# From -- ./inp_files/194202.got.cif
#   From: 2010.05.17/outbox.cif.g08.bks.cpg/sg2_98_cif.got.tgz:194202.got - 2010.06.03 11:33:40.
