data_PCOD9089860
_publ_section_title
;
Structure prediction by ZEFSAII (Michael W. Deem and Ramdas Pophale) SiO2 
 PCOD9089860
Probable space group: P -1
;
_chemical_formula_sum "Si O2"
_cell_formula_units_Z 14
_cell_length_a 9.528816
_cell_length_b 20.741942
_cell_length_c 5.220661
_cell_angle_alpha 96.276443
_cell_angle_beta 115.770681
_cell_angle_gamma 43.999481
_cell_volume 610.400754
_symmetry_space_group_name_H-M "P -1"
_symmetry_group_IT_number 2
_symmetry_cell_setting 'triclinic'
loop_
_space_group_symop_operation_xyz
x,y,z
-x,-y,-z
loop_
_atom_site_type_symbol
_atom_site_label
_atom_site_fract_x
_atom_site_fract_y
_atom_site_fract_z
Si Si1 0.222077 0.830100 0.513707
Si Si2 0.261176 0.895710 0.086974
Si Si3 0.610816 0.499058 0.332498
Si Si4 0.378566 0.380951 0.322265
Si Si5 0.028529 0.554332 0.718490
Si Si6 0.769085 0.889450 0.150857
Si Si7 0.365472 0.111736 0.464394
O O1 0.305547 0.825217 0.296217
O O2 0.390375 0.718215 0.672650
O O3 0.953430 0.890429 0.291688
O O4 0.254453 0.874094 0.778448
O O5 0.446302 0.893659 0.305380
O O6 0.000000 0.000000 0.000000
O O7 0.500000 0.500000 0.500000
O O8 0.551660 0.593211 0.378857
O O9 0.884166 0.419277 0.406459
O O10 0.500000 0.500000 0.000000
O O11 0.214774 0.371711 0.281644
O O12 0.223977 0.474692 0.052164
O O13 0.000000 0.500000 0.500000
O O14 0.816522 0.837819 0.428333
O O15 0.768002 0.841732 0.889311
O O16 0.500000 0.000000 0.000000
O O17 0.500000 0.000000 0.500000
#
# Coordination Sequence:
#
# PCOD9089860 Si02
#       7
#     2   2   2   2   2   2   2
#     4  12  26  41  69 100 134 173 237 295 323 402
#     4  12  24  42  66  98 130 179 233 285 339 404
#     4  11  21  39  69 101 132 175 225 270 334 419
#     4  10  23  43  67 101 135 182 230 277 346 402
#     4   9  20  41  72  93 134 183 223 264 354 417
#     4  10  19  38  62  86 121 172 207 259 338 394
#     4  10  20  38  62  84 119 165 214 260 330 402
#
# _framework density 22.935748
#
# number of rings (size 3 to 8) (size 9 to 14) (size 15 to 20)
#    0.000    1.429    1.429    5.571    4.000    0.000 
#    0.000    4.286    0.000    0.000    0.000    0.000 
#    0.000    0.000    0.000    0.000    0.000    0.000 
#
# Total GULP energy -77983.238007 kJ/mol
# GULP energy per Si atom -5570.231286 kJ/mol
# Density = 2.288355 g / cm^3
# Si number density = 22.935748 Si / 1000 Ang^3
#
#
#
# Elastic Constant Matrix: (Units=GPa)
#
#
# Indices 1 2 3 4 5 6 
#
# 1 167.4447 -3.8161 40.7743 5.0132 12.0277 -7.5721
# 2 -3.8161 48.2291 21.0586 -3.3122 9.2332 -5.0589
# 3 40.7743 21.0586 140.5175 33.6166 8.5063 -6.5497
# 4 5.0132 -3.3122 33.6166 34.6767 2.3417 1.8340
# 5 12.0277 9.2332 8.5063 2.3417 52.3633 12.8182
# 6 -7.5721 -5.0589 -6.5497 1.8340 12.8182 14.1342
#
#
#
# Elastic Compliance Matrix: (Units=1/GPa)
#
#
# Indices 1 2 3 4 5 6 
#
# 1 0.007134 0.003080 -0.002330 0.001398 -0.003551 0.006883
# 2 0.003080 0.027198 -0.005394 0.007135 -0.008861 0.015995
# 3 -0.002330 -0.005394 0.011675 -0.011674 -0.001035 0.004684
# 4 0.001398 0.007135 -0.011674 0.041020 0.000388 -0.007782
# 5 -0.003551 -0.008861 -0.001035 0.000388 0.029560 -0.032412
# 6 0.006883 0.015995 0.004684 -0.007782 -0.032412 0.112737
#
#
# Mechanical properties :
#
#
# Convention : Reuss Voigt Hill
#
# Bulk Modulus (GPa) = 27.23537 52.46942 39.85239
# Shear Modulus (GPa) = 19.93194 40.11314 30.02254
#
# Velocity S-wave (km/s) = 2.95114 4.18656 3.62191
# Velocity P-wave (km/s) = 4.84899 6.80413 5.90799
#
# Compressibility (1/GPa) = 0.03671696
#
# Stress axis : x y z
#
# Youngs Moduli (GPa) = 140.16943 36.76773 85.65285
#
# Poissons Ratio (x) = -0.11323 0.19959
# Poissons Ratio (y) = -0.43168 0.46205
# Poissons Ratio (z) = 0.32663 0.19834
#
# Static dielectric constant tensor:
#      x y z
#    x 2.016710 -0.020440 -0.065620 
#    y -0.020440 2.020070 0.026610 
#    z -0.065620 0.026610 2.038650 
# 
# From -- ./inp_files/53308.got.cif
#   From: 2010.05.17/outbox.cif.g08.bks.cpg/sg2_27_cif.got.tgz:53308.got - 2010.06.03 11:33:40.
