data_PCOD9089676
_publ_section_title
;
Structure prediction by ZEFSAII (Michael W. Deem and Ramdas Pophale) SiO2 
 PCOD9089676
Probable space group: P -1
;
_chemical_formula_sum "Si O2"
_cell_formula_units_Z 15
_cell_length_a 6.908658
_cell_length_b 16.556270
_cell_length_c 7.722548
_cell_angle_alpha 124.303055
_cell_angle_beta 54.520216
_cell_angle_gamma 107.071233
_cell_volume 593.454441
_symmetry_space_group_name_H-M "P -1"
_symmetry_group_IT_number 2
_symmetry_cell_setting 'triclinic'
loop_
_space_group_symop_operation_xyz
x,y,z
-x,-y,-z
loop_
_atom_site_type_symbol
_atom_site_label
_atom_site_fract_x
_atom_site_fract_y
_atom_site_fract_z
Si Si1 0.053160 0.864832 0.923077
Si Si2 0.199133 0.025435 0.284192
Si Si3 0.490151 0.083080 0.755534
Si Si4 0.175996 0.608534 0.347922
Si Si5 0.287300 0.408993 0.848170
Si Si6 0.500000 0.500000 0.500000
Si Si7 0.895450 0.332877 0.167831
Si Si8 0.910402 0.198717 0.551232
O O1 0.150505 0.778194 0.893049
O O2 0.151049 0.844011 0.657974
O O3 0.768098 0.863904 0.055117
O O4 0.115091 0.967502 0.091713
O O5 0.438911 0.977832 0.182134
O O6 0.000000 0.000000 0.500000
O O7 0.152259 0.140675 0.416814
O O8 0.687434 0.164486 0.734744
O O9 0.500000 0.000000 0.500000
O O10 0.450461 0.628491 0.270762
O O11 0.042051 0.620609 0.617189
O O12 0.074543 0.687903 0.361272
O O13 0.194916 0.502038 0.126280
O O14 0.333152 0.451947 0.685731
O O15 0.103050 0.331840 0.916784
O O16 0.677091 0.401187 0.295328
#
# Coordination Sequence:
#
# PCOD9089676 Si02
#       8
#     2   2   2   2   2   1   2   2
#     4  11  22  41  63  90 124 167 205 264 312 374
#     4  10  21  38  60  88 123 161 207 254 313 366
#     4  11  22  39  61  87 122 168 206 253 314 371
#     4   9  20  36  62  87 118 163 209 259 314 372
#     4  10  19  38  60  89 121 163 206 256 313 379
#     4  10  22  36  56  90 122 156 204 258 314 362
#     4  10  21  38  62  86 123 164 210 254 319 371
#     4  10  21  39  60  91 125 159 211 264 312 371
#
# _framework density 25.275738
#
# number of rings (size 3 to 8) (size 9 to 14) (size 15 to 20)
#    0.000    1.867    2.667    2.000    0.000    2.667 
#    0.000    4.000    0.000    0.000    0.000    0.000 
#    0.000    0.000    0.000    0.000    0.000    0.000 
#
# Total GULP energy -83666.184013 kJ/mol
# GULP energy per Si atom -5577.745601 kJ/mol
# Density = 2.521821 g / cm^3
# Si number density = 25.275738 Si / 1000 Ang^3
#
#
#
# Elastic Constant Matrix: (Units=GPa)
#
#
# Indices 1 2 3 4 5 6 
#
# 1 55.1474 19.8020 24.0258 -1.2248 -13.9703 -24.6936
# 2 19.8020 159.1809 46.9201 10.6479 -21.7042 -37.2233
# 3 24.0258 46.9201 75.3538 -21.6317 -5.2586 -1.2310
# 4 -1.2248 10.6479 -21.6317 54.7722 -12.8906 -12.5641
# 5 -13.9703 -21.7042 -5.2586 -12.8906 47.1376 5.0806
# 6 -24.6936 -37.2233 -1.2310 -12.5641 5.0806 34.0352
#
#
#
# Elastic Compliance Matrix: (Units=1/GPa)
#
#
# Indices 1 2 3 4 5 6 
#
# 1 0.046262 0.012199 -0.019281 0.004773 0.013529 0.045952
# 2 0.012199 0.014837 -0.012499 -0.000681 0.006342 0.023428
# 3 -0.019281 -0.012499 0.028555 0.006987 -0.003843 -0.023473
# 4 0.004773 -0.000681 0.006987 0.025654 0.007679 0.011295
# 5 0.013529 0.006342 -0.003843 0.007679 0.028172 0.015242
# 6 0.045952 0.023428 -0.023473 0.011295 0.015242 0.089388
#
#
# Mechanical properties :
#
#
# Convention : Reuss Voigt Hill
#
# Bulk Modulus (GPa) = 19.80454 52.35310 36.07882
# Shear Modulus (GPa) = 17.30929 40.45130 28.88030
#
# Velocity S-wave (km/s) = 2.61974 4.00484 3.38392
# Velocity P-wave (km/s) = 4.12349 6.49174 5.43810
#
# Compressibility (1/GPa) = 0.05049347
#
# Stress axis : x y z
#
# Youngs Moduli (GPa) = 21.61579 67.39755 35.02019
#
# Poissons Ratio (x) = -0.82220 0.67524
# Poissons Ratio (y) = -0.26370 0.43770
# Poissons Ratio (z) = 0.41678 0.84237
#
# Static dielectric constant tensor:
#      x y z
#    x 2.022660 -0.002220 0.040550 
#    y -0.002220 1.959910 -0.042100 
#    z 0.040550 -0.042100 2.006400 
# 
# From -- ./inp_files/202865.got.cif
#   From: 2010.05.17/outbox.cif.g08.bks.cpg/sg2_102_cif.got.tgz:202865.got - 2010.06.03 11:33:40.
