data_PCOD9089128
_publ_section_title
;
Structure prediction by ZEFSAII (Michael W. Deem and Ramdas Pophale) SiO2 
 PCOD9089128
Probable space group: P -1
;
_chemical_formula_sum "Si O2"
_cell_formula_units_Z 14
_cell_length_a 9.109959
_cell_length_b 11.878829
_cell_length_c 13.304744
_cell_angle_alpha 143.651790
_cell_angle_beta 45.634792
_cell_angle_gamma 124.857708
_cell_volume 609.935834
_symmetry_space_group_name_H-M "P -1"
_symmetry_group_IT_number 2
_symmetry_cell_setting 'triclinic'
loop_
_space_group_symop_operation_xyz
x,y,z
-x,-y,-z
loop_
_atom_site_type_symbol
_atom_site_label
_atom_site_fract_x
_atom_site_fract_y
_atom_site_fract_z
Si Si1 0.638708 0.473669 0.818141
Si Si2 0.337719 0.686522 0.721573
Si Si3 0.712150 0.925889 0.637031
Si Si4 0.042907 0.628483 0.670728
Si Si5 0.488173 0.721242 0.893338
Si Si6 0.854001 0.086842 0.485565
Si Si7 0.915823 0.960807 0.852573
O O1 0.524928 0.545975 0.824715
O O2 0.729874 0.263881 0.629454
O O3 0.838435 0.611483 0.822862
O O4 0.500000 0.500000 0.000000
O O5 0.545375 0.767848 0.632437
O O6 0.228345 0.554046 0.595741
O O7 0.378813 0.651958 0.793994
O O8 0.174105 0.854150 0.923083
O O9 0.938754 0.859234 0.512141
O O10 0.717946 0.972802 0.549554
O O11 0.643478 0.117077 0.868482
O O12 0.000000 0.500000 0.500000
O O13 0.059729 0.836401 0.764285
O O14 0.706696 0.830099 0.840331
O O15 0.953643 0.986246 0.269984
#
# Coordination Sequence:
#
# PCOD9089128 Si02
#       7
#     2   2   2   2   2   2   2
#     4  11  23  41  63  89 130 178 205 255 332 378
#     4  11  21  41  64 101 124 165 221 262 315 382
#     4  10  20  36  65 100 130 167 208 266 313 377
#     4  11  24  41  66  91 127 174 214 267 321 379
#     4  10  19  37  65  93 129 171 207 260 320 380
#     4  11  19  36  66  97 133 166 209 256 324 377
#     4  10  19  38  64  94 128 165 212 258 317 381
#
# _framework density 22.953233999999998
#
# number of rings (size 3 to 8) (size 9 to 14) (size 15 to 20)
#    0.000    1.429    5.714    1.286    0.000    0.000 
#    0.000    9.286    0.000    0.000    0.000    0.000 
#    0.000    0.000    0.000    0.000    0.000    0.000 
#
# Total GULP energy -78192.329027 kJ/mol
# GULP energy per Si atom -5585.166359 kJ/mol
# Density = 2.290099 g / cm^3
# Si number density = 22.953234 Si / 1000 Ang^3
#
#
#
# Elastic Constant Matrix: (Units=GPa)
#
#
# Indices 1 2 3 4 5 6 
#
# 1 151.5332 46.1358 34.8940 -7.5494 14.8761 -36.6482
# 2 46.1358 81.8163 25.8658 -38.0494 8.1443 -29.7629
# 3 34.8940 25.8658 102.5474 -17.0855 -9.5361 -10.1069
# 4 -7.5494 -38.0494 -17.0855 47.2727 -9.5680 -4.6724
# 5 14.8761 8.1443 -9.5361 -9.5680 34.9282 -1.8799
# 6 -36.6482 -29.7629 -10.1069 -4.6724 -1.8799 32.5365
#
#
#
# Elastic Compliance Matrix: (Units=1/GPa)
#
#
# Indices 1 2 3 4 5 6 
#
# 1 0.010270 -0.001345 -0.002733 -0.000420 -0.004428 0.009173
# 2 -0.001345 0.062908 0.001299 0.058503 0.005792 0.065170
# 3 -0.002733 0.001299 0.012367 0.006665 0.006239 0.003269
# 4 -0.000420 0.058503 0.006665 0.080064 0.013918 0.067414
# 5 -0.004428 0.005792 0.006239 0.013918 0.035019 0.006271
# 6 0.009173 0.065170 0.003269 0.067414 0.006271 0.111740
#
#
# Mechanical properties :
#
#
# Convention : Reuss Voigt Hill
#
# Bulk Modulus (GPa) = 12.50204 61.07645 36.78924
# Shear Modulus (GPa) = 14.51009 38.21423 26.36216
#
# Velocity S-wave (km/s) = 2.51700 4.08471 3.39265
# Velocity P-wave (km/s) = 3.72903 6.99381 5.60442
#
# Compressibility (1/GPa) = 0.07998697
#
# Stress axis : x y z
#
# Youngs Moduli (GPa) = 97.36853 15.89623 80.86240
#
# Poissons Ratio (x) = 0.02138 0.22101
# Poissons Ratio (y) = 0.13095 -0.10504
# Poissons Ratio (z) = 0.26612 -0.02065
#
# Static dielectric constant tensor:
#      x y z
#    x 1.933870 0.007920 0.025730 
#    y 0.007920 1.862550 0.047090 
#    z 0.025730 0.047090 1.910660 
# 
# From -- ./inp_files/237400.got.cif
#   From: 2010.05.17/outbox.cif.g08.bks.cpg/sg2_119_cif.got.tgz:237400.got - 2010.06.03 11:33:40.
