data_PCOD9089636
_publ_section_title
;
Structure prediction by ZEFSAII (Michael W. Deem and Ramdas Pophale) SiO2 
 PCOD9089636
Probable space group: P -1
;
_chemical_formula_sum "Si O2"
_cell_formula_units_Z 14
_cell_length_a 14.038351
_cell_length_b 7.773282
_cell_length_c 11.548000
_cell_angle_alpha 94.501774
_cell_angle_beta 148.797156
_cell_angle_gamma 71.569207
_cell_volume 570.187657
_symmetry_space_group_name_H-M "P -1"
_symmetry_group_IT_number 2
_symmetry_cell_setting 'triclinic'
loop_
_space_group_symop_operation_xyz
x,y,z
-x,-y,-z
loop_
_atom_site_type_symbol
_atom_site_label
_atom_site_fract_x
_atom_site_fract_y
_atom_site_fract_z
Si Si1 0.586911 0.331698 0.274269
Si Si2 0.201483 0.773221 0.279622
Si Si3 0.009354 0.799943 0.454269
Si Si4 0.199993 0.996227 0.973780
Si Si5 0.888283 0.353502 0.214911
Si Si6 0.532054 0.078141 0.361733
Si Si7 0.141640 0.501372 0.042973
O O1 0.656410 0.370760 0.475764
O O2 0.756277 0.321837 0.360114
O O3 0.604816 0.118638 0.313836
O O4 0.349449 0.474590 0.003041
O O5 0.283845 0.933736 0.365976
O O6 0.970453 0.882312 0.099351
O O7 0.221907 0.650278 0.181211
O O8 0.982676 0.697593 0.535259
O O9 0.852499 0.860454 0.186077
O O10 0.000000 0.000000 0.500000
O O11 0.147561 0.828112 0.870082
O O12 0.438240 0.931051 0.253174
O O13 0.973709 0.414553 0.194684
O O14 0.331770 0.284697 0.204603
O O15 0.000000 0.500000 0.000000
#
# Coordination Sequence:
#
# PCOD9089636 Si02
#       7
#     2   2   2   2   2   2   2
#     4   8  18  35  61  80 116 150 194 231 292 334
#     4   9  19  36  62  78 117 157 190 237 290 335
#     4   9  18  36  62  83 119 154 183 242 294 337
#     4  10  19  38  60  85 118 155 188 237 297 338
#     4  10  21  34  59  89 117 150 197 240 282 345
#     4   9  19  35  61  84 111 158 193 230 289 347
#     4  11  20  37  61  83 116 158 196 235 290 340
#
# _framework density 24.553318999999998
#
# number of rings (size 3 to 8) (size 9 to 14) (size 15 to 20)
#    0.857    1.714    1.429    0.857    0.000    0.571 
#    0.000    7.857    3.143    0.000    0.000    0.000 
#    0.000    0.000    0.000    0.000    0.000    0.000 
#
# Total GULP energy -78113.849313 kJ/mol
# GULP energy per Si atom -5579.560665 kJ/mol
# Density = 2.449743 g / cm^3
# Si number density = 24.553319 Si / 1000 Ang^3
#
#
#
# Elastic Constant Matrix: (Units=GPa)
#
#
# Indices 1 2 3 4 5 6 
#
# 1 142.4534 -0.4117 41.6328 -4.5265 -21.2468 8.5998
# 2 -0.4117 53.0464 6.6843 17.1749 -2.8074 -3.4942
# 3 41.6328 6.6843 71.4366 7.0394 -12.8143 10.3937
# 4 -4.5265 17.1749 7.0394 26.9545 14.5466 1.1756
# 5 -21.2468 -2.8074 -12.8143 14.5466 39.9748 0.0245
# 6 8.5998 -3.4942 10.3937 1.1756 0.0245 23.6340
#
#
#
# Elastic Compliance Matrix: (Units=1/GPa)
#
#
# Indices 1 2 3 4 5 6 
#
# 1 0.008913 0.000452 -0.004613 0.000859 0.002978 -0.001193
# 2 0.000452 0.027323 0.000817 -0.023713 0.011047 0.004684
# 3 -0.004613 0.000817 0.019986 -0.010452 0.007819 -0.006478
# 4 0.000859 -0.023713 -0.010452 0.071755 -0.030669 -0.002759
# 5 0.002978 0.011047 0.007819 -0.030669 0.041042 -0.001406
# 6 -0.001193 0.004684 -0.006478 -0.002759 -0.001406 0.046426
#
#
# Mechanical properties :
#
#
# Convention : Reuss Voigt Hill
#
# Bulk Modulus (GPa) = 20.18893 40.30525 30.24709
# Shear Modulus (GPa) = 20.95160 32.71471 26.83316
#
# Velocity S-wave (km/s) = 2.92432 3.65416 3.30942
# Velocity P-wave (km/s) = 4.43199 5.85277 5.19121
#
# Compressibility (1/GPa) = 0.04953209
#
# Stress axis : x y z
#
# Youngs Moduli (GPa) = 112.19571 36.59940 50.03560
#
# Poissons Ratio (x) = -0.01653 0.23083
# Poissons Ratio (y) = -0.05066 -0.04088
# Poissons Ratio (z) = 0.51760 -0.02990
#
# Static dielectric constant tensor:
#      x y z
#    x 1.996060 0.103040 -0.009250 
#    y 0.103040 2.039020 0.005850 
#    z -0.009250 0.005850 1.937680 
# 
# From -- ./inp_files/447689.got.cif
#   From: 2010.05.17/outbox.cif.g08.bks.cpg/sg2_224_cif.got.tgz:447689.got - 2010.06.03 11:33:40.
