data_PCOD9089131
_publ_section_title
;
Structure prediction by ZEFSAII (Michael W. Deem and Ramdas Pophale) SiO2 
 PCOD9089131
Probable space group: P -1
;
_chemical_formula_sum "Si O2"
_cell_formula_units_Z 16
_cell_length_a 20.141707
_cell_length_b 7.611356
_cell_length_c 9.099926
_cell_angle_alpha 81.742731
_cell_angle_beta 29.335827
_cell_angle_gamma 76.171434
_cell_volume 657.497229
_symmetry_space_group_name_H-M "P -1"
_symmetry_group_IT_number 2
_symmetry_cell_setting 'triclinic'
loop_
_space_group_symop_operation_xyz
x,y,z
-x,-y,-z
loop_
_atom_site_type_symbol
_atom_site_label
_atom_site_fract_x
_atom_site_fract_y
_atom_site_fract_z
Si Si1 0.054440 0.491983 0.731705
Si Si2 0.516192 0.644500 0.824744
Si Si3 0.743872 0.337040 0.844663
Si Si4 0.823738 0.905799 0.816615
Si Si5 0.715399 0.789614 0.578700
Si Si6 0.256059 0.940956 0.747426
Si Si7 0.438053 0.081108 0.864034
Si Si8 0.104396 0.650613 0.171939
O O1 0.161572 0.616561 0.475342
O O2 0.151944 0.288582 0.568604
O O3 0.943476 0.496988 0.817723
O O4 0.000000 0.500000 0.000000
O O5 0.676570 0.656759 0.543697
O O6 0.455254 0.867286 0.903368
O O7 0.500000 0.500000 0.000000
O O8 0.419973 0.596693 0.884191
O O9 0.792224 0.427625 0.885210
O O10 0.796126 0.120972 0.800130
O O11 0.966675 0.783864 0.492667
O O12 0.687628 0.857667 0.014071
O O13 0.820370 0.917568 0.998521
O O14 0.740651 0.964850 0.426455
O O15 0.593243 0.820326 0.930687
O O16 0.419004 0.890053 0.482762
O O17 0.184746 0.772594 0.905902
#
# Coordination Sequence:
#
# PCOD9089131 Si02
#       8
#     2   2   2   2   2   2   2   2
#     4  12  27  41  64  94 134 174 220 273 332 390
#     4  10  19  37  65  94 126 164 211 264 324 378
#     4  10  22  42  66  92 127 172 215 267 331 383
#     4  10  21  40  70  93 129 176 216 271 322 391
#     4  11  23  42  63  97 130 175 216 272 329 385
#     4  10  21  37  67  98 130 161 224 266 320 389
#     4  10  21  40  67  96 132 175 215 270 322 388
#     4  11  24  44  66  94 133 177 219 270 324 397
#
# _framework density 24.334703999999999
#
# number of rings (size 3 to 8) (size 9 to 14) (size 15 to 20)
#    0.000    1.500    2.500    3.750    3.500    4.500 
#    0.000    0.000    0.000    3.750    0.000    0.000 
#    0.000    0.000    0.000    0.000    0.000    0.000 
#
# Total GULP energy -89257.664316 kJ/mol
# GULP energy per Si atom -5578.604020 kJ/mol
# Density = 2.427932 g / cm^3
# Si number density = 24.334704 Si / 1000 Ang^3
#
#
#
# Elastic Constant Matrix: (Units=GPa)
#
#
# Indices 1 2 3 4 5 6 
#
# 1 111.3256 4.5990 0.5984 9.7252 -21.5413 8.3178
# 2 4.5990 68.4508 18.5746 -15.4397 -4.1081 -5.4162
# 3 0.5984 18.5746 86.0050 -16.5506 1.7760 14.7358
# 4 9.7252 -15.4397 -16.5506 30.3184 1.1508 1.0655
# 5 -21.5413 -4.1081 1.7760 1.1508 36.8014 -1.7820
# 6 8.3178 -5.4162 14.7358 1.0655 -1.7820 22.6029
#
#
#
# Elastic Compliance Matrix: (Units=1/GPa)
#
#
# Indices 1 2 3 4 5 6 
#
# 1 0.010910 -0.001641 -0.000087 -0.004488 0.006171 -0.003653
# 2 -0.001641 0.018033 -0.003706 0.007386 0.001344 0.007099
# 3 -0.000087 -0.003706 0.015882 0.007299 -0.002026 -0.011714
# 4 -0.004488 0.007386 0.007299 0.042435 -0.003657 -0.003625
# 5 0.006171 0.001344 -0.002026 -0.003657 0.031244 0.002008
# 6 -0.003653 0.007099 -0.011714 -0.003625 0.002008 0.055254
#
#
# Mechanical properties :
#
#
# Convention : Reuss Voigt Hill
#
# Bulk Modulus (GPa) = 29.44786 34.81393 32.13089
# Shear Modulus (GPa) = 25.51757 34.07851 29.79804
#
# Velocity S-wave (km/s) = 3.24174 3.74626 3.50309
# Velocity P-wave (km/s) = 5.11266 5.74891 5.44009
#
# Compressibility (1/GPa) = 0.03395832
#
# Stress axis : x y z
#
# Youngs Moduli (GPa) = 91.65964 55.45297 62.96586
#
# Poissons Ratio (x) = 0.09097 0.00546
# Poissons Ratio (y) = 0.15037 0.23335
# Poissons Ratio (z) = 0.00795 0.20550
#
# Static dielectric constant tensor:
#      x y z
#    x 1.995370 0.022750 -0.020490 
#    y 0.022750 1.988200 0.039810 
#    z -0.020490 0.039810 1.951340 
# 
# From -- ./inp_files/342656.got.cif
#   From: 2010.05.17/outbox.cif.g08.bks.cpg/sg2_172_cif.got.tgz:342656.got - 2010.06.03 11:33:40.
