data_PCOD9089168
_publ_section_title
;
Structure prediction by ZEFSAII (Michael W. Deem and Ramdas Pophale) SiO2 
 PCOD9089168
Probable space group: P -1
;
_chemical_formula_sum "Si O2"
_cell_formula_units_Z 14
_cell_length_a 13.520121
_cell_length_b 24.617445
_cell_length_c 17.032882
_cell_angle_alpha 16.567419
_cell_angle_beta 25.601475
_cell_angle_gamma 24.769716
_cell_volume 653.272827
_symmetry_space_group_name_H-M "P -1"
_symmetry_group_IT_number 2
_symmetry_cell_setting 'triclinic'
loop_
_space_group_symop_operation_xyz
x,y,z
-x,-y,-z
loop_
_atom_site_type_symbol
_atom_site_label
_atom_site_fract_x
_atom_site_fract_y
_atom_site_fract_z
Si Si1 0.757421 0.369664 0.404238
Si Si2 0.559845 0.580433 0.097502
Si Si3 0.146598 0.769985 0.744035
Si Si4 0.968197 0.135504 0.914195
Si Si5 0.515490 0.091253 0.587853
Si Si6 0.243105 0.077043 0.506450
Si Si7 0.693015 0.702931 0.115504
O O1 0.677699 0.524968 0.175347
O O2 0.765578 0.491651 0.308624
O O3 0.550694 0.271606 0.697714
O O4 0.019959 0.203888 0.433636
O O5 0.679670 0.381717 0.234451
O O6 0.268522 0.659309 0.206607
O O7 0.639032 0.769139 0.752188
O O8 0.326598 0.778310 0.673294
O O9 0.000000 0.000000 0.500000
O O10 0.918160 0.694524 0.021271
O O11 0.223224 0.167205 0.704141
O O12 0.888665 0.018231 0.204246
O O13 0.000000 0.000000 0.000000
O O14 0.562923 0.061300 0.502561
O O15 0.621772 0.881996 0.853088
#
# Coordination Sequence:
#
# PCOD9089168 Si02
#       7
#     2   2   2   2   2   2   2
#     4  11  20  36  69 102 125 164 231 279 318 383
#     4  12  24  41  69 101 134 178 222 273 338 393
#     4  10  23  42  65  97 138 176 220 277 333 393
#     4  12  26  44  69 102 137 170 225 277 328 402
#     4  11  23  45  64  94 141 177 215 275 331 397
#     4  12  23  43  72  97 132 174 224 277 334 388
#     4  10  19  37  65  99 131 169 217 281 328 373
#
# _framework density 21.430555999999999
#
# number of rings (size 3 to 8) (size 9 to 14) (size 15 to 20)
#    0.000    0.857    5.714    2.571    2.000    0.571 
#    2.571    2.857    0.000    0.000    0.000    0.000 
#    0.000    0.000    0.000    0.000    0.000    0.000 
#
# Total GULP energy -78189.443483 kJ/mol
# GULP energy per Si atom -5584.960249 kJ/mol
# Density = 2.138178 g / cm^3
# Si number density = 21.430556 Si / 1000 Ang^3
#
#
#
# Elastic Constant Matrix: (Units=GPa)
#
#
# Indices 1 2 3 4 5 6 
#
# 1 92.3733 41.9817 46.7429 13.0840 -13.8850 -15.6567
# 2 41.9817 137.9845 36.9259 15.4251 -16.5139 -14.4390
# 3 46.7429 36.9259 70.4400 25.9597 -11.4553 5.6451
# 4 13.0840 15.4251 25.9597 34.1248 3.5335 -6.3959
# 5 -13.8850 -16.5139 -11.4553 3.5335 35.5662 7.5435
# 6 -15.6567 -14.4390 5.6451 -6.3959 7.5435 36.7519
#
#
#
# Elastic Compliance Matrix: (Units=1/GPa)
#
#
# Indices 1 2 3 4 5 6 
#
# 1 0.021292 -0.001506 -0.017940 0.008818 -0.001829 0.013144
# 2 -0.001506 0.009283 -0.003611 -0.000499 0.001957 0.003071
# 3 -0.017940 -0.003611 0.043129 -0.030097 0.013214 -0.023636
# 4 0.008818 -0.000499 -0.030097 0.054689 -0.016384 0.021064
# 5 -0.001829 0.001957 0.013214 -0.016384 0.036836 -0.012452
# 6 0.013144 0.003071 -0.023636 0.021064 -0.012452 0.043868
#
#
# Mechanical properties :
#
#
# Convention : Reuss Voigt Hill
#
# Bulk Modulus (GPa) = 36.24490 61.34431 48.79460
# Shear Modulus (GPa) = 18.91014 32.96509 25.93761
#
# Velocity S-wave (km/s) = 2.97373 3.92628 3.48272
# Velocity P-wave (km/s) = 5.36099 7.01720 6.24425
#
# Compressibility (1/GPa) = 0.02759009
#
# Stress axis : x y z
#
# Youngs Moduli (GPa) = 46.96536 107.72131 23.18624
#
# Poissons Ratio (x) = 0.16227 0.41596
# Poissons Ratio (y) = 0.07075 0.08372
# Poissons Ratio (z) = 0.84256 0.38896
#
# Static dielectric constant tensor:
#      x y z
#    x 1.794820 -0.025440 -0.005050 
#    y -0.025440 1.777260 -0.025470 
#    z -0.005050 -0.025470 1.813660 
# 
# From -- ./inp_files/258361.got.cif
#   From: 2010.05.17/outbox.cif.g08.bks.cpg/sg2_130_cif.got.tgz:258361.got - 2010.06.03 11:33:40.
