data_PCOD9089933
_publ_section_title
;
Structure prediction by ZEFSAII (Michael W. Deem and Ramdas Pophale) SiO2 
 PCOD9089933
Probable space group: P -1
;
_chemical_formula_sum "Si O2"
_cell_formula_units_Z 16
_cell_length_a 13.960880
_cell_length_b 20.185778
_cell_length_c 9.564407
_cell_angle_alpha 130.280229
_cell_angle_beta 27.140916
_cell_angle_gamma 143.896003
_cell_volume 697.709620
_symmetry_space_group_name_H-M "P -1"
_symmetry_group_IT_number 2
_symmetry_cell_setting 'triclinic'
loop_
_space_group_symop_operation_xyz
x,y,z
-x,-y,-z
loop_
_atom_site_type_symbol
_atom_site_label
_atom_site_fract_x
_atom_site_fract_y
_atom_site_fract_z
Si Si1 0.224707 0.049174 0.590317
Si Si2 0.957890 0.442886 0.286688
Si Si3 0.059913 0.646538 0.119237
Si Si4 0.347540 0.226385 0.445783
Si Si5 0.579696 0.923924 0.329373
Si Si6 0.361810 0.687543 0.215091
Si Si7 0.037784 0.179688 0.521496
Si Si8 0.554058 0.548632 0.335397
O O1 0.324682 0.148318 0.486875
O O2 0.428566 0.097042 0.523043
O O3 0.183029 0.941253 0.436380
O O4 0.906989 0.993556 0.964188
O O5 0.689598 0.354453 0.613523
O O6 0.761366 0.544048 0.439950
O O7 0.920515 0.402660 0.119423
O O8 0.203925 0.445863 0.028438
O O9 0.101719 0.574326 0.314345
O O10 0.058666 0.748979 0.230753
O O11 0.334716 0.697811 0.919573
O O12 0.114586 0.152957 0.529545
O O13 0.337497 0.323535 0.637548
O O14 0.391054 0.799827 0.327626
O O15 0.500000 0.000000 0.500000
O O16 0.662231 0.734797 0.833560
O O17 0.500000 0.500000 0.500000
#
# Coordination Sequence:
#
# PCOD9089933 Si02
#       8
#     2   2   2   2   2   2   2   2
#     4  10  25  42  64 100 129 171 229 271 324 392
#     4  10  19  38  67  96 127 171 219 273 324 397
#     4  11  22  39  67  93 132 175 220 266 338 388
#     4  12  23  38  67  96 133 175 223 269 319 394
#     4  10  23  45  69  91 135 176 213 276 338 387
#     4  10  21  37  68  94 127 171 219 265 334 383
#     4  11  22  43  63  96 141 172 215 279 324 386
#     4  10  19  38  62  92 130 173 215 266 330 378
#
# _framework density 22.932178
#
# number of rings (size 3 to 8) (size 9 to 14) (size 15 to 20)
#    0.000    1.500    3.750    2.250    1.750    3.500 
#    0.000    0.000    2.750    3.000    0.000    0.000 
#    0.000    0.000    0.000    0.000    0.000    0.000 
#
# Total GULP energy -89438.302376 kJ/mol
# GULP energy per Si atom -5589.893898 kJ/mol
# Density = 2.287998 g / cm^3
# Si number density = 22.932178 Si / 1000 Ang^3
#
#
#
# Elastic Constant Matrix: (Units=GPa)
#
#
# Indices 1 2 3 4 5 6 
#
# 1 61.2783 35.3256 28.5796 18.9587 2.8061 -3.2052
# 2 35.3256 148.1542 29.4975 30.2533 6.6231 0.9609
# 3 28.5796 29.4975 50.0888 21.2206 0.5529 -9.7697
# 4 18.9587 30.2533 21.2206 35.9176 -7.4885 6.5402
# 5 2.8061 6.6231 0.5529 -7.4885 25.0619 -7.6328
# 6 -3.2052 0.9609 -9.7697 6.5402 -7.6328 30.6199
#
#
#
# Elastic Compliance Matrix: (Units=1/GPa)
#
#
# Indices 1 2 3 4 5 6 
#
# 1 0.024310 -0.002515 -0.010123 -0.005412 -0.003554 -0.000336
# 2 -0.002515 0.009091 -0.001342 -0.006284 -0.004175 -0.000675
# 3 -0.010123 -0.001342 0.037077 -0.018156 -0.000304 0.014615
# 4 -0.005412 -0.006284 -0.018156 0.052161 0.014050 -0.013801
# 5 -0.003554 -0.004175 -0.000304 0.014050 0.048254 0.008690
# 6 -0.000336 -0.000675 0.014615 -0.013801 0.008690 0.042422
#
#
# Mechanical properties :
#
#
# Convention : Reuss Voigt Hill
#
# Bulk Modulus (GPa) = 23.51941 49.59188 36.55564
# Shear Modulus (GPa) = 19.57368 29.39444 24.48406
#
# Velocity S-wave (km/s) = 2.92472 3.58411 3.27107
# Velocity P-wave (km/s) = 4.65657 6.22898 5.49926
#
# Compressibility (1/GPa) = 0.04251808
#
# Stress axis : x y z
#
# Youngs Moduli (GPa) = 41.13614 110.00160 26.97104
#
# Poissons Ratio (x) = 0.27661 0.27303
# Poissons Ratio (y) = 0.10344 0.03619
# Poissons Ratio (z) = 0.41642 0.14761
#
# Static dielectric constant tensor:
#      x y z
#    x 1.878710 0.004110 0.033640 
#    y 0.004110 1.866400 -0.027900 
#    z 0.033640 -0.027900 1.880810 
# 
# From -- ./inp_files/279669.got.cif
#   From: 2010.05.17/outbox.cif.g08.bks.cpg/sg2_140_cif.got.tgz:279669.got - 2010.06.03 11:33:40.
