data_PCOD9089434
_publ_section_title
;
Structure prediction by ZEFSAII (Michael W. Deem and Ramdas Pophale) SiO2 
 PCOD9089434
Probable space group: P -1
;
_chemical_formula_sum "Si O2"
_cell_formula_units_Z 14
_cell_length_a 23.476519
_cell_length_b 14.009015
_cell_length_c 17.139335
_cell_angle_alpha 158.825412
_cell_angle_beta 20.230729
_cell_angle_gamma 152.136167
_cell_volume 702.209217
_symmetry_space_group_name_H-M "P -1"
_symmetry_group_IT_number 2
_symmetry_cell_setting 'triclinic'
loop_
_space_group_symop_operation_xyz
x,y,z
-x,-y,-z
loop_
_atom_site_type_symbol
_atom_site_label
_atom_site_fract_x
_atom_site_fract_y
_atom_site_fract_z
Si Si1 0.028550 0.190503 0.229305
Si Si2 0.795707 0.870386 0.731562
Si Si3 0.718826 0.739261 0.440189
Si Si4 0.210065 0.223802 0.871656
Si Si5 0.005888 0.591039 0.151292
Si Si6 0.482595 0.762535 0.614111
Si Si7 0.048922 0.778891 0.473421
O O1 0.027818 0.135484 0.280100
O O2 0.000000 0.500000 0.500000
O O3 0.880471 0.013994 0.243546
O O4 0.181944 0.158301 0.949402
O O5 0.828218 0.637810 0.451265
O O6 0.907806 0.797507 0.604869
O O7 0.882818 0.134952 0.782464
O O8 0.621538 0.977783 0.059578
O O9 0.596376 0.794048 0.569406
O O10 0.627877 0.514224 0.440585
O O11 0.796080 0.010789 0.585822
O O12 0.881858 0.605376 0.097470
O O13 0.397144 0.261186 0.631410
O O14 0.117987 0.490638 0.174527
O O15 0.000000 0.500000 0.000000
#
# Coordination Sequence:
#
# PCOD9089434 Si02
#       7
#     2   2   2   2   2   2   2
#     4   9  20  38  64  86 109 153 206 247 290 356
#     4  10  22  34  57  84 119 157 199 241 286 342
#     4  10  20  36  57  85 125 159 197 232 289 355
#     4  10  20  38  62  87 118 150 200 251 295 347
#     4  10  19  38  54  78 117 166 198 226 272 358
#     4  10  21  38  54  90 128 156 191 247 297 345
#     4  11  20  36  62  90 112 161 206 235 286 361
#
# _framework density 19.937078
#
# number of rings (size 3 to 8) (size 9 to 14) (size 15 to 20)
#    0.000    2.000    2.857    0.857    0.000    1.714 
#    5.143    0.714    0.000    7.714    0.000    0.000 
#    0.000    0.000    0.000    0.000    0.000    0.000 
#
# Total GULP energy -78004.570384 kJ/mol
# GULP energy per Si atom -5571.755027 kJ/mol
# Density = 1.989170 g / cm^3
# Si number density = 19.937078 Si / 1000 Ang^3
#
#
#
# Elastic Constant Matrix: (Units=GPa)
#
#
# Indices 1 2 3 4 5 6 
#
# 1 92.6748 24.6077 47.1003 -8.5831 9.3001 3.2965
# 2 24.6077 77.4467 50.2800 -5.3591 12.7318 -10.7383
# 3 47.1003 50.2800 126.7753 -9.1913 -1.4129 -0.7863
# 4 -8.5831 -5.3591 -9.1913 30.0610 -1.0630 9.3384
# 5 9.3001 12.7318 -1.4129 -1.0630 34.3181 -4.0918
# 6 3.2965 -10.7383 -0.7863 9.3384 -4.0918 21.2742
#
#
#
# Elastic Compliance Matrix: (Units=1/GPa)
#
#
# Indices 1 2 3 4 5 6 
#
# 1 0.014517 -0.001461 -0.004597 0.004123 -0.004141 -0.005763
# 2 -0.001461 0.020841 -0.007917 -0.002560 -0.006510 0.010325
# 3 -0.004597 -0.007917 0.012934 0.002309 0.004433 -0.002967
# 4 0.004123 -0.002560 0.002309 0.040868 -0.001193 -0.020014
# 5 -0.004141 -0.006510 0.004433 -0.001193 0.033354 0.004458
# 6 -0.005763 0.010325 -0.002967 -0.020014 0.004458 0.062643
#
#
# Mechanical properties :
#
#
# Convention : Reuss Voigt Hill
#
# Bulk Modulus (GPa) = 49.15941 60.09697 54.62819
# Shear Modulus (GPa) = 22.73894 28.79125 25.76509
#
# Velocity S-wave (km/s) = 3.38084 3.80426 3.59879
# Velocity P-wave (km/s) = 6.32068 7.03600 6.68791
#
# Compressibility (1/GPa) = 0.02034199
#
# Stress axis : x y z
#
# Youngs Moduli (GPa) = 68.88444 47.98264 77.31490
#
# Poissons Ratio (x) = 0.07012 0.35541
# Poissons Ratio (y) = 0.10066 0.61209
# Poissons Ratio (z) = 0.31665 0.37987
#
# Static dielectric constant tensor:
#      x y z
#    x 1.724730 0.016260 0.030520 
#    y 0.016260 1.628700 0.015980 
#    z 0.030520 0.015980 1.769930 
# 
# From -- ./inp_files/33233.got.cif
#   From: 2010.05.17/outbox.cif.g08.bks.cpg/sg2_17_cif.got.tgz:33233.got - 2010.06.03 11:33:40.
