data_PCOD9089224
_publ_section_title
;
Structure prediction by ZEFSAII (Michael W. Deem and Ramdas Pophale) SiO2 
 PCOD9089224
Probable space group: P -1
;
_chemical_formula_sum "Si O2"
_cell_formula_units_Z 16
_cell_length_a 29.460155
_cell_length_b 9.158396
_cell_length_c 14.667363
_cell_angle_alpha 128.337057
_cell_angle_beta 21.072102
_cell_angle_gamma 140.308619
_cell_volume 822.248095
_symmetry_space_group_name_H-M "P -1"
_symmetry_group_IT_number 2
_symmetry_cell_setting 'triclinic'
loop_
_space_group_symop_operation_xyz
x,y,z
-x,-y,-z
loop_
_atom_site_type_symbol
_atom_site_label
_atom_site_fract_x
_atom_site_fract_y
_atom_site_fract_z
Si Si1 0.481086 0.654944 0.366306
Si Si2 0.368473 0.357057 0.275275
Si Si3 0.667120 0.676229 0.187931
Si Si4 0.232028 0.577810 0.561125
Si Si5 0.869849 0.266067 0.029668
Si Si6 0.182059 0.573037 0.189690
Si Si7 0.275645 0.745774 0.877917
Si Si8 0.566079 0.992869 0.971556
O O1 0.441807 0.526432 0.293763
O O2 0.582075 0.609303 0.221437
O O3 0.322973 0.585925 0.691662
O O4 0.590132 0.951824 0.267003
O O5 0.219562 0.345968 0.517396
O O6 0.500000 0.500000 0.000000
O O7 0.341313 0.115155 0.253817
O O8 0.500000 0.500000 0.500000
O O9 0.795303 0.628663 0.934859
O O10 0.774872 0.974779 0.111523
O O11 0.399214 0.794152 0.272079
O O12 0.062454 0.460940 0.779433
O O13 0.234230 0.691054 0.696201
O O14 0.868192 0.325432 0.950241
O O15 0.000000 0.500000 0.500000
O O16 0.256391 0.712827 0.008251
O O17 0.299145 0.749369 0.124464
O O18 0.500000 0.000000 0.000000
#
# Coordination Sequence:
#
# PCOD9089224 Si02
#       8
#     2   2   2   2   2   2   2   2
#     4  10  19  37  66  94 118 165 223 263 316 388
#     4  10  20  36  62  88 123 163 213 257 313 387
#     4  11  22  40  66  95 129 167 217 266 329 391
#     4  10  21  40  64  92 126 166 222 258 325 385
#     4  10  22  38  65  96 125 162 213 285 316 376
#     4  12  27  43  65  96 138 171 214 273 331 385
#     4  10  20  38  65  92 128 164 215 272 327 375
#     4  11  25  43  65  89 133 179 212 256 327 397
#
# _framework density 19.458846999999999
#
# number of rings (size 3 to 8) (size 9 to 14) (size 15 to 20)
#    0.000    1.500    2.500    3.000    5.250    0.000 
#    0.000    1.250    0.000    4.500    0.000    0.000 
#    0.000    0.000    0.000    0.000    0.000    0.000 
#
# Total GULP energy -89118.360894 kJ/mol
# GULP energy per Si atom -5569.897556 kJ/mol
# Density = 1.941456 g / cm^3
# Si number density = 19.458847 Si / 1000 Ang^3
#
#
#
# Elastic Constant Matrix: (Units=GPa)
#
#
# Indices 1 2 3 4 5 6 
#
# 1 104.9492 19.6690 19.5262 7.0892 5.6778 0.7010
# 2 19.6690 74.8473 20.4973 26.0436 -8.0680 -6.1440
# 3 19.5262 20.4973 62.5027 18.2434 -12.5912 -4.0388
# 4 7.0892 26.0436 18.2434 28.7482 0.2573 -6.6405
# 5 5.6778 -8.0680 -12.5912 0.2573 21.5240 7.7335
# 6 0.7010 -6.1440 -4.0388 -6.6405 7.7335 39.5890
#
#
#
# Elastic Compliance Matrix: (Units=1/GPa)
#
#
# Indices 1 2 3 4 5 6 
#
# 1 0.011293 -0.003773 -0.004960 0.004054 -0.007661 0.000885
# 2 -0.003773 0.022192 0.002314 -0.021231 0.011674 -0.002095
# 3 -0.004960 0.002314 0.025610 -0.018131 0.018679 -0.003630
# 4 0.004054 -0.021231 -0.018131 0.067240 -0.024323 0.010814
# 5 -0.007661 0.011674 0.018679 -0.024323 0.068999 -0.013705
# 6 0.000885 -0.002095 -0.003630 0.010814 -0.013705 0.029040
#
#
# Mechanical properties :
#
#
# Convention : Reuss Voigt Hill
#
# Bulk Modulus (GPa) = 21.61810 40.18715 30.90262
# Shear Modulus (GPa) = 19.79170 30.14601 24.96885
#
# Velocity S-wave (km/s) = 3.19267 3.94028 3.58601
# Velocity P-wave (km/s) = 4.97239 6.43415 5.74991
#
# Compressibility (1/GPa) = 0.04625754
#
# Stress axis : x y z
#
# Youngs Moduli (GPa) = 88.54917 45.06102 39.04662
#
# Poissons Ratio (x) = 0.17002 0.19368
# Poissons Ratio (y) = 0.33411 -0.09037
# Poissons Ratio (z) = 0.43922 -0.10428
#
# Static dielectric constant tensor:
#      x y z
#    x 1.692570 -0.015320 -0.004230 
#    y -0.015320 1.685960 0.033600 
#    z -0.004230 0.033600 1.727460 
# 
# From -- ./inp_files/320267.got.cif
#   From: 2010.05.17/outbox.cif.g08.bks.cpg/sg2_161_cif.got.tgz:320267.got - 2010.06.03 11:33:40.
