data_PCOD9089300
_publ_section_title
;
Structure prediction by ZEFSAII (Michael W. Deem and Ramdas Pophale) SiO2 
 PCOD9089300
Probable space group: P -1
;
_chemical_formula_sum "Si O2"
_cell_formula_units_Z 16
_cell_length_a 14.573805
_cell_length_b 29.922789
_cell_length_c 11.587345
_cell_angle_alpha 28.340038
_cell_angle_beta 151.188761
_cell_angle_gamma 162.288226
_cell_volume 704.341096
_symmetry_space_group_name_H-M "P -1"
_symmetry_group_IT_number 2
_symmetry_cell_setting 'triclinic'
loop_
_space_group_symop_operation_xyz
x,y,z
-x,-y,-z
loop_
_atom_site_type_symbol
_atom_site_label
_atom_site_fract_x
_atom_site_fract_y
_atom_site_fract_z
Si Si1 0.858920 0.505599 0.187570
Si Si2 0.985541 0.236981 0.924930
Si Si3 0.147123 0.983171 0.876280
Si Si4 0.640712 0.565348 0.631180
Si Si5 0.357412 0.754263 0.350082
Si Si6 0.650698 0.090846 0.338903
Si Si7 0.373449 0.558969 0.551254
Si Si8 0.928362 0.094296 0.418494
O O1 0.637576 0.353032 0.367373
O O2 0.064119 0.649700 0.174229
O O3 0.110928 0.531950 0.352542
O O4 0.679524 0.489040 0.928310
O O5 0.904481 0.141053 0.164874
O O6 0.283196 0.424851 0.820823
O O7 0.977680 0.166254 0.966205
O O8 0.710691 0.207225 0.702643
O O9 0.339550 0.098895 0.717254
O O10 0.911227 0.974279 0.666462
O O11 0.402411 0.067832 0.065573
O O12 0.500000 0.500000 0.500000
O O13 0.408063 0.543510 0.492118
O O14 0.999970 0.739893 0.628841
O O15 0.718693 0.050534 0.393163
O O16 0.500000 0.000000 0.500000
O O17 0.708157 0.735727 0.542991
#
# Coordination Sequence:
#
# PCOD9089300 Si02
#       8
#     2   2   2   2   2   2   2   2
#     4  10  20  40  65  99 131 178 220 274 339 403
#     4  11  23  37  65 106 140 174 210 280 346 408
#     4  12  23  42  66  98 145 173 223 274 348 408
#     4  11  24  43  68  98 132 175 235 286 327 394
#     4  10  19  37  67  95 136 176 213 266 343 408
#     4  11  26  47  69  89 135 189 231 274 338 406
#     4  10  22  40  66  96 135 174 227 270 339 400
#     4  11  22  42  68 100 131 180 223 280 334 409
#
# _framework density 22.716265
#
# number of rings (size 3 to 8) (size 9 to 14) (size 15 to 20)
#    0.000    1.250    3.750    1.875    3.500    1.000 
#    0.000    0.000    0.000    0.000    0.000    0.000 
#    0.000    0.000    0.000    0.000    0.000    0.000 
#
# Total GULP energy -89380.670193 kJ/mol
# GULP energy per Si atom -5586.291887 kJ/mol
# Density = 2.266456 g / cm^3
# Si number density = 22.716265 Si / 1000 Ang^3
#
#
#
# Elastic Constant Matrix: (Units=GPa)
#
#
# Indices 1 2 3 4 5 6 
#
# 1 130.2337 46.3109 56.3818 1.9516 -4.7317 -3.5020
# 2 46.3109 67.2713 42.1372 4.8526 1.5851 -8.2821
# 3 56.3818 42.1372 97.4897 5.5054 4.1549 -6.4453
# 4 1.9516 4.8526 5.5054 32.4471 -3.9735 -3.7284
# 5 -4.7317 1.5851 4.1549 -3.9735 36.8925 -3.3018
# 6 -3.5020 -8.2821 -6.4453 -3.7284 -3.3018 43.7222
#
#
#
# Elastic Compliance Matrix: (Units=1/GPa)
#
#
# Indices 1 2 3 4 5 6 
#
# 1 0.011618 -0.005296 -0.004623 0.001105 0.002314 -0.000485
# 2 -0.005296 0.023150 -0.006621 -0.001810 -0.000876 0.002765
# 3 -0.004623 -0.006621 0.016011 -0.001676 -0.002254 0.000423
# 4 0.001105 -0.001810 -0.001676 0.032102 0.004094 0.002545
# 5 0.002314 -0.000876 -0.002254 0.004094 0.028330 0.002176
# 6 -0.000485 0.002765 0.000423 0.002545 0.002176 0.023800
#
#
# Mechanical properties :
#
#
# Convention : Reuss Voigt Hill
#
# Bulk Modulus (GPa) = 56.49896 64.96159 60.73027
# Shear Modulus (GPa) = 28.73743 32.62334 30.68039
#
# Velocity S-wave (km/s) = 3.56063 3.79373 3.67903
# Velocity P-wave (km/s) = 6.46759 6.91729 6.69621
#
# Compressibility (1/GPa) = 0.01769944
#
# Stress axis : x y z
#
# Youngs Moduli (GPa) = 86.07603 43.19722 62.45583
#
# Poissons Ratio (x) = 0.22878 0.28873
# Poissons Ratio (y) = 0.45587 0.41349
# Poissons Ratio (z) = 0.39792 0.28599
#
# Static dielectric constant tensor:
#      x y z
#    x 1.850690 -0.010780 0.043940 
#    y -0.010780 1.941320 -0.006370 
#    z 0.043940 -0.006370 1.868490 
# 
# From -- ./inp_files/458381.got.cif
#   From: 2010.05.17/outbox.cif.g08.bks.cpg/sg2_230_cif.got.tgz:458381.got - 2010.06.03 11:33:40.
