data_PCOD9089632
_publ_section_title
;
Structure prediction by ZEFSAII (Michael W. Deem and Ramdas Pophale) SiO2 
 PCOD9089632
Probable space group: P -1
;
_chemical_formula_sum "Si O2"
_cell_formula_units_Z 16
_cell_length_a 9.792615
_cell_length_b 8.984019
_cell_length_c 24.825708
_cell_angle_alpha 130.451357
_cell_angle_beta 29.485360
_cell_angle_gamma 118.489876
_cell_volume 795.261985
_symmetry_space_group_name_H-M "P -1"
_symmetry_group_IT_number 2
_symmetry_cell_setting 'triclinic'
loop_
_space_group_symop_operation_xyz
x,y,z
-x,-y,-z
loop_
_atom_site_type_symbol
_atom_site_label
_atom_site_fract_x
_atom_site_fract_y
_atom_site_fract_z
Si Si1 0.786858 0.725722 0.620431
Si Si2 0.826352 0.904745 0.329995
Si Si3 0.231362 0.996906 0.512101
Si Si4 0.711483 0.051775 0.074871
Si Si5 0.426451 0.253721 0.417089
Si Si6 0.493732 0.792518 0.922713
Si Si7 0.445953 0.701723 0.032896
Si Si8 0.124265 0.711852 0.650527
O O1 0.563121 0.818857 0.766711
O O2 0.583956 0.747969 0.643279
O O3 0.000000 0.500000 0.500000
O O4 0.997366 0.868943 0.566110
O O5 0.547926 0.866336 0.387675
O O6 0.114653 0.807788 0.178637
O O7 0.833186 0.853445 0.378702
O O8 0.808749 0.144755 0.385999
O O9 0.261734 0.110930 0.473131
O O10 0.734487 0.171698 0.038942
O O11 0.623783 0.850991 0.034323
O O12 0.000000 0.000000 0.000000
O O13 0.274207 0.482320 0.536883
O O14 0.740898 0.210500 0.324517
O O15 0.795097 0.728651 0.774975
O O16 0.488968 0.654460 0.943557
O O17 0.500000 0.000000 0.000000
O O18 0.500000 0.500000 0.000000
#
# Coordination Sequence:
#
# PCOD9089632 Si02
#       8
#     2   2   2   2   2   2   2   2
#     4  12  24  41  62  89 132 170 214 255 334 381
#     4  10  19  38  60  84 123 157 205 260 312 367
#     4  10  21  37  58  87 121 162 199 263 314 368
#     4  11  25  43  66  96 132 168 216 275 324 385
#     4  10  23  34  63  91 122 161 210 261 315 385
#     4  10  20  38  64  84 124 167 213 251 319 377
#     4  11  24  41  65  95 125 172 220 264 319 388
#     4  10  19  39  60  94 118 161 214 259 309 382
#
# _framework density 20.119156
#
# number of rings (size 3 to 8) (size 9 to 14) (size 15 to 20)
#    0.000    1.500    3.750    1.875    5.250    2.000 
#    0.000    0.625    0.000    0.000    0.000    0.000 
#    0.000    0.000    0.000    0.000    0.000    0.000 
#
# Total GULP energy -89140.105514 kJ/mol
# GULP energy per Si atom -5571.256595 kJ/mol
# Density = 2.007336 g / cm^3
# Si number density = 20.119156 Si / 1000 Ang^3
#
#
#
# Elastic Constant Matrix: (Units=GPa)
#
#
# Indices 1 2 3 4 5 6 
#
# 1 162.6897 33.1419 37.6746 -10.0371 8.9945 -23.7412
# 2 33.1419 65.6249 23.0936 1.1409 3.8506 -20.3818
# 3 37.6746 23.0936 67.3801 -12.0464 -8.8235 0.2646
# 4 -10.0371 1.1409 -12.0464 22.6340 0.0395 -1.3729
# 5 8.9945 3.8506 -8.8235 0.0395 29.9533 -8.4305
# 6 -23.7412 -20.3818 0.2646 -1.3729 -8.4305 34.3606
#
#
#
# Elastic Compliance Matrix: (Units=1/GPa)
#
#
# Indices 1 2 3 4 5 6 
#
# 1 0.008263 -0.001167 -0.004225 0.001755 -0.002296 0.004556
# 2 -0.001167 0.022721 -0.008354 -0.005370 -0.001611 0.012126
# 3 -0.004225 -0.008354 0.022920 0.010381 0.007446 -0.005809
# 4 0.001755 -0.005370 0.010381 0.050798 0.003381 0.000806
# 5 -0.002296 -0.001611 0.007446 0.003381 0.038431 0.006965
# 6 0.004556 0.012126 -0.005809 0.000806 0.006965 0.041230
#
#
# Mechanical properties :
#
#
# Convention : Reuss Voigt Hill
#
# Bulk Modulus (GPa) = 37.85961 53.72386 45.79174
# Shear Modulus (GPa) = 22.65944 30.84189 26.75067
#
# Velocity S-wave (km/s) = 3.35962 3.91955 3.65034
# Velocity P-wave (km/s) = 5.82306 6.87348 6.36995
#
# Compressibility (1/GPa) = 0.02641337
#
# Stress axis : x y z
#
# Youngs Moduli (GPa) = 121.02384 44.01216 43.62935
#
# Poissons Ratio (x) = 0.05135 0.18433
# Poissons Ratio (y) = 0.14121 0.36447
# Poissons Ratio (z) = 0.51132 0.36766
#
# Static dielectric constant tensor:
#      x y z
#    x 1.823570 -0.036410 0.008880 
#    y -0.036410 1.758760 -0.011050 
#    z 0.008880 -0.011050 1.634360 
# 
# From -- ./inp_files/299329.got.cif
#   From: 2010.05.17/outbox.cif.g08.bks.cpg/sg2_150_cif.got.tgz:299329.got - 2010.06.03 11:33:40.
