data_PCOD9089660
_publ_section_title
;
Structure prediction by ZEFSAII (Michael W. Deem and Ramdas Pophale) SiO2 
 PCOD9089660
Probable space group: P -1
;
_chemical_formula_sum "Si O2"
_cell_formula_units_Z 14
_cell_length_a 16.127208
_cell_length_b 7.058042
_cell_length_c 9.411954
_cell_angle_alpha 63.760184
_cell_angle_beta 136.640134
_cell_angle_gamma 94.240919
_cell_volume 604.125635
_symmetry_space_group_name_H-M "P -1"
_symmetry_group_IT_number 2
_symmetry_cell_setting 'triclinic'
loop_
_space_group_symop_operation_xyz
x,y,z
-x,-y,-z
loop_
_atom_site_type_symbol
_atom_site_label
_atom_site_fract_x
_atom_site_fract_y
_atom_site_fract_z
Si Si1 0.546890 0.621294 0.694538
Si Si2 0.251391 0.144857 0.665972
Si Si3 0.113274 0.599113 0.478644
Si Si4 0.599233 0.992664 0.821430
Si Si5 0.174749 0.760004 0.775025
Si Si6 0.864589 0.039990 0.048028
Si Si7 0.293043 0.535239 0.479602
O O1 0.560385 0.798127 0.768391
O O2 0.432632 0.543941 0.626726
O O3 0.504053 0.763623 0.447298
O O4 0.686346 0.410075 0.927453
O O5 0.128908 0.349991 0.524467
O O6 0.288768 0.282985 0.543451
O O7 0.208052 0.937435 0.657065
O O8 0.370401 0.051666 0.959812
O O9 0.127920 0.609931 0.661847
O O10 0.240533 0.603514 0.552957
O O11 0.983165 0.820194 0.204740
O O12 0.738590 0.976811 0.935770
O O13 0.095678 0.897111 0.768086
O O14 0.813780 0.270030 0.814589
#
# Coordination Sequence:
#
# PCOD9089660 Si02
#       7
#     2   2   2   2   2   2   2
#     4  10  19  38  60  87 122 147 207 233 295 354
#     4   9  21  37  58  90 116 153 199 227 311 330
#     4  10  21  41  62  84 123 155 196 241 290 355
#     4   9  19  35  59  87 112 159 189 241 288 346
#     4  11  22  37  61  90 117 157 193 248 286 348
#     4  10  21  39  62  87 120 154 199 239 299 339
#     4   9  21  39  62  85 118 163 186 246 295 347
#
# _framework density 23.173987
#
# number of rings (size 3 to 8) (size 9 to 14) (size 15 to 20)
#    0.857    1.429    1.429    0.857    0.000   10.286 
#    2.571    6.429    0.000    0.000    0.000    0.000 
#    0.000    0.000    0.000    0.000    0.000    0.000 
#
# Total GULP energy -78185.143207 kJ/mol
# GULP energy per Si atom -5584.653086 kJ/mol
# Density = 2.312124 g / cm^3
# Si number density = 23.173987 Si / 1000 Ang^3
#
#
#
# Elastic Constant Matrix: (Units=GPa)
#
#
# Indices 1 2 3 4 5 6 
#
# 1 63.4902 14.1552 7.3204 -5.3001 -0.4412 7.2121
# 2 14.1552 61.0978 -4.5026 -12.0295 4.9001 7.7220
# 3 7.3204 -4.5026 91.4640 -21.9907 -2.3397 19.0623
# 4 -5.3001 -12.0295 -21.9907 38.8463 3.0117 -7.4296
# 5 -0.4412 4.9001 -2.3397 3.0117 28.9942 -9.1423
# 6 7.2121 7.7220 19.0623 -7.4296 -9.1423 29.2188
#
#
#
# Elastic Compliance Matrix: (Units=1/GPa)
#
#
# Indices 1 2 3 4 5 6 
#
# 1 0.016979 -0.003649 -0.000969 0.000150 -0.000027 -0.002565
# 2 -0.003649 0.020462 0.004492 0.007431 -0.006293 -0.007517
# 3 -0.000969 0.004492 0.015176 0.008238 -0.003512 -0.009853
# 4 0.000150 0.007431 0.008238 0.032994 -0.004101 -0.000269
# 5 -0.000027 -0.006293 -0.003512 -0.004101 0.040623 0.015629
# 6 -0.002565 -0.007517 -0.009853 -0.000269 0.015629 0.048094
#
#
# Mechanical properties :
#
#
# Convention : Reuss Voigt Hill
#
# Bulk Modulus (GPa) = 19.09692 27.77756 23.43724
# Shear Modulus (GPa) = 26.03673 32.68378 29.36026
#
# Velocity S-wave (km/s) = 3.35555 3.75956 3.56328
# Velocity P-wave (km/s) = 4.82406 5.55502 5.20239
#
# Compressibility (1/GPa) = 0.05236447
#
# Stress axis : x y z
#
# Youngs Moduli (GPa) = 58.89462 48.87200 65.89276
#
# Poissons Ratio (x) = 0.17835 0.06383
# Poissons Ratio (y) = 0.21493 -0.29597
# Poissons Ratio (z) = 0.05705 -0.21952
#
# Static dielectric constant tensor:
#      x y z
#    x 1.854720 0.003490 -0.006600 
#    y 0.003490 1.863380 -0.017850 
#    z -0.006600 -0.017850 1.898840 
# 
# From -- ./inp_files/294706.got.cif
#   From: 2010.05.17/outbox.cif.g08.bks.cpg/sg2_148_cif.got.tgz:294706.got - 2010.06.03 11:33:40.
