data_PCOD9089619
_publ_section_title
;
Structure prediction by ZEFSAII (Michael W. Deem and Ramdas Pophale) SiO2 
 PCOD9089619
Probable space group: P -1
;
_chemical_formula_sum "Si O2"
_cell_formula_units_Z 16
_cell_length_a 20.455148
_cell_length_b 8.997805
_cell_length_c 7.417434
_cell_angle_alpha 105.387538
_cell_angle_beta 72.364684
_cell_angle_gamma 150.955272
_cell_volume 631.640143
_symmetry_space_group_name_H-M "P -1"
_symmetry_group_IT_number 2
_symmetry_cell_setting 'triclinic'
loop_
_space_group_symop_operation_xyz
x,y,z
-x,-y,-z
loop_
_atom_site_type_symbol
_atom_site_label
_atom_site_fract_x
_atom_site_fract_y
_atom_site_fract_z
Si Si1 0.293207 0.166318 0.869680
Si Si2 0.727976 0.171380 0.750864
Si Si3 0.046490 0.875724 0.081914
Si Si4 0.282353 0.473950 0.590421
Si Si5 0.738731 0.238982 0.185548
Si Si6 0.978615 0.836349 0.713486
Si Si7 0.542757 0.238669 0.133052
Si Si8 0.363309 0.309998 0.463060
O O1 0.412044 0.519551 0.932303
O O2 0.268214 0.131238 0.663442
O O3 0.160368 0.966374 0.021171
O O4 0.328883 0.057420 0.824828
O O5 0.863742 0.492061 0.642968
O O6 0.591338 0.974060 0.713490
O O7 0.704411 0.943216 0.695521
O O8 0.726871 0.234883 0.976339
O O9 0.017989 0.861890 0.891860
O O10 0.901966 0.544404 0.177425
O O11 0.086748 0.119582 0.209532
O O12 0.309119 0.709671 0.635889
O O13 0.326929 0.542444 0.784438
O O14 0.363839 0.486197 0.443167
O O15 0.122182 0.131764 0.587751
O O16 0.500000 0.000000 0.000000
O O17 0.500000 0.500000 0.500000
#
# Coordination Sequence:
#
# PCOD9089619 Si02
#       8
#     2   2   2   2   2   2   2   2
#     4  11  21  37  60  84 121 155 183 231 303 342
#     4  11  21  35  59  88 116 141 200 243 276 329
#     4   9  16  33  58  88 116 143 190 235 292 332
#     4  10  19  38  60  81 116 155 193 230 292 340
#     4  10  22  36  61  90 115 144 194 245 282 339
#     4   9  17  32  60  90 106 143 199 248 264 334
#     4  11  19  34  59  85 111 150 198 236 276 336
#     4  11  22  39  58  81 118 157 192 232 283 348
#
# _framework density 25.330877000000001
#
# number of rings (size 3 to 8) (size 9 to 14) (size 15 to 20)
#    0.000    1.750    6.250    1.875    0.000    1.000 
#    0.000    0.625    5.500    1.500    0.000    0.000 
#    0.000    0.000    0.000    0.000    0.000    0.000 
#
# Total GULP energy -89224.606299 kJ/mol
# GULP energy per Si atom -5576.537894 kJ/mol
# Density = 2.527322 g / cm^3
# Si number density = 25.330877 Si / 1000 Ang^3
#
#
#
# Elastic Constant Matrix: (Units=GPa)
#
#
# Indices 1 2 3 4 5 6 
#
# 1 102.5797 56.6357 52.4591 8.0535 -41.6428 -11.9494
# 2 56.6357 135.8165 43.6712 36.4393 -31.3272 -15.1855
# 3 52.4591 43.6712 80.4012 21.3940 -29.2664 -9.8053
# 4 8.0535 36.4393 21.3940 35.7490 -20.3230 -14.9334
# 5 -41.6428 -31.3272 -29.2664 -20.3230 53.8063 5.5865
# 6 -11.9494 -15.1855 -9.8053 -14.9334 5.5865 33.2589
#
#
#
# Elastic Compliance Matrix: (Units=1/GPa)
#
#
# Indices 1 2 3 4 5 6 
#
# 1 0.026824 -0.008742 -0.011559 0.023834 0.017345 0.010026
# 2 -0.008742 0.013847 0.000584 -0.016216 -0.004176 -0.003226
# 3 -0.011559 0.000584 0.022427 -0.013336 -0.001126 -0.003074
# 4 0.023834 -0.016216 -0.013336 0.072907 0.026642 0.025488
# 5 0.017345 -0.004176 -0.001126 0.026642 0.038034 0.009566
# 6 0.010026 -0.003226 -0.003074 0.025488 0.009566 0.041127
#
#
# Mechanical properties :
#
#
# Convention : Reuss Voigt Hill
#
# Bulk Modulus (GPa) = 42.25924 69.36995 55.81459
# Shear Modulus (GPa) = 19.04837 35.63161 27.33999
#
# Velocity S-wave (km/s) = 2.74520 3.75460 3.28886
# Velocity P-wave (km/s) = 5.17371 6.80007 6.04187
#
# Compressibility (1/GPa) = 0.02366347
#
# Stress axis : x y z
#
# Youngs Moduli (GPa) = 37.27944 72.21550 44.59001
#
# Poissons Ratio (x) = 0.63130 0.51544
# Poissons Ratio (y) = 0.32589 -0.02603
# Poissons Ratio (z) = 0.43093 -0.04216
#
# Static dielectric constant tensor:
#      x y z
#    x 2.084820 -0.048610 -0.006290 
#    y -0.048610 2.065010 0.004340 
#    z -0.006290 0.004340 2.042670 
# 
# From -- ./inp_files/281395.got.cif
#   From: 2010.05.17/outbox.cif.g08.bks.cpg/sg2_141_cif.got.tgz:281395.got - 2010.06.03 11:33:40.
