data_PCOD9089490
_publ_section_title
;
Structure prediction by ZEFSAII (Michael W. Deem and Ramdas Pophale) SiO2 
 PCOD9089490
Probable space group: P -1
;
_chemical_formula_sum "Si O2"
_cell_formula_units_Z 16
_cell_length_a 7.420788
_cell_length_b 9.080442
_cell_length_c 13.844634
_cell_angle_alpha 91.429768
_cell_angle_beta 83.637991
_cell_angle_gamma 50.500810
_cell_volume 709.868067
_symmetry_space_group_name_H-M "P -1"
_symmetry_group_IT_number 2
_symmetry_cell_setting 'triclinic'
loop_
_space_group_symop_operation_xyz
x,y,z
-x,-y,-z
loop_
_atom_site_type_symbol
_atom_site_label
_atom_site_fract_x
_atom_site_fract_y
_atom_site_fract_z
Si Si1 0.464580 0.484320 0.616138
Si Si2 0.215445 0.272806 0.096089
Si Si3 0.060232 0.165137 0.762542
Si Si4 0.348099 0.391018 0.258095
Si Si5 0.723030 0.696651 0.130966
Si Si6 0.051208 0.301541 0.374304
Si Si7 0.793196 0.016692 0.798917
Si Si8 0.009437 0.846676 0.437424
O O1 0.500000 0.500000 0.500000
O O2 0.452506 0.629939 0.692195
O O3 0.220321 0.525411 0.637984
O O4 0.721271 0.285768 0.619915
O O5 0.388075 0.266657 0.161112
O O6 0.947617 0.473669 0.133480
O O7 0.212932 0.102290 0.118329
O O8 0.279898 0.276401 0.983235
O O9 0.233300 0.170188 0.817113
O O10 0.834405 0.391984 0.768259
O O11 0.976155 0.052578 0.805150
O O12 0.149602 0.089342 0.646633
O O13 0.210644 0.357655 0.341373
O O14 0.469518 0.776233 0.184838
O O15 0.041128 0.256986 0.485422
O O16 0.141879 0.115422 0.301519
O O17 0.000000 0.000000 0.500000
#
# Coordination Sequence:
#
# PCOD9089490 Si02
#       8
#     2   2   2   2   2   2   2   2
#     4   9  20  35  61  82 117 159 196 249 297 347
#     4   9  21  42  65  89 125 155 204 248 303 367
#     4  10  22  37  61  88 123 156 204 248 297 362
#     4   9  20  39  61  90 119 159 202 251 296 363
#     4  10  22  44  64  89 122 162 197 254 305 356
#     4  10  21  39  61  88 121 162 205 243 304 362
#     4  11  22  39  63  92 123 159 200 254 301 358
#     4  10  19  38  57  86 125 154 201 252 293 355
#
# _framework density 22.539400000000001
#
# number of rings (size 3 to 8) (size 9 to 14) (size 15 to 20)
#    0.000    2.250    1.250    0.375    0.000   13.000 
#    0.000   11.250    0.000    0.000    0.000    0.000 
#    0.000    0.000    0.000    0.000    0.000    0.000 
#
# Total GULP energy -89320.581624 kJ/mol
# GULP energy per Si atom -5582.536351 kJ/mol
# Density = 2.248810 g / cm^3
# Si number density = 22.539400 Si / 1000 Ang^3
#
#
#
# Elastic Constant Matrix: (Units=GPa)
#
#
# Indices 1 2 3 4 5 6 
#
# 1 60.3106 3.1543 17.6947 9.1143 7.9064 6.5871
# 2 3.1543 72.2540 0.0149 7.7097 -4.7507 -0.4894
# 3 17.6947 0.0149 90.7101 7.0367 9.9857 -5.1264
# 4 9.1143 7.7097 7.0367 16.9212 -0.2212 -8.2067
# 5 7.9064 -4.7507 9.9857 -0.2212 33.6287 7.8099
# 6 6.5871 -0.4894 -5.1264 -8.2067 7.8099 35.7177
#
#
#
# Elastic Compliance Matrix: (Units=1/GPa)
#
#
# Indices 1 2 3 4 5 6 
#
# 1 0.020516 0.000312 -0.003096 -0.013203 -0.002383 -0.006736
# 2 0.000312 0.014828 0.000167 -0.008032 0.002432 -0.002207
# 3 -0.003096 0.000167 0.012344 -0.002337 -0.003528 0.002579
# 4 -0.013203 -0.008032 -0.002337 0.080986 -0.001672 0.020963
# 5 -0.002383 0.002432 -0.003528 -0.001672 0.033474 -0.007737
# 6 -0.006736 -0.002207 0.002579 0.020963 -0.007737 0.036088
#
#
# Mechanical properties :
#
#
# Convention : Reuss Voigt Hill
#
# Bulk Modulus (GPa) = 23.55510 29.44473 26.49991
# Shear Modulus (GPa) = 22.97568 30.74758 26.86163
#
# Velocity S-wave (km/s) = 3.19620 3.69747 3.45594
# Velocity P-wave (km/s) = 4.90859 5.59647 5.26378
#
# Compressibility (1/GPa) = 0.04245365
#
# Stress axis : x y z
#
# Youngs Moduli (GPa) = 48.74149 67.43796 81.01412
#
# Poissons Ratio (x) = -0.02101 0.25085
# Poissons Ratio (y) = -0.01518 -0.01357
# Poissons Ratio (z) = 0.15092 -0.01129
#
# Static dielectric constant tensor:
#      x y z
#    x 1.823390 -0.033590 0.031420 
#    y -0.033590 1.930030 0.008120 
#    z 0.031420 0.008120 1.880800 
# 
# From -- ./inp_files/480643.got.cif
#   From: 2010.05.17/outbox.cif.g08.bks.cpg/sg2_241_cif.got.tgz:480643.got - 2010.06.03 11:33:40.
