data_PCOD9089164
_publ_section_title
;
Structure prediction by ZEFSAII (Michael W. Deem and Ramdas Pophale) SiO2 
 PCOD9089164
Probable space group: P -1
;
_chemical_formula_sum "Si O2"
_cell_formula_units_Z 15
_cell_length_a 4.942103
_cell_length_b 19.942457
_cell_length_c 8.713552
_cell_angle_alpha 127.842184
_cell_angle_beta 118.137816
_cell_angle_gamma 77.614699
_cell_volume 594.573405
_symmetry_space_group_name_H-M "P -1"
_symmetry_group_IT_number 2
_symmetry_cell_setting 'triclinic'
loop_
_space_group_symop_operation_xyz
x,y,z
-x,-y,-z
loop_
_atom_site_type_symbol
_atom_site_label
_atom_site_fract_x
_atom_site_fract_y
_atom_site_fract_z
Si Si1 0.500000 0.000000 0.500000
Si Si2 0.224205 0.792144 0.721979
Si Si3 0.681524 0.800974 0.360288
Si Si4 0.600016 0.432659 0.704893
Si Si5 0.659337 0.022959 0.913292
Si Si6 0.027211 0.848204 0.238904
Si Si7 0.788458 0.711459 0.728684
Si Si8 0.716689 0.609200 0.115807
O O1 0.514957 0.981110 0.662637
O O2 0.837065 0.066280 0.692655
O O3 0.497266 0.757553 0.651575
O O4 0.944170 0.816370 0.578391
O O5 0.077359 0.723790 0.709744
O O6 0.351503 0.876052 0.963516
O O7 0.335572 0.810097 0.329155
O O8 0.703738 0.703284 0.179136
O O9 0.788199 0.864076 0.334912
O O10 0.363906 0.386047 0.452797
O O11 0.490842 0.400900 0.801498
O O12 0.946252 0.407176 0.754335
O O13 0.614719 0.534842 0.863029
O O14 0.500000 0.000000 0.000000
O O15 0.000000 0.000000 0.000000
O O16 0.879590 0.770160 0.982336
#
# Coordination Sequence:
#
# PCOD9089164 Si02
#       8
#     1   2   2   2   2   2   2   2
#     4  12  28  52  72 102 150 188 240 310 356 442
#     4  12  23  42  70  92 133 170 231 281 335 408
#     4  12  23  44  65 103 130 179 222 289 337 420
#     4  10  19  37  65  98 128 177 216 280 336 403
#     4  12  27  47  72 105 138 184 244 298 367 432
#     4  12  28  42  68  94 140 177 224 275 369 403
#     4  12  22  43  64  98 128 179 218 274 333 416
#     4  10  20  36  66  98 132 165 230 275 333 407
#
# _framework density 25.228171
#
# number of rings (size 3 to 8) (size 9 to 14) (size 15 to 20)
#    0.000    0.533    4.000    4.800    0.000    1.067 
#    0.000    1.333    0.000    0.000    0.000    0.000 
#    0.000    0.000    0.000    0.000    0.000    0.000 
#
# Total GULP energy -83767.686046 kJ/mol
# GULP energy per Si atom -5584.512403 kJ/mol
# Density = 2.517075 g / cm^3
# Si number density = 25.228171 Si / 1000 Ang^3
#
#
#
# Elastic Constant Matrix: (Units=GPa)
#
#
# Indices 1 2 3 4 5 6 
#
# 1 117.4588 -7.9124 6.8169 -14.3047 -2.2098 8.0322
# 2 -7.9124 49.1519 22.2915 14.0998 2.6015 1.7391
# 3 6.8169 22.2915 177.1034 20.8455 -3.6227 10.6477
# 4 -14.3047 14.0998 20.8455 56.3799 3.6224 0.4818
# 5 -2.2098 2.6015 -3.6227 3.6224 27.6342 -1.6738
# 6 8.0322 1.7391 10.6477 0.4818 -1.6738 36.0432
#
#
#
# Elastic Compliance Matrix: (Units=1/GPa)
#
#
# Indices 1 2 3 4 5 6 
#
# 1 0.009035 0.001162 -0.000642 0.002248 0.000119 -0.001905
# 2 0.001162 0.023025 -0.002416 -0.004445 -0.001850 -0.000683
# 3 -0.000642 -0.002416 0.006321 -0.001958 0.001169 -0.001527
# 4 0.002248 -0.004445 -0.001958 0.020293 -0.002324 -0.000087
# 5 0.000119 -0.001850 0.001169 -0.002324 0.036917 0.001463
# 6 -0.001905 -0.000683 -0.001527 -0.000087 0.001463 0.028722
#
#
# Mechanical properties :
#
#
# Convention : Reuss Voigt Hill
#
# Bulk Modulus (GPa) = 28.91049 42.90068 35.90558
# Shear Modulus (GPa) = 35.80720 45.51265 40.65993
#
# Velocity S-wave (km/s) = 3.77149 4.25201 4.01894
# Velocity P-wave (km/s) = 5.51815 6.41468 5.98323
#
# Compressibility (1/GPa) = 0.03458952
#
# Stress axis : x y z
#
# Youngs Moduli (GPa) = 110.67647 43.43047 158.19171
#
# Poissons Ratio (x) = -0.05046 0.10150
# Poissons Ratio (y) = -0.12858 0.38226
# Poissons Ratio (z) = 0.07101 0.10495
#
# Static dielectric constant tensor:
#      x y z
#    x 1.896940 0.064880 0.062510 
#    y 0.064880 2.046610 0.018770 
#    z 0.062510 0.018770 1.980270 
# 
# From -- ./inp_files/141552.got.cif
#   From: 2010.05.17/outbox.cif.g08.bks.cpg/sg2_71_cif.got.tgz:141552.got - 2010.06.03 11:33:40.
