data_PCOD9089275
_publ_section_title
;
Structure prediction by ZEFSAII (Michael W. Deem and Ramdas Pophale) SiO2 
 PCOD9089275
Probable space group: P -1
;
_chemical_formula_sum "Si O2"
_cell_formula_units_Z 16
_cell_length_a 9.024138
_cell_length_b 15.914550
_cell_length_c 10.730039
_cell_angle_alpha 56.108199
_cell_angle_beta 78.189220
_cell_angle_gamma 119.126630
_cell_volume 842.817674
_symmetry_space_group_name_H-M "P -1"
_symmetry_group_IT_number 2
_symmetry_cell_setting 'triclinic'
loop_
_space_group_symop_operation_xyz
x,y,z
-x,-y,-z
loop_
_atom_site_type_symbol
_atom_site_label
_atom_site_fract_x
_atom_site_fract_y
_atom_site_fract_z
Si Si1 0.940122 0.591927 0.586077
Si Si2 0.528473 0.635419 0.680364
Si Si3 0.495422 0.566294 0.322893
Si Si4 0.047457 0.874786 0.397740
Si Si5 0.411134 0.761912 0.411802
Si Si6 0.886839 0.542941 0.924258
Si Si7 0.306037 0.884083 0.530734
Si Si8 0.220761 0.098773 0.963034
O O1 0.738308 0.489168 0.609165
O O2 0.855723 0.522729 0.797362
O O3 0.017621 0.748078 0.447147
O O4 0.164237 0.637531 0.495633
O O5 0.495977 0.508908 0.729570
O O6 0.469214 0.690383 0.540484
O O7 0.790372 0.777717 0.554801
O O8 0.349908 0.556793 0.886465
O O9 0.500000 0.500000 0.500000
O O10 0.687759 0.745024 0.147474
O O11 0.216025 0.938907 0.429943
O O12 0.155768 0.003604 0.174210
O O13 0.395994 0.846551 0.444361
O O14 0.593607 0.862627 0.188744
O O15 0.078065 0.723314 0.760554
O O16 0.000000 0.500000 0.000000
O O17 0.500000 0.000000 0.500000
O O18 0.000000 0.000000 0.000000
#
# Coordination Sequence:
#
# PCOD9089275 Si02
#       8
#     2   2   2   2   2   2   2   2
#     4   9  21  39  61  90 118 149 207 248 294 353
#     4  11  19  41  65  87 119 159 204 245 302 343
#     4  11  23  39  60  89 120 155 206 253 281 360
#     4   9  21  39  60  86 125 160 193 249 295 360
#     4  10  20  39  66  84 120 160 192 250 304 346
#     4  10  19  37  67  88 116 161 196 250 302 348
#     4  10  23  41  60  92 128 153 201 247 295 365
#     4  12  22  39  63  87 124 161 194 243 310 353
#
# _framework density 18.983941999999999
#
# number of rings (size 3 to 8) (size 9 to 14) (size 15 to 20)
#    0.000    2.000    5.000    0.750    0.000    9.000 
#    0.000    0.625    0.000    0.000    0.000    0.000 
#    0.000    0.000    0.000    0.000    0.000    0.000 
#
# Total GULP energy -89249.976761 kJ/mol
# GULP energy per Si atom -5578.123548 kJ/mol
# Density = 1.894073 g / cm^3
# Si number density = 18.983942 Si / 1000 Ang^3
#
#
#
# Elastic Constant Matrix: (Units=GPa)
#
#
# Indices 1 2 3 4 5 6 
#
# 1 149.1635 59.0432 75.9354 0.1950 -8.2357 31.6828
# 2 59.0432 75.1133 53.7785 -5.1849 -8.6225 22.7803
# 3 75.9354 53.7785 167.0305 12.8724 -5.4467 14.1957
# 4 0.1950 -5.1849 12.8724 19.1596 -1.8408 -9.1837
# 5 -8.2357 -8.6225 -5.4467 -1.8408 49.0985 4.4100
# 6 31.6828 22.7803 14.1957 -9.1837 4.4100 42.9429
#
#
#
# Elastic Compliance Matrix: (Units=1/GPa)
#
#
# Indices 1 2 3 4 5 6 
#
# 1 0.011453 -0.005433 -0.002823 -0.002076 0.001042 -0.005186
# 2 -0.005433 0.024012 -0.005253 0.007683 0.003524 -0.005712
# 3 -0.002823 -0.005253 0.009532 -0.007803 -0.000642 0.000115
# 4 -0.002076 0.007683 -0.007803 0.066426 0.001359 0.014101
# 5 0.001042 0.003524 -0.000642 0.001359 0.021531 -0.004346
# 6 -0.005186 -0.005712 0.000115 0.014101 -0.004346 0.033567
#
#
# Mechanical properties :
#
#
# Convention : Reuss Voigt Hill
#
# Bulk Modulus (GPa) = 55.61754 85.42460 70.52107
# Shear Modulus (GPa) = 25.05867 35.74355 30.40111
#
# Velocity S-wave (km/s) = 3.63711 4.34387 4.00611
# Velocity P-wave (km/s) = 6.85557 8.38182 7.65682
#
# Compressibility (1/GPa) = 0.01797994
#
# Stress axis : x y z
#
# Youngs Moduli (GPa) = 87.31060 41.64651 104.90639
#
# Poissons Ratio (x) = 0.22625 0.29616
# Poissons Ratio (y) = 0.47432 0.55107
# Poissons Ratio (z) = 0.24649 0.21877
#
# Static dielectric constant tensor:
#      x y z
#    x 1.695890 0.007530 0.002780 
#    y 0.007530 1.680710 0.009740 
#    z 0.002780 0.009740 1.657440 
# 
# From -- ./inp_files/402994.got.cif
#   From: 2010.05.17/outbox.cif.g08.bks.cpg/sg2_202_cif.got.tgz:402994.got - 2010.06.03 11:33:40.
