data_PCOD9089751
_publ_section_title
;
Structure prediction by ZEFSAII (Michael W. Deem and Ramdas Pophale) SiO2 
 PCOD9089751
Probable space group: P -1
;
_chemical_formula_sum "Si O2"
_cell_formula_units_Z 14
_cell_length_a 8.832836
_cell_length_b 19.999648
_cell_length_c 5.346128
_cell_angle_alpha 110.715318
_cell_angle_beta 60.994589
_cell_angle_gamma 64.886700
_cell_volume 529.247562
_symmetry_space_group_name_H-M "P -1"
_symmetry_group_IT_number 2
_symmetry_cell_setting 'triclinic'
loop_
_space_group_symop_operation_xyz
x,y,z
-x,-y,-z
loop_
_atom_site_type_symbol
_atom_site_label
_atom_site_fract_x
_atom_site_fract_y
_atom_site_fract_z
Si Si1 0.236712 0.117455 0.803413
Si Si2 0.262909 0.878876 0.163738
Si Si3 0.601611 0.588679 0.463042
Si Si4 0.725400 0.422623 0.514948
Si Si5 0.856531 0.118093 0.224820
Si Si6 0.238423 0.200148 0.390914
Si Si7 0.936230 0.608257 0.417918
O O1 0.259689 0.156360 0.583766
O O2 0.500000 0.000000 0.500000
O O3 0.130864 0.184483 0.232548
O O4 0.038884 0.114208 0.921282
O O5 0.223253 0.838128 0.374308
O O6 0.355316 0.826827 0.744191
O O7 0.486403 0.865237 0.034837
O O8 0.000000 0.000000 0.500000
O O9 0.661184 0.504363 0.482069
O O10 0.332852 0.641076 0.629938
O O11 0.688569 0.633395 0.605941
O O12 0.823087 0.516048 0.979891
O O13 0.986504 0.368695 0.368877
O O14 0.500000 0.500000 0.000000
O O15 0.000000 0.000000 0.000000
O O16 0.091340 0.319143 0.665016
#
# Coordination Sequence:
#
# PCOD9089751 Si02
#       7
#     2   2   2   2   2   2   2
#     4  12  24  44  69  93 130 181 229 285 357 411
#     4  10  19  38  61  87 124 165 214 270 334 399
#     4   9  19  40  69  93 134 186 216 270 347 423
#     4   9  18  37  65  97 130 178 226 265 338 426
#     4  10  20  38  63  87 117 163 219 269 330 409
#     4  12  26  42  66 103 134 174 234 295 337 417
#     4  10  22  39  64  99 136 174 229 282 345 407
#
# _framework density 26.452652
#
# number of rings (size 3 to 8) (size 9 to 14) (size 15 to 20)
#    0.000    1.714    0.000    6.000    2.000    0.000 
#    2.571    4.286    0.000    0.000    0.000    0.000 
#    0.000    0.000    0.000    0.000    0.000    0.000 
#
# Total GULP energy -78050.317647 kJ/mol
# GULP energy per Si atom -5575.022689 kJ/mol
# Density = 2.639244 g / cm^3
# Si number density = 26.452652 Si / 1000 Ang^3
#
#
#
# Elastic Constant Matrix: (Units=GPa)
#
#
# Indices 1 2 3 4 5 6 
#
# 1 186.8298 44.7867 4.6970 -8.9787 -6.7797 1.0894
# 2 44.7867 123.7812 31.0778 -27.2147 7.3045 -4.0333
# 3 4.6970 31.0778 66.2218 -4.7872 7.4523 3.4074
# 4 -8.9787 -27.2147 -4.7872 49.7993 -2.9612 5.0789
# 5 -6.7797 7.3045 7.4523 -2.9612 35.9724 -16.4831
# 6 1.0894 -4.0333 3.4074 5.0789 -16.4831 45.4635
#
#
#
# Elastic Compliance Matrix: (Units=1/GPa)
#
#
# Indices 1 2 3 4 5 6 
#
# 1 0.005965 -0.002397 0.000505 -0.000111 0.001586 0.000194
# 2 -0.002397 0.011345 -0.004667 0.005208 -0.001174 0.000406
# 3 0.000505 -0.004667 0.017842 -0.000666 -0.004176 -0.003203
# 4 -0.000111 0.005208 -0.000666 0.023053 0.000015 -0.002055
# 5 0.001586 -0.001174 -0.004176 0.000015 0.035114 0.012900
# 6 0.000194 0.000406 -0.003203 -0.002055 0.012900 0.027174
#
#
# Mechanical properties :
#
#
# Convention : Reuss Voigt Hill
#
# Bulk Modulus (GPa) = 45.38116 59.77284 52.57700
# Shear Modulus (GPa) = 35.47240 45.99845 40.73542
#
# Velocity S-wave (km/s) = 3.66591 4.17453 3.92846
# Velocity P-wave (km/s) = 5.92548 6.77354 6.36366
#
# Compressibility (1/GPa) = 0.02203557
#
# Stress axis : x y z
#
# Youngs Moduli (GPa) = 167.63183 88.14240 56.04883
#
# Poissons Ratio (x) = 0.21128 -0.02832
# Poissons Ratio (y) = 0.40182 0.26156
# Poissons Ratio (z) = -0.08470 0.41133
#
# Static dielectric constant tensor:
#      x y z
#    x 2.416160 -0.018440 0.148930 
#    y -0.018440 1.997180 0.009850 
#    z 0.148930 0.009850 2.190870 
# 
# From -- ./inp_files/51605.got.cif
#   From: 2010.05.17/outbox.cif.g08.bks.cpg/sg2_26_cif.got.tgz:51605.got - 2010.06.03 11:33:40.
