data_PCOD9089616
_publ_section_title
;
Structure prediction by ZEFSAII (Michael W. Deem and Ramdas Pophale) SiO2 
 PCOD9089616
Probable space group: P -1
;
_chemical_formula_sum "Si O2"
_cell_formula_units_Z 16
_cell_length_a 8.431750
_cell_length_b 9.765457
_cell_length_c 15.642346
_cell_angle_alpha 41.874631
_cell_angle_beta 72.849454
_cell_angle_gamma 73.269852
_cell_volume 816.784256
_symmetry_space_group_name_H-M "P -1"
_symmetry_group_IT_number 2
_symmetry_cell_setting 'triclinic'
loop_
_space_group_symop_operation_xyz
x,y,z
-x,-y,-z
loop_
_atom_site_type_symbol
_atom_site_label
_atom_site_fract_x
_atom_site_fract_y
_atom_site_fract_z
Si Si1 0.945949 0.926880 0.410148
Si Si2 0.988113 0.404631 0.178473
Si Si3 0.721957 0.519436 0.031100
Si Si4 0.151378 0.556995 0.637538
Si Si5 0.732709 0.772290 0.361024
Si Si6 0.652518 0.860831 0.615794
Si Si7 0.505325 0.677412 0.578545
Si Si8 0.507002 0.828556 0.824861
O O1 0.855058 0.865744 0.366220
O O2 0.812871 0.919822 0.512231
O O3 0.093043 0.755948 0.495486
O O4 0.990649 0.157358 0.286300
O O5 0.974628 0.455885 0.257232
O O6 0.134776 0.485184 0.062331
O O7 0.817326 0.497690 0.115402
O O8 0.595696 0.726609 0.941848
O O9 0.618293 0.327406 0.119106
O O10 0.168267 0.358835 0.666736
O O11 0.332687 0.586570 0.634329
O O12 0.631459 0.622316 0.506279
O O13 0.599701 0.948978 0.258814
O O14 0.587350 0.669946 0.662806
O O15 0.654244 0.817793 0.735494
O O16 0.527980 0.072521 0.538721
#
# Coordination Sequence:
#
# PCOD9089616 Si02
#       8
#     2   2   2   2   2   2   2   2
#     4  11  21  36  58  85 120 143 178 231 287 335
#     4  11  22  38  57  86 113 139 193 241 264 324
#     4  10  22  37  61  81 103 150 199 233 267 308
#     4  12  22  34  57  88 114 150 179 223 291 344
#     4  10  22  37  53  83 123 147 176 223 287 344
#     4   9  17  33  58  86 109 139 180 238 283 316
#     4   9  18  31  53  82 116 141 175 222 278 339
#     4  10  19  38  60  81 109 148 189 231 273 325
#
# _framework density 19.589016000000001
#
# number of rings (size 3 to 8) (size 9 to 14) (size 15 to 20)
#    0.000    1.750    2.500    3.375    3.500    0.000 
#    0.000    1.250    0.000    0.000    0.000    0.000 
#    0.000    0.000    0.000    0.000    0.000    0.000 
#
# Total GULP energy -89230.218482 kJ/mol
# GULP energy per Si atom -5576.888655 kJ/mol
# Density = 1.954443 g / cm^3
# Si number density = 19.589016 Si / 1000 Ang^3
#
#
#
# Elastic Constant Matrix: (Units=GPa)
#
#
# Indices 1 2 3 4 5 6 
#
# 1 50.3754 6.7752 9.6929 2.5610 1.9594 5.6779
# 2 6.7752 91.7454 30.2287 9.3439 4.9103 -2.2937
# 3 9.6929 30.2287 63.1378 4.5377 9.2413 0.8782
# 4 2.5610 9.3439 4.5377 15.2138 -5.2591 1.8779
# 5 1.9594 4.9103 9.2413 -5.2591 45.7430 -2.2771
# 6 5.6779 -2.2937 0.8782 1.8779 -2.2771 12.1204
#
#
#
# Elastic Compliance Matrix: (Units=1/GPa)
#
#
# Indices 1 2 3 4 5 6 
#
# 1 0.021703 -0.000809 -0.002550 -0.001497 -0.001002 -0.010091
# 2 -0.000809 0.013815 -0.005885 -0.007447 -0.000896 0.004405
# 3 -0.002550 -0.005885 0.019820 -0.002944 -0.003681 -0.001591
# 4 -0.001497 -0.007447 -0.002944 0.076073 0.009684 -0.010462
# 5 -0.001002 -0.000896 -0.003681 0.009684 0.024036 0.003582
# 6 -0.010091 0.004405 -0.001591 -0.010462 0.003582 0.090476
#
#
# Mechanical properties :
#
#
# Convention : Reuss Voigt Hill
#
# Bulk Modulus (GPa) = 27.13677 33.18358 30.16017
# Shear Modulus (GPa) = 18.07058 25.18623 21.62840
#
# Velocity S-wave (km/s) = 3.04054 3.58960 3.32642
# Velocity P-wave (km/s) = 5.11953 5.84440 5.49393
#
# Compressibility (1/GPa) = 0.03685037
#
# Stress axis : x y z
#
# Youngs Moduli (GPa) = 46.07688 72.38507 50.45447
#
# Poissons Ratio (x) = 0.05854 0.12866
# Poissons Ratio (y) = 0.03726 0.29692
# Poissons Ratio (z) = 0.11750 0.42598
#
# Static dielectric constant tensor:
#      x y z
#    x 1.772200 -0.006710 0.054390 
#    y -0.006710 1.673110 0.029980 
#    z 0.054390 0.029980 1.722190 
# 
# From -- ./inp_files/205460.got.cif
#   From: 2010.05.17/outbox.cif.g08.bks.cpg/sg2_103_cif.got.tgz:205460.got - 2010.06.03 11:33:40.
