data_PCOD9089554
_publ_section_title
;
Structure prediction by ZEFSAII (Michael W. Deem and Ramdas Pophale) SiO2 
 PCOD9089554
Probable space group: P -1
;
_chemical_formula_sum "Si O2"
_cell_formula_units_Z 16
_cell_length_a 20.673951
_cell_length_b 17.720779
_cell_length_c 9.615884
_cell_angle_alpha 49.097632
_cell_angle_beta 59.122282
_cell_angle_gamma 20.809313
_cell_volume 879.502577
_symmetry_space_group_name_H-M "P -1"
_symmetry_group_IT_number 2
_symmetry_cell_setting 'triclinic'
loop_
_space_group_symop_operation_xyz
x,y,z
-x,-y,-z
loop_
_atom_site_type_symbol
_atom_site_label
_atom_site_fract_x
_atom_site_fract_y
_atom_site_fract_z
Si Si1 0.409072 0.289452 0.199272
Si Si2 0.737291 0.956278 0.457802
Si Si3 0.683969 0.370284 0.118666
Si Si4 0.768431 0.770403 0.904012
Si Si5 0.529615 0.018925 0.124582
Si Si6 0.461198 0.465355 0.239855
Si Si7 0.078966 0.837094 0.241656
Si Si8 0.160483 0.511809 0.446616
O O1 0.250793 0.419060 0.305435
O O2 0.588404 0.096292 0.337888
O O3 0.482608 0.139538 0.166963
O O4 0.328367 0.497869 0.997905
O O5 0.731780 0.887230 0.674432
O O6 0.952343 0.710773 0.452669
O O7 0.649424 0.166325 0.364042
O O8 0.523198 0.492381 0.210861
O O9 0.629044 0.418937 0.956883
O O10 0.901656 0.064144 0.270144
O O11 0.672326 0.781450 0.952328
O O12 0.644200 0.942373 0.973616
O O13 0.000000 0.500000 0.000000
O O14 0.677684 0.747741 0.331733
O O15 0.284531 0.629012 0.317363
O O16 0.121658 0.671812 0.349663
O O17 0.000000 0.000000 0.000000
#
# Coordination Sequence:
#
# PCOD9089554 Si02
#       8
#     2   2   2   2   2   2   2   2
#     4  11  23  37  55  89 126 147 180 238 294 341
#     4  11  21  34  60  88 113 148 193 237 283 332
#     4   9  17  28  50  79 118 148 178 225 286 335
#     4  11  23  43  61  80 107 155 205 234 275 339
#     4  11  25  41  59  82 118 155 188 234 290 343
#     4   9  16  28  49  81 112 143 184 230 273 331
#     4  10  16  28  48  79 115 146 183 225 277 333
#     4  12  20  33  57  86 117 151 185 233 285 334
#
# _framework density 18.1921
#
# number of rings (size 3 to 8) (size 9 to 14) (size 15 to 20)
#    0.000    1.500    7.500    0.375    1.750    1.500 
#    0.000    0.000    0.000    0.750    0.000    8.750 
#    0.000    0.000    0.000    0.000    0.000    0.000 
#
# Total GULP energy -89069.872574 kJ/mol
# GULP energy per Si atom -5566.867036 kJ/mol
# Density = 1.815069 g / cm^3
# Si number density = 18.192100 Si / 1000 Ang^3
#
#
#
# Elastic Constant Matrix: (Units=GPa)
#
#
# Indices 1 2 3 4 5 6 
#
# 1 55.3068 65.0472 42.1294 4.6846 -7.9990 -2.9145
# 2 65.0472 142.7339 44.0570 6.8455 -2.9889 -21.2873
# 3 42.1294 44.0570 19.9956 10.2218 4.2019 10.1686
# 4 4.6846 6.8455 10.2218 27.4222 -7.3276 -4.0858
# 5 -7.9990 -2.9889 4.2019 -7.3276 10.1045 0.4354
# 6 -2.9145 -21.2873 10.1686 -4.0858 0.4354 32.1432
#
#
#
# Elastic Compliance Matrix: (Units=1/GPa)
#
#
# Indices 1 2 3 4 5 6 
#
# 1 0.017736 -0.019717 0.028432 -0.015793 -0.014109 -0.022261
# 2 -0.019717 0.018915 -0.004165 -0.000430 -0.009116 0.012125
# 3 0.028432 -0.004165 -0.023927 0.018231 0.044054 0.009110
# 4 -0.015793 -0.000430 0.018231 0.033014 0.003875 -0.003340
# 5 -0.014109 -0.009116 0.044054 0.003875 0.070526 -0.021716
# 6 -0.022261 0.012125 0.009110 -0.003340 -0.021716 0.034110
#
#
# Mechanical properties :
#
#
# Convention : Reuss Voigt Hill
#
# Bulk Modulus (GPa) = 45.81871 57.83371 51.82621
# Shear Modulus (GPa) = 33.65903 18.38749 26.02326
#
# Velocity S-wave (km/s) = 4.30606 3.18266 3.78626
# Velocity P-wave (km/s) = 7.06849 6.73538 6.90395
#
# Compressibility (1/GPa) = 0.02182515
#
# Stress axis : x y z
#
# Youngs Moduli (GPa) = 56.38174 52.86759 -41.79294
#
# Poissons Ratio (x) = 1.04238 1.18827
# Poissons Ratio (y) = 1.11167 -0.17407
# Poissons Ratio (z) = -1.60307 0.22019
#
# Static dielectric constant tensor:
#      x y z
#    x 1.657850 -0.057470 -0.062380 
#    y -0.057470 1.695720 0.024260 
#    z -0.062380 0.024260 1.692170 
# 
# From -- ./inp_files/306253.got.cif
#   From: 2010.05.17/outbox.cif.g08.bks.cpg/sg2_154_cif.got.tgz:306253.got - 2010.06.03 11:33:40.
