data_PCOD9089815
_publ_section_title
;
Structure prediction by ZEFSAII (Michael W. Deem and Ramdas Pophale) SiO2 
 PCOD9089815
Probable space group: P -1
;
_chemical_formula_sum "Si O2"
_cell_formula_units_Z 16
_cell_length_a 12.090280
_cell_length_b 14.234685
_cell_length_c 8.056680
_cell_angle_alpha 127.752859
_cell_angle_beta 137.210795
_cell_angle_gamma 49.341320
_cell_volume 689.907066
_symmetry_space_group_name_H-M "P -1"
_symmetry_group_IT_number 2
_symmetry_cell_setting 'triclinic'
loop_
_space_group_symop_operation_xyz
x,y,z
-x,-y,-z
loop_
_atom_site_type_symbol
_atom_site_label
_atom_site_fract_x
_atom_site_fract_y
_atom_site_fract_z
Si Si1 0.237969 0.187309 0.512135
Si Si2 0.793774 0.061110 0.795943
Si Si3 0.830421 0.109029 0.507496
Si Si4 0.858978 0.354280 0.697925
Si Si5 0.776042 0.622491 0.845738
Si Si6 0.805734 0.558808 0.426320
Si Si7 0.518388 0.867136 0.957895
Si Si8 0.190510 0.695313 0.782016
O O1 0.279377 0.296601 0.577286
O O2 0.024306 0.244477 0.363921
O O3 0.281379 0.043610 0.334093
O O4 0.350882 0.165832 0.779997
O O5 0.783171 0.069474 0.592917
O O6 0.731255 0.203306 0.955252
O O7 0.000000 0.000000 0.000000
O O8 0.856626 0.243505 0.697871
O O9 0.677893 0.123369 0.223567
O O10 0.000000 0.000000 0.500000
O O11 0.763114 0.503006 0.804620
O O12 0.786053 0.327447 0.413652
O O13 0.059107 0.343373 0.879878
O O14 0.818110 0.572166 0.651421
O O15 0.604281 0.748053 0.799781
O O16 0.734633 0.444474 0.199406
O O17 0.000000 0.500000 0.500000
O O18 0.500000 0.000000 0.000000
#
# Coordination Sequence:
#
# PCOD9089815 Si02
#       8
#     2   2   2   2   2   2   2   2
#     4  10  19  38  61  94 127 174 214 260 327 383
#     4  10  21  36  60  91 130 167 208 269 324 384
#     4  12  25  41  66  95 126 176 229 270 328 395
#     4  10  21  39  66  99 124 169 220 263 324 402
#     4  10  22  41  68  95 132 170 214 272 329 386
#     4   9  20  36  65 102 126 168 216 262 320 400
#     4  12  24  44  63  90 140 174 217 280 324 383
#     4   9  18  38  63  95 131 163 212 267 323 386
#
# _framework density 23.191528999999999
#
# number of rings (size 3 to 8) (size 9 to 14) (size 15 to 20)
#    0.000    1.750    2.500    2.250    7.000    0.500 
#    2.250    3.125    0.000    3.000    0.000    0.000 
#    0.000    0.000    0.000    0.000    0.000    0.000 
#
# Total GULP energy -89348.893984 kJ/mol
# GULP energy per Si atom -5584.305874 kJ/mol
# Density = 2.313874 g / cm^3
# Si number density = 23.191529 Si / 1000 Ang^3
#
#
#
# Elastic Constant Matrix: (Units=GPa)
#
#
# Indices 1 2 3 4 5 6 
#
# 1 29.4782 52.7330 16.9847 4.2520 9.8450 8.3263
# 2 52.7330 183.9874 48.5489 29.7628 20.3730 41.9440
# 3 16.9847 48.5489 82.5775 15.5815 5.6928 7.3990
# 4 4.2520 29.7628 15.5815 40.2144 5.3430 4.1545
# 5 9.8450 20.3730 5.6928 5.3430 23.3085 0.3752
# 6 8.3263 41.9440 7.3990 4.1545 0.3752 45.6918
#
#
#
# Elastic Compliance Matrix: (Units=1/GPa)
#
#
# Indices 1 2 3 4 5 6 
#
# 1 0.080074 -0.023632 -0.004427 0.012017 -0.014949 0.006849
# 2 -0.023632 0.016502 -0.002414 -0.007509 -0.001974 -0.009752
# 3 -0.004427 -0.002414 0.014994 -0.003807 0.001176 0.000932
# 4 0.012017 -0.007509 -0.003807 0.030994 -0.004728 0.002541
# 5 -0.014949 -0.001974 0.001176 -0.004728 0.051669 0.004352
# 6 0.006849 -0.009752 0.000932 0.002541 0.004352 0.029172
#
#
# Mechanical properties :
#
#
# Convention : Reuss Voigt Hill
#
# Bulk Modulus (GPa) = 19.75380 59.17515 39.46447
# Shear Modulus (GPa) = 16.59886 33.69469 25.14678
#
# Velocity S-wave (km/s) = 2.67821 3.81581 3.29646
# Velocity P-wave (km/s) = 4.25440 6.70710 5.61627
#
# Compressibility (1/GPa) = 0.05062318
#
# Stress axis : x y z
#
# Youngs Moduli (GPa) = 12.48851 60.59878 66.69517
#
# Poissons Ratio (x) = 1.43207 0.29523
# Poissons Ratio (y) = 0.29513 0.16103
# Poissons Ratio (z) = 0.05528 0.14631
#
# Static dielectric constant tensor:
#      x y z
#    x 1.885610 0.037210 -0.014620 
#    y 0.037210 1.945930 0.042440 
#    z -0.014620 0.042440 1.878870 
# 
# From -- ./inp_files/314161.got.cif
#   From: 2010.05.17/outbox.cif.g08.bks.cpg/sg2_158_cif.got.tgz:314161.got - 2010.06.03 11:33:40.
