data_PCOD9089580
_publ_section_title
;
Structure prediction by ZEFSAII (Michael W. Deem and Ramdas Pophale) SiO2 
 PCOD9089580
Probable space group: P -1
;
_chemical_formula_sum "Si O2"
_cell_formula_units_Z 16
_cell_length_a 12.272186
_cell_length_b 15.045278
_cell_length_c 22.422142
_cell_angle_alpha 20.051850
_cell_angle_beta 152.012497
_cell_angle_gamma 140.540879
_cell_volume 622.234127
_symmetry_space_group_name_H-M "P -1"
_symmetry_group_IT_number 2
_symmetry_cell_setting 'triclinic'
loop_
_space_group_symop_operation_xyz
x,y,z
-x,-y,-z
loop_
_atom_site_type_symbol
_atom_site_label
_atom_site_fract_x
_atom_site_fract_y
_atom_site_fract_z
Si Si1 0.261323 0.911665 0.355528
Si Si2 0.098814 0.465315 0.331737
Si Si3 0.610760 0.480287 0.133422
Si Si4 0.167350 0.897171 0.891993
Si Si5 0.056739 0.041126 0.932627
Si Si6 0.895123 0.412695 0.148297
Si Si7 0.805211 0.831524 0.668515
Si Si8 0.480960 0.904386 0.147118
O O1 0.070180 0.868118 0.338438
O O2 0.550846 0.782266 0.592014
O O3 0.194535 0.248387 0.109166
O O4 0.192300 0.828438 0.309366
O O5 0.158520 0.711672 0.174486
O O6 0.322956 0.306217 0.582074
O O7 0.846476 0.572673 0.182070
O O8 0.027379 0.307767 0.341766
O O9 0.722350 0.166008 0.408989
O O10 0.500000 0.500000 0.000000
O O11 0.362219 0.642396 0.947727
O O12 0.018773 0.747839 0.874515
O O13 0.345825 0.971603 0.885494
O O14 0.343800 0.785464 0.104979
O O15 0.270098 0.117478 0.953666
O O16 0.000000 0.000000 0.000000
O O17 0.085652 0.283082 0.270324
#
# Coordination Sequence:
#
# PCOD9089580 Si02
#       8
#     2   2   2   2   2   2   2   2
#     4   9  21  41  60  91 125 157 199 252 299 350
#     4  10  19  38  59  88 121 156 193 254 308 349
#     4   9  19  36  55  90 129 154 190 249 306 355
#     4  10  21  39  61  85 121 163 207 239 289 366
#     4  10  22  38  62  90 121 152 199 257 302 359
#     4   9  21  35  61  96 123 150 199 254 304 355
#     4  11  20  37  65  91 116 164 202 242 304 358
#     4  10  21  39  63  84 118 164 201 240 302 357
#
# _framework density 25.713792999999999
#
# number of rings (size 3 to 8) (size 9 to 14) (size 15 to 20)
#    0.000    2.250    1.250    1.500    1.750    3.500 
#    0.000    0.000    8.250    3.000    0.000    0.000 
#    0.000    0.000    0.000    0.000    0.000    0.000 
#
# Total GULP energy -89296.319678 kJ/mol
# GULP energy per Si atom -5581.019980 kJ/mol
# Density = 2.565527 g / cm^3
# Si number density = 25.713793 Si / 1000 Ang^3
#
#
#
# Elastic Constant Matrix: (Units=GPa)
#
#
# Indices 1 2 3 4 5 6 
#
# 1 182.6962 50.8395 51.0743 32.5390 22.7907 -5.0955
# 2 50.8395 58.6005 52.3112 43.8347 12.9709 1.1632
# 3 51.0743 52.3112 132.6668 46.5751 10.0042 -2.7550
# 4 32.5390 43.8347 46.5751 47.8251 8.3094 -3.2683
# 5 22.7907 12.9709 10.0042 8.3094 42.6656 11.0340
# 6 -5.0955 1.1632 -2.7550 -3.2683 11.0340 44.4410
#
#
#
# Elastic Compliance Matrix: (Units=1/GPa)
#
#
# Indices 1 2 3 4 5 6 
#
# 1 0.007694 -0.008040 -0.000773 0.003486 -0.002671 0.001964
# 2 -0.008040 0.068835 -0.005692 -0.051853 -0.003651 -0.005983
# 3 -0.000773 -0.005692 0.012242 -0.006235 0.000421 0.000256
# 4 0.003486 -0.051853 -0.006235 0.072704 -0.000569 0.006859
# 5 -0.002671 -0.003651 0.000421 -0.000569 0.027833 -0.007137
# 6 0.001964 -0.005983 0.000256 0.006859 -0.007137 0.025176
#
#
# Mechanical properties :
#
#
# Convention : Reuss Voigt Hill
#
# Bulk Modulus (GPa) = 16.73316 75.82370 46.27843
# Shear Modulus (GPa) = 18.98140 41.63556 30.30848
#
# Velocity S-wave (km/s) = 2.71989 4.02828 3.43692
# Velocity P-wave (km/s) = 4.04788 7.15456 5.81262
#
# Compressibility (1/GPa) = 0.05976158
#
# Stress axis : x y z
#
# Youngs Moduli (GPa) = 129.96636 14.52740 81.68524
#
# Poissons Ratio (x) = 0.11680 0.06318
# Poissons Ratio (y) = 1.04492 0.46493
# Poissons Ratio (z) = 0.10053 0.08269
#
# Static dielectric constant tensor:
#      x y z
#    x 2.035980 -0.004890 0.038170 
#    y -0.004890 2.209980 -0.053630 
#    z 0.038170 -0.053630 2.009350 
# 
# From -- ./inp_files/436512.got.cif
#   From: 2010.05.17/outbox.cif.g08.bks.cpg/sg2_219_cif.got.tgz:436512.got - 2010.06.03 11:33:40.
