data_PCOD9089533
_publ_section_title
;
Structure prediction by ZEFSAII (Michael W. Deem and Ramdas Pophale) SiO2 
 PCOD9089533
Probable space group: P -1
;
_chemical_formula_sum "Si O2"
_cell_formula_units_Z 16
_cell_length_a 14.111120
_cell_length_b 10.245478
_cell_length_c 5.420239
_cell_angle_alpha 89.988025
_cell_angle_beta 112.612077
_cell_angle_gamma 96.599501
_cell_volume 717.773254
_symmetry_space_group_name_H-M "P -1"
_symmetry_group_IT_number 2
_symmetry_cell_setting 'triclinic'
loop_
_space_group_symop_operation_xyz
x,y,z
-x,-y,-z
loop_
_atom_site_type_symbol
_atom_site_label
_atom_site_fract_x
_atom_site_fract_y
_atom_site_fract_z
Si Si1 0.595924 0.613823 0.596372
Si Si2 0.378198 0.957294 0.878340
Si Si3 0.083049 0.131812 0.582958
Si Si4 0.867040 0.597484 0.367718
Si Si5 0.122492 0.039733 0.122449
Si Si6 0.341109 0.253344 0.840680
Si Si7 0.803406 0.471507 0.804082
Si Si8 0.281267 0.833990 0.281332
O O1 0.500000 0.500000 0.500000
O O2 0.597918 0.699450 0.349152
O O3 0.701670 0.547025 0.702271
O O4 0.597749 0.699173 0.847649
O O5 0.343082 0.876921 0.594531
O O6 0.330180 0.095223 0.830204
O O7 0.343228 0.877037 0.092251
O O8 0.500000 0.000000 0.000000
O O9 0.045533 0.275068 0.545109
O O10 0.143879 0.122588 0.389507
O O11 0.143834 0.122767 0.898271
O O12 0.000000 0.000000 0.500000
O O13 0.759784 0.666634 0.260278
O O14 0.865460 0.515052 0.616481
O O15 0.865373 0.514809 0.116024
O O16 0.183681 0.916376 0.183518
O O17 0.000000 0.000000 0.000000
O O18 0.761517 0.318405 0.761752
#
# Coordination Sequence:
#
# PCOD9089533 Si02
#       8
#     2   2   2   2   2   2   2   2
#     4  10  21  35  58  78 112 155 208 251 294 361
#     4  12  27  40  62  92 129 170 212 272 316 377
#     4  10  20  36  66  97 123 153 200 262 319 373
#     4  10  19  38  58  88 121 157 208 250 302 375
#     4  10  21  38  66  97 121 158 210 266 319 380
#     4  10  21  36  55  83 110 155 206 252 303 341
#     4  10  23  36  59  87 117 172 201 252 310 374
#     4  12  24  43  63  89 131 170 211 259 332 381
#
# _framework density 22.291160999999999
#
# number of rings (size 3 to 8) (size 9 to 14) (size 15 to 20)
#    0.000    1.500    0.000    5.250    3.500    2.000 
#    0.000    0.000    0.000   18.000    0.000    0.000 
#    0.000    0.000    0.000    0.000    0.000    0.000 
#
# Total GULP energy -89406.372321 kJ/mol
# GULP energy per Si atom -5587.898270 kJ/mol
# Density = 2.224043 g / cm^3
# Si number density = 22.291161 Si / 1000 Ang^3
#
#
#
# Elastic Constant Matrix: (Units=GPa)
#
#
# Indices 1 2 3 4 5 6 
#
# 1 61.0099 17.9707 54.2421 0.8334 -3.9431 9.0598
# 2 17.9707 172.4327 93.0148 9.7600 -36.6698 24.6421
# 3 54.2421 93.0148 201.6690 11.1352 -64.9759 10.3427
# 4 0.8334 9.7600 11.1352 29.4627 1.6568 -0.7633
# 5 -3.9431 -36.6698 -64.9759 1.6568 36.1933 -4.3716
# 6 9.0598 24.6421 10.3427 -0.7633 -4.3716 28.4294
#
#
#
# Elastic Compliance Matrix: (Units=1/GPa)
#
#
# Indices 1 2 3 4 5 6 
#
# 1 0.032471 0.001253 -0.019399 0.007533 -0.031452 -0.009010
# 2 0.001253 0.009066 -0.003023 -0.002250 0.003185 -0.006728
# 3 -0.019399 -0.003023 0.024988 -0.010042 0.040834 0.005721
# 4 0.007533 -0.002250 -0.010042 0.039485 -0.021172 0.001007
# 5 -0.031452 0.003185 0.040834 -0.021172 0.102626 0.007619
# 6 -0.009010 -0.006728 0.005721 0.001007 0.007619 0.042995
#
#
# Mechanical properties :
#
#
# Convention : Reuss Voigt Hill
#
# Bulk Modulus (GPa) = 41.34460 85.06297 63.20379
# Shear Modulus (GPa) = 16.55462 36.80934 26.68198
#
# Velocity S-wave (km/s) = 2.72812 4.06802 3.46349
# Velocity P-wave (km/s) = 5.33960 7.76582 6.66405
#
# Compressibility (1/GPa) = 0.02418696
#
# Stress axis : x y z
#
# Youngs Moduli (GPa) = 30.79674 110.30822 40.01968
#
# Poissons Ratio (x) = -0.13819 0.77633
# Poissons Ratio (y) = -0.03858 0.12097
# Poissons Ratio (z) = 0.59742 0.33343
#
# Static dielectric constant tensor:
#      x y z
#    x 1.850260 0.018170 -0.013810 
#    y 0.018170 1.821470 0.009230 
#    z -0.013810 0.009230 1.877130 
# 
# From -- ./inp_files/90209.got.cif
#   From: 2010.05.17/outbox.cif.g08.bks.cpg/sg2_46_cif.got.tgz:90209.got - 2010.06.03 11:33:40.
