data_PCOD9089552
_publ_section_title
;
Structure prediction by ZEFSAII (Michael W. Deem and Ramdas Pophale) SiO2 
 PCOD9089552
Probable space group: P -1
;
_chemical_formula_sum "Si O2"
_cell_formula_units_Z 16
_cell_length_a 7.530452
_cell_length_b 18.534892
_cell_length_c 8.039062
_cell_angle_alpha 55.991812
_cell_angle_beta 69.001333
_cell_angle_gamma 50.532147
_cell_volume 718.044581
_symmetry_space_group_name_H-M "P -1"
_symmetry_group_IT_number 2
_symmetry_cell_setting 'triclinic'
loop_
_space_group_symop_operation_xyz
x,y,z
-x,-y,-z
loop_
_atom_site_type_symbol
_atom_site_label
_atom_site_fract_x
_atom_site_fract_y
_atom_site_fract_z
Si Si1 0.788969 0.315081 0.437582
Si Si2 0.497637 0.739906 0.821747
Si Si3 0.102346 0.091701 0.510120
Si Si4 0.623715 0.545348 0.798091
Si Si5 0.031878 0.399239 0.033661
Si Si6 0.228912 0.953862 0.149036
Si Si7 0.864013 0.176152 0.896689
Si Si8 0.501568 0.077572 0.605369
O O1 0.519190 0.403665 0.388024
O O2 0.845288 0.263683 0.667379
O O3 0.890169 0.212685 0.416182
O O4 0.923844 0.361765 0.255562
O O5 0.578351 0.645767 0.786105
O O6 0.702266 0.691983 0.951266
O O7 0.482003 0.836825 0.613546
O O8 0.268329 0.774163 0.952272
O O9 0.282830 0.083218 0.597297
O O10 0.975073 0.037091 0.681586
O O11 0.267569 0.035961 0.371128
O O12 0.500000 0.500000 0.000000
O O13 0.886958 0.446597 0.851126
O O14 0.000000 0.500000 0.000000
O O15 0.252601 0.876327 0.094983
O O16 0.459640 0.907512 0.235788
O O17 0.117432 0.072923 0.976308
#
# Coordination Sequence:
#
# PCOD9089552 Si02
#       8
#     2   2   2   2   2   2   2   2
#     4  10  19  38  59  81 121 152 189 249 304 354
#     4  11  19  36  63  88 116 155 200 248 304 347
#     4  10  20  34  60  92 117 155 213 247 276 359
#     4   9  20  37  63  86 105 149 207 253 300 356
#     4   9  19  37  61  83 106 143 201 255 295 348
#     4  10  21  39  55  81 137 170 193 238 297 350
#     4  10  22  35  57  88 125 162 192 240 302 367
#     4  11  21  34  63  90 119 164 211 243 284 357
#
# _framework density 22.28274
#
# number of rings (size 3 to 8) (size 9 to 14) (size 15 to 20)
#    0.000    2.000    2.500    1.875    1.750    0.000 
#    0.000   11.875   11.000    0.000    0.000    0.000 
#    0.000    0.000    0.000    0.000    0.000    0.000 
#
# Total GULP energy -89204.465969 kJ/mol
# GULP energy per Si atom -5575.279123 kJ/mol
# Density = 2.223202 g / cm^3
# Si number density = 22.282740 Si / 1000 Ang^3
#
#
#
# Elastic Constant Matrix: (Units=GPa)
#
#
# Indices 1 2 3 4 5 6 
#
# 1 69.5534 -3.6850 18.9207 -12.1651 4.0350 3.2080
# 2 -3.6850 19.5876 17.8375 -8.8554 -0.0272 -6.8207
# 3 18.9207 17.8375 102.0451 -32.8312 -3.6560 -2.9839
# 4 -12.1651 -8.8554 -32.8312 31.1890 -3.2712 6.2781
# 5 4.0350 -0.0272 -3.6560 -3.2712 32.5181 -2.8704
# 6 3.2080 -6.8207 -2.9839 6.2781 -2.8704 18.2618
#
#
#
# Elastic Compliance Matrix: (Units=1/GPa)
#
#
# Indices 1 2 3 4 5 6 
#
# 1 0.016821 0.007214 -0.002473 0.006440 -0.001993 -0.003192
# 2 0.007214 0.073578 -0.011045 0.007747 0.000632 0.021845
# 3 -0.002473 -0.011045 0.017084 0.015366 0.003264 -0.005669
# 4 0.006440 0.007747 0.015366 0.056382 0.005347 -0.014270
# 5 -0.001993 0.000632 0.003264 0.005347 0.032289 0.004357
# 6 -0.003192 0.021845 -0.005669 -0.014270 0.004357 0.068143
#
#
# Mechanical properties :
#
#
# Convention : Reuss Voigt Hill
#
# Bulk Modulus (GPa) = 10.54021 28.59248 19.56635
# Shear Modulus (GPa) = 16.20577 26.93465 21.57021
#
# Velocity S-wave (km/s) = 2.69974 3.48050 3.11468
# Velocity P-wave (km/s) = 3.80245 5.38622 4.66208
#
# Compressibility (1/GPa) = 0.09487478
#
# Stress axis : x y z
#
# Youngs Moduli (GPa) = 59.44778 13.59099 58.53516
#
# Poissons Ratio (x) = -0.09804 0.14474
# Poissons Ratio (y) = -0.42883 0.64653
# Poissons Ratio (z) = 0.14700 0.15011
#
# Static dielectric constant tensor:
#      x y z
#    x 1.887690 -0.004780 0.053050 
#    y -0.004780 1.811700 -0.008190 
#    z 0.053050 -0.008190 1.869950 
# 
# From -- ./inp_files/221806.got.cif
#   From: 2010.05.17/outbox.cif.g08.bks.cpg/sg2_111_cif.got.tgz:221806.got - 2010.06.03 11:33:40.
