data_PCOD9089150
_publ_section_title
;
Structure prediction by ZEFSAII (Michael W. Deem and Ramdas Pophale) SiO2 
 PCOD9089150
Probable space group: P -1
;
_chemical_formula_sum "Si O2"
_cell_formula_units_Z 14
_cell_length_a 9.167799
_cell_length_b 24.924939
_cell_length_c 18.830896
_cell_angle_alpha 19.629007
_cell_angle_beta 149.391619
_cell_angle_gamma 137.833392
_cell_volume 672.586588
_symmetry_space_group_name_H-M "P -1"
_symmetry_group_IT_number 2
_symmetry_cell_setting 'triclinic'
loop_
_space_group_symop_operation_xyz
x,y,z
-x,-y,-z
loop_
_atom_site_type_symbol
_atom_site_label
_atom_site_fract_x
_atom_site_fract_y
_atom_site_fract_z
Si Si1 0.358971 0.863824 0.809650
Si Si2 0.549904 0.699883 0.590668
Si Si3 0.560916 0.040864 0.126918
Si Si4 0.792716 0.450169 0.873020
Si Si5 0.603276 0.529949 0.085313
Si Si6 0.315239 0.893516 0.592509
Si Si7 0.279601 0.416856 0.475484
O O1 0.523901 0.907201 0.890553
O O2 0.449786 0.867247 0.762123
O O3 0.373004 0.673215 0.065849
O O4 0.000000 0.000000 0.500000
O O5 0.646312 0.553910 0.752662
O O6 0.347915 0.641081 0.633807
O O7 0.468180 0.875981 0.291987
O O8 0.853034 0.670858 0.803419
O O9 0.383932 0.215769 0.790881
O O10 0.933581 0.981422 0.336428
O O11 0.757401 0.570121 0.641262
O O12 0.936728 0.537143 0.209894
O O13 0.500000 0.500000 0.000000
O O14 0.383477 0.711380 0.806067
O O15 0.500000 0.000000 0.500000
O O16 0.500000 0.500000 0.500000
#
# Coordination Sequence:
#
# PCOD9089150 Si02
#       7
#     2   2   2   2   2   2   2
#     4  10  19  37  65  96 126 182 225 262 323 411
#     4  11  22  42  68  94 132 181 229 265 331 412
#     4  11  24  42  67  98 134 177 221 277 344 394
#     4  11  20  41  68  94 133 182 223 267 332 412
#     4  12  26  43  68 102 134 178 228 277 328 404
#     4  11  23  40  67 101 134 177 234 274 322 407
#     4  12  26  43  69 103 140 173 219 286 349 387
#
# _framework density 20.815162999999998
#
# number of rings (size 3 to 8) (size 9 to 14) (size 15 to 20)
#    0.000    0.857    7.143    1.714    4.000    1.143 
#    0.000    4.286    0.000    0.000    0.000    0.000 
#    0.000    0.000    0.000    0.000    0.000    0.000 
#
# Total GULP energy -77990.707129 kJ/mol
# GULP energy per Si atom -5570.764795 kJ/mol
# Density = 2.076779 g / cm^3
# Si number density = 20.815163 Si / 1000 Ang^3
#
#
#
# Elastic Constant Matrix: (Units=GPa)
#
#
# Indices 1 2 3 4 5 6 
#
# 1 122.5092 20.1720 38.1975 -1.9468 -18.0149 -11.6898
# 2 20.1720 56.7393 8.7091 -20.1509 13.7286 0.2848
# 3 38.1975 8.7091 86.9910 -14.1947 -22.3160 -11.6084
# 4 -1.9468 -20.1509 -14.1947 23.4923 6.2367 0.0874
# 5 -18.0149 13.7286 -22.3160 6.2367 34.7053 -4.9326
# 6 -11.6898 0.2848 -11.6084 0.0874 -4.9326 21.3652
#
#
#
# Elastic Compliance Matrix: (Units=1/GPa)
#
#
# Indices 1 2 3 4 5 6 
#
# 1 0.014646 -0.015549 -0.001815 -0.017885 0.017410 0.011327
# 2 -0.015549 0.054402 -0.004262 0.054926 -0.045364 -0.022247
# 3 -0.001815 -0.004262 0.018466 0.003669 0.013699 0.012245
# 4 -0.017885 0.054926 0.003669 0.103827 -0.050230 -0.020546
# 5 0.017410 -0.045364 0.013699 -0.050230 0.078742 0.035959
# 6 0.011327 -0.022247 0.012245 -0.020546 0.035959 0.068338
#
#
# Mechanical properties :
#
#
# Convention : Reuss Voigt Hill
#
# Bulk Modulus (GPa) = 22.59361 44.48852 33.54106
# Shear Modulus (GPa) = 12.61268 29.18995 20.90132
#
# Velocity S-wave (km/s) = 2.46425 3.74885 3.17225
# Velocity P-wave (km/s) = 4.35599 6.33703 5.43749
#
# Compressibility (1/GPa) = 0.04426031
#
# Stress axis : x y z
#
# Youngs Moduli (GPa) = 68.27990 18.38180 54.15425
#
# Poissons Ratio (x) = 0.28583 0.09827
# Poissons Ratio (y) = 1.06172 0.23082
# Poissons Ratio (z) = 0.12390 0.07835
#
# Static dielectric constant tensor:
#      x y z
#    x 1.781940 0.042260 -0.022790 
#    y 0.042260 1.794490 -0.008150 
#    z -0.022790 -0.008150 1.777140 
# 
# From -- ./inp_files/157980.got.cif
#   From: 2010.05.17/outbox.cif.g08.bks.cpg/sg2_79_cif.got.tgz:157980.got - 2010.06.03 11:33:40.
