data_PCOD9089322
_publ_section_title
;
Structure prediction by ZEFSAII (Michael W. Deem and Ramdas Pophale) SiO2 
 PCOD9089322
Probable space group: P -1
;
_chemical_formula_sum "Si O2"
_cell_formula_units_Z 16
_cell_length_a 8.821000
_cell_length_b 9.137515
_cell_length_c 12.146581
_cell_angle_alpha 104.977637
_cell_angle_beta 47.681994
_cell_angle_gamma 102.314057
_cell_volume 698.268703
_symmetry_space_group_name_H-M "P -1"
_symmetry_group_IT_number 2
_symmetry_cell_setting 'triclinic'
loop_
_space_group_symop_operation_xyz
x,y,z
-x,-y,-z
loop_
_atom_site_type_symbol
_atom_site_label
_atom_site_fract_x
_atom_site_fract_y
_atom_site_fract_z
Si Si1 0.783421 0.636725 0.719843
Si Si2 0.852849 0.846851 0.535846
Si Si3 0.177899 0.281538 0.717691
Si Si4 0.522342 0.651819 0.238722
Si Si5 0.370199 0.757668 0.003027
Si Si6 0.891803 0.078119 0.966676
Si Si7 0.546253 0.059089 0.808773
Si Si8 0.863954 0.529110 0.890683
O O1 0.904271 0.723119 0.579351
O O2 0.647555 0.486965 0.716752
O O3 0.902488 0.608134 0.769543
O O4 0.605512 0.747409 0.861503
O O5 0.841349 0.765248 0.408695
O O6 0.632217 0.913666 0.681684
O O7 0.000000 0.000000 0.500000
O O8 0.399482 0.317130 0.669839
O O9 0.073041 0.134577 0.805559
O O10 0.056063 0.437341 0.819060
O O11 0.440217 0.801865 0.254538
O O12 0.736355 0.622511 0.060164
O O13 0.236694 0.768029 0.959272
O O14 0.326831 0.891984 0.134348
O O15 0.304446 0.608922 0.074782
O O16 0.686274 0.967726 0.041075
O O17 0.000000 0.000000 0.000000
#
# Coordination Sequence:
#
# PCOD9089322 Si02
#       8
#     2   2   2   2   2   2   2   2
#     4  11  22  42  73  99 131 183 234 277 345 405
#     4  12  29  46  68 102 141 186 226 285 349 417
#     4  11  26  44  65 103 151 175 226 285 346 412
#     4  11  22  42  73 103 134 179 232 288 341 405
#     4  10  19  37  68 102 130 170 231 290 328 389
#     4  11  22  38  67 100 133 178 223 280 339 399
#     4  12  22  43  72 101 135 180 230 283 343 402
#     4  10  20  40  70 105 128 174 234 293 330 391
#
# _framework density 22.913816000000001
#
# number of rings (size 3 to 8) (size 9 to 14) (size 15 to 20)
#    0.000    1.000    5.000    3.000    1.750    1.500 
#    0.000    0.000    0.000    0.000    0.000    0.000 
#    0.000    0.000    0.000    0.000    0.000    0.000 
#
# Total GULP energy -89095.789507 kJ/mol
# GULP energy per Si atom -5568.486844 kJ/mol
# Density = 2.286166 g / cm^3
# Si number density = 22.913816 Si / 1000 Ang^3
#
#
#
# Elastic Constant Matrix: (Units=GPa)
#
#
# Indices 1 2 3 4 5 6 
#
# 1 88.5551 22.3511 16.7774 -12.6167 15.4660 -22.7080
# 2 22.3511 98.9076 30.2222 -25.6294 14.3164 -20.3425
# 3 16.7774 30.2222 48.2024 -13.3584 17.7530 -9.7251
# 4 -12.6167 -25.6294 -13.3584 41.8647 -10.6718 8.0395
# 5 15.4660 14.3164 17.7530 -10.6718 27.0244 -9.1303
# 6 -22.7080 -20.3425 -9.7251 8.0395 -9.1303 45.6446
#
#
#
# Elastic Compliance Matrix: (Units=1/GPa)
#
#
# Indices 1 2 3 4 5 6 
#
# 1 0.014040 -0.000702 -0.001397 0.001199 -0.004493 0.005264
# 2 -0.000702 0.014555 -0.006732 0.006019 0.000773 0.003798
# 3 -0.001397 -0.006732 0.031687 0.001578 -0.015968 -0.000416
# 4 0.001199 0.006019 0.001578 0.030266 0.006929 -0.000330
# 5 -0.004493 0.000773 -0.015968 0.006929 0.053828 0.004254
# 6 0.005264 0.003798 -0.000416 -0.000330 0.004254 0.027040
#
#
# Mechanical properties :
#
#
# Convention : Reuss Voigt Hill
#
# Bulk Modulus (GPa) = 23.46356 41.59628 32.52992
# Shear Modulus (GPa) = 24.59602 33.99438 29.29520
#
# Velocity S-wave (km/s) = 3.27985 3.85590 3.57948
# Velocity P-wave (km/s) = 4.96038 6.16577 5.59563
#
# Compressibility (1/GPa) = 0.04261927
#
# Stress axis : x y z
#
# Youngs Moduli (GPa) = 71.22630 68.70583 31.55830
#
# Poissons Ratio (x) = 0.04822 0.04410
# Poissons Ratio (y) = 0.04999 0.21245
# Poissons Ratio (z) = 0.09953 0.46253
#
# Static dielectric constant tensor:
#      x y z
#    x 1.866910 -0.001280 -0.009910 
#    y -0.001280 1.916480 -0.032120 
#    z -0.009910 -0.032120 1.945300 
# 
# From -- ./inp_files/379446.got.cif
#   From: 2010.05.17/outbox.cif.g08.bks.cpg/sg2_190_cif.got.tgz:379446.got - 2010.06.03 11:33:40.
