data_PCOD9089608
_publ_section_title
;
Structure prediction by ZEFSAII (Michael W. Deem and Ramdas Pophale) SiO2 
 PCOD9089608
Probable space group: P -1
;
_chemical_formula_sum "Si O2"
_cell_formula_units_Z 16
_cell_length_a 8.019197
_cell_length_b 8.767348
_cell_length_c 16.395489
_cell_angle_alpha 43.547647
_cell_angle_beta 61.713313
_cell_angle_gamma 81.742893
_cell_volume 660.304928
_symmetry_space_group_name_H-M "P -1"
_symmetry_group_IT_number 2
_symmetry_cell_setting 'triclinic'
loop_
_space_group_symop_operation_xyz
x,y,z
-x,-y,-z
loop_
_atom_site_type_symbol
_atom_site_label
_atom_site_fract_x
_atom_site_fract_y
_atom_site_fract_z
Si Si1 0.100747 0.882598 0.793801
Si Si2 0.763881 0.379274 0.619819
Si Si3 0.383151 0.238977 0.462782
Si Si4 0.380513 0.623668 0.088593
Si Si5 0.714362 0.463197 0.036780
Si Si6 0.769973 0.896653 0.616209
Si Si7 0.882005 0.185614 0.810680
Si Si8 0.726458 0.360321 0.465469
O O1 0.251978 0.753455 0.840626
O O2 0.212765 0.070930 0.626825
O O3 0.007644 0.006103 0.838472
O O4 0.920769 0.661980 0.888109
O O5 0.688361 0.544354 0.631855
O O6 0.761501 0.163950 0.760750
O O7 0.648791 0.411206 0.551854
O O8 0.000000 0.500000 0.500000
O O9 0.372360 0.121329 0.422923
O O10 0.588398 0.324799 0.432312
O O11 0.600727 0.605264 0.062463
O O12 0.260305 0.348776 0.239554
O O13 0.277372 0.792488 0.092287
O O14 0.387417 0.653707 0.978071
O O15 0.744292 0.112243 0.587940
O O16 0.000000 0.000000 0.500000
O O17 0.062605 0.437113 0.678036
#
# Coordination Sequence:
#
# PCOD9089608 Si02
#       8
#     2   2   2   2   2   2   2   2
#     4  11  24  45  67  96 130 181 219 276 326 387
#     4  10  19  38  59  95 135 167 206 260 341 406
#     4  12  22  39  65 102 138 165 212 269 342 403
#     4  11  23  47  67  97 129 175 227 276 320 397
#     4  10  26  46  69  88 130 181 234 270 320 382
#     4  12  22  38  68 101 131 170 209 271 337 398
#     4  11  23  41  70  97 135 171 220 277 332 393
#     4  11  23  36  60 104 141 170 204 265 349 406
#
# _framework density 24.231228000000002
#
# number of rings (size 3 to 8) (size 9 to 14) (size 15 to 20)
#    0.000    1.000    5.000    3.000    1.750    1.000 
#    2.250    0.000    0.000    0.000    0.000    0.000 
#    0.000    0.000    0.000    0.000    0.000    0.000 
#
# Total GULP energy -89126.812412 kJ/mol
# GULP energy per Si atom -5570.425776 kJ/mol
# Density = 2.417608 g / cm^3
# Si number density = 24.231228 Si / 1000 Ang^3
#
#
#
# Elastic Constant Matrix: (Units=GPa)
#
#
# Indices 1 2 3 4 5 6 
#
# 1 89.4416 21.3485 15.0868 2.5793 6.1696 -0.4453
# 2 21.3485 85.7821 -4.8483 8.4847 10.2617 -26.0091
# 3 15.0868 -4.8483 49.3303 -1.5892 -7.5121 -3.7739
# 4 2.5793 8.4847 -1.5892 32.3950 -4.7959 3.2012
# 5 6.1696 10.2617 -7.5121 -4.7959 24.1583 -5.0373
# 6 -0.4453 -26.0091 -3.7739 3.2012 -5.0373 36.6010
#
#
#
# Elastic Compliance Matrix: (Units=1/GPa)
#
#
# Indices 1 2 3 4 5 6 
#
# 1 0.013422 -0.004320 -0.005494 -0.000435 -0.004225 -0.004017
# 2 -0.004320 0.017943 0.003277 -0.006072 -0.003990 0.013018
# 3 -0.005494 0.003277 0.024149 0.001523 0.009045 0.005864
# 4 -0.000435 -0.006072 0.001523 0.034455 0.008759 -0.005971
# 5 -0.004225 -0.003990 0.009045 0.008759 0.049575 0.004103
# 6 -0.004017 0.013018 0.005864 -0.005971 0.004103 0.038215
#
#
# Mechanical properties :
#
#
# Convention : Reuss Voigt Hill
#
# Bulk Modulus (GPa) = 23.56290 31.96979 27.76634
# Shear Modulus (GPa) = 24.39262 31.49533 27.94397
#
# Velocity S-wave (km/s) = 3.17623 3.60916 3.39960
# Velocity P-wave (km/s) = 4.81628 5.53085 5.18589
#
# Compressibility (1/GPa) = 0.04243959
#
# Stress axis : x y z
#
# Youngs Moduli (GPa) = 74.50198 55.73310 41.40941
#
# Poissons Ratio (x) = 0.24079 0.22752
# Poissons Ratio (y) = 0.32187 -0.13572
# Poissons Ratio (z) = 0.40934 -0.18266
#
# Static dielectric constant tensor:
#      x y z
#    x 1.981670 -0.051370 -0.007390 
#    y -0.051370 2.114880 -0.044810 
#    z -0.007390 -0.044810 1.945470 
# 
# From -- ./inp_files/556749.got.cif
#   From: 2010.05.17/outbox.cif.g08.bks.cpg/sg2_279_cif.got.tgz:556749.got - 2010.06.03 11:33:40.
