data_PCOD9089094
_publ_section_title
;
Structure prediction by ZEFSAII (Michael W. Deem and Ramdas Pophale) SiO2 
 PCOD9089094
Probable space group: P -1
;
_chemical_formula_sum "Si O2"
_cell_formula_units_Z 16
_cell_length_a 9.717065
_cell_length_b 8.105468
_cell_length_c 12.216830
_cell_angle_alpha 106.521042
_cell_angle_beta 66.789505
_cell_angle_gamma 137.004544
_cell_volume 603.052511
_symmetry_space_group_name_H-M "P -1"
_symmetry_group_IT_number 2
_symmetry_cell_setting 'triclinic'
loop_
_space_group_symop_operation_xyz
x,y,z
-x,-y,-z
loop_
_atom_site_type_symbol
_atom_site_label
_atom_site_fract_x
_atom_site_fract_y
_atom_site_fract_z
Si Si1 0.021351 0.724562 0.146937
Si Si2 0.369050 0.159050 0.576184
Si Si3 0.275561 0.401947 0.967349
Si Si4 0.689265 0.753650 0.753641
Si Si5 0.277431 0.031073 0.822610
Si Si6 0.680826 0.269440 0.827817
Si Si7 0.027213 0.335951 0.329717
Si Si8 0.368720 0.563386 0.637642
O O1 0.917383 0.665054 0.050385
O O2 0.826992 0.523372 0.249864
O O3 0.214323 0.753274 0.112849
O O4 0.123506 0.984486 0.203687
O O5 0.398551 0.189422 0.703435
O O6 0.316864 0.317023 0.592051
O O7 0.574209 0.291004 0.463768
O O8 0.178234 0.867975 0.569419
O O9 0.487839 0.595629 0.866302
O O10 0.232602 0.163439 0.933216
O O11 0.324572 0.538722 0.089718
O O12 0.585231 0.743179 0.673702
O O13 0.805103 0.667605 0.682234
O O14 0.439142 0.034867 0.832053
O O15 0.073878 0.791394 0.782670
O O16 0.832720 0.386403 0.695863
#
# Coordination Sequence:
#
# PCOD9089094 Si02
#       8
#     2   2   2   2   2   2   2   2
#     4  11  23  42  57  91 120 151 199 249 284 351
#     4   9  18  39  62  90 118 145 197 253 279 343
#     4  11  22  40  61  87 118 156 201 245 279 350
#     4  11  19  38  64  84 120 152 200 240 288 349
#     4  10  20  39  57  90 120 145 199 245 280 352
#     4  12  25  37  62  85 122 162 191 238 307 336
#     4  10  20  38  59  87 118 154 190 243 286 352
#     4  10  19  37  65  90 116 149 197 247 293 335
#
# _framework density 26.531685
#
# number of rings (size 3 to 8) (size 9 to 14) (size 15 to 20)
#    0.750    0.750    6.250    0.750    0.000    4.500 
#    2.250    1.250    0.000    0.000    0.000    0.000 
#    0.000    0.000    0.000    0.000    0.000    0.000 
#
# Total GULP energy -89371.329839 kJ/mol
# GULP energy per Si atom -5585.708115 kJ/mol
# Density = 2.647130 g / cm^3
# Si number density = 26.531685 Si / 1000 Ang^3
#
#
#
# Elastic Constant Matrix: (Units=GPa)
#
#
# Indices 1 2 3 4 5 6 
#
# 1 149.6996 4.6043 -2.4975 -2.5123 2.4230 23.7018
# 2 4.6043 63.4173 19.1856 -12.5975 -8.3039 23.9128
# 3 -2.4975 19.1856 83.9731 -10.4489 13.5114 6.4445
# 4 -2.5123 -12.5975 -10.4489 32.6692 2.4676 -2.4637
# 5 2.4230 -8.3039 13.5114 2.4676 10.5817 -5.1241
# 6 23.7018 23.9128 6.4445 -2.4637 -5.1241 37.7048
#
#
#
# Elastic Compliance Matrix: (Units=1/GPa)
#
#
# Indices 1 2 3 4 5 6 
#
# 1 0.007885 0.000674 0.001964 0.001551 -0.007350 -0.006617
# 2 0.000674 0.027374 -0.008710 0.004971 0.025215 -0.012544
# 3 0.001964 -0.008710 0.021058 0.006059 -0.037529 -0.004014
# 4 0.001551 0.004971 0.006059 0.035334 -0.014786 -0.004864
# 5 -0.007350 0.025215 -0.037529 -0.014786 0.176059 0.018004
# 6 -0.006617 -0.012544 -0.004014 -0.004864 0.018004 0.041452
#
#
# Mechanical properties :
#
#
# Convention : Reuss Voigt Hill
#
# Bulk Modulus (GPa) = 22.63863 37.74163 30.19013
# Shear Modulus (GPa) = 14.87965 34.57766 24.72866
#
# Velocity S-wave (km/s) = 2.37075 3.61398 3.05625
# Velocity P-wave (km/s) = 4.00563 5.62766 4.88445
#
# Compressibility (1/GPa) = 0.04417229
#
# Stress axis : x y z
#
# Youngs Moduli (GPa) = 126.82686 36.53117 47.48894
#
# Poissons Ratio (x) = -0.02463 -0.09326
# Poissons Ratio (y) = -0.08550 0.41363
# Poissons Ratio (z) = -0.24907 0.31819
#
# Static dielectric constant tensor:
#      x y z
#    x 2.056650 -0.068620 -0.023370 
#    y -0.068620 2.104310 -0.000250 
#    z -0.023370 -0.000250 2.100920 
# 
# From -- ./inp_files/492961.got.cif
#   From: 2010.05.17/outbox.cif.g08.bks.cpg/sg2_247_cif.got.tgz:492961.got - 2010.06.03 11:33:40.
