data_PCOD9089445
_publ_section_title
;
Structure prediction by ZEFSAII (Michael W. Deem and Ramdas Pophale) SiO2 
 PCOD9089445
Probable space group: P -1
;
_chemical_formula_sum "Si O2"
_cell_formula_units_Z 14
_cell_length_a 9.303799
_cell_length_b 8.108955
_cell_length_c 12.407538
_cell_angle_alpha 139.291047
_cell_angle_beta 105.774743
_cell_angle_gamma 90.426807
_cell_volume 552.487094
_symmetry_space_group_name_H-M "P -1"
_symmetry_group_IT_number 2
_symmetry_cell_setting 'triclinic'
loop_
_space_group_symop_operation_xyz
x,y,z
-x,-y,-z
loop_
_atom_site_type_symbol
_atom_site_label
_atom_site_fract_x
_atom_site_fract_y
_atom_site_fract_z
Si Si1 0.703632 0.998543 0.348227
Si Si2 0.151074 0.604860 0.239890
Si Si3 0.855733 0.264349 0.286350
Si Si4 0.877326 0.815539 0.582472
Si Si5 0.809118 0.891671 0.910773
Si Si6 0.583826 0.808666 0.632237
Si Si7 0.851038 0.598404 0.103046
O O1 0.797192 0.128535 0.541267
O O2 0.779959 0.180967 0.348390
O O3 0.531616 0.026434 0.333502
O O4 0.720132 0.707547 0.182338
O O5 0.232899 0.423463 0.231188
O O6 0.957909 0.471524 0.133235
O O7 0.189292 0.556059 0.096445
O O8 0.860611 0.548310 0.380028
O O9 0.036836 0.268604 0.338287
O O10 0.763276 0.025023 0.072168
O O11 0.701632 0.812921 0.561334
O O12 0.001818 0.111593 0.736991
O O13 0.708446 0.941295 0.817389
O O14 0.000000 0.000000 0.000000
O O15 0.500000 0.500000 0.500000
#
# Coordination Sequence:
#
# PCOD9089445 Si02
#       7
#     2   2   2   2   2   2   2
#     4  11  22  39  59  92 124 155 200 257 307 354
#     4  11  21  39  65  89 120 161 212 251 298 357
#     4  10  20  36  61  87 122 156 209 249 296 367
#     4  10  19  38  55  87 123 157 201 247 301 363
#     4  12  22  38  64  94 122 163 204 254 306 363
#     4  12  22  36  61  92 129 156 194 262 318 352
#     4  10  23  41  64  88 119 169 212 243 290 382
#
# _framework density 25.339957999999999
#
# number of rings (size 3 to 8) (size 9 to 14) (size 15 to 20)
#    0.000    1.143    7.143    0.429    4.000    0.571 
#    2.571    0.714    0.000    7.714    0.000    0.000 
#    0.000    0.000    0.000    0.000    0.000    0.000 
#
# Total GULP energy -78090.167697 kJ/mol
# GULP energy per Si atom -5577.869121 kJ/mol
# Density = 2.528228 g / cm^3
# Si number density = 25.339958 Si / 1000 Ang^3
#
#
#
# Elastic Constant Matrix: (Units=GPa)
#
#
# Indices 1 2 3 4 5 6 
#
# 1 131.4925 27.4211 34.7239 -9.5855 -9.1797 -37.4252
# 2 27.4211 62.4920 33.7935 -8.5181 -7.1978 -14.3654
# 3 34.7239 33.7935 126.2500 -17.5247 -29.1960 -4.5779
# 4 -9.5855 -8.5181 -17.5247 55.4199 -3.0707 3.7645
# 5 -9.1797 -7.1978 -29.1960 -3.0707 38.7173 4.0219
# 6 -37.4252 -14.3654 -4.5779 3.7645 4.0219 52.7710
#
#
#
# Elastic Compliance Matrix: (Units=1/GPa)
#
#
# Indices 1 2 3 4 5 6 
#
# 1 0.010488 -0.001874 -0.002113 0.000394 -0.000122 0.006726
# 2 -0.001874 0.020351 -0.004792 0.001000 -0.000587 0.003769
# 3 -0.002113 -0.004792 0.012059 0.003346 0.008240 -0.002623
# 4 0.000394 0.001000 0.003346 0.019632 0.004453 -0.000898
# 5 -0.000122 -0.000587 0.008240 0.004453 0.032498 -0.002326
# 6 0.006726 0.003769 -0.002623 -0.000898 -0.002326 0.024760
#
#
# Mechanical properties :
#
#
# Convention : Reuss Voigt Hill
#
# Bulk Modulus (GPa) = 39.46187 56.90129 48.18158
# Shear Modulus (GPa) = 34.29522 44.33472 39.31497
#
# Velocity S-wave (km/s) = 3.68286 4.18736 3.94318
# Velocity P-wave (km/s) = 5.80443 6.77366 6.30769
#
# Compressibility (1/GPa) = 0.02534092
#
# Stress axis : x y z
#
# Youngs Moduli (GPa) = 95.34462 49.13825 82.92227
#
# Poissons Ratio (x) = 0.09208 0.17520
# Poissons Ratio (y) = 0.17866 0.39738
# Poissons Ratio (z) = 0.20144 0.23548
#
# Static dielectric constant tensor:
#      x y z
#    x 2.067760 -0.049540 -0.089550 
#    y -0.049540 2.249730 0.105750 
#    z -0.089550 0.105750 2.081850 
# 
# From -- ./inp_files/501265.got.cif
#   From: 2010.05.17/outbox.cif.g08.bks.cpg/sg2_251_cif.got.tgz:501265.got - 2010.06.03 11:33:40.
