data_PCOD9089504
_publ_section_title
;
Structure prediction by ZEFSAII (Michael W. Deem and Ramdas Pophale) SiO2 
 PCOD9089504
Probable space group: P -1
;
_chemical_formula_sum "Si O2"
_cell_formula_units_Z 14
_cell_length_a 28.259980
_cell_length_b 9.647426
_cell_length_c 12.895872
_cell_angle_alpha 145.173429
_cell_angle_beta 156.169732
_cell_angle_gamma 27.747903
_cell_volume 660.166182
_symmetry_space_group_name_H-M "P -1"
_symmetry_group_IT_number 2
_symmetry_cell_setting 'triclinic'
loop_
_space_group_symop_operation_xyz
x,y,z
-x,-y,-z
loop_
_atom_site_type_symbol
_atom_site_label
_atom_site_fract_x
_atom_site_fract_y
_atom_site_fract_z
Si Si1 0.937781 0.333510 0.402486
Si Si2 0.611292 0.684684 0.975291
Si Si3 0.643189 0.722252 0.527383
Si Si4 0.941744 0.274252 0.129334
Si Si5 0.352876 0.155316 0.083350
Si Si6 0.767667 0.208927 0.317667
Si Si7 0.578013 0.301899 0.810559
O O1 0.779103 0.492103 0.226630
O O2 0.944435 0.227390 0.230856
O O3 0.970061 0.581924 0.618442
O O4 0.070676 0.043775 0.547342
O O5 0.616996 0.760858 0.914991
O O6 0.564345 0.471345 0.782997
O O7 0.500000 0.000000 0.000000
O O8 0.758523 0.453105 0.522471
O O9 0.574636 0.612030 0.401863
O O10 0.502400 0.954494 0.318758
O O11 0.677926 0.941396 0.779114
O O12 0.775141 0.535899 0.932128
O O13 0.000000 0.000000 0.000000
O O14 0.287204 0.960979 0.830849
O O15 0.653565 0.366924 0.092468
#
# Coordination Sequence:
#
# PCOD9089504 Si02
#       7
#     2   2   2   2   2   2   2
#     4   9  21  35  54  84 113 145 188 228 275 336
#     4  11  21  37  57  83 117 148 181 233 287 330
#     4  10  20  37  58  80 109 148 187 234 273 318
#     4   9  18  35  58  84 113 147 185 231 277 325
#     4   9  19  35  58  86 111 141 191 231 273 339
#     4  10  19  38  58  78 111 147 186 230 272 326
#     4  10  22  35  56  85 109 146 194 221 271 343
#
# _framework density 21.206782
#
# number of rings (size 3 to 8) (size 9 to 14) (size 15 to 20)
#    0.000    2.286    0.000    4.286    0.000    6.857 
#    0.000    5.000    0.000    0.000    0.000    0.000 
#    0.000    0.000    0.000    0.000    0.000    0.000 
#
# Total GULP energy -78115.760728 kJ/mol
# GULP energy per Si atom -5579.697195 kJ/mol
# Density = 2.115851 g / cm^3
# Si number density = 21.206782 Si / 1000 Ang^3
#
#
#
# Elastic Constant Matrix: (Units=GPa)
#
#
# Indices 1 2 3 4 5 6 
#
# 1 96.5295 32.0273 19.6673 8.9719 16.8752 3.5268
# 2 32.0273 102.2940 18.3309 9.5539 3.5718 -31.6823
# 3 19.6673 18.3309 43.8608 -3.1836 -1.6668 -8.6641
# 4 8.9719 9.5539 -3.1836 33.9271 -6.1535 -11.4611
# 5 16.8752 3.5718 -1.6668 -6.1535 23.9165 4.1531
# 6 3.5268 -31.6823 -8.6641 -11.4611 4.1531 40.5905
#
#
#
# Elastic Compliance Matrix: (Units=1/GPa)
#
#
# Indices 1 2 3 4 5 6 
#
# 1 0.017209 -0.005275 -0.008368 -0.009093 -0.012774 -0.008659
# 2 -0.005275 0.015544 -0.001593 0.001010 -0.000639 0.012601
# 3 -0.008368 -0.001593 0.029789 0.009739 0.009399 0.007631
# 4 -0.009093 0.001010 0.009739 0.039711 0.014843 0.013351
# 5 -0.012774 -0.000639 0.009399 0.014843 0.055193 0.001162
# 6 -0.008659 0.012601 0.007631 0.013351 0.001162 0.040504
#
#
# Mechanical properties :
#
#
# Convention : Reuss Voigt Hill
#
# Bulk Modulus (GPa) = 31.18185 42.52615 36.85400
# Shear Modulus (GPa) = 20.91078 31.19742 26.05410
#
# Velocity S-wave (km/s) = 3.14354 3.83966 3.50890
# Velocity P-wave (km/s) = 5.28312 6.30507 5.81659
#
# Compressibility (1/GPa) = 0.03206993
#
# Stress axis : x y z
#
# Youngs Moduli (GPa) = 58.10797 64.33536 33.56985
#
# Poissons Ratio (x) = 0.33939 0.28091
# Poissons Ratio (y) = 0.30654 0.05346
# Poissons Ratio (z) = 0.48625 0.10246
#
# Static dielectric constant tensor:
#      x y z
#    x 1.805750 0.007120 -0.036290 
#    y 0.007120 1.775920 0.002680 
#    z -0.036290 0.002680 1.802570 
# 
# From -- ./inp_files/471391.got.cif
#   From: 2010.05.17/outbox.cif.g08.bks.cpg/sg2_236_cif.got.tgz:471391.got - 2010.06.03 11:33:40.
