data_PCOD9089927
_publ_section_title
;
Structure prediction by ZEFSAII (Michael W. Deem and Ramdas Pophale) SiO2 
 PCOD9089927
Probable space group: P -1
;
_chemical_formula_sum "Si O2"
_cell_formula_units_Z 12
_cell_length_a 11.926272
_cell_length_b 5.167219
_cell_length_c 13.919735
_cell_angle_alpha 123.254884
_cell_angle_beta 139.000574
_cell_angle_gamma 66.776358
_cell_volume 470.311389
_symmetry_space_group_name_H-M "P -1"
_symmetry_group_IT_number 2
_symmetry_cell_setting 'triclinic'
loop_
_space_group_symop_operation_xyz
x,y,z
-x,-y,-z
loop_
_atom_site_type_symbol
_atom_site_label
_atom_site_fract_x
_atom_site_fract_y
_atom_site_fract_z
Si Si1 0.078823 0.347065 0.366822
Si Si2 0.853180 0.139259 0.328834
Si Si3 0.333105 0.666651 0.461149
Si Si4 0.401912 0.922714 0.187723
Si Si5 0.278428 0.535994 0.865717
Si Si6 0.203129 0.552670 0.152701
O O1 0.088434 0.663311 0.501872
O O2 0.236679 0.413053 0.413978
O O3 0.022458 0.101764 0.363821
O O4 0.907269 0.343630 0.191373
O O5 0.730203 0.338415 0.222279
O O6 0.751083 0.826568 0.219741
O O7 0.500000 0.500000 0.500000
O O8 0.233324 0.722079 0.309241
O O9 0.412145 0.963380 0.629094
O O10 0.294194 0.749729 0.166970
O O11 0.300283 0.227725 0.153611
O O12 0.412320 0.696172 0.056678
O O13 0.000000 0.500000 0.000000
#
# Coordination Sequence:
#
# PCOD9089927 Si02
#       6
#     2   2   2   2   2   2
#     4   9  20  38  65  89 122 164 213 257 311 364
#     4   9  20  37  65  93 117 157 219 265 299 361
#     4  10  23  44  61  94 134 169 203 258 323 382
#     4  11  23  41  60  93 132 165 203 265 319 379
#     4  10  19  38  62  92 121 157 213 259 312 363
#     4  11  23  42  64  90 123 171 224 255 303 370
#
# _framework density 25.515008999999999
#
# number of rings (size 3 to 8) (size 9 to 14) (size 15 to 20)
#    1.000    1.000    0.000    3.500    0.000    1.333 
#   12.000    1.667    0.000    0.000    0.000    0.000 
#    0.000    0.000    0.000    0.000    0.000    0.000 
#
# Total GULP energy -67101.524627 kJ/mol
# GULP energy per Si atom -5591.793719 kJ/mol
# Density = 2.545694 g / cm^3
# Si number density = 25.515009 Si / 1000 Ang^3
#
#
#
# Elastic Constant Matrix: (Units=GPa)
#
#
# Indices 1 2 3 4 5 6 
#
# 1 102.6055 23.5431 6.0358 -6.7159 21.6802 38.7002
# 2 23.5431 123.6253 34.6403 11.2684 -5.0884 46.5186
# 3 6.0358 34.6403 192.6368 5.2341 -3.4564 26.8087
# 4 -6.7159 11.2684 5.2341 36.1553 -10.0184 4.6270
# 5 21.6802 -5.0884 -3.4564 -10.0184 49.0999 7.0840
# 6 38.7002 46.5186 26.8087 4.6270 7.0840 37.0942
#
#
#
# Elastic Compliance Matrix: (Units=1/GPa)
#
#
# Indices 1 2 3 4 5 6 
#
# 1 0.021336 0.007134 0.002470 0.004854 -0.002746 -0.033072
# 2 0.007134 0.018771 0.000968 0.000496 0.003645 -0.032439
# 3 0.002470 0.000968 0.006111 0.000564 0.000770 -0.008424
# 4 0.004854 0.000496 0.000564 0.031403 0.005964 -0.011150
# 5 -0.002746 0.003645 0.000770 0.005964 0.024332 -0.007654
# 6 -0.033072 -0.032439 -0.008424 -0.011150 -0.007654 0.111083
#
#
# Mechanical properties :
#
#
# Convention : Reuss Voigt Hill
#
# Bulk Modulus (GPa) = 14.84575 60.81179 37.82877
# Shear Modulus (GPa) = 23.32675 48.11311 35.71993
#
# Velocity S-wave (km/s) = 3.02691 4.34715 3.74566
# Velocity P-wave (km/s) = 4.24822 7.00589 5.79352
#
# Compressibility (1/GPa) = 0.06735933
#
# Stress axis : x y z
#
# Youngs Moduli (GPa) = 46.87018 53.27480 163.65051
#
# Poissons Ratio (x) = -0.38005 -0.40422
# Poissons Ratio (y) = -0.33436 -0.15834
# Poissons Ratio (z) = -0.11577 -0.05155
#
# Static dielectric constant tensor:
#      x y z
#    x 2.068250 -0.164420 0.011020 
#    y -0.164420 2.154230 -0.003140 
#    z 0.011020 -0.003140 2.042420 
# 
# From -- ./inp_files/75348.got.cif
#   From: 2010.05.17/outbox.cif.g08.bks.cpg/sg2_38_cif.got.tgz:75348.got - 2010.06.03 11:33:40.
