data_PCOD9089537
_publ_section_title
;
Structure prediction by ZEFSAII (Michael W. Deem and Ramdas Pophale) SiO2 
 PCOD9089537
Probable space group: P -1
;
_chemical_formula_sum "Si O2"
_cell_formula_units_Z 15
_cell_length_a 16.417666
_cell_length_b 9.580835
_cell_length_c 9.780655
_cell_angle_alpha 134.014048
_cell_angle_beta 127.400485
_cell_angle_gamma 33.976705
_cell_volume 616.457028
_symmetry_space_group_name_H-M "P -1"
_symmetry_group_IT_number 2
_symmetry_cell_setting 'triclinic'
loop_
_space_group_symop_operation_xyz
x,y,z
-x,-y,-z
loop_
_atom_site_type_symbol
_atom_site_label
_atom_site_fract_x
_atom_site_fract_y
_atom_site_fract_z
Si Si1 0.398249 0.327139 0.121812
Si Si2 0.098420 0.534094 0.874259
Si Si3 0.981999 0.294468 0.674749
Si Si4 0.555511 0.248476 0.973488
Si Si5 0.152543 0.938376 0.860178
Si Si6 0.821337 0.525385 0.389806
Si Si7 0.500000 0.000000 0.500000
Si Si8 0.356780 0.308744 0.355161
O O1 0.467156 0.366019 0.103986
O O2 0.397423 0.380616 0.316288
O O3 0.238692 0.466741 0.017310
O O4 0.500000 0.000000 0.000000
O O5 0.121875 0.470767 0.693701
O O6 0.073162 0.372055 0.824939
O O7 0.957732 0.844544 0.986875
O O8 0.948364 0.338452 0.507223
O O9 0.813533 0.509542 0.701398
O O10 0.070676 0.035680 0.694047
O O11 0.724985 0.065695 0.039387
O O12 0.500000 0.500000 0.000000
O O13 0.553203 0.025195 0.758819
O O14 0.214028 0.654507 0.787238
O O15 0.675561 0.824175 0.501125
O O16 0.577220 0.699120 0.445333
#
# Coordination Sequence:
#
# PCOD9089537 Si02
#       8
#     2   2   2   2   2   2   1   2
#     4  10  20  35  62  92 125 162 223 260 313 379
#     4  12  22  41  68 100 126 171 222 270 321 388
#     4  11  22  41  65  93 130 173 212 267 326 392
#     4  11  22  37  62  93 128 163 215 269 321 370
#     4  12  23  41  68  98 131 166 220 272 329 378
#     4  11  25  41  65  96 133 173 215 270 329 386
#     4  10  22  40  64  82 136 174 214 246 340 388
#     4  10  19  38  58  90 117 173 211 259 313 387
#
# _framework density 24.332595000000001
#
# number of rings (size 3 to 8) (size 9 to 14) (size 15 to 20)
#    0.000    1.067    2.667    6.400    0.000    0.000 
#    0.000    0.000    2.933    4.800    0.000    0.000 
#    0.000    0.000    0.000    0.000    0.000    0.000 
#
# Total GULP energy -83513.002077 kJ/mol
# GULP energy per Si atom -5567.533472 kJ/mol
# Density = 2.427721 g / cm^3
# Si number density = 24.332595 Si / 1000 Ang^3
#
#
#
# Elastic Constant Matrix: (Units=GPa)
#
#
# Indices 1 2 3 4 5 6 
#
# 1 174.2454 57.9232 41.2091 1.0760 -43.2118 -3.4370
# 2 57.9232 95.3495 18.3483 -18.5408 -10.9525 -2.2624
# 3 41.2091 18.3483 66.7358 -15.1969 -34.4376 -8.6970
# 4 1.0760 -18.5408 -15.1969 29.8272 0.2363 -0.7293
# 5 -43.2118 -10.9525 -34.4376 0.2363 56.7438 -8.0710
# 6 -3.4370 -2.2624 -8.6970 -0.7293 -8.0710 43.5512
#
#
#
# Elastic Compliance Matrix: (Units=1/GPa)
#
#
# Indices 1 2 3 4 5 6 
#
# 1 0.009531 -0.005748 -0.003368 -0.005655 0.004194 0.000463
# 2 -0.005748 0.015765 0.001678 0.010884 -0.000243 0.000838
# 3 -0.003368 0.001678 0.030918 0.017010 0.017816 0.009582
# 4 -0.005655 0.010884 0.017010 0.049239 0.008761 0.005964
# 5 0.004194 -0.000243 0.017816 0.008761 0.032987 0.010136
# 6 0.000463 0.000838 0.009582 0.005964 0.010136 0.026933
#
#
# Mechanical properties :
#
#
# Convention : Reuss Voigt Hill
#
# Bulk Modulus (GPa) = 24.19128 63.47690 43.83409
# Shear Modulus (GPa) = 25.76910 40.61444 33.19177
#
# Velocity S-wave (km/s) = 3.25781 4.08994 3.69736
# Velocity P-wave (km/s) = 4.91067 6.96041 6.02337
#
# Compressibility (1/GPa) = 0.04133721
#
# Stress axis : x y z
#
# Youngs Moduli (GPa) = 104.92607 63.42982 32.34313
#
# Poissons Ratio (x) = 0.36462 0.10893
# Poissons Ratio (y) = 0.60316 -0.05426
# Poissons Ratio (z) = 0.35337 -0.10641
#
# Static dielectric constant tensor:
#      x y z
#    x 2.081040 -0.298700 -0.052950 
#    y -0.298700 2.964310 -0.319810 
#    z -0.052950 -0.319810 3.322640 
# 
# From -- ./inp_files/178045.got.cif
#   From: 2010.05.17/outbox.cif.g08.bks.cpg/sg2_90_cif.got.tgz:178045.got - 2010.06.03 11:33:40.
