data_PCOD9089873
_publ_section_title
;
Structure prediction by ZEFSAII (Michael W. Deem and Ramdas Pophale) SiO2 
 PCOD9089873
Probable space group: P -1
;
_chemical_formula_sum "Si O2"
_cell_formula_units_Z 16
_cell_length_a 11.602074
_cell_length_b 15.327747
_cell_length_c 11.366149
_cell_angle_alpha 117.253632
_cell_angle_beta 145.234838
_cell_angle_gamma 45.037835
_cell_volume 776.980672
_symmetry_space_group_name_H-M "P -1"
_symmetry_group_IT_number 2
_symmetry_cell_setting 'triclinic'
loop_
_space_group_symop_operation_xyz
x,y,z
-x,-y,-z
loop_
_atom_site_type_symbol
_atom_site_label
_atom_site_fract_x
_atom_site_fract_y
_atom_site_fract_z
Si Si1 0.255567 0.278532 0.578673
Si Si2 0.676512 0.446052 0.232299
Si Si3 0.141476 0.243146 0.198002
Si Si4 0.695243 0.445810 0.800407
Si Si5 0.965770 0.813441 0.522149
Si Si6 0.722416 0.293098 0.509752
Si Si7 0.293428 0.901060 0.493722
Si Si8 0.816273 0.145823 0.886543
O O1 0.207563 0.258092 0.392796
O O2 0.269142 0.179543 0.615817
O O3 0.538435 0.243099 0.786749
O O4 0.960362 0.412777 0.446933
O O5 0.511906 0.529540 0.260382
O O6 0.782703 0.301948 0.259610
O O7 0.500000 0.500000 0.000000
O O8 0.412910 0.145158 0.293985
O O9 0.959340 0.377361 0.056120
O O10 0.980506 0.193859 0.049198
O O11 0.751087 0.349942 0.685533
O O12 0.552058 0.583672 0.705460
O O13 0.045381 0.761156 0.423835
O O14 0.907472 0.945854 0.564072
O O15 0.721460 0.179895 0.473343
O O16 0.249223 0.864072 0.307912
O O17 0.000000 0.000000 0.000000
#
# Coordination Sequence:
#
# PCOD9089873 Si02
#       8
#     2   2   2   2   2   2   2   2
#     4   9  20  37  62  93 117 160 200 245 314 354
#     4   9  17  34  64  88 121 159 195 258 301 352
#     4  11  21  37  64  88 124 156 202 259 300 363
#     4  10  19  38  62  87 118 161 205 249 298 355
#     4   9  19  36  61  87 125 157 198 251 303 359
#     4  10  21  37  64  83 122 165 202 251 300 361
#     4  11  22  38  61  93 118 164 202 248 313 362
#     4  11  22  36  61  92 124 160 197 250 308 366
#
# _framework density 20.592533
#
# number of rings (size 3 to 8) (size 9 to 14) (size 15 to 20)
#    0.750    1.250    2.500    1.875    0.000    2.500 
#    0.000    1.250    8.250    0.000    0.000    0.000 
#    0.000    0.000    0.000    0.000    0.000    0.000 
#
# Total GULP energy -89181.654266 kJ/mol
# GULP energy per Si atom -5573.853392 kJ/mol
# Density = 2.054566 g / cm^3
# Si number density = 20.592533 Si / 1000 Ang^3
#
#
#
# Elastic Constant Matrix: (Units=GPa)
#
#
# Indices 1 2 3 4 5 6 
#
# 1 115.6181 36.3008 39.4115 -10.4225 -21.3087 7.6039
# 2 36.3008 74.2667 14.9892 -13.8906 -10.8516 18.9391
# 3 39.4115 14.9892 63.4660 -7.1901 7.3227 7.4347
# 4 -10.4225 -13.8906 -7.1901 22.8206 -5.2521 -1.1089
# 5 -21.3087 -10.8516 7.3227 -5.2521 14.3182 0.1766
# 6 7.6039 18.9391 7.4347 -1.1089 0.1766 41.6126
#
#
#
# Elastic Compliance Matrix: (Units=1/GPa)
#
#
# Indices 1 2 3 4 5 6 
#
# 1 0.034229 0.007910 -0.028750 0.030234 0.082782 -0.004264
# 2 0.007910 0.027079 -0.012601 0.026799 0.048706 -0.011011
# 3 -0.028750 -0.012601 0.042936 -0.026471 -0.084043 0.002969
# 4 0.030234 0.026799 -0.026471 0.090916 0.112330 -0.011046
# 5 0.082782 0.048706 -0.084043 0.112330 0.314394 -0.020619
# 6 -0.004264 -0.011011 0.002969 -0.011046 -0.020619 0.029084
#
#
# Mechanical properties :
#
#
# Convention : Reuss Voigt Hill
#
# Bulk Modulus (GPa) = 26.76573 48.30599 37.53586
# Shear Modulus (GPa) = 8.09093 26.59355 17.34224
#
# Velocity S-wave (km/s) = 1.98434 3.59753 2.90515
# Velocity P-wave (km/s) = 4.27506 6.38476 5.43329
#
# Compressibility (1/GPa) = 0.03736121
#
# Stress axis : x y z
#
# Youngs Moduli (GPa) = 29.21517 36.92882 23.29034
#
# Poissons Ratio (x) = -0.29211 0.66961
# Poissons Ratio (y) = -0.23109 0.29348
# Poissons Ratio (z) = 0.83995 0.46534
#
# Static dielectric constant tensor:
#      x y z
#    x 1.758190 0.006500 0.028790 
#    y 0.006500 1.781870 -0.025420 
#    z 0.028790 -0.025420 1.732050 
# 
# From -- ./inp_files/433148.got.cif
#   From: 2010.05.17/outbox.cif.g08.bks.cpg/sg2_217_cif.got.tgz:433148.got - 2010.06.03 11:33:40.
