data_PCOD9089106
_publ_section_title
;
Structure prediction by ZEFSAII (Michael W. Deem and Ramdas Pophale) SiO2 
 PCOD9089106
Probable space group: P -1
;
_chemical_formula_sum "Si O2"
_cell_formula_units_Z 16
_cell_length_a 8.469896
_cell_length_b 24.315667
_cell_length_c 5.059987
_cell_angle_alpha 102.829538
_cell_angle_beta 91.936078
_cell_angle_gamma 131.738053
_cell_volume 734.205123
_symmetry_space_group_name_H-M "P -1"
_symmetry_group_IT_number 2
_symmetry_cell_setting 'triclinic'
loop_
_space_group_symop_operation_xyz
x,y,z
-x,-y,-z
loop_
_atom_site_type_symbol
_atom_site_label
_atom_site_fract_x
_atom_site_fract_y
_atom_site_fract_z
Si Si1 0.125018 0.755399 0.481867
Si Si2 0.485811 0.689081 0.253458
Si Si3 0.826797 0.907883 0.859273
Si Si4 0.006433 0.567282 0.131934
Si Si5 0.539504 0.824157 0.239196
Si Si6 0.091886 0.199269 0.229961
Si Si7 0.269612 0.336527 0.016216
Si Si8 0.912923 0.613919 0.646536
O O1 0.323104 0.795536 0.335180
O O2 0.107980 0.705357 0.663880
O O3 0.099694 0.812794 0.649193
O O4 0.896453 0.685769 0.245213
O O5 0.254539 0.637705 0.322889
O O6 0.506747 0.748758 0.132711
O O7 0.688539 0.741661 0.519002
O O8 0.508375 0.635035 0.048394
O O9 0.728851 0.880605 0.529934
O O10 0.935943 0.873830 0.894658
O O11 0.627045 0.867529 0.011119
O O12 0.000000 0.000000 0.000000
O O13 0.137437 0.440772 0.654019
O O14 0.974340 0.592689 0.883579
O O15 0.000000 0.500000 0.000000
O O16 0.146763 0.251275 0.037528
O O17 0.275949 0.388600 0.279572
#
# Coordination Sequence:
#
# PCOD9089106 Si02
#       8
#     2   2   2   2   2   2   2   2
#     4  10  21  37  66  96 119 154 215 266 298 351
#     4  10  21  37  62  95 117 158 214 251 302 365
#     4  11  24  42  60  91 131 165 200 251 314 369
#     4  12  26  42  63  92 130 163 200 255 313 370
#     4  11  22  38  66  90 117 163 213 252 299 362
#     4   9  21  36  63  91 123 161 203 262 304 361
#     4  10  19  37  65  91 123 151 211 265 299 351
#     4  11  22  41  62  88 124 158 202 255 310 357
#
# _framework density 21.792275
#
# number of rings (size 3 to 8) (size 9 to 14) (size 15 to 20)
#    0.000    1.500    3.750    0.750    7.000    0.000 
#    0.000    2.500    0.000    0.000    0.000    0.000 
#    0.000    0.000    0.000    0.000    0.000    0.000 
#
# Total GULP energy -89335.041405 kJ/mol
# GULP energy per Si atom -5583.440088 kJ/mol
# Density = 2.174268 g / cm^3
# Si number density = 21.792275 Si / 1000 Ang^3
#
#
#
# Elastic Constant Matrix: (Units=GPa)
#
#
# Indices 1 2 3 4 5 6 
#
# 1 103.5247 30.1140 25.9416 -4.4803 -25.4302 -24.4944
# 2 30.1140 63.2063 17.8893 3.5545 0.3320 -28.7761
# 3 25.9416 17.8893 88.5114 -8.6463 -12.3050 -16.5033
# 4 -4.4803 3.5545 -8.6463 22.6191 -6.7307 -3.0719
# 5 -25.4302 0.3320 -12.3050 -6.7307 32.1360 2.8011
# 6 -24.4944 -28.7761 -16.5033 -3.0719 2.8011 33.3823
#
#
#
# Elastic Compliance Matrix: (Units=1/GPa)
#
#
# Indices 1 2 3 4 5 6 
#
# 1 0.017125 -0.005408 0.000656 0.010112 0.015290 0.007875
# 2 -0.005408 0.028281 -0.002302 -0.006277 -0.008460 0.019405
# 3 0.000656 -0.002302 0.014615 0.009126 0.007533 0.005930
# 4 0.010112 -0.006277 0.009126 0.058899 0.023025 0.010008
# 5 0.015290 -0.008460 0.007533 0.023025 0.050530 0.005530
# 6 0.007875 0.019405 0.005930 0.010008 0.005530 0.055850
#
#
# Mechanical properties :
#
#
# Convention : Reuss Voigt Hill
#
# Bulk Modulus (GPa) = 21.78035 44.79245 33.28640
# Shear Modulus (GPa) = 19.62979 29.71398 24.67188
#
# Velocity S-wave (km/s) = 3.00454 3.69658 3.36838
# Velocity P-wave (km/s) = 4.69601 6.23045 5.51684
#
# Compressibility (1/GPa) = 0.04591294
#
# Stress axis : x y z
#
# Youngs Moduli (GPa) = 58.39295 35.35883 68.42078
#
# Poissons Ratio (x) = 0.19123 -0.04487
# Poissons Ratio (y) = 0.31581 0.15751
# Poissons Ratio (z) = -0.03829 0.08140
#
# Static dielectric constant tensor:
#      x y z
#    x 1.838100 -0.018560 -0.019470 
#    y -0.018560 1.767310 -0.004640 
#    z -0.019470 -0.004640 1.861680 
# 
# From -- ./inp_files/51369.got.cif
#   From: 2010.05.17/outbox.cif.g08.bks.cpg/sg2_26_cif.got.tgz:51369.got - 2010.06.03 11:33:40.
