data_PCOD9089184
_publ_section_title
;
Structure prediction by ZEFSAII (Michael W. Deem and Ramdas Pophale) SiO2 
 PCOD9089184
Probable space group: P -1
;
_chemical_formula_sum "Si O2"
_cell_formula_units_Z 16
_cell_length_a 9.306358
_cell_length_b 8.707976
_cell_length_c 14.563177
_cell_angle_alpha 55.498977
_cell_angle_beta 95.700219
_cell_angle_gamma 58.067550
_cell_volume 678.004194
_symmetry_space_group_name_H-M "P -1"
_symmetry_group_IT_number 2
_symmetry_cell_setting 'triclinic'
loop_
_space_group_symop_operation_xyz
x,y,z
-x,-y,-z
loop_
_atom_site_type_symbol
_atom_site_label
_atom_site_fract_x
_atom_site_fract_y
_atom_site_fract_z
Si Si1 0.849168 0.599148 0.819073
Si Si2 0.929021 0.916977 0.746377
Si Si3 0.738747 0.652691 0.590157
Si Si4 0.175008 0.993209 0.027417
Si Si5 0.802737 0.269374 0.350514
Si Si6 0.442376 0.585059 0.347714
Si Si7 0.584307 0.126294 0.289051
Si Si8 0.838165 0.964957 0.186176
O O1 0.873453 0.760701 0.824651
O O2 0.770365 0.717242 0.669984
O O3 0.658442 0.648416 0.819849
O O4 0.057608 0.293362 0.934255
O O5 0.076599 0.744816 0.723564
O O6 0.696510 0.229475 0.632552
O O7 0.069785 0.919991 0.816514
O O8 0.586688 0.613015 0.595579
O O9 0.962053 0.353588 0.690996
O O10 0.664424 0.874855 0.438125
O O11 0.308183 0.801476 0.184221
O O12 0.272858 0.921861 0.957160
O O13 0.000000 0.000000 0.000000
O O14 0.665425 0.456148 0.368730
O O15 0.661283 0.242433 0.303861
O O16 0.000000 0.000000 0.500000
O O17 0.689408 0.024494 0.232479
#
# Coordination Sequence:
#
# PCOD9089184 Si02
#       8
#     2   2   2   2   2   2   2   2
#     4  11  22  38  66  97 130 175 216 268 330 386
#     4  10  23  42  61 101 134 167 221 268 333 383
#     4  10  19  37  66  87 132 170 219 262 327 392
#     4  11  19  44  70  89 130 179 221 263 325 399
#     4  11  24  43  66  97 136 175 217 272 332 394
#     4  11  23  45  67  96 131 183 215 267 337 388
#     4  11  21  39  63 103 126 166 225 270 323 396
#     4   9  21  40  63  95 128 174 216 271 327 384
#
# _framework density 23.598675
#
# number of rings (size 3 to 8) (size 9 to 14) (size 15 to 20)
#    0.000    1.500    5.000    1.500    1.750    1.000 
#   13.500    2.500    0.000    0.000    0.000    0.000 
#    0.000    0.000    0.000    0.000    0.000    0.000 
#
# Total GULP energy -89196.051345 kJ/mol
# GULP energy per Si atom -5574.753209 kJ/mol
# Density = 2.354496 g / cm^3
# Si number density = 23.598675 Si / 1000 Ang^3
#
#
#
# Elastic Constant Matrix: (Units=GPa)
#
#
# Indices 1 2 3 4 5 6 
#
# 1 70.7428 34.9917 14.1411 -3.7865 5.4769 -15.0079
# 2 34.9917 91.8518 13.4689 10.6128 -11.1424 -18.9853
# 3 14.1411 13.4689 50.7795 9.8101 -13.4151 -6.8958
# 4 -3.7865 10.6128 9.8101 25.8949 -6.6871 -17.6761
# 5 5.4769 -11.1424 -13.4151 -6.6871 26.6923 -3.0135
# 6 -15.0079 -18.9853 -6.8958 -17.6761 -3.0135 52.4866
#
#
#
# Elastic Compliance Matrix: (Units=1/GPa)
#
#
# Indices 1 2 3 4 5 6 
#
# 1 0.022360 -0.008584 -0.007629 0.011294 -0.008544 0.005599
# 2 -0.008584 0.015979 0.001578 -0.004548 0.008365 0.002481
# 3 -0.007629 0.001578 0.026557 -0.008506 0.013416 -0.000216
# 4 0.011294 -0.004548 -0.008506 0.063106 0.009835 0.022284
# 5 -0.008544 0.008365 0.013416 0.009835 0.052897 0.008695
# 6 0.005599 0.002481 -0.000216 0.022284 0.008695 0.029527
#
#
# Mechanical properties :
#
#
# Convention : Reuss Voigt Hill
#
# Bulk Modulus (GPa) = 28.06876 37.61972 32.84424
# Shear Modulus (GPa) = 19.87512 31.06626 25.47069
#
# Velocity S-wave (km/s) = 2.90524 3.63222 3.28888
# Velocity P-wave (km/s) = 4.81393 5.79368 5.32638
#
# Compressibility (1/GPa) = 0.03562679
#
# Stress axis : x y z
#
# Youngs Moduli (GPa) = 44.72238 62.58264 37.65467
#
# Poissons Ratio (x) = 0.53718 0.28725
# Poissons Ratio (y) = 0.38388 -0.05940
# Poissons Ratio (z) = 0.34117 -0.09873
#
# Static dielectric constant tensor:
#      x y z
#    x 1.881560 -0.089690 -0.046260 
#    y -0.089690 2.070650 0.051350 
#    z -0.046260 0.051350 1.923240 
# 
# From -- ./inp_files/494507.got.cif
#   From: 2010.05.17/outbox.cif.g08.bks.cpg/sg2_248_cif.got.tgz:494507.got - 2010.06.03 11:33:40.
