data_PCOD9089432
_publ_section_title
;
Structure prediction by ZEFSAII (Michael W. Deem and Ramdas Pophale) SiO2 
 PCOD9089432
Probable space group: P -1
;
_chemical_formula_sum "Si O2"
_cell_formula_units_Z 14
_cell_length_a 6.994811
_cell_length_b 5.238133
_cell_length_c 30.273389
_cell_angle_alpha 83.541985
_cell_angle_beta 47.859691
_cell_angle_gamma 71.509227
_cell_volume 772.044749
_symmetry_space_group_name_H-M "P -1"
_symmetry_group_IT_number 2
_symmetry_cell_setting 'triclinic'
loop_
_space_group_symop_operation_xyz
x,y,z
-x,-y,-z
loop_
_atom_site_type_symbol
_atom_site_label
_atom_site_fract_x
_atom_site_fract_y
_atom_site_fract_z
Si Si1 0.680998 0.053600 0.335502
Si Si2 0.411594 0.480366 0.965045
Si Si3 0.520116 0.349405 0.135504
Si Si4 0.037944 0.441186 0.277308
Si Si5 0.247190 0.026254 0.570324
Si Si6 0.890981 0.638462 0.628448
Si Si7 0.210989 0.221855 0.933045
O O1 0.826028 0.747120 0.301976
O O2 0.651974 0.029343 0.393438
O O3 0.882835 0.228581 0.293852
O O4 0.394480 0.206135 0.353692
O O5 0.595166 0.558705 0.898048
O O6 0.372366 0.208862 0.955072
O O7 0.500000 0.500000 0.000000
O O8 0.104290 0.694190 0.007333
O O9 0.718774 0.529954 0.106674
O O10 0.289836 0.406485 0.206475
O O11 0.686565 0.034861 0.109206
O O12 0.138797 0.384622 0.313500
O O13 0.031599 0.331038 0.595691
O O14 0.500000 0.000000 0.500000
O O15 0.095921 0.810375 0.586267
#
# Coordination Sequence:
#
# PCOD9089432 Si02
#       7
#     2   2   2   2   2   2   2
#     4  10  21  38  57  80 116 148 183 228 269 322
#     4   9  20  36  55  77 106 136 172 221 278 324
#     4  10  19  38  54  75 108 137 176 227 265 322
#     4  10  21  38  55  79 112 145 188 229 268 322
#     4  10  21  36  59  87 114 145 185 226 270 322
#     4  10  21  38  57  81 114 152 179 226 278 313
#     4   9  20  36  53  75 106 136 168 222 278 319
#
# _framework density 18.133662999999999
#
# number of rings (size 3 to 8) (size 9 to 14) (size 15 to 20)
#    0.857    1.429    0.000    2.571    0.000    1.714 
#    5.143    0.000    0.000    0.000    0.000    0.000 
#    0.000    0.000    0.000    0.000    0.000    0.000 
#
# Total GULP energy -77967.678964 kJ/mol
# GULP energy per Si atom -5569.119926 kJ/mol
# Density = 1.809239 g / cm^3
# Si number density = 18.133663 Si / 1000 Ang^3
#
#
#
# Elastic Constant Matrix: (Units=GPa)
#
#
# Indices 1 2 3 4 5 6 
#
# 1 62.5479 23.0322 16.0492 -4.6787 -5.6341 -15.2771
# 2 23.0322 108.9019 26.0170 -6.5421 -1.5357 1.4257
# 3 16.0492 26.0170 132.1976 -16.8732 -8.8834 -2.8046
# 4 -4.6787 -6.5421 -16.8732 18.0220 1.6038 -5.3304
# 5 -5.6341 -1.5357 -8.8834 1.6038 9.0125 3.3945
# 6 -15.2771 1.4257 -2.8046 -5.3304 3.3945 23.6656
#
#
#
# Elastic Compliance Matrix: (Units=1/GPa)
#
#
# Indices 1 2 3 4 5 6 
#
# 1 0.022681 -0.004398 -0.000083 0.008412 0.005841 0.015953
# 2 -0.004398 0.010553 -0.001678 0.000224 -0.001353 -0.003429
# 3 -0.000083 -0.001678 0.009451 0.008225 0.006741 0.002053
# 4 0.008412 0.000224 0.008225 0.073385 -0.008761 0.024177
# 5 0.005841 -0.001353 0.006741 -0.008761 0.128515 -0.015756
# 6 0.015953 -0.003429 0.002053 0.024177 -0.015756 0.060710
#
#
# Mechanical properties :
#
#
# Convention : Reuss Voigt Hill
#
# Bulk Modulus (GPa) = 32.93161 48.20493 40.56827
# Shear Modulus (GPa) = 15.25625 26.04328 20.64977
#
# Velocity S-wave (km/s) = 2.90370 3.79381 3.37820
# Velocity P-wave (km/s) = 5.42604 6.76990 6.13488
#
# Compressibility (1/GPa) = 0.03036596
#
# Stress axis : x y z
#
# Youngs Moduli (GPa) = 44.09061 94.76069 105.80728
#
# Poissons Ratio (x) = 0.41676 0.00881
# Poissons Ratio (y) = 0.19391 0.17754
# Poissons Ratio (z) = 0.00367 0.15901
#
# Static dielectric constant tensor:
#      x y z
#    x 1.617010 0.007150 0.026620 
#    y 0.007150 1.669460 -0.020310 
#    z 0.026620 -0.020310 1.610400 
# 
# From -- ./inp_files/120949.got.cif
#   From: 2010.05.17/outbox.cif.g08.bks.cpg/sg2_61_cif.got.tgz:120949.got - 2010.06.03 11:33:40.
