data_PCOD9089685
_publ_section_title
;
Structure prediction by ZEFSAII (Michael W. Deem and Ramdas Pophale) SiO2 
 PCOD9089685
Probable space group: P -1
;
_chemical_formula_sum "Si O2"
_cell_formula_units_Z 16
_cell_length_a 22.255438
_cell_length_b 11.591403
_cell_length_c 9.767057
_cell_angle_alpha 139.765358
_cell_angle_beta 25.396486
_cell_angle_gamma 141.905017
_cell_volume 653.465128
_symmetry_space_group_name_H-M "P -1"
_symmetry_group_IT_number 2
_symmetry_cell_setting 'triclinic'
loop_
_space_group_symop_operation_xyz
x,y,z
-x,-y,-z
loop_
_atom_site_type_symbol
_atom_site_label
_atom_site_fract_x
_atom_site_fract_y
_atom_site_fract_z
Si Si1 0.828426 0.881597 0.710346
Si Si2 0.152270 0.544116 0.141106
Si Si3 0.583045 0.547374 0.013223
Si Si4 0.360050 0.760658 0.691733
Si Si5 0.789458 0.944264 0.247584
Si Si6 0.644820 0.096971 0.449106
Si Si7 0.145124 0.135358 0.674926
Si Si8 0.635052 0.495125 0.127007
O O1 0.800690 0.861052 0.587298
O O2 0.754356 0.673237 0.739330
O O3 0.728868 0.985929 0.081434
O O4 0.000000 0.000000 0.500000
O O5 0.000000 0.500000 0.500000
O O6 0.208817 0.688294 0.027420
O O7 0.155768 0.345273 0.892512
O O8 0.276131 0.607512 0.061393
O O9 0.471581 0.647770 0.402002
O O10 0.589128 0.403454 0.989120
O O11 0.500000 0.500000 0.000000
O O12 0.468363 0.974860 0.699383
O O13 0.333091 0.736842 0.560512
O O14 0.716878 0.072086 0.424430
O O15 0.774527 0.943047 0.442592
O O16 0.729353 0.722516 0.122631
O O17 0.967999 0.016729 0.925666
O O18 0.500000 0.500000 0.500000
#
# Coordination Sequence:
#
# PCOD9089685 Si02
#       8
#     2   2   2   2   2   2   2   2
#     4  11  20  37  64  98 122 166 214 263 327 391
#     4  11  24  42  65  95 132 171 215 276 334 378
#     4  11  22  38  62  93 126 165 226 265 316 396
#     4  10  21  40  61  89 124 172 208 259 334 383
#     4  10  19  38  60  90 120 164 211 256 317 379
#     4  10  20  38  66  87 128 167 206 262 328 392
#     4  10  22  37  64  93 128 160 214 267 316 390
#     4  11  20  40  69  87 122 172 214 263 325 387
#
# _framework density 24.484857000000002
#
# number of rings (size 3 to 8) (size 9 to 14) (size 15 to 20)
#    0.000    1.500    5.000    0.750    1.750    4.000 
#    2.250    0.625    0.000    3.750    0.000    0.000 
#    0.000    0.000    0.000    0.000    0.000    0.000 
#
# Total GULP energy -89246.840131 kJ/mol
# GULP energy per Si atom -5577.927508 kJ/mol
# Density = 2.442913 g / cm^3
# Si number density = 24.484857 Si / 1000 Ang^3
#
#
#
# Elastic Constant Matrix: (Units=GPa)
#
#
# Indices 1 2 3 4 5 6 
#
# 1 211.1131 27.4196 53.2813 -17.5030 34.1515 -20.4909
# 2 27.4196 67.9762 23.5231 -18.3009 4.1936 -8.7310
# 3 53.2813 23.5231 116.0902 -34.3463 17.9636 -4.9402
# 4 -17.5030 -18.3009 -34.3463 38.8604 -7.9141 -0.2945
# 5 34.1515 4.1936 17.9636 -7.9141 44.8633 -4.6985
# 6 -20.4909 -8.7310 -4.9402 -0.2945 -4.6985 39.3617
#
#
#
# Elastic Compliance Matrix: (Units=1/GPa)
#
#
# Indices 1 2 3 4 5 6 
#
# 1 0.006197 -0.001391 -0.002017 -0.000365 -0.003610 0.002231
# 2 -0.001391 0.017897 -0.000895 0.007319 0.001386 0.003354
# 3 -0.002017 -0.000895 0.012875 0.009684 -0.001805 0.000225
# 4 -0.000365 0.007319 0.009684 0.038168 0.002791 0.003268
# 5 -0.003610 0.001386 -0.001805 0.002791 0.026266 0.001358
# 6 0.002231 0.003354 0.000225 0.003268 0.001358 0.027525
#
#
# Mechanical properties :
#
#
# Convention : Reuss Voigt Hill
#
# Bulk Modulus (GPa) = 35.25456 67.06972 51.16214
# Shear Modulus (GPa) = 34.01684 44.01412 39.01548
#
# Velocity S-wave (km/s) = 3.73138 4.24442 3.99614
# Velocity P-wave (km/s) = 5.74404 7.17439 6.49869
#
# Compressibility (1/GPa) = 0.02836512
#
# Stress axis : x y z
#
# Youngs Moduli (GPa) = 161.37659 55.87432 77.67244
#
# Poissons Ratio (x) = 0.07770 0.15663
# Poissons Ratio (y) = 0.22442 0.06948
# Poissons Ratio (z) = 0.32542 0.04998
#
# Static dielectric constant tensor:
#      x y z
#    x 2.258700 0.135580 0.134610 
#    y 0.135580 2.237300 0.122690 
#    z 0.134610 0.122690 1.981870 
# 
# From -- ./inp_files/346261.got.cif
#   From: 2010.05.17/outbox.cif.g08.bks.cpg/sg2_174_cif.got.tgz:346261.got - 2010.06.03 11:33:40.
