data_PCOD9089583
_publ_section_title
;
Structure prediction by ZEFSAII (Michael W. Deem and Ramdas Pophale) SiO2 
 PCOD9089583
Probable space group: P -1
;
_chemical_formula_sum "Si O2"
_cell_formula_units_Z 16
_cell_length_a 12.239657
_cell_length_b 12.417705
_cell_length_c 10.234157
_cell_angle_alpha 80.276603
_cell_angle_beta 106.614255
_cell_angle_gamma 36.705647
_cell_volume 640.471316
_symmetry_space_group_name_H-M "P -1"
_symmetry_group_IT_number 2
_symmetry_cell_setting 'triclinic'
loop_
_space_group_symop_operation_xyz
x,y,z
-x,-y,-z
loop_
_atom_site_type_symbol
_atom_site_label
_atom_site_fract_x
_atom_site_fract_y
_atom_site_fract_z
Si Si1 0.008320 0.829363 0.967370
Si Si2 0.162231 0.616215 0.792097
Si Si3 0.386737 0.822513 0.614783
Si Si4 0.551136 0.625966 0.430991
Si Si5 0.703623 0.758678 0.712029
Si Si6 0.762645 0.640042 0.322516
Si Si7 0.800087 0.797429 0.998972
Si Si8 0.542786 0.470252 0.252684
O O1 0.140788 0.644561 0.933488
O O2 0.897220 0.838880 0.031758
O O3 0.233377 0.717893 0.105524
O O4 0.754553 0.103227 0.764287
O O5 0.184898 0.478814 0.762804
O O6 0.388111 0.500402 0.838749
O O7 0.893599 0.895374 0.585044
O O8 0.552513 0.636869 0.583814
O O9 0.541074 0.798595 0.713826
O O10 0.345372 0.746485 0.695361
O O11 0.676377 0.623715 0.404808
O O12 0.650232 0.431626 0.432156
O O13 0.797470 0.760554 0.854448
O O14 0.500000 0.000000 0.500000
O O15 0.968089 0.474902 0.802425
O O16 0.000000 0.500000 0.500000
O O17 0.511853 0.930577 0.140589
#
# Coordination Sequence:
#
# PCOD9089583 Si02
#       8
#     2   2   2   2   2   2   2   2
#     4  10  19  38  59  88 123 162 205 253 307 365
#     4  10  22  35  60  89 126 166 201 247 310 378
#     4  11  21  38  61  86 121 162 207 255 312 368
#     4   9  21  35  60  89 118 162 210 253 305 374
#     4  11  21  38  67  94 120 157 212 265 315 365
#     4  10  20  39  64  92 130 163 202 261 319 367
#     4  10  22  39  65  97 121 162 215 257 309 385
#     4  11  20  36  57  89 124 159 206 256 310 365
#
# _framework density 24.981603
#
# number of rings (size 3 to 8) (size 9 to 14) (size 15 to 20)
#    0.000    1.750    1.250    4.500    0.000    1.000 
#    0.000    0.625    8.250    9.750    0.000    0.000 
#    0.000    0.000    0.000    0.000    0.000    0.000 
#
# Total GULP energy -89398.010802 kJ/mol
# GULP energy per Si atom -5587.375675 kJ/mol
# Density = 2.492474 g / cm^3
# Si number density = 24.981603 Si / 1000 Ang^3
#
#
#
# Elastic Constant Matrix: (Units=GPa)
#
#
# Indices 1 2 3 4 5 6 
#
# 1 153.9803 13.7690 34.6432 2.6666 31.4636 13.0195
# 2 13.7690 93.8414 18.2652 -7.5755 7.5170 18.0219
# 3 34.6432 18.2652 111.3067 -31.9366 20.5522 8.3721
# 4 2.6666 -7.5755 -31.9366 46.5568 3.8728 -0.7167
# 5 31.4636 7.5170 20.5522 3.8728 44.7600 0.8975
# 6 13.0195 18.0219 8.3721 -0.7167 0.8975 25.3762
#
#
#
# Elastic Compliance Matrix: (Units=1/GPa)
#
#
# Indices 1 2 3 4 5 6 
#
# 1 0.008187 0.000104 -0.001808 -0.001352 -0.004754 -0.003547
# 2 0.000104 0.012735 -0.000642 0.001648 -0.001884 -0.008772
# 3 -0.001808 -0.000642 0.013740 0.009860 -0.005730 -0.002669
# 4 -0.001352 0.001648 0.009860 0.029072 -0.006316 -0.002685
# 5 -0.004754 -0.001884 -0.005730 -0.006316 0.029087 0.004460
# 6 -0.003547 -0.008772 -0.002669 -0.002685 0.004460 0.048104
#
#
# Mechanical properties :
#
#
# Convention : Reuss Voigt Hill
#
# Bulk Modulus (GPa) = 33.36805 54.72036 44.04420
# Shear Modulus (GPa) = 32.13237 42.83534 37.48385
#
# Velocity S-wave (km/s) = 3.59031 4.14536 3.87778
# Velocity P-wave (km/s) = 5.52930 6.69804 6.14154
#
# Compressibility (1/GPa) = 0.02996879
#
# Stress axis : x y z
#
# Youngs Moduli (GPa) = 122.15091 78.52675 72.78009
#
# Poissons Ratio (x) = -0.00814 0.13161
# Poissons Ratio (y) = -0.01267 0.04670
# Poissons Ratio (z) = 0.22088 0.05038
#
# Static dielectric constant tensor:
#      x y z
#    x 2.037880 -0.042530 -0.045030 
#    y -0.042530 2.014240 -0.018140 
#    z -0.045030 -0.018140 1.957980 
# 
# From -- ./inp_files/428190.got.cif
#   From: 2010.05.17/outbox.cif.g08.bks.cpg/sg2_215_cif.got.tgz:428190.got - 2010.06.03 11:33:40.
