data_PCOD9089460
_publ_section_title
;
Structure prediction by ZEFSAII (Michael W. Deem and Ramdas Pophale) SiO2 
 PCOD9089460
Probable space group: P -1
;
_chemical_formula_sum "Si O2"
_cell_formula_units_Z 16
_cell_length_a 6.073851
_cell_length_b 14.325004
_cell_length_c 7.940945
_cell_angle_alpha 88.698495
_cell_angle_beta 81.318675
_cell_angle_gamma 118.967313
_cell_volume 593.883971
_symmetry_space_group_name_H-M "P -1"
_symmetry_group_IT_number 2
_symmetry_cell_setting 'triclinic'
loop_
_space_group_symop_operation_xyz
x,y,z
-x,-y,-z
loop_
_atom_site_type_symbol
_atom_site_label
_atom_site_fract_x
_atom_site_fract_y
_atom_site_fract_z
Si Si1 0.310535 0.440862 0.793250
Si Si2 0.583334 0.038744 0.297320
Si Si3 0.103796 0.061924 0.223486
Si Si4 0.254111 0.207755 0.526699
Si Si5 0.265706 0.236313 0.900115
Si Si6 0.719290 0.395332 0.016609
Si Si7 0.238004 0.726370 0.682819
Si Si8 0.790741 0.579724 0.536795
O O1 0.176757 0.327897 0.909612
O O2 0.424328 0.545533 0.889380
O O3 0.552810 0.471715 0.640047
O O4 0.128701 0.434757 0.659592
O O5 0.326074 0.023836 0.224094
O O6 0.769315 0.167352 0.275963
O O7 0.789558 0.999379 0.227156
O O8 0.500000 0.000000 0.500000
O O9 0.126876 0.116347 0.403503
O O10 0.194905 0.149361 0.057315
O O11 0.168276 0.185165 0.730370
O O12 0.548018 0.238144 0.485992
O O13 0.235171 0.312076 0.472692
O O14 0.570048 0.323408 0.877683
O O15 0.674595 0.306302 0.159728
O O16 0.000000 0.500000 0.000000
O O17 0.003476 0.618728 0.650830
#
# Coordination Sequence:
#
# PCOD9089460 Si02
#       8
#     2   2   2   2   2   2   2   2
#     4  10  22  35  55  85 132 172 230 273 325 390
#     4  11  24  45  79 106 132 178 225 283 356 412
#     4  11  23  47  72 103 140 171 226 283 340 416
#     4  10  21  40  62  91 126 180 226 270 341 396
#     4  11  23  39  63  93 133 185 226 282 334 402
#     4  12  24  35  54  94 130 179 230 277 332 396
#     4  11  22  39  66  86 132 174 219 286 336 407
#     4  10  19  38  56  86 123 176 223 279 321 399
#
# _framework density 26.941288
#
# number of rings (size 3 to 8) (size 9 to 14) (size 15 to 20)
#    0.000    1.250    5.000    1.500    3.500    0.500 
#    2.250    0.000    0.000   10.500    0.000    0.000 
#    0.000    0.000    0.000    0.000    0.000    0.000 
#
# Total GULP energy -89082.929587 kJ/mol
# GULP energy per Si atom -5567.683099 kJ/mol
# Density = 2.687997 g / cm^3
# Si number density = 26.941288 Si / 1000 Ang^3
#
#
#
# Elastic Constant Matrix: (Units=GPa)
#
#
# Indices 1 2 3 4 5 6 
#
# 1 105.8542 25.0181 37.1412 -2.1639 1.4648 -4.3085
# 2 25.0181 82.0087 30.2846 -10.4959 5.2377 -19.8350
# 3 37.1412 30.2846 131.6008 -25.0426 29.7902 2.4838
# 4 -2.1639 -10.4959 -25.0426 50.2823 1.2932 11.6461
# 5 1.4648 5.2377 29.7902 1.2932 32.8529 -15.8690
# 6 -4.3085 -19.8350 2.4838 11.6461 -15.8690 43.7930
#
#
#
# Elastic Compliance Matrix: (Units=1/GPa)
#
#
# Indices 1 2 3 4 5 6 
#
# 1 0.011605 -0.001547 -0.005100 -0.003448 0.006407 0.003969
# 2 -0.001547 0.016849 -0.006078 -0.002484 0.008594 0.011598
# 3 -0.005100 -0.006078 0.018399 0.012013 -0.023734 -0.016093
# 4 -0.003448 -0.002484 0.012013 0.029706 -0.019837 -0.017233
# 5 0.006407 0.008594 -0.023734 -0.019837 0.068449 0.035947
# 6 0.003969 0.011598 -0.016093 -0.017233 0.035947 0.047000
#
#
# Mechanical properties :
#
#
# Convention : Reuss Voigt Hill
#
# Bulk Modulus (GPa) = 46.72457 56.03905 51.38181
# Shear Modulus (GPa) = 22.26270 40.52031 31.39150
#
# Velocity S-wave (km/s) = 2.87773 3.88238 3.41718
# Velocity P-wave (km/s) = 5.33128 6.39865 5.88920
#
# Compressibility (1/GPa) = 0.02140202
#
# Stress axis : x y z
#
# Youngs Moduli (GPa) = 86.17272 59.35192 54.35060
#
# Poissons Ratio (x) = 0.09183 0.27721
# Poissons Ratio (y) = 0.13333 0.33032
# Poissons Ratio (z) = 0.43951 0.36071
#
# Static dielectric constant tensor:
#      x y z
#    x 4.574230 -1.881790 -3.239000 
#    y -1.881790 3.630240 2.805050 
#    z -3.239000 2.805050 7.047110 
# 
# From -- ./inp_files/137508.got.cif
#   From: 2010.05.17/outbox.cif.g08.bks.cpg/sg2_69_cif.got.tgz:137508.got - 2010.06.03 11:33:40.
