data_PCOD9089126
_publ_section_title
;
Structure prediction by ZEFSAII (Michael W. Deem and Ramdas Pophale) SiO2 
 PCOD9089126
Probable space group: P -1
;
_chemical_formula_sum "Si O2"
_cell_formula_units_Z 12
_cell_length_a 16.504611
_cell_length_b 7.892301
_cell_length_c 5.634332
_cell_angle_alpha 100.592398
_cell_angle_beta 110.878814
_cell_angle_gamma 127.055540
_cell_volume 462.504466
_symmetry_space_group_name_H-M "P -1"
_symmetry_group_IT_number 2
_symmetry_cell_setting 'triclinic'
loop_
_space_group_symop_operation_xyz
x,y,z
-x,-y,-z
loop_
_atom_site_type_symbol
_atom_site_label
_atom_site_fract_x
_atom_site_fract_y
_atom_site_fract_z
Si Si1 0.288109 0.080401 0.455408
Si Si2 0.494571 0.144279 0.729713
Si Si3 0.290286 0.655970 0.692927
Si Si4 0.858032 0.809191 0.902167
Si Si5 0.113563 0.911209 0.613681
Si Si6 0.885601 0.402249 0.135912
O O1 0.431891 0.231853 0.598543
O O2 0.246608 0.056667 0.675179
O O3 0.230688 0.161464 0.278924
O O4 0.207157 0.796638 0.215445
O O5 0.500000 0.000000 0.500000
O O6 0.394269 0.935470 0.768427
O O7 0.627706 0.352758 0.055118
O O8 0.219039 0.461818 0.351834
O O9 0.193666 0.610774 0.753364
O O10 0.877755 0.886697 0.218382
O O11 0.000000 0.000000 0.000000
O O12 0.076441 0.725914 0.738212
O O13 0.002515 0.693054 0.260131
#
# Coordination Sequence:
#
# PCOD9089126 Si02
#       6
#     2   2   2   2   2   2
#     4  11  23  40  65  95 126 169 216 254 315 380
#     4  11  24  43  68  92 124 171 224 258 301 378
#     4  11  23  42  66  94 128 165 213 265 313 370
#     4  11  25  42  62  98 137 162 200 266 333 374
#     4  10  21  38  62  94 133 163 205 260 320 377
#     4  10  19  37  65  93 125 164 212 263 309 374
#
# _framework density 25.945696000000002
#
# number of rings (size 3 to 8) (size 9 to 14) (size 15 to 20)
#    0.000    1.333    5.000    0.500    0.000    4.000 
#    0.000    1.667    0.000    0.000    0.000    0.000 
#    0.000    0.000    0.000    0.000    0.000    0.000 
#
# Total GULP energy -67092.900659 kJ/mol
# GULP energy per Si atom -5591.075055 kJ/mol
# Density = 2.588664 g / cm^3
# Si number density = 25.945696 Si / 1000 Ang^3
#
#
#
# Elastic Constant Matrix: (Units=GPa)
#
#
# Indices 1 2 3 4 5 6 
#
# 1 153.3994 15.0779 22.1694 -1.2175 2.3588 0.8044
# 2 15.0779 56.8700 3.1372 6.8482 4.2457 -12.9256
# 3 22.1694 3.1372 100.4761 19.3364 -0.9779 -9.0868
# 4 -1.2175 6.8482 19.3364 33.8728 -9.4313 1.9104
# 5 2.3588 4.2457 -0.9779 -9.4313 62.4302 -4.0411
# 6 0.8044 -12.9256 -9.0868 1.9104 -4.0411 33.9432
#
#
#
# Elastic Compliance Matrix: (Units=1/GPa)
#
#
# Indices 1 2 3 4 5 6 
#
# 1 0.007073 -0.002403 -0.002029 0.002012 0.000056 -0.001732
# 2 -0.002403 0.020990 0.001870 -0.006364 -0.001705 0.008706
# 3 -0.002029 0.001870 0.012254 -0.007908 -0.000769 0.004394
# 4 0.002012 -0.006364 -0.007908 0.037259 0.005471 -0.006034
# 5 0.000056 -0.001705 -0.000769 0.005471 0.017002 0.000860
# 6 -0.001732 0.008706 0.004394 -0.006034 0.000860 0.034435
#
#
# Mechanical properties :
#
#
# Convention : Reuss Voigt Hill
#
# Bulk Modulus (GPa) = 28.41487 43.50159 35.95823
# Shear Modulus (GPa) = 34.27771 44.07330 39.17551
#
# Velocity S-wave (km/s) = 3.63868 4.12597 3.88996
# Velocity P-wave (km/s) = 5.35059 6.28498 5.83651
#
# Compressibility (1/GPa) = 0.03519284
#
# Stress axis : x y z
#
# Youngs Moduli (GPa) = 141.39186 47.64104 81.60848
#
# Poissons Ratio (x) = 0.11450 0.16556
# Poissons Ratio (y) = 0.33982 -0.15263
# Poissons Ratio (z) = 0.28684 -0.08910
#
# Static dielectric constant tensor:
#      x y z
#    x 2.040980 -0.084540 0.069010 
#    y -0.084540 2.070660 -0.067700 
#    z 0.069010 -0.067700 2.154250 
# 
# From -- ./inp_files/64017.got.cif
#   From: 2010.05.17/outbox.cif.g08.bks.cpg/sg2_33_cif.got.tgz:64017.got - 2010.06.03 11:33:40.
