data_PCOD9089347
_publ_section_title
;
Structure prediction by ZEFSAII (Michael W. Deem and Ramdas Pophale) SiO2 
 PCOD9089347
Probable space group: P -1
;
_chemical_formula_sum "Si O2"
_cell_formula_units_Z 16
_cell_length_a 17.286450
_cell_length_b 16.345592
_cell_length_c 5.241318
_cell_angle_alpha 91.347456
_cell_angle_beta 95.541337
_cell_angle_gamma 24.029919
_cell_volume 592.561597
_symmetry_space_group_name_H-M "P -1"
_symmetry_group_IT_number 2
_symmetry_cell_setting 'triclinic'
loop_
_space_group_symop_operation_xyz
x,y,z
-x,-y,-z
loop_
_atom_site_type_symbol
_atom_site_label
_atom_site_fract_x
_atom_site_fract_y
_atom_site_fract_z
Si Si1 0.555266 0.668937 0.922151
Si Si2 0.673034 0.816344 0.837661
Si Si3 0.833725 0.595998 0.374579
Si Si4 0.267487 0.055884 0.110410
Si Si5 0.085907 0.645731 0.351730
Si Si6 0.206597 0.968867 0.474324
Si Si7 0.311441 0.624233 0.900278
Si Si8 0.266997 0.733429 0.392351
O O1 0.724182 0.524455 0.766905
O O2 0.372330 0.805004 0.729696
O O3 0.627430 0.529050 0.129128
O O4 0.468753 0.835626 0.022515
O O5 0.805599 0.638952 0.067683
O O6 0.737679 0.846271 0.798335
O O7 0.669625 0.774835 0.556963
O O8 0.500000 0.000000 0.000000
O O9 0.881498 0.455879 0.435292
O O10 0.000000 0.500000 0.500000
O O11 0.091212 0.213309 0.871829
O O12 0.253018 0.002956 0.321808
O O13 0.000248 0.810033 0.460285
O O14 0.220571 0.871256 0.321853
O O15 0.207047 0.732203 0.146018
O O16 0.500000 0.500000 0.000000
O O17 0.192987 0.779456 0.648977
O O18 0.500000 0.500000 0.500000
#
# Coordination Sequence:
#
# PCOD9089347 Si02
#       8
#     2   2   2   2   2   2   2   2
#     4  11  24  43  69  98 136 182 226 288 343 414
#     4  12  27  45  74 104 135 182 238 284 342 416
#     4  12  25  48  71  97 142 185 225 287 349 407
#     4  11  25  44  68  99 138 181 227 288 346 411
#     4  11  27  44  66 102 139 180 231 283 350 410
#     4  11  24  42  70  97 137 179 229 284 345 413
#     4  10  19  38  66  96 129 177 228 272 345 404
#     4  10  19  37  68  95 129 178 225 278 339 404
#
# _framework density 27.001412999999999
#
# number of rings (size 3 to 8) (size 9 to 14) (size 15 to 20)
#    0.000    1.000    3.750    3.750    7.000    1.000 
#    0.000    1.250    0.000    0.000    0.000    0.000 
#    0.000    0.000    0.000    0.000    0.000    0.000 
#
# Total GULP energy -89672.514042 kJ/mol
# GULP energy per Si atom -5604.532128 kJ/mol
# Density = 2.693996 g / cm^3
# Si number density = 27.001413 Si / 1000 Ang^3
#
#
#
# Elastic Constant Matrix: (Units=GPa)
#
#
# Indices 1 2 3 4 5 6 
#
# 1 98.6373 47.9741 14.8437 -3.3738 -21.2329 21.7171
# 2 47.9741 162.1213 33.4975 18.2192 -9.7141 15.8101
# 3 14.8437 33.4975 142.5294 -5.4858 -19.1002 9.8395
# 4 -3.3738 18.2192 -5.4858 53.0689 3.6462 -1.7143
# 5 -21.2329 -9.7141 -19.1002 3.6462 47.2815 2.6711
# 6 21.7171 15.8101 9.8395 -1.7143 2.6711 54.6549
#
#
#
# Elastic Compliance Matrix: (Units=1/GPa)
#
#
# Indices 1 2 3 4 5 6 
#
# 1 0.014298 -0.003694 0.000597 0.001663 0.006056 -0.004964
# 2 -0.003694 0.007987 -0.001623 -0.003138 -0.000396 -0.000629
# 3 0.000597 -0.001623 0.007886 0.001155 0.003105 -0.001303
# 4 0.001663 -0.003138 0.001155 0.020240 -0.001033 0.000724
# 5 0.006056 -0.000396 0.003105 -0.001033 0.025355 -0.004122
# 6 -0.004964 -0.000629 -0.001303 0.000724 -0.004122 0.020910
#
#
# Mechanical properties :
#
#
# Convention : Reuss Voigt Hill
#
# Bulk Modulus (GPa) = 48.23574 66.21319 57.22446
# Shear Modulus (GPa) = 44.23743 51.46592 47.85167
#
# Velocity S-wave (km/s) = 4.05203 4.37056 4.21431
# Velocity P-wave (km/s) = 6.30832 7.07421 6.70221
#
# Compressibility (1/GPa) = 0.02073152
#
# Stress axis : x y z
#
# Youngs Moduli (GPa) = 69.93743 125.20294 126.81051
#
# Poissons Ratio (x) = 0.46256 -0.07575
# Poissons Ratio (y) = 0.25838 0.20579
# Poissons Ratio (z) = -0.04178 0.20318
#
# Static dielectric constant tensor:
#      x y z
#    x 2.057380 -0.096800 -0.020710 
#    y -0.096800 2.517430 0.367890 
#    z -0.020710 0.367890 2.514500 
# 
# From -- ./inp_files/120043.got.cif
#   From: 2010.05.17/outbox.cif.g08.bks.cpg/sg2_61_cif.got.tgz:120043.got - 2010.06.03 11:33:40.
