data_PCOD9089517
_publ_section_title
;
Structure prediction by ZEFSAII (Michael W. Deem and Ramdas Pophale) SiO2 
 PCOD9089517
Probable space group: P -1
;
_chemical_formula_sum "Si O2"
_cell_formula_units_Z 16
_cell_length_a 9.270788
_cell_length_b 15.279992
_cell_length_c 13.296169
_cell_angle_alpha 46.740212
_cell_angle_beta 54.030416
_cell_angle_gamma 31.018765
_cell_volume 706.846468
_symmetry_space_group_name_H-M "P -1"
_symmetry_group_IT_number 2
_symmetry_cell_setting 'triclinic'
loop_
_space_group_symop_operation_xyz
x,y,z
-x,-y,-z
loop_
_atom_site_type_symbol
_atom_site_label
_atom_site_fract_x
_atom_site_fract_y
_atom_site_fract_z
Si Si1 0.499109 0.440039 0.312214
Si Si2 0.604218 0.913673 0.275282
Si Si3 0.058305 0.149504 0.413041
Si Si4 0.060979 0.501454 0.358441
Si Si5 0.329452 0.512244 0.979492
Si Si6 0.001853 0.734878 0.437366
Si Si7 0.689245 0.824965 0.988982
Si Si8 0.972570 0.553030 0.852163
O O1 0.348654 0.423479 0.312395
O O2 0.545575 0.529551 0.149189
O O3 0.788854 0.239062 0.395664
O O4 0.298490 0.576622 0.381369
O O5 0.778695 0.872901 0.330655
O O6 0.461124 0.086906 0.126722
O O7 0.814222 0.726514 0.266684
O O8 0.500000 0.000000 0.000000
O O9 0.032037 0.159618 0.536856
O O10 0.356117 0.963865 0.387603
O O11 0.034466 0.304773 0.276012
O O12 0.053063 0.374083 0.413988
O O13 0.000000 0.500000 0.500000
O O14 0.749038 0.659565 0.133925
O O15 0.001363 0.720924 0.941423
O O16 0.500000 0.500000 0.000000
O O17 0.287536 0.394148 0.119944
O O18 0.000000 0.500000 0.000000
#
# Coordination Sequence:
#
# PCOD9089517 Si02
#       8
#     2   2   2   2   2   2   2   2
#     4  10  19  38  58  84 121 149 194 241 292 342
#     4  10  19  38  58  84 121 149 194 241 292 342
#     4  12  20  38  63  86 118 153 196 238 290 358
#     4   8  20  38  58  84 109 160 193 235 285 337
#     4  10  22  36  62  89 114 154 194 242 290 348
#     4  10  24  37  63  87 112 164 196 240 284 351
#     4  10  22  36  62  89 114 154 194 242 290 348
#     4  10  20  39  59  88 114 153 192 236 299 340
#
# _framework density 22.635750999999999
#
# number of rings (size 3 to 8) (size 9 to 14) (size 15 to 20)
#    0.750    1.500    3.750    0.750    7.000    0.000 
#    0.000    5.625    5.500    6.750    0.000    0.000 
#    0.000    0.000    0.000    0.000    0.000    0.000 
#
# Total GULP energy -89132.090458 kJ/mol
# GULP energy per Si atom -5570.755654 kJ/mol
# Density = 2.258423 g / cm^3
# Si number density = 22.635751 Si / 1000 Ang^3
#
#
#
# Elastic Constant Matrix: (Units=GPa)
#
#
# Indices 1 2 3 4 5 6 
#
# 1 70.4338 26.2831 12.0484 -0.3428 8.8146 -9.5851
# 2 26.2831 92.6123 2.0739 -6.4932 9.6095 -29.7210
# 3 12.0484 2.0739 66.0321 -8.4046 5.7999 -10.8208
# 4 -0.3428 -6.4932 -8.4046 36.0915 0.7683 -2.3843
# 5 8.8146 9.6095 5.7999 0.7683 43.4251 -4.0962
# 6 -9.5851 -29.7210 -10.8208 -2.3843 -4.0962 29.1288
#
#
#
# Elastic Compliance Matrix: (Units=1/GPa)
#
#
# Indices 1 2 3 4 5 6 
#
# 1 0.016643 -0.004890 -0.003069 -0.001464 -0.001959 -0.001049
# 2 -0.004890 0.018987 0.004416 0.005735 -0.002053 0.019585
# 3 -0.003069 0.004416 0.018173 0.005728 -0.001897 0.010449
# 4 -0.001464 0.005735 0.005728 0.030737 -0.001354 0.009823
# 5 -0.001959 -0.002053 -0.001897 -0.001354 0.024142 -0.000160
# 6 -0.001049 0.019585 0.010449 0.009823 -0.000160 0.058631
#
#
# Mechanical properties :
#
#
# Convention : Reuss Voigt Hill
#
# Bulk Modulus (GPa) = 21.40632 34.43212 27.91922
# Shear Modulus (GPa) = 26.31943 34.30726 30.31335
#
# Velocity S-wave (km/s) = 3.41359 3.89732 3.66345
# Velocity P-wave (km/s) = 5.00142 5.95790 5.50049
#
# Compressibility (1/GPa) = 0.04671518
#
# Stress axis : x y z
#
# Youngs Moduli (GPa) = 60.08526 52.66775 55.02547
#
# Poissons Ratio (x) = 0.25757 0.16889
# Poissons Ratio (y) = 0.29385 -0.24297
# Poissons Ratio (z) = 0.18442 -0.23256
#
# Static dielectric constant tensor:
#      x y z
#    x 1.966290 0.032320 0.023950 
#    y 0.032320 2.007630 0.034820 
#    z 0.023950 0.034820 1.916450 
# 
# From -- ./inp_files/404809.got.cif
#   From: 2010.05.17/outbox.cif.g08.bks.cpg/sg2_203_cif.got.tgz:404809.got - 2010.06.03 11:33:40.
