data_PCOD9089173
_publ_section_title
;
Structure prediction by ZEFSAII (Michael W. Deem and Ramdas Pophale) SiO2 
 PCOD9089173
Probable space group: P -1
;
_chemical_formula_sum "Si O2"
_cell_formula_units_Z 16
_cell_length_a 8.777450
_cell_length_b 23.479427
_cell_length_c 5.300825
_cell_angle_alpha 101.847427
_cell_angle_beta 81.516368
_cell_angle_gamma 146.423542
_cell_volume 590.746575
_symmetry_space_group_name_H-M "P -1"
_symmetry_group_IT_number 2
_symmetry_cell_setting 'triclinic'
loop_
_space_group_symop_operation_xyz
x,y,z
-x,-y,-z
loop_
_atom_site_type_symbol
_atom_site_label
_atom_site_fract_x
_atom_site_fract_y
_atom_site_fract_z
Si Si1 0.077664 0.090132 0.601317
Si Si2 0.832950 0.710428 0.988978
Si Si3 0.734415 0.188223 0.668815
Si Si4 0.292361 0.233889 0.290353
Si Si5 0.313796 0.452401 0.254689
Si Si6 0.439162 0.048673 0.102164
Si Si7 0.297966 0.573963 0.254179
Si Si8 0.324021 0.701195 0.151519
O O1 0.059766 0.125664 0.398681
O O2 0.400942 0.200261 0.665212
O O3 0.000000 0.000000 0.500000
O O4 0.879147 0.045324 0.832875
O O5 0.509327 0.618869 0.030761
O O6 0.999786 0.764439 0.257193
O O7 0.881377 0.778518 0.858402
O O8 0.889654 0.666218 0.808377
O O9 0.597292 0.124196 0.383277
O O10 0.827141 0.285245 0.756847
O O11 0.526026 0.111149 0.886156
O O12 0.498825 0.339297 0.498534
O O13 0.518047 0.264120 0.116649
O O14 0.500000 0.500000 0.500000
O O15 0.175854 0.473603 0.285860
O O16 0.500000 0.500000 0.000000
O O17 0.500000 0.000000 0.000000
O O18 0.171190 0.594575 0.191955
#
# Coordination Sequence:
#
# PCOD9089173 Si02
#       8
#     2   2   2   2   2   2   2   2
#     4  11  23  43  68  91 127 179 237 277 330 397
#     4  10  23  39  65 100 136 174 213 279 347 402
#     4  12  28  46  65  97 139 178 218 281 353 401
#     4  10  21  38  68  94 128 174 229 282 328 393
#     4  10  19  37  66 101 132 167 220 269 329 404
#     4  12  30  46  67  98 135 177 233 289 341 395
#     4   9  20  38  67  97 127 170 226 273 324 397
#     4  10  23  41  67  94 129 179 228 278 329 405
#
# _framework density 27.084371999999998
#
# number of rings (size 3 to 8) (size 9 to 14) (size 15 to 20)
#    0.000    1.500    2.500    1.125   10.500    1.000 
#    0.000    0.625    0.000    0.750    0.000    0.000 
#    0.000    0.000    0.000    0.000    0.000    0.000 
#
# Total GULP energy -89446.289521 kJ/mol
# GULP energy per Si atom -5590.393095 kJ/mol
# Density = 2.702273 g / cm^3
# Si number density = 27.084372 Si / 1000 Ang^3
#
#
#
# Elastic Constant Matrix: (Units=GPa)
#
#
# Indices 1 2 3 4 5 6 
#
# 1 102.5693 37.2763 29.4741 -7.5904 -16.3270 -34.3833
# 2 37.2763 107.4861 36.8579 10.0144 -8.7774 -40.7376
# 3 29.4741 36.8579 127.7114 5.6502 -12.7656 -23.7505
# 4 -7.5904 10.0144 5.6502 43.2812 -3.3636 -10.7864
# 5 -16.3270 -8.7774 -12.7656 -3.3636 37.5903 13.4236
# 6 -34.3833 -40.7376 -23.7505 -10.7864 13.4236 58.8529
#
#
#
# Elastic Compliance Matrix: (Units=1/GPa)
#
#
# Indices 1 2 3 4 5 6 
#
# 1 0.013900 -0.002207 -0.001303 0.004924 0.003300 0.006217
# 2 -0.002207 0.013590 -0.002118 -0.001541 -0.001236 0.007263
# 3 -0.001303 -0.002118 0.009111 -0.000558 0.001636 0.000975
# 4 0.004924 -0.001541 -0.000558 0.026019 0.001795 0.005944
# 5 0.003300 -0.001236 0.001636 0.001795 0.030186 -0.004823
# 6 0.006217 0.007263 0.000975 0.005944 -0.004823 0.028234
#
#
# Mechanical properties :
#
#
# Convention : Reuss Voigt Hill
#
# Bulk Modulus (GPa) = 39.45217 60.55371 50.00294
# Shear Modulus (GPa) = 35.52582 43.55544 39.54063
#
# Velocity S-wave (km/s) = 3.62563 4.01451 3.82502
# Velocity P-wave (km/s) = 5.66789 6.62528 6.16520
#
# Compressibility (1/GPa) = 0.02534715
#
# Stress axis : x y z
#
# Youngs Moduli (GPa) = 71.94449 73.58243 109.75222
#
# Poissons Ratio (x) = 0.16237 0.14298
# Poissons Ratio (y) = 0.15876 0.23241
# Poissons Ratio (z) = 0.09373 0.15582
#
# Static dielectric constant tensor:
#      x y z
#    x 2.479340 -0.198810 0.130240 
#    y -0.198810 2.350860 -0.104350 
#    z 0.130240 -0.104350 2.330170 
# 
# From -- ./inp_files/54501.got.cif
#   From: 2010.05.17/outbox.cif.g08.bks.cpg/sg2_28_cif.got.tgz:54501.got - 2010.06.03 11:33:40.
