data_PCOD9089797
_publ_section_title
;
Structure prediction by ZEFSAII (Michael W. Deem and Ramdas Pophale) SiO2 
 PCOD9089797
Probable space group: P -1
;
_chemical_formula_sum "Si O2"
_cell_formula_units_Z 12
_cell_length_a 9.750856
_cell_length_b 6.660768
_cell_length_c 17.611496
_cell_angle_alpha 146.200314
_cell_angle_beta 49.111786
_cell_angle_gamma 132.372235
_cell_volume 457.482228
_symmetry_space_group_name_H-M "P -1"
_symmetry_group_IT_number 2
_symmetry_cell_setting 'triclinic'
loop_
_space_group_symop_operation_xyz
x,y,z
-x,-y,-z
loop_
_atom_site_type_symbol
_atom_site_label
_atom_site_fract_x
_atom_site_fract_y
_atom_site_fract_z
Si Si1 0.962150 0.970409 0.382396
Si Si2 0.548686 0.237071 0.210897
Si Si3 0.710934 0.329987 0.494299
Si Si4 0.358416 0.726835 0.654645
Si Si5 0.797412 0.084075 0.870793
Si Si6 0.936312 0.148164 0.991749
O O1 0.838116 0.574117 0.338333
O O2 0.069242 0.939856 0.255819
O O3 0.811130 0.181662 0.479469
O O4 0.134920 0.261515 0.456802
O O5 0.471318 0.576344 0.375343
O O6 0.546653 0.031190 0.229696
O O7 0.759998 0.298560 0.125154
O O8 0.409514 0.047678 0.133172
O O9 0.680911 0.092429 0.352644
O O10 0.500000 0.500000 0.500000
O O11 0.871754 0.530843 0.002571
O O12 0.848962 0.895321 0.869274
O O13 0.000000 0.000000 0.000000
#
# Coordination Sequence:
#
# PCOD9089797 Si02
#       6
#     2   2   2   2   2   2
#     4  10  19  38  61  91 124 161 202 245 306 369
#     4  10  21  41  61  92 125 156 203 249 304 366
#     4   9  21  36  62  91 124 162 199 245 307 365
#     4  10  20  35  56  89 127 158 197 246 293 363
#     4  10  23  42  64  88 123 160 201 259 303 356
#     4  11  24  43  64  88 118 162 209 256 304 357
#
# _framework density 26.230528
#
# number of rings (size 3 to 8) (size 9 to 14) (size 15 to 20)
#    0.000    2.000    1.667    1.000    2.333    3.333 
#    0.000    3.333    0.000    0.000    0.000    0.000 
#    0.000    0.000    0.000    0.000    0.000    0.000 
#
# Total GULP energy -66947.618553 kJ/mol
# GULP energy per Si atom -5578.968213 kJ/mol
# Density = 2.617083 g / cm^3
# Si number density = 26.230528 Si / 1000 Ang^3
#
#
#
# Elastic Constant Matrix: (Units=GPa)
#
#
# Indices 1 2 3 4 5 6 
#
# 1 208.0565 61.3348 66.5746 -19.3405 31.5418 3.3701
# 2 61.3348 96.7914 15.5666 -26.1564 11.4644 -2.9689
# 3 66.5746 15.5666 94.3517 -35.7623 14.4053 -9.5291
# 4 -19.3405 -26.1564 -35.7623 33.0361 -5.9208 10.8744
# 5 31.5418 11.4644 14.4053 -5.9208 76.8735 -14.3884
# 6 3.3701 -2.9689 -9.5291 10.8744 -14.3884 41.2094
#
#
#
# Elastic Compliance Matrix: (Units=1/GPa)
#
#
# Indices 1 2 3 4 5 6 
#
# 1 0.008953 -0.006538 -0.008480 -0.008989 -0.002086 -0.001521
# 2 -0.006538 0.018954 0.009875 0.022397 -0.000634 -0.001948
# 3 -0.008480 0.009875 0.027358 0.032714 -0.000823 -0.001189
# 4 -0.008989 0.022397 0.032714 0.081889 -0.001781 -0.012317
# 5 -0.002086 -0.000634 -0.000823 -0.001781 0.015034 0.005654
# 6 -0.001521 -0.001948 -0.001189 -0.012317 0.005654 0.029200
#
#
# Mechanical properties :
#
#
# Convention : Reuss Voigt Hill
#
# Bulk Modulus (GPa) = 22.23258 76.23907 49.23583
# Shear Modulus (GPa) = 24.19347 47.27205 35.73276
#
# Velocity S-wave (km/s) = 3.04030 4.24981 3.69488
# Velocity P-wave (km/s) = 4.56276 7.29447 6.08392
#
# Compressibility (1/GPa) = 0.04497903
#
# Stress axis : x y z
#
# Youngs Moduli (GPa) = 111.69846 52.75903 36.55198
#
# Poissons Ratio (x) = 0.34493 0.30998
# Poissons Ratio (y) = 0.73027 -0.36096
# Poissons Ratio (z) = 0.94726 -0.52102
#
# Static dielectric constant tensor:
#      x y z
#    x 2.220440 -0.094830 0.048830 
#    y -0.094830 2.184700 0.092790 
#    z 0.048830 0.092790 2.135050 
# 
# From -- ./inp_files/129943.got.cif
#   From: 2010.05.17/outbox.cif.g08.bks.cpg/sg2_65_cif.got.tgz:129943.got - 2010.06.03 11:33:40.
