data_PCOD9089762
_publ_section_title
;
Structure prediction by ZEFSAII (Michael W. Deem and Ramdas Pophale) SiO2 
 PCOD9089762
Probable space group: P -1
;
_chemical_formula_sum "Si O2"
_cell_formula_units_Z 16
_cell_length_a 8.675718
_cell_length_b 6.921010
_cell_length_c 18.562620
_cell_angle_alpha 59.562048
_cell_angle_beta 126.600213
_cell_angle_gamma 135.451889
_cell_volume 621.075200
_symmetry_space_group_name_H-M "P -1"
_symmetry_group_IT_number 2
_symmetry_cell_setting 'triclinic'
loop_
_space_group_symop_operation_xyz
x,y,z
-x,-y,-z
loop_
_atom_site_type_symbol
_atom_site_label
_atom_site_fract_x
_atom_site_fract_y
_atom_site_fract_z
Si Si1 0.010081 0.978633 0.186773
Si Si2 0.503299 0.617428 0.712354
Si Si3 0.993464 0.197756 0.579335
Si Si4 0.618643 0.398036 0.152338
Si Si5 0.255908 0.574159 0.462824
Si Si6 0.699545 0.586443 0.640487
Si Si7 0.147091 0.300475 0.021142
Si Si8 0.689285 0.143646 0.091832
O O1 0.241318 0.075564 0.278131
O O2 0.094970 0.217764 0.105652
O O3 0.801814 0.977302 0.166977
O O4 0.883534 0.682692 0.169627
O O5 0.240538 0.448822 0.637330
O O6 0.440222 0.646891 0.771254
O O7 0.611518 0.483568 0.717412
O O8 0.040526 0.274452 0.493281
O O9 0.792007 0.225457 0.548374
O O10 0.934327 0.902394 0.637722
O O11 0.425809 0.442560 0.061914
O O12 0.591777 0.167950 0.136150
O O13 0.495107 0.613148 0.547575
O O14 0.269141 0.583578 0.378215
O O15 0.121767 0.533176 0.941444
O O16 0.000000 0.000000 0.000000
O O17 0.500000 0.000000 0.000000
#
# Coordination Sequence:
#
# PCOD9089762 Si02
#       8
#     2   2   2   2   2   2   2   2
#     4  11  23  41  60  86 122 156 204 247 307 372
#     4  10  24  40  58  83 124 168 197 242 297 366
#     4  10  19  38  61  88 123 157 198 245 298 343
#     4  11  23  42  59  86 124 156 198 253 309 366
#     4   9  20  34  62  96 116 151 202 248 291 352
#     4  10  19  38  61  88 123 157 198 245 297 344
#     4  11  21  40  66  91 118 150 194 259 315 360
#     4  12  23  40  68  92 114 156 202 261 315 362
#
# _framework density 25.761773999999999
#
# number of rings (size 3 to 8) (size 9 to 14) (size 15 to 20)
#    0.000    1.500    2.500    3.000    0.000    1.000 
#    0.000    2.500    0.000    0.000    0.000    0.000 
#    0.000    0.000    0.000    0.000    0.000    0.000 
#
# Total GULP energy -89086.021424 kJ/mol
# GULP energy per Si atom -5567.876339 kJ/mol
# Density = 2.570314 g / cm^3
# Si number density = 25.761774 Si / 1000 Ang^3
#
#
#
# Elastic Constant Matrix: (Units=GPa)
#
#
# Indices 1 2 3 4 5 6 
#
# 1 132.1242 29.3691 43.2846 25.8671 -31.3478 -20.4365
# 2 29.3691 94.0558 23.0782 21.0111 13.4205 -13.5102
# 3 43.2846 23.0782 61.2034 13.6533 -17.9044 -6.3574
# 4 25.8671 21.0111 13.6533 34.2081 6.6618 -2.0602
# 5 -31.3478 13.4205 -17.9044 6.6618 67.3688 12.9555
# 6 -20.4365 -13.5102 -6.3574 -2.0602 12.9555 36.5690
#
#
#
# Elastic Compliance Matrix: (Units=1/GPa)
#
#
# Indices 1 2 3 4 5 6 
#
# 1 0.012676 -0.001208 -0.005025 -0.007565 0.004856 0.003617
# 2 -0.001208 0.014812 -0.004595 -0.004977 -0.005319 0.005602
# 3 -0.005025 -0.004595 0.024029 -0.004277 0.005897 -0.002659
# 4 -0.007565 -0.004977 -0.004277 0.041037 -0.007360 -0.001891
# 5 0.004856 -0.005319 0.005897 -0.007360 0.021673 -0.006319
# 6 0.003617 0.005602 -0.002659 -0.001891 -0.006319 0.033107
#
#
# Mechanical properties :
#
#
# Convention : Reuss Voigt Hill
#
# Bulk Modulus (GPa) = 33.48917 53.20527 43.34722
# Shear Modulus (GPa) = 27.94165 40.40595 34.17380
#
# Velocity S-wave (km/s) = 3.29692 3.96466 3.64611
# Velocity P-wave (km/s) = 5.24602 6.45412 5.88117
#
# Compressibility (1/GPa) = 0.02986040
#
# Stress axis : x y z
#
# Youngs Moduli (GPa) = 78.88649 67.51193 41.61710
#
# Poissons Ratio (x) = 0.08159 0.20914
# Poissons Ratio (y) = 0.09533 0.19121
# Poissons Ratio (z) = 0.39643 0.31019
#
# Static dielectric constant tensor:
#      x y z
#    x 2.087720 0.029980 -0.080030 
#    y 0.029980 2.023190 -0.011880 
#    z -0.080030 -0.011880 2.168090 
# 
# From -- ./inp_files/547242.got.cif
#   From: 2010.05.17/outbox.cif.g08.bks.cpg/sg2_274_cif.got.tgz:547242.got - 2010.06.03 11:33:40.
