data_PCOD9089865
_publ_section_title
;
Structure prediction by ZEFSAII (Michael W. Deem and Ramdas Pophale) SiO2 
 PCOD9089865
Probable space group: P -1
;
_chemical_formula_sum "Si O2"
_cell_formula_units_Z 16
_cell_length_a 7.867979
_cell_length_b 7.858638
_cell_length_c 18.083220
_cell_angle_alpha 54.927426
_cell_angle_beta 73.921922
_cell_angle_gamma 50.715172
_cell_volume 701.595119
_symmetry_space_group_name_H-M "P -1"
_symmetry_group_IT_number 2
_symmetry_cell_setting 'triclinic'
loop_
_space_group_symop_operation_xyz
x,y,z
-x,-y,-z
loop_
_atom_site_type_symbol
_atom_site_label
_atom_site_fract_x
_atom_site_fract_y
_atom_site_fract_z
Si Si1 0.557813 0.165770 0.258411
Si Si2 0.831699 0.183112 0.411015
Si Si3 0.954162 0.572298 0.074674
Si Si4 0.058736 0.261129 0.602377
Si Si5 0.658934 0.439876 0.929315
Si Si6 0.471321 0.347089 0.845121
Si Si7 0.847952 0.771692 0.718245
Si Si8 0.368448 0.686780 0.326769
O O1 0.473065 0.262838 0.161204
O O2 0.425284 0.746945 0.224799
O O3 0.315312 0.274348 0.292076
O O4 0.744659 0.867614 0.328775
O O5 0.843675 0.981024 0.404608
O O6 0.935313 0.319255 0.329832
O O7 0.578764 0.413472 0.400595
O O8 0.000000 0.000000 0.500000
O O9 0.697804 0.707939 0.091981
O O10 0.091259 0.684603 0.047583
O O11 0.069304 0.345004 0.180243
O O12 0.000000 0.500000 0.000000
O O13 0.840479 0.318847 0.650990
O O14 0.000000 0.500000 0.500000
O O15 0.645515 0.277312 0.906734
O O16 0.639909 0.341309 0.223984
O O17 0.500000 0.500000 0.000000
O O18 0.702379 0.081248 0.667599
#
# Coordination Sequence:
#
# PCOD9089865 Si02
#       8
#     2   2   2   2   2   2   2   2
#     4   9  20  40  59  87 125 156 209 255 314 371
#     4  11  24  41  62  88 121 163 210 262 319 378
#     4  11  18  36  68  90 125 170 206 258 318 373
#     4  11  25  41  61  89 124 166 208 261 320 372
#     4   9  18  33  64  93 118 166 209 247 315 380
#     4  10  19  38  62  86 125 162 208 251 318 371
#     4  10  23  40  64  91 124 165 209 262 322 374
#     4  11  23  42  63  87 126 164 211 261 317 378
#
# _framework density 22.805178000000002
#
# number of rings (size 3 to 8) (size 9 to 14) (size 15 to 20)
#    0.750    1.000    3.750    0.750    3.500    2.500 
#    2.250    0.625    0.000    1.500    0.000    0.000 
#    0.000    0.000    0.000    0.000    0.000    0.000 
#
# Total GULP energy -89089.853969 kJ/mol
# GULP energy per Si atom -5568.115873 kJ/mol
# Density = 2.275327 g / cm^3
# Si number density = 22.805178 Si / 1000 Ang^3
#
#
#
# Elastic Constant Matrix: (Units=GPa)
#
#
# Indices 1 2 3 4 5 6 
#
# 1 136.0816 12.8272 18.3169 -4.1233 7.2644 -25.9515
# 2 12.8272 46.3863 8.8756 -9.0087 6.8778 -8.5097
# 3 18.3169 8.8756 83.2603 -8.9129 12.5950 -9.2199
# 4 -4.1233 -9.0087 -8.9129 28.0774 -9.0029 5.6485
# 5 7.2644 6.8778 12.5950 -9.0029 37.2016 -0.1292
# 6 -25.9515 -8.5097 -9.2199 5.6485 -0.1292 24.2599
#
#
#
# Elastic Compliance Matrix: (Units=1/GPa)
#
#
# Indices 1 2 3 4 5 6 
#
# 1 0.009468 -0.000692 -0.000811 -0.001675 -0.001817 0.009958
# 2 -0.000692 0.024509 -0.000763 0.005346 -0.002822 0.006307
# 3 -0.000811 -0.000763 0.013438 0.001996 -0.003755 0.003487
# 4 -0.001675 0.005346 0.001996 0.042374 0.008886 -0.008976
# 5 -0.001817 -0.002822 -0.003755 0.008886 0.031157 -0.006264
# 6 0.009958 0.006307 0.003487 -0.008976 -0.006264 0.057467
#
#
# Mechanical properties :
#
#
# Convention : Reuss Voigt Hill
#
# Bulk Modulus (GPa) = 23.31878 38.41861 30.86870
# Shear Modulus (GPa) = 25.34984 32.95501 29.15242
#
# Velocity S-wave (km/s) = 3.33766 3.80553 3.57925
# Velocity P-wave (km/s) = 5.01006 6.01601 5.53593
#
# Compressibility (1/GPa) = 0.04288389
#
# Stress axis : x y z
#
# Youngs Moduli (GPa) = 105.61710 40.80088 74.41495
#
# Poissons Ratio (x) = 0.02824 0.06034
# Poissons Ratio (y) = 0.07311 0.05676
# Poissons Ratio (z) = 0.08565 0.03112
#
# Static dielectric constant tensor:
#      x y z
#    x 1.921810 0.108330 -0.847580 
#    y 0.108330 1.727720 0.927500 
#    z -0.847580 0.927500 -4.419030 
# 
# From -- ./inp_files/556991.got.cif
#   From: 2010.05.17/outbox.cif.g08.bks.cpg/sg2_279_cif.got.tgz:556991.got - 2010.06.03 11:33:40.
