data_PCOD9089680
_publ_section_title
;
Structure prediction by ZEFSAII (Michael W. Deem and Ramdas Pophale) SiO2 
 PCOD9089680
Probable space group: P -1
;
_chemical_formula_sum "Si O2"
_cell_formula_units_Z 16
_cell_length_a 17.059959
_cell_length_b 8.776853
_cell_length_c 14.078182
_cell_angle_alpha 41.177091
_cell_angle_beta 29.757581
_cell_angle_gamma 38.404475
_cell_volume 631.782074
_symmetry_space_group_name_H-M "P -1"
_symmetry_group_IT_number 2
_symmetry_cell_setting 'triclinic'
loop_
_space_group_symop_operation_xyz
x,y,z
-x,-y,-z
loop_
_atom_site_type_symbol
_atom_site_label
_atom_site_fract_x
_atom_site_fract_y
_atom_site_fract_z
Si Si1 0.305987 0.633476 0.185091
Si Si2 0.272180 0.411946 0.799750
Si Si3 0.371174 0.846526 0.545641
Si Si4 0.806140 0.972440 0.550756
Si Si5 0.545870 0.241216 0.847611
Si Si6 0.839330 0.679691 0.379868
Si Si7 0.807065 0.429782 0.861961
Si Si8 0.980818 0.294964 0.240262
O O1 0.339750 0.783429 0.167821
O O2 0.233110 0.447259 0.401922
O O3 0.201849 0.713119 0.157991
O O4 0.500000 0.500000 0.000000
O O5 0.341263 0.589775 0.703255
O O6 0.435086 0.218140 0.662138
O O7 0.132339 0.587475 0.789593
O O8 0.169439 0.288994 0.028487
O O9 0.247916 0.989208 0.519546
O O10 0.306744 0.039615 0.609514
O O11 0.658518 0.205051 0.652169
O O12 0.971339 0.023136 0.386987
O O13 0.815633 0.700171 0.698687
O O14 0.371191 0.486460 0.932478
O O15 0.500000 0.000000 0.000000
O O16 0.889249 0.486975 0.330656
O O17 0.016703 0.709882 0.202953
#
# Coordination Sequence:
#
# PCOD9089680 Si02
#       8
#     2   2   2   2   2   2   2   2
#     4  10  20  39  55  84 134 172 200 252 301 363
#     4   9  22  47  64  90 117 164 212 287 321 378
#     4  10  22  40  68  85 123 166 213 261 334 378
#     4  10  19  38  60  89 126 173 207 253 309 388
#     4   9  19  37  57  86 122 174 214 246 295 367
#     4  12  23  39  62 100 126 171 208 261 316 385
#     4  10  22  37  59  91 138 167 207 256 300 383
#     4  10  22  41  67  91 125 155 223 270 324 375
#
# _framework density 25.325187
#
# number of rings (size 3 to 8) (size 9 to 14) (size 15 to 20)
#    0.000    2.000    2.500    0.375    1.750    1.500 
#    2.250    3.750    0.000    0.000    0.000    0.000 
#    0.000    0.000    0.000    0.000    0.000    0.000 
#
# Total GULP energy -89476.600066 kJ/mol
# GULP energy per Si atom -5592.287504 kJ/mol
# Density = 2.526755 g / cm^3
# Si number density = 25.325187 Si / 1000 Ang^3
#
#
#
# Elastic Constant Matrix: (Units=GPa)
#
#
# Indices 1 2 3 4 5 6 
#
# 1 88.6031 31.7792 16.7631 -3.3503 -9.2099 33.6354
# 2 31.7792 106.4338 30.7256 28.0042 -10.2859 17.1905
# 3 16.7631 30.7256 109.2510 25.6127 -16.9284 10.6724
# 4 -3.3503 28.0042 25.6127 28.3962 -1.7643 4.1002
# 5 -9.2099 -10.2859 -16.9284 -1.7643 31.0422 -0.8802
# 6 33.6354 17.1905 10.6724 4.1002 -0.8802 42.0581
#
#
#
# Elastic Compliance Matrix: (Units=1/GPa)
#
#
# Indices 1 2 3 4 5 6 
#
# 1 0.020122 -0.006107 -0.002577 0.012942 0.002876 -0.014143
# 2 -0.006107 0.015669 0.000935 -0.016826 0.002932 -0.000056
# 3 -0.002577 0.000935 0.013239 -0.012748 0.006032 -0.000312
# 4 0.012942 -0.016826 -0.012748 0.065486 -0.005156 -0.006730
# 5 0.002876 0.002932 0.006032 -0.005156 0.036929 -0.003753
# 6 -0.014143 -0.000056 -0.000312 -0.006730 -0.003753 0.035767
#
#
# Mechanical properties :
#
#
# Convention : Reuss Voigt Hill
#
# Bulk Modulus (GPa) = 29.82257 51.42485 40.62371
# Shear Modulus (GPa) = 23.37692 35.30063 29.33877
#
# Velocity S-wave (km/s) = 3.04150 3.73754 3.40734
# Velocity P-wave (km/s) = 4.91281 6.24304 5.61744
#
# Compressibility (1/GPa) = 0.03353165
#
# Stress axis : x y z
#
# Youngs Moduli (GPa) = 49.69790 63.82231 75.53248
#
# Poissons Ratio (x) = 0.38976 0.19462
# Poissons Ratio (y) = 0.30350 -0.07061
# Poissons Ratio (z) = 0.12806 -0.05966
#
# Static dielectric constant tensor:
#      x y z
#    x 2.004710 -0.048870 -0.036170 
#    y -0.048870 2.051660 0.029250 
#    z -0.036170 0.029250 2.093180 
# 
# From -- ./inp_files/184918.got.cif
#   From: 2010.05.17/outbox.cif.g08.bks.cpg/sg2_93_cif.got.tgz:184918.got - 2010.06.03 11:33:40.
