data_PCOD9089703
_publ_section_title
;
Structure prediction by ZEFSAII (Michael W. Deem and Ramdas Pophale) SiO2 
 PCOD9089703
Probable space group: P -1
;
_chemical_formula_sum "Si O2"
_cell_formula_units_Z 16
_cell_length_a 9.351864
_cell_length_b 24.599627
_cell_length_c 9.582595
_cell_angle_alpha 47.443730
_cell_angle_beta 103.037615
_cell_angle_gamma 141.584728
_cell_volume 753.662127
_symmetry_space_group_name_H-M "P -1"
_symmetry_group_IT_number 2
_symmetry_cell_setting 'triclinic'
loop_
_space_group_symop_operation_xyz
x,y,z
-x,-y,-z
loop_
_atom_site_type_symbol
_atom_site_label
_atom_site_fract_x
_atom_site_fract_y
_atom_site_fract_z
Si Si1 0.370683 0.152996 0.327209
Si Si2 0.657544 0.161746 0.177367
Si Si3 0.838431 0.500409 0.405320
Si Si4 0.233544 0.329966 0.065048
Si Si5 0.629234 0.710776 0.090557
Si Si6 0.189576 0.976159 0.162645
Si Si7 0.812479 0.950602 0.242059
Si Si8 0.597389 0.643067 0.649118
O O1 0.419933 0.170173 0.473810
O O2 0.480611 0.127672 0.318909
O O3 0.506654 0.281431 0.046381
O O4 0.000000 0.000000 0.500000
O O5 0.904414 0.326986 0.876131
O O6 0.872844 0.192381 0.231110
O O7 0.426902 0.045832 0.201040
O O8 0.602330 0.418939 0.616652
O O9 0.633003 0.399446 0.395798
O O10 0.000000 0.500000 0.500000
O O11 0.335630 0.324870 0.226943
O O12 0.287272 0.314523 0.957674
O O13 0.438579 0.494572 0.839216
O O14 0.930845 0.878740 0.938952
O O15 0.005581 0.962863 0.219889
O O16 0.925932 0.800341 0.376502
O O17 0.326363 0.073451 0.884888
#
# Coordination Sequence:
#
# PCOD9089703 Si02
#       8
#     2   2   2   2   2   2   2   2
#     4  10  19  38  60  98 128 163 214 268 320 375
#     4  11  23  40  66  98 128 172 220 264 314 389
#     4  11  21  41  69  97 129 165 222 267 320 385
#     4  10  25  44  67  92 131 179 217 257 320 395
#     4  11  20  42  67  95 127 175 212 262 331 384
#     4  11  20  40  65  96 128 170 212 268 323 380
#     4  10  21  35  64  96 128 165 212 260 332 376
#     4  10  23  43  65  91 134 177 209 257 334 386
#
# _framework density 21.229672000000001
#
# number of rings (size 3 to 8) (size 9 to 14) (size 15 to 20)
#    0.000    1.500    5.000    0.750    3.500    2.500 
#    0.000    6.250    0.000    0.000    0.000    0.000 
#    0.000    0.000    0.000    0.000    0.000    0.000 
#
# Total GULP energy -89342.898647 kJ/mol
# GULP energy per Si atom -5583.931165 kJ/mol
# Density = 2.118135 g / cm^3
# Si number density = 21.229672 Si / 1000 Ang^3
#
#
#
# Elastic Constant Matrix: (Units=GPa)
#
#
# Indices 1 2 3 4 5 6 
#
# 1 77.8049 50.3748 13.5749 12.9837 -16.7946 5.1114
# 2 50.3748 119.2060 38.1091 20.0253 3.3247 25.8183
# 3 13.5749 38.1091 92.8077 25.1332 -1.2868 8.5918
# 4 12.9837 20.0253 25.1332 43.5027 -2.2681 -0.0802
# 5 -16.7946 3.3247 -1.2868 -2.2681 25.9153 6.5699
# 6 5.1114 25.8183 8.5918 -0.0802 6.5699 32.5186
#
#
#
# Elastic Compliance Matrix: (Units=1/GPa)
#
#
# Indices 1 2 3 4 5 6 
#
# 1 0.023219 -0.010686 0.001690 -0.002150 0.016023 0.001146
# 2 -0.010686 0.016776 -0.003843 -0.002704 -0.007177 -0.009181
# 3 0.001690 -0.003843 0.014095 -0.006775 0.002042 -0.001368
# 4 -0.002150 -0.002704 -0.006775 0.028797 0.000038 0.004338
# 5 0.016023 -0.007177 0.002042 0.000038 0.051990 -0.007864
# 6 0.001146 -0.009181 -0.001368 0.004338 -0.007864 0.039822
#
#
# Mechanical properties :
#
#
# Convention : Reuss Voigt Hill
#
# Bulk Modulus (GPa) = 35.19606 54.88181 45.03893
# Shear Modulus (GPa) = 23.82674 32.90464 28.36569
#
# Velocity S-wave (km/s) = 3.35376 3.94119 3.65928
# Velocity P-wave (km/s) = 5.62242 6.82776 6.25419
#
# Compressibility (1/GPa) = 0.02841227
#
# Stress axis : x y z
#
# Youngs Moduli (GPa) = 43.06885 59.60888 70.94493
#
# Poissons Ratio (x) = 0.63698 -0.11990
# Poissons Ratio (y) = 0.46024 0.27263
# Poissons Ratio (z) = -0.07279 0.22907
#
# Static dielectric constant tensor:
#      x y z
#    x 1.771320 0.020040 0.046900 
#    y 0.020040 1.796460 0.009920 
#    z 0.046900 0.009920 1.822520 
# 
# From -- ./inp_files/226152.got.cif
#   From: 2010.05.17/outbox.cif.g08.bks.cpg/sg2_114_cif.got.tgz:226152.got - 2010.06.03 11:33:40.
