data_PCOD9089403
_publ_section_title
;
Structure prediction by ZEFSAII (Michael W. Deem and Ramdas Pophale) SiO2 
 PCOD9089403
Probable space group: P -1
;
_chemical_formula_sum "Si O2"
_cell_formula_units_Z 16
_cell_length_a 23.625421
_cell_length_b 6.719176
_cell_length_c 5.774339
_cell_angle_alpha 103.176533
_cell_angle_beta 88.062876
_cell_angle_gamma 132.260503
_cell_volume 651.393312
_symmetry_space_group_name_H-M "P -1"
_symmetry_group_IT_number 2
_symmetry_cell_setting 'triclinic'
loop_
_space_group_symop_operation_xyz
x,y,z
-x,-y,-z
loop_
_atom_site_type_symbol
_atom_site_label
_atom_site_fract_x
_atom_site_fract_y
_atom_site_fract_z
Si Si1 0.027544 0.163604 0.793950
Si Si2 0.818093 0.300683 0.585243
Si Si3 0.780621 0.877427 0.095100
Si Si4 0.550069 0.799172 0.953444
Si Si5 0.561878 0.207373 0.347799
Si Si6 0.914933 0.231868 0.784235
Si Si7 0.670832 0.786879 0.738964
Si Si8 0.830779 0.686366 0.358829
O O1 0.118069 0.340617 0.809070
O O2 0.000000 0.000000 0.500000
O O3 0.998090 0.325799 0.837668
O O4 0.000000 0.000000 0.000000
O O5 0.897460 0.411199 0.720838
O O6 0.748941 0.075667 0.705301
O O7 0.812747 0.516355 0.548144
O O8 0.800952 0.118346 0.317400
O O9 0.854210 0.041746 0.952533
O O10 0.700756 0.735879 0.943188
O O11 0.771071 0.649713 0.188893
O O12 0.488606 0.779128 0.813663
O O13 0.612932 0.829082 0.808008
O O14 0.500000 0.500000 0.000000
O O15 0.586950 0.054099 0.191910
O O16 0.630616 0.519455 0.512263
O O17 0.500000 0.000000 0.500000
O O18 0.881358 0.002360 0.523318
#
# Coordination Sequence:
#
# PCOD9089403 Si02
#       8
#     2   2   2   2   2   2   2   2
#     4  10  19  37  71 100 134 188 241 299 367 418
#     4  10  24  43  61  98 138 179 229 285 345 426
#     4  10  22  43  62  93 138 176 224 286 339 419
#     4  11  25  47  74 102 138 171 226 292 343 419
#     4  11  25  47  73 103 134 176 224 284 351 416
#     4   9  20  41  63  92 139 175 232 296 345 411
#     4  11  25  47  67  99 144 179 226 288 353 421
#     4  10  21  42  67  93 135 182 234 283 352 420
#
# _framework density 24.562730999999999
#
# number of rings (size 3 to 8) (size 9 to 14) (size 15 to 20)
#    0.000    1.750    2.500    0.375    1.750    2.500 
#   18.000    0.625    0.000    0.000    0.000    0.000 
#    0.000    0.000    0.000    0.000    0.000    0.000 
#
# Total GULP energy -89456.571094 kJ/mol
# GULP energy per Si atom -5591.035693 kJ/mol
# Density = 2.450683 g / cm^3
# Si number density = 24.562731 Si / 1000 Ang^3
#
#
#
# Elastic Constant Matrix: (Units=GPa)
#
#
# Indices 1 2 3 4 5 6 
#
# 1 84.0998 38.5384 24.8758 5.2482 3.5418 -23.7972
# 2 38.5384 112.6477 19.8593 -13.2978 8.6084 -33.2770
# 3 24.8758 19.8593 73.0480 -3.3354 -0.6853 -20.2682
# 4 5.2482 -13.2978 -3.3354 39.4693 -16.0742 -0.0405
# 5 3.5418 8.6084 -0.6853 -16.0742 48.5743 -4.7822
# 6 -23.7972 -33.2770 -20.2682 -0.0405 -4.7822 42.6915
#
#
#
# Elastic Compliance Matrix: (Units=1/GPa)
#
#
# Indices 1 2 3 4 5 6 
#
# 1 0.016339 -0.004208 -0.003543 -0.004541 -0.001608 0.003961
# 2 -0.004208 0.013269 0.000355 0.005279 0.000517 0.008228
# 3 -0.003543 0.000355 0.016746 0.002829 0.002006 0.006479
# 4 -0.004541 0.005279 0.002829 0.032243 0.010512 0.004135
# 5 -0.001608 0.000517 0.002006 0.010512 0.024435 0.003206
# 6 0.003961 0.008228 0.006479 0.004135 0.003206 0.035484
#
#
# Mechanical properties :
#
#
# Convention : Reuss Voigt Hill
#
# Bulk Modulus (GPa) = 31.68632 48.48248 40.08440
# Shear Modulus (GPa) = 30.51947 38.58182 34.55065
#
# Velocity S-wave (km/s) = 3.52875 3.96756 3.75457
# Velocity P-wave (km/s) = 5.43424 6.38513 5.92878
#
# Compressibility (1/GPa) = 0.03155936
#
# Stress axis : x y z
#
# Youngs Moduli (GPa) = 61.20330 75.36512 59.71744
#
# Poissons Ratio (x) = 0.31715 0.21161
# Poissons Ratio (y) = 0.25755 -0.02118
# Poissons Ratio (z) = 0.21687 -0.02673
#
# Static dielectric constant tensor:
#      x y z
#    x 1.991330 0.025450 0.034720 
#    y 0.025450 2.028710 -0.030270 
#    z 0.034720 -0.030270 2.076550 
# 
# From -- ./inp_files/121758.got.cif
#   From: 2010.05.17/outbox.cif.g08.bks.cpg/sg2_61_cif.got.tgz:121758.got - 2010.06.03 11:33:40.
