data_PCOD9089993
_publ_section_title
;
Structure prediction by ZEFSAII (Michael W. Deem and Ramdas Pophale) SiO2 
 PCOD9089993
Probable space group: P -1
;
_chemical_formula_sum "Si O2"
_cell_formula_units_Z 16
_cell_length_a 20.503037
_cell_length_b 8.187456
_cell_length_c 8.486380
_cell_angle_alpha 113.396639
_cell_angle_beta 72.506712
_cell_angle_gamma 147.780161
_cell_volume 695.274116
_symmetry_space_group_name_H-M "P -1"
_symmetry_group_IT_number 2
_symmetry_cell_setting 'triclinic'
loop_
_space_group_symop_operation_xyz
x,y,z
-x,-y,-z
loop_
_atom_site_type_symbol
_atom_site_label
_atom_site_fract_x
_atom_site_fract_y
_atom_site_fract_z
Si Si1 0.738472 0.250593 0.347922
Si Si2 0.223384 0.232256 0.966241
Si Si3 0.975571 0.757810 0.843982
Si Si4 0.786070 0.749077 0.644940
Si Si5 0.270411 0.731676 0.015119
Si Si6 0.474059 0.624504 0.971931
Si Si7 0.975924 0.626222 0.468578
Si Si8 0.523348 0.243225 0.645945
O O1 0.767067 0.512113 0.492465
O O2 0.743427 0.259469 0.157482
O O3 0.844408 0.357686 0.381366
O O4 0.597234 0.904430 0.366080
O O5 0.209700 0.242745 0.165798
O O6 0.337533 0.347252 0.899523
O O7 0.257788 0.493080 0.958476
O O8 0.090152 0.887584 0.867857
O O9 0.979672 0.783928 0.663886
O O10 0.840395 0.412653 0.867256
O O11 0.000000 0.000000 0.000000
O O12 0.662048 0.593384 0.634361
O O13 0.911739 0.099198 0.623905
O O14 0.406173 0.081998 0.106055
O O15 0.478021 0.776593 0.170308
O O16 0.500000 0.500000 0.000000
O O17 0.000000 0.500000 0.500000
O O18 0.500000 0.000000 0.500000
#
# Coordination Sequence:
#
# PCOD9089993 Si02
#       8
#     2   2   2   2   2   2   2   2
#     4  10  19  38  63  86 115 154 196 242 287 344
#     4  10  20  37  62  90 115 151 198 243 287 344
#     4  10  21  38  58  85 114 151 199 241 283 342
#     4  10  19  38  63  86 115 154 196 242 287 344
#     4  10  20  37  62  90 115 151 198 243 287 344
#     4  10  21  35  56  89 124 153 185 234 295 348
#     4  12  26  40  57  87 123 157 193 239 296 350
#     4   8  18  35  59  85 110 147 196 234 280 342
#
# _framework density 23.012505000000001
#
# number of rings (size 3 to 8) (size 9 to 14) (size 15 to 20)
#    0.000    2.000    0.000    4.500    0.000    4.000 
#    0.000    6.250    0.000    0.000    0.000    0.000 
#    0.000    0.000    0.000    0.000    0.000    0.000 
#
# Total GULP energy -89364.861695 kJ/mol
# GULP energy per Si atom -5585.303856 kJ/mol
# Density = 2.296013 g / cm^3
# Si number density = 23.012505 Si / 1000 Ang^3
#
#
#
# Elastic Constant Matrix: (Units=GPa)
#
#
# Indices 1 2 3 4 5 6 
#
# 1 141.5442 71.5770 17.0798 -8.7339 10.8811 51.6283
# 2 71.5770 138.1457 28.7517 -14.2825 -0.0036 68.9668
# 3 17.0798 28.7517 74.3372 -2.5781 9.5673 14.3243
# 4 -8.7339 -14.2825 -2.5781 25.1621 4.6878 -5.1495
# 5 10.8811 -0.0036 9.5673 4.6878 21.9656 6.4294
# 6 51.6283 68.9668 14.3243 -5.1495 6.4294 58.0767
#
#
#
# Elastic Compliance Matrix: (Units=1/GPa)
#
#
# Indices 1 2 3 4 5 6 
#
# 1 0.010999 -0.002318 0.000204 0.001961 -0.004068 -0.006451
# 2 -0.002318 0.020889 -0.004202 0.004475 0.008542 -0.022257
# 3 0.000204 -0.004202 0.015700 0.001122 -0.007733 0.001892
# 4 0.001961 0.004475 0.001122 0.044539 -0.010308 -0.002244
# 5 -0.004068 0.008542 -0.007733 -0.010308 0.056563 -0.011795
# 6 -0.006451 -0.022257 0.001892 -0.002244 -0.011795 0.050025
#
#
# Mechanical properties :
#
#
# Convention : Reuss Voigt Hill
#
# Bulk Modulus (GPa) = 28.60709 65.42714 47.01712
# Shear Modulus (GPa) = 22.42151 36.81546 29.61849
#
# Velocity S-wave (km/s) = 3.12479 4.00409 3.59145
# Velocity P-wave (km/s) = 5.04750 7.06186 6.13788
#
# Compressibility (1/GPa) = 0.03495637
#
# Stress axis : x y z
#
# Youngs Moduli (GPa) = 90.91349 47.87220 63.69339
#
# Poissons Ratio (x) = 0.11098 -0.01300
# Poissons Ratio (y) = 0.21077 0.26763
# Poissons Ratio (z) = -0.01856 0.20116
#
# Static dielectric constant tensor:
#      x y z
#    x 1.917050 0.036190 -0.049320 
#    y 0.036190 1.908050 0.019780 
#    z -0.049320 0.019780 1.871500 
# 
# From -- ./inp_files/343660.got.cif
#   From: 2010.05.17/outbox.cif.g08.bks.cpg/sg2_172_cif.got.tgz:343660.got - 2010.06.03 11:33:40.
