data_PCOD9089257
_publ_section_title
;
Structure prediction by ZEFSAII (Michael W. Deem and Ramdas Pophale) SiO2 
 PCOD9089257
Probable space group: P -1
;
_chemical_formula_sum "Si O2"
_cell_formula_units_Z 14
_cell_length_a 11.070949
_cell_length_b 9.121188
_cell_length_c 9.373530
_cell_angle_alpha 78.670726
_cell_angle_beta 39.330385
_cell_angle_gamma 76.323421
_cell_volume 582.758098
_symmetry_space_group_name_H-M "P -1"
_symmetry_group_IT_number 2
_symmetry_cell_setting 'triclinic'
loop_
_space_group_symop_operation_xyz
x,y,z
-x,-y,-z
loop_
_atom_site_type_symbol
_atom_site_label
_atom_site_fract_x
_atom_site_fract_y
_atom_site_fract_z
Si Si1 0.859390 0.290362 0.368477
Si Si2 0.463826 0.583838 0.167818
Si Si3 0.718018 0.839617 0.909901
Si Si4 0.337577 0.146186 0.616059
Si Si5 0.830474 0.945804 0.482627
Si Si6 0.781014 0.053645 0.027840
Si Si7 0.369490 0.653176 0.707245
O O1 0.754606 0.377642 0.582737
O O2 0.777912 0.366540 0.281011
O O3 0.089034 0.259212 0.182946
O O4 0.786618 0.125087 0.460527
O O5 0.572884 0.484450 0.213811
O O6 0.500000 0.500000 0.000000
O O7 0.556663 0.737120 0.044647
O O8 0.791882 0.908171 0.685767
O O9 0.643416 0.973044 0.063491
O O10 0.272653 0.157760 0.510404
O O11 0.436242 0.288899 0.545367
O O12 0.500000 0.000000 0.500000
O O13 0.172469 0.083074 0.872473
O O14 0.051132 0.915636 0.236886
O O15 0.712396 0.205839 0.144343
#
# Coordination Sequence:
#
# PCOD9089257 Si02
#       7
#     2   2   2   2   2   2   2
#     4  11  24  46  69 100 138 173 232 280 333 402
#     4  12  29  48  67  97 140 187 226 272 339 406
#     4  11  27  44  71 101 137 180 222 282 341 394
#     4  10  19  37  66  99 131 172 217 276 333 392
#     4  11  22  41  66 105 137 168 222 288 333 391
#     4  10  21  40  70 102 129 170 226 275 340 394
#     4  11  24  44  68 103 136 177 223 278 334 407
#
# _framework density 24.023689000000001
#
# number of rings (size 3 to 8) (size 9 to 14) (size 15 to 20)
#    0.000    1.143    2.857    4.286    8.000    1.714 
#    2.571    0.000    0.000    0.000    0.000    0.000 
#    0.000    0.000    0.000    0.000    0.000    0.000 
#
# Total GULP energy -78293.397612 kJ/mol
# GULP energy per Si atom -5592.385544 kJ/mol
# Density = 2.396901 g / cm^3
# Si number density = 24.023689 Si / 1000 Ang^3
#
#
#
# Elastic Constant Matrix: (Units=GPa)
#
#
# Indices 1 2 3 4 5 6 
#
# 1 73.6823 2.1210 7.9888 6.4531 8.2477 11.1625
# 2 2.1210 50.1026 26.7715 19.2869 13.3946 -3.0997
# 3 7.9888 26.7715 103.0218 14.8907 16.4784 5.1433
# 4 6.4531 19.2869 14.8907 45.5387 2.6035 14.8607
# 5 8.2477 13.3946 16.4784 2.6035 35.6071 0.9262
# 6 11.1625 -3.0997 5.1433 14.8607 0.9262 35.4507
#
#
#
# Elastic Compliance Matrix: (Units=1/GPa)
#
#
# Indices 1 2 3 4 5 6 
#
# 1 0.014650 0.000430 -0.000446 -0.000562 -0.003199 -0.004192
# 2 0.000430 0.031004 -0.005149 -0.014104 -0.008595 0.009459
# 3 -0.000446 -0.005149 0.011822 -0.000926 -0.003323 -0.001550
# 4 -0.000562 -0.014104 -0.000926 0.032934 0.003842 -0.014828
# 5 -0.003199 -0.008595 -0.003323 0.003842 0.033361 -0.001744
# 6 -0.004192 0.009459 -0.001550 -0.014828 -0.001744 0.036842
#
#
# Mechanical properties :
#
#
# Convention : Reuss Voigt Hill
#
# Bulk Modulus (GPa) = 21.21036 33.39659 27.30348
# Shear Modulus (GPa) = 26.78692 35.98100 31.38396
#
# Velocity S-wave (km/s) = 3.34282 3.87425 3.61830
# Velocity P-wave (km/s) = 4.87312 5.82622 5.37085
#
# Compressibility (1/GPa) = 0.04714677
#
# Stress axis : x y z
#
# Youngs Moduli (GPa) = 68.25951 32.25343 84.58796
#
# Poissons Ratio (x) = -0.01387 0.03770
# Poissons Ratio (y) = -0.02935 0.43556
# Poissons Ratio (z) = 0.03042 0.16608
#
# Static dielectric constant tensor:
#      x y z
#    x 1.953910 -0.017380 -0.017820 
#    y -0.017380 1.880900 0.030570 
#    z -0.017820 0.030570 2.013070 
# 
# From -- ./inp_files/154707.got.cif
#   From: 2010.05.17/outbox.cif.g08.bks.cpg/sg2_78_cif.got.tgz:154707.got - 2010.06.03 11:33:40.
