data_PCOD9089488
_publ_section_title
;
Structure prediction by ZEFSAII (Michael W. Deem and Ramdas Pophale) SiO2 
 PCOD9089488
Probable space group: P -1
;
_chemical_formula_sum "Si O2"
_cell_formula_units_Z 16
_cell_length_a 8.789908
_cell_length_b 15.528994
_cell_length_c 9.699162
_cell_angle_alpha 69.482323
_cell_angle_beta 80.433435
_cell_angle_gamma 135.559803
_cell_volume 670.619201
_symmetry_space_group_name_H-M "P -1"
_symmetry_group_IT_number 2
_symmetry_cell_setting 'triclinic'
loop_
_space_group_symop_operation_xyz
x,y,z
-x,-y,-z
loop_
_atom_site_type_symbol
_atom_site_label
_atom_site_fract_x
_atom_site_fract_y
_atom_site_fract_z
Si Si1 0.205715 0.047604 0.539919
Si Si2 0.824425 0.172824 0.314708
Si Si3 0.257307 0.839284 0.977207
Si Si4 0.351499 0.076643 0.952870
Si Si5 0.320269 0.628858 0.860343
Si Si6 0.352792 0.485323 0.701278
Si Si7 0.710807 0.791295 0.290877
Si Si8 0.390615 0.517692 0.122417
O O1 0.499178 0.198345 0.328058
O O2 0.240311 0.114541 0.642024
O O3 0.079259 0.884869 0.670110
O O4 0.000000 0.000000 0.500000
O O5 0.050592 0.337005 0.283043
O O6 0.500000 0.000000 0.500000
O O7 0.839192 0.215941 0.133585
O O8 0.972309 0.688323 0.193313
O O9 0.388218 0.005871 0.887222
O O10 0.473651 0.868591 0.971886
O O11 0.436946 0.216723 0.795711
O O12 0.019844 0.918174 0.121466
O O13 0.353977 0.566271 0.773365
O O14 0.434895 0.639739 0.978576
O O15 0.000000 0.500000 0.000000
O O16 0.542215 0.621602 0.474738
O O17 0.465192 0.448369 0.779654
O O18 0.500000 0.500000 0.000000
#
# Coordination Sequence:
#
# PCOD9089488 Si02
#       8
#     2   2   2   2   2   2   2   2
#     4  11  23  35  60  92 121 152 194 243 298 364
#     4  12  23  36  61  93 125 156 194 243 304 359
#     4  11  23  42  61  90 117 161 203 250 295 353
#     4  10  24  43  65  82 120 158 209 252 290 348
#     4  10  20  35  52  84 126 156 184 230 294 362
#     4  10  22  38  63  85 120 157 198 244 300 359
#     4  10  22  44  62  87 118 158 200 254 298 349
#     4  10  19  38  57  85 122 159 187 235 300 367
#
# _framework density 23.858547000000002
#
# number of rings (size 3 to 8) (size 9 to 14) (size 15 to 20)
#    0.000    1.500    3.750    3.000    3.500    1.000 
#    0.000    1.250    0.000    0.000    0.000    0.000 
#    0.000    0.000    0.000    0.000    0.000    0.000 
#
# Total GULP energy -89496.805338 kJ/mol
# GULP energy per Si atom -5593.550334 kJ/mol
# Density = 2.380424 g / cm^3
# Si number density = 23.858547 Si / 1000 Ang^3
#
#
#
# Elastic Constant Matrix: (Units=GPa)
#
#
# Indices 1 2 3 4 5 6 
#
# 1 126.3437 25.8691 36.9013 15.7143 29.7459 27.8709
# 2 25.8691 42.6028 10.4762 6.0069 10.6047 16.3020
# 3 36.9013 10.4762 88.5480 -0.1313 10.1166 5.6452
# 4 15.7143 6.0069 -0.1313 35.1939 6.4905 2.8888
# 5 29.7459 10.6047 10.1166 6.4905 47.8759 -3.0137
# 6 27.8709 16.3020 5.6452 2.8888 -3.0137 44.8026
#
#
#
# Elastic Compliance Matrix: (Units=1/GPa)
#
#
# Indices 1 2 3 4 5 6 
#
# 1 0.013145 -0.002043 -0.004007 -0.003691 -0.006817 -0.007149
# 2 -0.002043 0.030575 -0.001516 -0.002494 -0.005466 -0.009870
# 3 -0.004007 -0.001516 0.013081 0.002018 -0.000133 0.001257
# 4 -0.003691 -0.002494 0.002018 0.030738 -0.001694 0.000854
# 5 -0.006817 -0.005466 -0.000133 -0.001694 0.027106 0.008179
# 6 -0.007149 -0.009870 0.001257 0.000854 0.008179 0.030696
#
#
# Mechanical properties :
#
#
# Convention : Reuss Voigt Hill
#
# Bulk Modulus (GPa) = 23.99908 44.88753 34.44331
# Shear Modulus (GPa) = 28.67595 37.85767 33.26681
#
# Velocity S-wave (km/s) = 3.47063 3.98773 3.73813
# Velocity P-wave (km/s) = 5.11283 6.32910 5.75320
#
# Compressibility (1/GPa) = 0.04166826
#
# Stress axis : x y z
#
# Youngs Moduli (GPa) = 76.07491 32.70643 76.44914
#
# Poissons Ratio (x) = 0.06683 0.30633
# Poissons Ratio (y) = 0.15544 0.11588
# Poissons Ratio (z) = 0.30484 0.04958
#
# Static dielectric constant tensor:
#      x y z
#    x 1.957150 0.013740 -0.039720 
#    y 0.013740 1.997930 -0.065180 
#    z -0.039720 -0.065180 2.007770 
# 
# From -- ./inp_files/202979.got.cif
#   From: 2010.05.17/outbox.cif.g08.bks.cpg/sg2_102_cif.got.tgz:202979.got - 2010.06.03 11:33:40.
