data_PCOD9089578
_publ_section_title
;
Structure prediction by ZEFSAII (Michael W. Deem and Ramdas Pophale) SiO2 
 PCOD9089578
Probable space group: P -1
;
_chemical_formula_sum "Si O2"
_cell_formula_units_Z 16
_cell_length_a 10.506235
_cell_length_b 12.126961
_cell_length_c 10.232438
_cell_angle_alpha 72.564527
_cell_angle_beta 61.943057
_cell_angle_gamma 112.085332
_cell_volume 866.397713
_symmetry_space_group_name_H-M "P -1"
_symmetry_group_IT_number 2
_symmetry_cell_setting 'triclinic'
loop_
_space_group_symop_operation_xyz
x,y,z
-x,-y,-z
loop_
_atom_site_type_symbol
_atom_site_label
_atom_site_fract_x
_atom_site_fract_y
_atom_site_fract_z
Si Si1 0.876980 0.930377 0.210635
Si Si2 0.689223 0.587563 0.454549
Si Si3 0.201265 0.556058 0.733642
Si Si4 0.232603 0.350287 0.315439
Si Si5 0.807219 0.480664 0.949315
Si Si6 0.077423 0.964724 0.354345
Si Si7 0.544593 0.889260 0.486103
Si Si8 0.425822 0.204921 0.213846
O O1 0.779582 0.757591 0.330219
O O2 0.718693 0.949315 0.289106
O O3 0.011372 0.997553 0.245899
O O4 0.000000 0.000000 0.000000
O O5 0.500000 0.500000 0.500000
O O6 0.794163 0.536767 0.348588
O O7 0.674212 0.558751 0.627901
O O8 0.367008 0.730155 0.580628
O O9 0.007413 0.524354 0.832412
O O10 0.224468 0.510201 0.883645
O O11 0.208169 0.423194 0.180046
O O12 0.351775 0.299916 0.225721
O O13 0.033271 0.208586 0.512481
O O14 0.641857 0.313618 0.048034
O O15 0.294986 0.071623 0.226179
O O16 0.000000 0.000000 0.500000
O O17 0.602719 0.861345 0.605464
O O18 0.500000 0.000000 0.500000
#
# Coordination Sequence:
#
# PCOD9089578 Si02
#       8
#     2   2   2   2   2   2   2   2
#     4  11  23  38  61  97 121 157 213 254 304 362
#     4  11  20  40  64  82 126 162 199 250 308 366
#     4  10  23  40  60  89 126 160 200 253 310 362
#     4  10  20  35  62  87 118 158 202 246 305 361
#     4  10  22  37  59  93 119 153 209 251 295 359
#     4   9  18  35  59  82 119 157 199 248 295 355
#     4  11  22  39  63  90 124 164 203 251 315 372
#     4  10  19  38  59  88 120 152 208 247 297 358
#
# _framework density 18.467269000000002
#
# number of rings (size 3 to 8) (size 9 to 14) (size 15 to 20)
#    0.000    1.750    5.000    1.125    1.750    6.500 
#    0.000    0.000    0.000    2.250    0.000    0.000 
#    0.000    0.000    0.000    0.000    0.000    0.000 
#
# Total GULP energy -89185.782251 kJ/mol
# GULP energy per Si atom -5574.111391 kJ/mol
# Density = 1.842524 g / cm^3
# Si number density = 18.467269 Si / 1000 Ang^3
#
#
#
# Elastic Constant Matrix: (Units=GPa)
#
#
# Indices 1 2 3 4 5 6 
#
# 1 98.6625 31.8076 48.5581 -5.7608 0.7942 16.5966
# 2 31.8076 64.8160 14.1433 9.3428 -2.0906 9.2611
# 3 48.5581 14.1433 89.9510 4.9364 4.2055 2.6724
# 4 -5.7608 9.3428 4.9364 15.4945 4.0224 -4.9760
# 5 0.7942 -2.0906 4.2055 4.0224 37.7576 -4.4746
# 6 16.5966 9.2611 2.6724 -4.9760 -4.4746 42.2815
#
#
#
# Elastic Compliance Matrix: (Units=1/GPa)
#
#
# Indices 1 2 3 4 5 6 
#
# 1 0.019271 -0.009116 -0.009613 0.015121 -0.001850 -0.003376
# 2 -0.009116 0.022847 0.002390 -0.019832 0.002876 -0.003607
# 3 -0.009613 0.002390 0.016456 -0.009846 -0.000329 0.001016
# 4 0.015121 -0.019832 -0.009846 0.090371 -0.008913 0.008723
# 5 -0.001850 0.002876 -0.000329 -0.008913 0.027909 0.002022
# 6 -0.003376 -0.003607 0.001016 0.008723 0.002022 0.026943
#
#
# Mechanical properties :
#
#
# Convention : Reuss Voigt Hill
#
# Bulk Modulus (GPa) = 38.61538 49.16083 43.88810
# Shear Modulus (GPa) = 20.39917 29.70143 25.05030
#
# Velocity S-wave (km/s) = 3.32718 4.01475 3.68702
# Velocity P-wave (km/s) = 5.97626 6.94041 6.47630
#
# Compressibility (1/GPa) = 0.02589642
#
# Stress axis : x y z
#
# Youngs Moduli (GPa) = 51.89037 43.76891 60.76742
#
# Poissons Ratio (x) = 0.39901 0.58415
# Poissons Ratio (y) = 0.47305 -0.14523
# Poissons Ratio (z) = 0.49881 -0.10461
#
# Static dielectric constant tensor:
#      x y z
#    x 1.651590 0.017250 -0.034220 
#    y 0.017250 1.703230 -0.001930 
#    z -0.034220 -0.001930 1.664590 
# 
# From -- ./inp_files/185799.got.cif
#   From: 2010.05.17/outbox.cif.g08.bks.cpg/sg2_93_cif.got.tgz:185799.got - 2010.06.03 11:33:40.
