data_PCOD9089910
_publ_section_title
;
Structure prediction by ZEFSAII (Michael W. Deem and Ramdas Pophale) SiO2 
 PCOD9089910
Probable space group: P -1
;
_chemical_formula_sum "Si O2"
_cell_formula_units_Z 16
_cell_length_a 8.622442
_cell_length_b 12.109982
_cell_length_c 8.542724
_cell_angle_alpha 118.241382
_cell_angle_beta 92.772289
_cell_angle_gamma 94.085803
_cell_volume 780.403306
_symmetry_space_group_name_H-M "P -1"
_symmetry_group_IT_number 2
_symmetry_cell_setting 'triclinic'
loop_
_space_group_symop_operation_xyz
x,y,z
-x,-y,-z
loop_
_atom_site_type_symbol
_atom_site_label
_atom_site_fract_x
_atom_site_fract_y
_atom_site_fract_z
Si Si1 0.145280 0.232698 0.504595
Si Si2 0.419935 0.923133 0.297584
Si Si3 0.111079 0.747373 0.257016
Si Si4 0.955247 0.809988 0.982580
Si Si5 0.135605 0.428062 0.387164
Si Si6 0.308149 0.529797 0.174261
Si Si7 0.784142 0.966739 0.873341
Si Si8 0.393397 0.299950 0.820813
O O1 0.203862 0.352639 0.481212
O O2 0.138853 0.110788 0.313171
O O3 0.268859 0.233715 0.649735
O O4 0.976565 0.246964 0.578931
O O5 0.257849 0.851814 0.309658
O O6 0.521091 0.812124 0.175388
O O7 0.500000 0.000000 0.500000
O O8 0.375627 0.003659 0.198020
O O9 0.176638 0.611741 0.151123
O O10 0.986715 0.778214 0.141235
O O11 0.945249 0.680683 0.802154
O O12 0.806162 0.880613 0.969095
O O13 0.107592 0.903593 0.004481
O O14 0.260813 0.507697 0.337700
O O15 0.000000 0.500000 0.500000
O O16 0.471884 0.613506 0.209779
O O17 0.321460 0.396537 0.999955
#
# Coordination Sequence:
#
# PCOD9089910 Si02
#       8
#     2   2   2   2   2   2   2   2
#     4  11  21  36  63  92 118 160 204 257 311 359
#     4  10  19  38  62  90 123 163 203 254 303 369
#     4  10  21  36  63  94 120 158 208 251 311 363
#     4   9  20  35  57  89 121 154 196 257 300 357
#     4  11  22  37  60  89 124 160 203 256 307 360
#     4  10  22  41  58  90 128 161 204 250 308 372
#     4   9  19  38  59  85 125 154 202 254 306 358
#     4  10  22  38  64  88 123 166 202 251 305 371
#
# _framework density 20.502220999999999
#
# number of rings (size 3 to 8) (size 9 to 14) (size 15 to 20)
#    0.000    2.000    2.500    0.750    1.750    3.500 
#    2.250    0.000    0.000    6.750    0.000    0.000 
#    0.000    0.000    0.000    0.000    0.000    0.000 
#
# Total GULP energy -89224.442137 kJ/mol
# GULP energy per Si atom -5576.527634 kJ/mol
# Density = 2.045556 g / cm^3
# Si number density = 20.502221 Si / 1000 Ang^3
#
#
#
# Elastic Constant Matrix: (Units=GPa)
#
#
# Indices 1 2 3 4 5 6 
#
# 1 83.6957 42.9507 43.9927 -6.0446 -1.4105 -8.2799
# 2 42.9507 97.5286 33.5477 -8.1081 -11.7551 -24.4135
# 3 43.9927 33.5477 51.5950 -0.1067 -6.0939 -9.1480
# 4 -6.0446 -8.1081 -0.1067 35.6768 -0.4382 2.9446
# 5 -1.4105 -11.7551 -6.0939 -0.4382 34.4736 -8.0147
# 6 -8.2799 -24.4135 -9.1480 2.9446 -8.0147 31.9270
#
#
#
# Elastic Compliance Matrix: (Units=1/GPa)
#
#
# Indices 1 2 3 4 5 6 
#
# 1 0.024358 -0.006163 -0.018356 0.003043 -0.005550 -0.005329
# 2 -0.006163 0.018893 -0.003529 0.002204 0.008814 0.013847
# 3 -0.018356 -0.003529 0.039060 -0.004188 0.006218 0.005680
# 4 0.003043 0.002204 -0.004188 0.029148 0.000189 -0.001366
# 5 -0.005550 0.008814 0.006218 0.000189 0.036670 0.016270
# 6 -0.005329 0.013847 0.005680 -0.001366 0.016270 0.046365
#
#
# Mechanical properties :
#
#
# Convention : Reuss Voigt Hill
#
# Bulk Modulus (GPa) = 38.14490 52.64461 45.39476
# Shear Modulus (GPa) = 19.28048 27.90402 23.59225
#
# Velocity S-wave (km/s) = 3.06994 3.69321 3.39590
# Velocity P-wave (km/s) = 5.58674 6.62719 6.12908
#
# Compressibility (1/GPa) = 0.02621582
#
# Stress axis : x y z
#
# Youngs Moduli (GPa) = 41.05405 52.92939 25.60137
#
# Poissons Ratio (x) = 0.32620 0.46994
# Poissons Ratio (y) = 0.25301 0.09035
# Poissons Ratio (z) = 0.75358 0.18679
#
# Static dielectric constant tensor:
#      x y z
#    x 1.736240 -0.021190 -0.000190 
#    y -0.021190 1.794850 -0.018020 
#    z -0.000190 -0.018020 1.701930 
# 
# From -- ./inp_files/182539.got.cif
#   From: 2010.05.17/outbox.cif.g08.bks.cpg/sg2_92_cif.got.tgz:182539.got - 2010.06.03 11:33:40.
