data_PCOD9089944
_publ_section_title
;
Structure prediction by ZEFSAII (Michael W. Deem and Ramdas Pophale) SiO2 
 PCOD9089944
Probable space group: P -1
;
_chemical_formula_sum "Si O2"
_cell_formula_units_Z 16
_cell_length_a 7.653402
_cell_length_b 16.966823
_cell_length_c 17.246753
_cell_angle_alpha 157.758881
_cell_angle_beta 49.710814
_cell_angle_gamma 128.775726
_cell_volume 643.614395
_symmetry_space_group_name_H-M "P -1"
_symmetry_group_IT_number 2
_symmetry_cell_setting 'triclinic'
loop_
_space_group_symop_operation_xyz
x,y,z
-x,-y,-z
loop_
_atom_site_type_symbol
_atom_site_label
_atom_site_fract_x
_atom_site_fract_y
_atom_site_fract_z
Si Si1 0.276728 0.331813 0.732819
Si Si2 0.400454 0.328023 0.974207
Si Si3 0.994350 0.478284 0.811222
Si Si4 0.071820 0.322465 0.208391
Si Si5 0.425374 0.600699 0.694774
Si Si6 0.343434 0.705276 0.534792
Si Si7 0.707454 0.986429 0.033098
Si Si8 0.286498 0.936691 0.448004
O O1 0.432170 0.464865 0.870570
O O2 0.467495 0.256073 0.550522
O O3 0.123287 0.473240 0.852806
O O4 0.162612 0.130122 0.626475
O O5 0.209136 0.372867 0.006340
O O6 0.256264 0.285937 0.055952
O O7 0.578812 0.167763 0.754671
O O8 0.883164 0.238795 0.621128
O O9 0.167967 0.535241 0.742080
O O10 0.114333 0.571423 0.441640
O O11 0.125039 0.186951 0.145805
O O12 0.828985 0.188897 0.135938
O O13 0.500000 0.500000 0.500000
O O14 0.566869 0.469700 0.595503
O O15 0.513074 0.841215 0.911055
O O16 0.353723 0.905652 0.770006
O O17 0.500000 0.000000 0.500000
#
# Coordination Sequence:
#
# PCOD9089944 Si02
#       8
#     2   2   2   2   2   2   2   2
#     4  10  23  46  70 101 141 181 228 289 350 421
#     4  11  24  46  69 102 143 175 232 292 345 418
#     4  11  25  47  70 101 139 186 229 286 359 405
#     4   9  20  36  63  97 127 176 224 283 345 403
#     4  10  24  42  60  94 140 179 230 283 336 414
#     4   9  19  38  64  91 130 175 224 279 337 410
#     4  10  19  38  62  93 131 180 233 274 342 410
#     4  12  25  46  72 103 138 179 236 289 348 424
#
# _framework density 24.859604000000001
#
# number of rings (size 3 to 8) (size 9 to 14) (size 15 to 20)
#    0.000    1.750    1.250    2.625    1.750    2.000 
#   11.250    0.000    0.000    0.000    0.000    0.000 
#    0.000    0.000    0.000    0.000    0.000    0.000 
#
# Total GULP energy -89259.261925 kJ/mol
# GULP energy per Si atom -5578.703870 kJ/mol
# Density = 2.480302 g / cm^3
# Si number density = 24.859604 Si / 1000 Ang^3
#
#
#
# Elastic Constant Matrix: (Units=GPa)
#
#
# Indices 1 2 3 4 5 6 
#
# 1 96.0249 36.7508 34.1109 4.9834 8.7082 17.1369
# 2 36.7508 146.4569 51.6535 12.9304 13.9818 -2.7870
# 3 34.1109 51.6535 130.2508 4.3901 20.0531 5.2642
# 4 4.9834 12.9304 4.3901 41.3349 -5.7514 1.8387
# 5 8.7082 13.9818 20.0531 -5.7514 41.3750 14.1403
# 6 17.1369 -2.7870 5.2642 1.8387 14.1403 37.0697
#
#
#
# Elastic Compliance Matrix: (Units=1/GPa)
#
#
# Indices 1 2 3 4 5 6 
#
# 1 0.013369 -0.002799 -0.002363 0.000026 0.001553 -0.006649
# 2 -0.002799 0.008974 -0.002436 -0.002766 -0.002858 0.003542
# 3 -0.002363 -0.002436 0.009837 -0.000583 -0.003877 0.001020
# 4 0.000026 -0.002766 -0.000583 0.026138 0.006135 -0.003774
# 5 0.001553 -0.002858 -0.003877 0.006135 0.031938 -0.012869
# 6 -0.006649 0.003542 0.001020 -0.003774 -0.012869 0.035268
#
#
# Mechanical properties :
#
#
# Convention : Reuss Voigt Hill
#
# Bulk Modulus (GPa) = 58.87101 68.64034 63.75568
# Shear Modulus (GPa) = 34.15783 40.63708 37.39746
#
# Velocity S-wave (km/s) = 3.71081 4.04748 3.88280
# Velocity P-wave (km/s) = 6.48791 7.03662 6.76783
#
# Compressibility (1/GPa) = 0.01698629
#
# Stress axis : x y z
#
# Youngs Moduli (GPa) = 74.80216 111.43691 101.65206
#
# Poissons Ratio (x) = 0.31186 0.24015
# Poissons Ratio (y) = 0.20933 0.24760
# Poissons Ratio (z) = 0.17672 0.27143
#
# Static dielectric constant tensor:
#      x y z
#    x 2.092960 0.044700 -0.007260 
#    y 0.044700 1.971670 0.024290 
#    z -0.007260 0.024290 2.165890 
# 
# From -- ./inp_files/562130.got.cif
#   From: 2010.05.17/outbox.cif.g08.bks.cpg/sg2_282_cif.got.tgz:562130.got - 2010.06.03 11:33:40.
