data_PCOD9089503
_publ_section_title
;
Structure prediction by ZEFSAII (Michael W. Deem and Ramdas Pophale) SiO2 
 PCOD9089503
Probable space group: P -1
;
_chemical_formula_sum "Si O2"
_cell_formula_units_Z 14
_cell_length_a 10.552805
_cell_length_b 16.346622
_cell_length_c 10.109972
_cell_angle_alpha 41.590754
_cell_angle_beta 40.842018
_cell_angle_gamma 41.254335
_cell_volume 684.087926
_symmetry_space_group_name_H-M "P -1"
_symmetry_group_IT_number 2
_symmetry_cell_setting 'triclinic'
loop_
_space_group_symop_operation_xyz
x,y,z
-x,-y,-z
loop_
_atom_site_type_symbol
_atom_site_label
_atom_site_fract_x
_atom_site_fract_y
_atom_site_fract_z
Si Si1 0.312614 0.604047 0.272485
Si Si2 0.317272 0.996635 0.820459
Si Si3 0.739781 0.529491 0.900975
Si Si4 0.135421 0.858236 0.916112
Si Si5 0.201387 0.367705 0.734005
Si Si6 0.612602 0.706253 0.034716
Si Si7 0.551732 0.765722 0.552484
O O1 0.204045 0.513049 0.523284
O O2 0.411018 0.665326 0.234831
O O3 0.526505 0.512070 0.129787
O O4 0.172291 0.728100 0.137640
O O5 0.389112 0.114224 0.588680
O O6 0.223167 0.947498 0.829280
O O7 0.116407 0.057082 0.007700
O O8 0.513289 0.863991 0.882789
O O9 0.682238 0.631793 0.699851
O O10 0.955545 0.395476 0.872671
O O11 0.761321 0.613103 0.911709
O O12 0.300767 0.809421 0.723687
O O13 0.275255 0.325457 0.875472
O O14 0.365291 0.264718 0.625310
#
# Coordination Sequence:
#
# PCOD9089503 Si02
#       7
#     2   2   2   2   2   2   2
#     4   8  19  36  55  78 108 136 190 217 254 325
#     4  10  19  38  58  77 113 138 185 222 263 319
#     4   9  21  37  54  83 105 142 185 220 263 319
#     4   9  19  36  59  82 101 146 180 228 264 308
#     4  12  21  35  57  80 116 144 169 224 282 311
#     4   9  21  39  54  80 108 147 186 214 257 333
#     4  11  22  34  57  88 107 137 181 227 271 318
#
# _framework density 20.465205000000001
#
# number of rings (size 3 to 8) (size 9 to 14) (size 15 to 20)
#    0.857    1.429    1.429    2.571    0.000    4.000 
#    0.000    0.714    0.000    0.000    0.000    0.000 
#    0.000    0.000    0.000    0.000    0.000    0.000 
#
# Total GULP energy -78129.388559 kJ/mol
# GULP energy per Si atom -5580.670611 kJ/mol
# Density = 2.041862 g / cm^3
# Si number density = 20.465205 Si / 1000 Ang^3
#
#
#
# Elastic Constant Matrix: (Units=GPa)
#
#
# Indices 1 2 3 4 5 6 
#
# 1 45.8403 14.8103 30.3512 -4.1203 7.0017 10.3236
# 2 14.8103 75.4844 19.1495 21.1000 0.9366 -7.5403
# 3 30.3512 19.1495 53.0318 9.3668 0.7151 -5.3145
# 4 -4.1203 21.1000 9.3668 33.1927 7.7756 -6.1531
# 5 7.0017 0.9366 0.7151 7.7756 22.6326 8.7217
# 6 10.3236 -7.5403 -5.3145 -6.1531 8.7217 13.8595
#
#
#
# Elastic Compliance Matrix: (Units=1/GPa)
#
#
# Indices 1 2 3 4 5 6 
#
# 1 0.082812 -0.016676 -0.053309 0.019881 0.002202 -0.083759
# 2 -0.016676 0.020638 0.006419 -0.013837 0.001533 0.019003
# 3 -0.053309 0.006419 0.055706 -0.014170 -0.004120 0.060864
# 4 0.019881 -0.013837 -0.014170 0.055441 -0.030311 0.015918
# 5 0.002202 0.001533 -0.004120 -0.030311 0.079325 -0.065762
# 6 -0.083759 0.019003 0.060864 0.015918 -0.065762 0.216671
#
#
# Mechanical properties :
#
#
# Convention : Reuss Voigt Hill
#
# Bulk Modulus (GPa) = 31.22432 33.66431 32.44431
# Shear Modulus (GPa) = 7.71129 21.27333 14.49231
#
# Velocity S-wave (km/s) = 1.94324 3.22761 2.66398
# Velocity P-wave (km/s) = 4.50836 5.51137 5.03490
#
# Compressibility (1/GPa) = 0.03202632
#
# Stress axis : x y z
#
# Youngs Moduli (GPa) = 12.07549 48.45383 17.95130
#
# Poissons Ratio (x) = 0.80800 0.95696
# Poissons Ratio (y) = 0.20137 -0.11523
# Poissons Ratio (z) = 0.64373 -0.31103
#
# Static dielectric constant tensor:
#      x y z
#    x 1.713000 0.040590 -0.025320 
#    y 0.040590 1.769420 0.033870 
#    z -0.025320 0.033870 1.702640 
# 
# From -- ./inp_files/278725.got.cif
#   From: 2010.05.17/outbox.cif.g08.bks.cpg/sg2_140_cif.got.tgz:278725.got - 2010.06.03 11:33:40.
