data_PCOD9089970
_publ_section_title
;
Structure prediction by ZEFSAII (Michael W. Deem and Ramdas Pophale) SiO2 
 PCOD9089970
Probable space group: P -1
;
_chemical_formula_sum "Si O2"
_cell_formula_units_Z 12
_cell_length_a 8.168487
_cell_length_b 5.354210
_cell_length_c 14.295850
_cell_angle_alpha 91.416737
_cell_angle_beta 66.305777
_cell_angle_gamma 120.162959
_cell_volume 482.456392
_symmetry_space_group_name_H-M "P -1"
_symmetry_group_IT_number 2
_symmetry_cell_setting 'triclinic'
loop_
_space_group_symop_operation_xyz
x,y,z
-x,-y,-z
loop_
_atom_site_type_symbol
_atom_site_label
_atom_site_fract_x
_atom_site_fract_y
_atom_site_fract_z
Si Si1 0.104064 0.475960 0.254806
Si Si2 0.891837 0.165222 0.482377
Si Si3 0.477809 0.365816 0.130396
Si Si4 0.795198 0.971328 0.963138
Si Si5 0.153959 0.864321 0.848367
Si Si6 0.568530 0.990729 0.697202
O O1 0.294663 0.433345 0.186628
O O2 0.220140 0.777686 0.290216
O O3 0.940248 0.217866 0.361628
O O4 0.980014 0.430443 0.186677
O O5 0.651957 0.991306 0.575322
O O6 0.000000 0.500000 0.500000
O O7 0.000000 0.000000 0.500000
O O8 0.361884 0.079104 0.085725
O O9 0.527798 0.300733 0.220406
O O10 0.670819 0.642120 0.036814
O O11 0.014975 0.013313 0.880308
O O12 0.816428 0.170393 0.048449
O O13 0.384754 0.057019 0.749624
#
# Coordination Sequence:
#
# PCOD9089970 Si02
#       6
#     2   2   2   2   2   2
#     4  10  21  41  60  87 124 157 207 254 319 369
#     4  10  21  40  69  95 125 166 213 261 323 382
#     4  10  19  38  63  81 121 165 202 251 316 374
#     4   9  20  39  57  86 124 162 203 258 307 375
#     4  10  21  39  58  89 122 161 205 260 305 379
#     4  11  22  38  64  88 119 161 209 254 321 368
#
# _framework density 24.872714999999999
#
# number of rings (size 3 to 8) (size 9 to 14) (size 15 to 20)
#    0.000    2.000    3.333    0.000    0.000    2.000 
#    9.000    0.000    0.000    5.000    0.000    0.000 
#    0.000    0.000    0.000    0.000    0.000    0.000 
#
# Total GULP energy -67010.989085 kJ/mol
# GULP energy per Si atom -5584.249090 kJ/mol
# Density = 2.481610 g / cm^3
# Si number density = 24.872715 Si / 1000 Ang^3
#
#
#
# Elastic Constant Matrix: (Units=GPa)
#
#
# Indices 1 2 3 4 5 6 
#
# 1 81.6364 25.6492 53.5479 -2.6869 -15.9087 6.9995
# 2 25.6492 72.8598 8.1407 3.8882 2.3346 9.7317
# 3 53.5479 8.1407 159.1276 -12.0265 -35.9132 -13.6905
# 4 -2.6869 3.8882 -12.0265 27.8330 0.7451 4.8987
# 5 -15.9087 2.3346 -35.9132 0.7451 45.2289 4.4795
# 6 6.9995 9.7317 -13.6905 4.8987 4.4795 41.2991
#
#
#
# Elastic Compliance Matrix: (Units=1/GPa)
#
#
# Indices 1 2 3 4 5 6 
#
# 1 0.018596 -0.005493 -0.005657 0.000770 0.002728 -0.004120
# 2 -0.005493 0.016154 0.000107 -0.002270 -0.002415 -0.002309
# 3 -0.005657 0.000107 0.009938 0.003009 0.005522 0.003272
# 4 0.000770 -0.002270 0.003009 0.038151 0.002485 -0.003393
# 5 0.002728 -0.002415 0.005522 0.002485 0.027672 -0.001359
# 6 -0.004120 -0.002309 0.003272 -0.003393 -0.001359 0.027091
#
#
# Mechanical properties :
#
#
# Convention : Reuss Voigt Hill
#
# Bulk Modulus (GPa) = 44.24623 54.25549 49.25086
# Shear Modulus (GPa) = 29.90053 37.95795 33.92924
#
# Velocity S-wave (km/s) = 3.47095 3.91076 3.69740
# Velocity P-wave (km/s) = 5.82160 6.50020 6.17024
#
# Compressibility (1/GPa) = 0.02260080
#
# Stress axis : x y z
#
# Youngs Moduli (GPa) = 53.77441 61.90593 100.62636
#
# Poissons Ratio (x) = 0.34002 0.56929
# Poissons Ratio (y) = 0.29536 -0.01074
# Poissons Ratio (z) = 0.30423 -0.00661
#
# Static dielectric constant tensor:
#      x y z
#    x 1.690320 -0.248380 -0.047770 
#    y -0.248380 1.747850 -0.066860 
#    z -0.047770 -0.066860 2.012040 
# 
# From -- ./inp_files/29919.got.cif
#   From: 2010.05.17/outbox.cif.g08.bks.cpg/sg2_15_cif.got.tgz:29919.got - 2010.06.03 11:33:40.
