data_PCOD9089233
_publ_section_title
;
Structure prediction by ZEFSAII (Michael W. Deem and Ramdas Pophale) SiO2 
 PCOD9089233
Probable space group: P -1
;
_chemical_formula_sum "Si O2"
_cell_formula_units_Z 16
_cell_length_a 8.491965
_cell_length_b 11.943042
_cell_length_c 9.654428
_cell_angle_alpha 67.192074
_cell_angle_beta 133.029223
_cell_angle_gamma 113.452451
_cell_volume 646.726604
_symmetry_space_group_name_H-M "P -1"
_symmetry_group_IT_number 2
_symmetry_cell_setting 'triclinic'
loop_
_space_group_symop_operation_xyz
x,y,z
-x,-y,-z
loop_
_atom_site_type_symbol
_atom_site_label
_atom_site_fract_x
_atom_site_fract_y
_atom_site_fract_z
Si Si1 0.334321 0.951238 0.047559
Si Si2 0.503305 0.444555 0.872975
Si Si3 0.992302 0.414008 0.207167
Si Si4 0.307235 0.209442 0.998618
Si Si5 0.815052 0.419033 0.527419
Si Si6 0.099529 0.240864 0.143177
Si Si7 0.800035 0.216807 0.409242
Si Si8 0.639854 0.952553 0.484861
O O1 0.226702 0.067752 0.973965
O O2 0.479317 0.917259 0.276607
O O3 0.500000 0.000000 0.000000
O O4 0.147107 0.836457 0.951302
O O5 0.406199 0.534669 0.670141
O O6 0.500000 0.500000 0.000000
O O7 0.747847 0.424145 0.011352
O O8 0.340476 0.310034 0.848096
O O9 0.959059 0.305456 0.357193
O O10 0.116082 0.538649 0.297042
O O11 0.112484 0.365846 0.175150
O O12 0.165837 0.249979 0.017945
O O13 0.553800 0.213807 0.203778
O O14 0.805567 0.280607 0.533096
O O15 0.000000 0.500000 0.500000
O O16 0.255553 0.158366 0.346008
O O17 0.821515 0.074838 0.495315
O O18 0.500000 0.000000 0.500000
#
# Coordination Sequence:
#
# PCOD9089233 Si02
#       8
#     2   2   2   2   2   2   2   2
#     4  11  24  42  65  97 130 170 225 266 315 392
#     4  11  19  39  68  86 127 168 213 272 322 373
#     4  10  23  38  61  97 126 161 216 269 316 388
#     4  10  21  38  63  93 125 174 205 268 326 384
#     4  10  19  37  66  95 117 161 224 266 313 383
#     4  12  24  43  63  95 142 165 217 268 331 398
#     4   9  18  38  63  91 120 164 220 262 312 385
#     4  11  23  41  68  94 132 179 210 264 339 385
#
# _framework density 24.739974
#
# number of rings (size 3 to 8) (size 9 to 14) (size 15 to 20)
#    0.000    1.500    6.250    2.625    0.000    6.000 
#    0.000    1.250    0.000    0.000    0.000    0.000 
#    0.000    0.000    0.000    0.000    0.000    0.000 
#
# Total GULP energy -89694.161326 kJ/mol
# GULP energy per Si atom -5605.885083 kJ/mol
# Density = 2.468367 g / cm^3
# Si number density = 24.739974 Si / 1000 Ang^3
#
#
#
# Elastic Constant Matrix: (Units=GPa)
#
#
# Indices 1 2 3 4 5 6 
#
# 1 100.1611 21.6104 38.9011 -3.7410 -6.6170 -15.0460
# 2 21.6104 100.7529 17.3946 -4.0015 -3.7609 -14.9108
# 3 38.9011 17.3946 115.1216 -2.4237 6.7836 -11.0684
# 4 -3.7410 -4.0015 -2.4237 38.3012 -3.9056 -3.0522
# 5 -6.6170 -3.7609 6.7836 -3.9056 31.0535 -2.8264
# 6 -15.0460 -14.9108 -11.0684 -3.0522 -2.8264 45.5165
#
#
#
# Elastic Compliance Matrix: (Units=1/GPa)
#
#
# Indices 1 2 3 4 5 6 
#
# 1 0.012583 -0.001358 -0.003945 0.001476 0.003846 0.003093
# 2 -0.001358 0.010962 -0.000971 0.001372 0.001705 0.003104
# 3 -0.003945 -0.000971 0.010420 -0.000095 -0.003182 0.000708
# 4 0.001476 0.001372 -0.000095 0.027054 0.004176 0.002988
# 5 0.003846 0.001705 -0.003182 0.004176 0.034767 0.003495
# 6 0.003093 0.003104 0.000708 0.002988 0.003495 0.024599
#
#
# Mechanical properties :
#
#
# Convention : Reuss Voigt Hill
#
# Bulk Modulus (GPa) = 46.69091 52.42755 49.55923
# Shear Modulus (GPa) = 35.69639 38.84953 37.27296
#
# Velocity S-wave (km/s) = 3.80262 3.96702 3.88569
# Velocity P-wave (km/s) = 6.18009 6.49772 6.34090
#
# Compressibility (1/GPa) = 0.02141744
#
# Stress axis : x y z
#
# Youngs Moduli (GPa) = 79.47324 91.22736 95.97218
#
# Poissons Ratio (x) = 0.12388 0.37860
# Poissons Ratio (y) = 0.10792 0.09315
# Poissons Ratio (z) = 0.31351 0.08854
#
# Static dielectric constant tensor:
#      x y z
#    x 1.968750 0.041050 -0.011910 
#    y 0.041050 2.004390 -0.024740 
#    z -0.011910 -0.024740 1.972490 
# 
# From -- ./inp_files/187103.got.cif
#   From: 2010.05.17/outbox.cif.g08.bks.cpg/sg2_94_cif.got.tgz:187103.got - 2010.06.03 11:33:40.
