data_PCOD9089520
_publ_section_title
;
Structure prediction by ZEFSAII (Michael W. Deem and Ramdas Pophale) SiO2 
 PCOD9089520
Probable space group: P -1
;
_chemical_formula_sum "Si O2"
_cell_formula_units_Z 16
_cell_length_a 9.321908
_cell_length_b 20.443122
_cell_length_c 11.210006
_cell_angle_alpha 39.942470
_cell_angle_beta 71.476338
_cell_angle_gamma 42.551009
_cell_volume 762.612608
_symmetry_space_group_name_H-M "P -1"
_symmetry_group_IT_number 2
_symmetry_cell_setting 'triclinic'
loop_
_space_group_symop_operation_xyz
x,y,z
-x,-y,-z
loop_
_atom_site_type_symbol
_atom_site_label
_atom_site_fract_x
_atom_site_fract_y
_atom_site_fract_z
Si Si1 0.980194 0.676232 0.725921
Si Si2 0.938963 0.081745 0.030767
Si Si3 0.100664 0.819377 0.536552
Si Si4 0.268676 0.082375 0.868378
Si Si5 0.947074 0.586540 0.626753
Si Si6 0.394661 0.376482 0.214622
Si Si7 0.550842 0.116844 0.356249
Si Si8 0.533851 0.780077 0.037041
O O1 0.040837 0.556564 0.780363
O O2 0.670304 0.838678 0.597993
O O3 0.075380 0.734773 0.576829
O O4 0.145758 0.565032 0.956830
O O5 0.048760 0.949451 0.291796
O O6 0.068574 0.121105 0.940428
O O7 0.632003 0.233993 0.905392
O O8 0.000000 0.000000 0.000000
O O9 0.376217 0.677798 0.723689
O O10 0.859391 0.931162 0.533863
O O11 0.131299 0.258762 0.610116
O O12 0.500000 0.000000 0.000000
O O13 0.399596 0.935935 0.940382
O O14 0.707090 0.641314 0.627976
O O15 0.175375 0.407887 0.745244
O O16 0.509653 0.240639 0.271987
O O17 0.480325 0.169154 0.163641
#
# Coordination Sequence:
#
# PCOD9089520 Si02
#       8
#     2   2   2   2   2   2   2   2
#     4  11  20  37  60  89 121 161 198 237 292 374
#     4   9  20  40  59  83 116 153 206 252 287 353
#     4  11  22  34  60  88 119 160 197 254 307 341
#     4  11  24  41  62  89 119 150 202 262 307 344
#     4  11  21  40  66  85 118 167 199 238 304 367
#     4  11  21  37  56  91 132 149 191 255 303 349
#     4  10  19  38  58  85 119 163 203 231 291 379
#     4  10  20  40  64  85 116 159 205 240 294 374
#
# _framework density 20.980508
#
# number of rings (size 3 to 8) (size 9 to 14) (size 15 to 20)
#    0.000    1.500    2.500    4.875    0.000    2.000 
#    0.000    3.750    0.000    0.000    0.000    0.000 
#    0.000    0.000    0.000    0.000    0.000    0.000 
#
# Total GULP energy -89249.567001 kJ/mol
# GULP energy per Si atom -5578.097938 kJ/mol
# Density = 2.093276 g / cm^3
# Si number density = 20.980508 Si / 1000 Ang^3
#
#
#
# Elastic Constant Matrix: (Units=GPa)
#
#
# Indices 1 2 3 4 5 6 
#
# 1 126.9406 18.9707 37.2874 -2.3183 3.4241 -33.4219
# 2 18.9707 46.9493 24.0410 -11.1147 -7.3650 -14.5624
# 3 37.2874 24.0410 82.8838 -13.9627 -4.5888 -16.3886
# 4 -2.3183 -11.1147 -13.9627 29.4985 -2.8139 -1.4493
# 5 3.4241 -7.3650 -4.5888 -2.8139 33.7673 -0.0529
# 6 -33.4219 -14.5624 -16.3886 -1.4493 -0.0529 29.2160
#
#
#
# Elastic Compliance Matrix: (Units=1/GPa)
#
#
# Indices 1 2 3 4 5 6 
#
# 1 0.011989 0.000275 -0.003177 -0.000015 -0.001570 0.012066
# 2 0.000275 0.031573 -0.004138 0.011355 0.007265 0.014308
# 3 -0.003177 -0.004138 0.016706 0.006509 0.002239 0.004002
# 4 -0.000015 0.011355 0.006509 0.042479 0.006921 0.011414
# 5 -0.001570 0.007265 0.002239 0.006921 0.032245 0.003483
# 6 0.012066 0.014308 0.004002 0.011414 0.003483 0.057980
#
#
# Mechanical properties :
#
#
# Convention : Reuss Voigt Hill
#
# Bulk Modulus (GPa) = 21.64996 46.37466 34.01231
# Shear Modulus (GPa) = 22.47741 30.26134 26.36937
#
# Velocity S-wave (km/s) = 3.27669 3.80195 3.54906
# Velocity P-wave (km/s) = 4.96559 6.43621 5.74813
#
# Compressibility (1/GPa) = 0.04618946
#
# Stress axis : x y z
#
# Youngs Moduli (GPa) = 83.41227 31.67290 59.85830
#
# Poissons Ratio (x) = -0.00872 0.19016
# Poissons Ratio (y) = -0.02297 0.24767
# Poissons Ratio (z) = 0.26498 0.13105
#
# Static dielectric constant tensor:
#      x y z
#    x 1.766660 -0.026730 -0.011110 
#    y -0.026730 1.806400 -0.013540 
#    z -0.011110 -0.013540 1.823990 
# 
# From -- ./inp_files/237744.got.cif
#   From: 2010.05.17/outbox.cif.g08.bks.cpg/sg2_119_cif.got.tgz:237744.got - 2010.06.03 11:33:40.
