data_PCOD9089549
_publ_section_title
;
Structure prediction by ZEFSAII (Michael W. Deem and Ramdas Pophale) SiO2 
 PCOD9089549
Probable space group: P -1
;
_chemical_formula_sum "Si O2"
_cell_formula_units_Z 16
_cell_length_a 11.588941
_cell_length_b 8.710994
_cell_length_c 17.753843
_cell_angle_alpha 110.835473
_cell_angle_beta 23.806377
_cell_angle_gamma 111.391212
_cell_volume 672.454990
_symmetry_space_group_name_H-M "P -1"
_symmetry_group_IT_number 2
_symmetry_cell_setting 'triclinic'
loop_
_space_group_symop_operation_xyz
x,y,z
-x,-y,-z
loop_
_atom_site_type_symbol
_atom_site_label
_atom_site_fract_x
_atom_site_fract_y
_atom_site_fract_z
Si Si1 0.528691 0.156530 0.228971
Si Si2 0.394102 0.618562 0.019899
Si Si3 0.235322 0.532510 0.935787
Si Si4 0.778574 0.618657 0.333511
Si Si5 0.961416 0.333722 0.582775
Si Si6 0.300666 0.672669 0.427224
Si Si7 0.366886 0.916418 0.159217
Si Si8 0.739494 0.966559 0.480628
O O1 0.219273 0.220838 0.414460
O O2 0.491742 0.074716 0.319446
O O3 0.561870 0.040602 0.116700
O O4 0.735292 0.320248 0.116953
O O5 0.435798 0.569481 0.898737
O O6 0.508376 0.813600 0.991702
O O7 0.045831 0.611240 0.229742
O O8 0.500000 0.500000 0.000000
O O9 0.924768 0.546449 0.160393
O O10 0.381259 0.380782 0.786670
O O11 0.500000 0.500000 0.500000
O O12 0.715151 0.809849 0.411040
O O13 0.101359 0.516848 0.553573
O O14 0.845874 0.319396 0.565176
O O15 0.715069 0.237667 0.762368
O O16 0.301594 0.852345 0.494508
O O17 0.064437 0.973605 0.322077
#
# Coordination Sequence:
#
# PCOD9089549 Si02
#       8
#     2   2   2   2   2   2   2   2
#     4  10  17  29  49  83 115 146 182 238 278 336
#     4   9  19  33  54  81 111 144 189 224 291 335
#     4   9  21  33  52  80 118 142 188 235 288 324
#     4   9  21  41  58  77 114 156 192 231 290 346
#     4   9  16  24  44  72 118 149 171 217 290 329
#     4  10  16  28  48  79 109 149 186 232 267 337
#     4  10  16  29  47  76 116 148 180 220 281 344
#     4  10  18  32  56  79 107 156 196 220 283 347
#
# _framework density 23.793413999999999
#
# number of rings (size 3 to 8) (size 9 to 14) (size 15 to 20)
#    0.750    1.750    2.500    1.500    0.000    0.500 
#    0.000    1.250    0.000    0.000    0.000   17.500 
#    0.000    0.000    0.000    0.000    0.000    0.000 
#
# Total GULP energy -89137.893129 kJ/mol
# GULP energy per Si atom -5571.118321 kJ/mol
# Density = 2.373926 g / cm^3
# Si number density = 23.793414 Si / 1000 Ang^3
#
#
#
# Elastic Constant Matrix: (Units=GPa)
#
#
# Indices 1 2 3 4 5 6 
#
# 1 65.8584 25.5686 3.4401 3.1098 0.6676 3.2671
# 2 25.5686 140.5613 44.3077 41.2448 -3.3562 24.4835
# 3 3.4401 44.3077 86.0096 4.6344 3.4912 6.1204
# 4 3.1098 41.2448 4.6344 38.6005 -4.6990 6.3157
# 5 0.6676 -3.3562 3.4912 -4.6990 11.4096 -2.1373
# 6 3.2671 24.4835 6.1204 6.3157 -2.1373 16.9325
#
#
#
# Elastic Compliance Matrix: (Units=1/GPa)
#
#
# Indices 1 2 3 4 5 6 
#
# 1 0.016743 -0.004811 0.001558 0.003155 -0.001229 0.001830
# 2 -0.004811 0.017203 -0.006647 -0.014747 -0.001744 -0.016264
# 3 0.001558 -0.006647 0.014808 0.004368 -0.004447 0.001767
# 4 0.003155 -0.014747 0.004368 0.041523 0.012214 0.005190
# 5 -0.001229 -0.001744 -0.004447 0.012214 0.095826 0.011907
# 6 0.001830 -0.016264 0.001767 0.005190 0.011907 0.081149
#
#
# Mechanical properties :
#
#
# Convention : Reuss Voigt Hill
#
# Bulk Modulus (GPa) = 34.53645 48.78467 41.66056
# Shear Modulus (GPa) = 16.85184 27.99606 22.42395
#
# Velocity S-wave (km/s) = 2.66420 3.43393 3.07325
# Velocity P-wave (km/s) = 4.90006 6.02249 5.49004
#
# Compressibility (1/GPa) = 0.02895492
#
# Stress axis : x y z
#
# Youngs Moduli (GPa) = 59.72603 58.12842 67.53154
#
# Poissons Ratio (x) = 0.27965 -0.10523
# Poissons Ratio (y) = 0.28733 0.44889
# Poissons Ratio (z) = -0.09307 0.38639
#
# Static dielectric constant tensor:
#      x y z
#    x 2.015410 0.064050 0.111030 
#    y 0.064050 1.992580 0.043910 
#    z 0.111030 0.043910 2.010970 
# 
# From -- ./inp_files/620206.got.cif
#   From: 2010.05.17/outbox.cif.g08.bks.cpg/sg2_311_cif.got.tgz:620206.got - 2010.06.03 11:33:40.
