data_PCOD9089218
_publ_section_title
;
Structure prediction by ZEFSAII (Michael W. Deem and Ramdas Pophale) SiO2 
 PCOD9089218
Probable space group: P -1
;
_chemical_formula_sum "Si O2"
_cell_formula_units_Z 14
_cell_length_a 7.182516
_cell_length_b 14.202744
_cell_length_c 6.763394
_cell_angle_alpha 118.802505
_cell_angle_beta 119.025671
_cell_angle_gamma 60.145722
_cell_volume 496.275678
_symmetry_space_group_name_H-M "P -1"
_symmetry_group_IT_number 2
_symmetry_cell_setting 'triclinic'
loop_
_space_group_symop_operation_xyz
x,y,z
-x,-y,-z
loop_
_atom_site_type_symbol
_atom_site_label
_atom_site_fract_x
_atom_site_fract_y
_atom_site_fract_z
Si Si1 0.452371 0.282380 0.208904
Si Si2 0.249059 0.903366 0.374986
Si Si3 0.799131 0.035727 0.129979
Si Si4 0.723715 0.833870 0.655884
Si Si5 0.212102 0.433841 0.877322
Si Si6 0.294080 0.650064 0.098168
Si Si7 0.151182 0.648099 0.567481
O O1 0.635524 0.160928 0.106397
O O2 0.320834 0.254416 0.297246
O O3 0.621451 0.351132 0.424367
O O4 0.289764 0.347805 0.015732
O O5 0.229155 0.955905 0.636676
O O6 0.513453 0.872009 0.436249
O O7 0.199786 0.783880 0.238013
O O8 0.074996 0.986255 0.217359
O O9 0.724401 0.936652 0.900371
O O10 0.950446 0.771833 0.587882
O O11 0.201269 0.560053 0.063772
O O12 0.986981 0.432761 0.650547
O O13 0.433138 0.391591 0.806506
O O14 0.227709 0.636899 0.822948
#
# Coordination Sequence:
#
# PCOD9089218 Si02
#       7
#     2   2   2   2   2   2   2
#     4  10  24  41  62  99 129 157 223 261 305 388
#     4  10  19  37  66  93 120 171 212 252 316 378
#     4  10  22  40  64  91 132 167 205 266 313 374
#     4  11  22  42  67  92 128 173 207 257 324 374
#     4  10  22  41  65  92 131 166 207 272 314 368
#     4  10  20  40  67  92 125 169 216 254 319 383
#     4  11  22  41  67  94 126 170 210 260 321 374
#
# _framework density 28.210127
#
# number of rings (size 3 to 8) (size 9 to 14) (size 15 to 20)
#    0.000    1.714    2.857    2.143    0.000    5.143 
#    0.000    5.000    0.000    0.000    0.000    0.000 
#    0.000    0.000    0.000    0.000    0.000    0.000 
#
# Total GULP energy -78525.618213 kJ/mol
# GULP energy per Si atom -5608.972729 kJ/mol
# Density = 2.814592 g / cm^3
# Si number density = 28.210127 Si / 1000 Ang^3
#
#
#
# Elastic Constant Matrix: (Units=GPa)
#
#
# Indices 1 2 3 4 5 6 
#
# 1 118.1210 16.1875 40.3867 -6.1063 18.6999 -4.0863
# 2 16.1875 115.8656 41.9520 -2.0973 1.2062 11.9655
# 3 40.3867 41.9520 205.0425 16.6124 23.3123 20.2516
# 4 -6.1063 -2.0973 16.6124 53.9140 -8.3142 1.8190
# 5 18.6999 1.2062 23.3123 -8.3142 35.0330 -1.5967
# 6 -4.0863 11.9655 20.2516 1.8190 -1.5967 40.7255
#
#
#
# Elastic Compliance Matrix: (Units=1/GPa)
#
#
# Indices 1 2 3 4 5 6 
#
# 1 0.009856 -0.000946 -0.001561 0.000898 -0.003892 0.001850
# 2 -0.000946 0.009649 -0.001867 0.001157 0.001599 -0.001991
# 3 -0.001561 -0.001867 0.006571 -0.002836 -0.004281 -0.002917
# 4 0.000898 0.001157 -0.002836 0.020517 0.006260 0.000489
# 5 -0.003892 0.001599 -0.004281 0.006260 0.035009 0.002362
# 6 0.001850 -0.001991 -0.002917 0.000489 0.002362 0.026846
#
#
# Mechanical properties :
#
#
# Convention : Reuss Voigt Hill
#
# Bulk Modulus (GPa) = 57.70871 70.67571 64.19221
# Shear Modulus (GPa) = 40.65986 48.63470 44.64728
#
# Velocity S-wave (km/s) = 3.80059 4.15663 3.98259
# Velocity P-wave (km/s) = 6.30559 6.93862 6.62967
#
# Compressibility (1/GPa) = 0.01732841
#
# Stress axis : x y z
#
# Youngs Moduli (GPa) = 101.46340 103.64175 152.18480
#
# Poissons Ratio (x) = 0.09806 0.23750
# Poissons Ratio (y) = 0.09600 0.28408
# Poissons Ratio (z) = 0.15834 0.19347
#
# Static dielectric constant tensor:
#      x y z
#    x 2.316380 0.005850 -0.008480 
#    y 0.005850 2.203350 0.027340 
#    z -0.008480 0.027340 2.188300 
# 
# From -- ./inp_files/204564.got.cif
#   From: 2010.05.17/outbox.cif.g08.bks.cpg/sg2_103_cif.got.tgz:204564.got - 2010.06.03 11:33:40.
