data_PCOD9089372
_publ_section_title
;
Structure prediction by ZEFSAII (Michael W. Deem and Ramdas Pophale) SiO2 
 PCOD9089372
Probable space group: P -1
;
_chemical_formula_sum "Si O2"
_cell_formula_units_Z 14
_cell_length_a 10.972922
_cell_length_b 15.358448
_cell_length_c 21.036113
_cell_angle_alpha 157.788130
_cell_angle_beta 143.118106
_cell_angle_gamma 26.471540
_cell_volume 588.568292
_symmetry_space_group_name_H-M "P -1"
_symmetry_group_IT_number 2
_symmetry_cell_setting 'triclinic'
loop_
_space_group_symop_operation_xyz
x,y,z
-x,-y,-z
loop_
_atom_site_type_symbol
_atom_site_label
_atom_site_fract_x
_atom_site_fract_y
_atom_site_fract_z
Si Si1 0.715592 0.777671 0.241887
Si Si2 0.364994 0.338798 0.198208
Si Si3 0.858741 0.193295 0.884286
Si Si4 0.584927 0.919813 0.554454
Si Si5 0.228969 0.843654 0.547994
Si Si6 0.651022 0.353528 0.212657
Si Si7 0.080402 0.702984 0.156774
O O1 0.040666 0.524078 0.188933
O O2 0.661475 0.889465 0.367337
O O3 0.595052 0.067649 0.340966
O O4 0.639633 0.569137 0.058352
O O5 0.384809 0.477189 0.364425
O O6 0.477071 0.436073 0.259738
O O7 0.500000 0.000000 0.000000
O O8 0.004284 0.144339 0.844606
O O9 0.749560 0.021320 0.710448
O O10 0.074062 0.009788 0.908794
O O11 0.728235 0.560927 0.379585
O O12 0.500000 0.000000 0.500000
O O13 0.000000 0.000000 0.500000
O O14 0.066072 0.032375 0.671295
O O15 0.415996 0.470201 0.142267
O O16 0.000000 0.500000 0.000000
#
# Coordination Sequence:
#
# PCOD9089372 Si02
#       7
#     2   2   2   2   2   2   2
#     4  11  21  41  72 102 141 187 238 289 369 424
#     4  11  20  38  75 102 135 185 225 298 370 413
#     4  12  26  43  74 104 140 199 235 285 365 424
#     4  12  26  46  74  97 140 201 248 287 346 435
#     4  10  19  37  69 101 140 188 221 289 371 420
#     4  12  23  46  71 101 148 180 236 305 353 417
#     4  12  23  42  76 111 144 184 240 293 366 437
#
# _framework density 23.786536000000002
#
# number of rings (size 3 to 8) (size 9 to 14) (size 15 to 20)
#    0.000    0.571    8.571    1.714    0.000    0.000 
#    0.000    1.429    9.429    0.000    0.000    0.000 
#    0.000    0.000    0.000    0.000    0.000    0.000 
#
# Total GULP energy -78056.328370 kJ/mol
# GULP energy per Si atom -5575.452026 kJ/mol
# Density = 2.373240 g / cm^3
# Si number density = 23.786536 Si / 1000 Ang^3
#
#
#
# Elastic Constant Matrix: (Units=GPa)
#
#
# Indices 1 2 3 4 5 6 
#
# 1 99.8276 5.4508 41.9720 3.5494 8.7753 12.6230
# 2 5.4508 73.8015 25.1797 -5.3216 7.6278 11.2729
# 3 41.9720 25.1797 191.6886 4.4519 19.3901 9.8657
# 4 3.5494 -5.3216 4.4519 28.2446 -6.1126 5.0061
# 5 8.7753 7.6278 19.3901 -6.1126 64.0592 -9.3117
# 6 12.6230 11.2729 9.8657 5.0061 -9.3117 26.2676
#
#
#
# Elastic Compliance Matrix: (Units=1/GPa)
#
#
# Indices 1 2 3 4 5 6 
#
# 1 0.011821 0.000957 -0.002205 -0.000336 -0.001954 -0.005892
# 2 0.000957 0.015857 -0.001733 0.004099 -0.002297 -0.008210
# 3 -0.002205 -0.001733 0.006160 -0.001216 -0.001595 -0.000844
# 4 -0.000336 0.004099 -0.001216 0.038288 0.002481 -0.007558
# 5 -0.001954 -0.002297 -0.001595 0.002481 0.018102 0.008468
# 6 -0.005892 -0.008210 -0.000844 -0.007558 0.008468 0.049184
#
#
# Mechanical properties :
#
#
# Convention : Reuss Voigt Hill
#
# Bulk Modulus (GPa) = 35.87267 56.72476 46.29872
# Shear Modulus (GPa) = 32.32766 43.22863 37.77815
#
# Velocity S-wave (km/s) = 3.69056 4.26767 3.98957
# Velocity P-wave (km/s) = 5.76837 6.94141 6.38190
#
# Compressibility (1/GPa) = 0.02787637
#
# Stress axis : x y z
#
# Youngs Moduli (GPa) = 84.59549 63.06230 162.32996
#
# Poissons Ratio (x) = -0.06035 0.35799
# Poissons Ratio (y) = -0.08096 0.28129
# Poissons Ratio (z) = 0.18656 0.10928
#
# Static dielectric constant tensor:
#      x y z
#    x 1.948370 -0.031040 0.079050 
#    y -0.031040 2.032140 0.009480 
#    z 0.079050 0.009480 2.047120 
# 
# From -- ./inp_files/610724.got.cif
#   From: 2010.05.17/outbox.cif.g08.bks.cpg/sg2_306_cif.got.tgz:610724.got - 2010.06.03 11:33:40.
