data_PCOD9089828
_publ_section_title
;
Structure prediction by ZEFSAII (Michael W. Deem and Ramdas Pophale) SiO2 
 PCOD9089828
Probable space group: P -1
;
_chemical_formula_sum "Si O2"
_cell_formula_units_Z 16
_cell_length_a 19.349816
_cell_length_b 15.354645
_cell_length_c 7.705969
_cell_angle_alpha 46.541087
_cell_angle_beta 67.783603
_cell_angle_gamma 30.263566
_cell_volume 675.988655
_symmetry_space_group_name_H-M "P -1"
_symmetry_group_IT_number 2
_symmetry_cell_setting 'triclinic'
loop_
_space_group_symop_operation_xyz
x,y,z
-x,-y,-z
loop_
_atom_site_type_symbol
_atom_site_label
_atom_site_fract_x
_atom_site_fract_y
_atom_site_fract_z
Si Si1 0.048749 0.429819 0.771947
Si Si2 0.272054 0.402435 0.145895
Si Si3 0.160007 0.856495 0.007639
Si Si4 0.107586 0.081262 0.068997
Si Si5 0.247176 0.215732 0.222082
Si Si6 0.563696 0.730132 0.367013
Si Si7 0.313805 0.205459 0.695130
Si Si8 0.185438 0.783180 0.678221
O O1 0.129933 0.408217 0.593217
O O2 0.850379 0.704764 0.633026
O O3 0.121245 0.196403 0.966949
O O4 0.136543 0.345025 0.982505
O O5 0.243599 0.363594 0.056875
O O6 0.369173 0.172363 0.500261
O O7 0.309012 0.488316 0.962512
O O8 0.089299 0.671289 0.049922
O O9 0.319483 0.553050 0.347970
O O10 0.145235 0.995456 0.950994
O O11 0.176113 0.846539 0.797649
O O12 0.000000 0.000000 0.000000
O O13 0.217374 0.838642 0.428042
O O14 0.434953 0.908431 0.408860
O O15 0.676497 0.686895 0.348180
O O16 0.447688 0.922921 0.045511
O O17 0.000000 0.000000 0.500000
#
# Coordination Sequence:
#
# PCOD9089828 Si02
#       8
#     2   2   2   2   2   2   2   2
#     4   9  20  42  62  92 129 176 210 254 328 406
#     4  10  19  38  61  99 124 164 214 271 328 382
#     4  12  21  42  65  95 128 173 220 275 317 382
#     4  10  22  39  62  96 125 175 224 263 313 390
#     4   9  20  39  61  90 133 163 208 265 324 384
#     4  10  22  39  62 100 125 164 216 274 329 371
#     4  10  20  39  62  94 133 159 213 266 325 389
#     4  10  20  38  60  97 129 163 223 272 315 374
#
# _framework density 23.669035999999998
#
# number of rings (size 3 to 8) (size 9 to 14) (size 15 to 20)
#    0.000    2.000    3.750    0.000    0.000    5.500 
#   29.250    2.500    0.000    3.000    0.000    0.000 
#    0.000    0.000    0.000    0.000    0.000    0.000 
#
# Total GULP energy -89335.043149 kJ/mol
# GULP energy per Si atom -5583.440197 kJ/mol
# Density = 2.361516 g / cm^3
# Si number density = 23.669036 Si / 1000 Ang^3
#
#
#
# Elastic Constant Matrix: (Units=GPa)
#
#
# Indices 1 2 3 4 5 6 
#
# 1 97.6474 46.4387 44.6930 19.2957 -2.2199 31.9170
# 2 46.4387 124.6956 39.0618 9.5144 -11.9626 12.9167
# 3 44.6930 39.0618 118.2376 12.5207 3.4468 11.4670
# 4 19.2957 9.5144 12.5207 35.6450 8.2058 1.2496
# 5 -2.2199 -11.9626 3.4468 8.2058 25.7318 11.3441
# 6 31.9170 12.9167 11.4670 1.2496 11.3441 51.7437
#
#
#
# Elastic Compliance Matrix: (Units=1/GPa)
#
#
# Indices 1 2 3 4 5 6 
#
# 1 0.020137 -0.003046 -0.004585 -0.010279 0.009738 -0.012531
# 2 -0.003046 0.010781 -0.002238 -0.001852 0.006375 -0.001669
# 3 -0.004585 -0.002238 0.010859 0.000054 -0.003697 0.001790
# 4 -0.010279 -0.001852 0.000054 0.037939 -0.018203 0.009865
# 5 0.009738 0.006375 -0.003697 -0.018203 0.057299 -0.018901
# 6 -0.012531 -0.001669 0.001790 0.009865 -0.018901 0.030981
#
#
# Mechanical properties :
#
#
# Convention : Reuss Voigt Hill
#
# Bulk Modulus (GPa) = 45.37817 66.77419 56.07618
# Shear Modulus (GPa) = 25.63048 36.64990 31.14019
#
# Velocity S-wave (km/s) = 3.29427 3.93928 3.63113
# Velocity P-wave (km/s) = 5.80372 6.99739 6.42832
#
# Compressibility (1/GPa) = 0.02203703
#
# Stress axis : x y z
#
# Youngs Moduli (GPa) = 49.66014 92.75648 92.09277
#
# Poissons Ratio (x) = 0.28258 0.42227
# Poissons Ratio (y) = 0.15129 0.20611
# Poissons Ratio (z) = 0.22770 0.20759
#
# Static dielectric constant tensor:
#      x y z
#    x 1.927930 -0.012920 0.023740 
#    y -0.012920 1.979110 0.023060 
#    z 0.023740 0.023060 1.993870 
# 
# From -- ./inp_files/348251.got.cif
#   From: 2010.05.17/outbox.cif.g08.bks.cpg/sg2_175_cif.got.tgz:348251.got - 2010.06.03 11:33:40.
