data_PCOD9089937
_publ_section_title
;
Structure prediction by ZEFSAII (Michael W. Deem and Ramdas Pophale) SiO2 
 PCOD9089937
Probable space group: P -1
;
_chemical_formula_sum "Si O2"
_cell_formula_units_Z 16
_cell_length_a 10.648704
_cell_length_b 15.511961
_cell_length_c 9.598401
_cell_angle_alpha 34.887318
_cell_angle_beta 114.116383
_cell_angle_gamma 93.805344
_cell_volume 709.544438
_symmetry_space_group_name_H-M "P -1"
_symmetry_group_IT_number 2
_symmetry_cell_setting 'triclinic'
loop_
_space_group_symop_operation_xyz
x,y,z
-x,-y,-z
loop_
_atom_site_type_symbol
_atom_site_label
_atom_site_fract_x
_atom_site_fract_y
_atom_site_fract_z
Si Si1 0.088815 0.559054 0.598438
Si Si2 0.148867 0.879327 0.628029
Si Si3 0.830514 0.467545 0.615300
Si Si4 0.290078 0.232212 0.612652
Si Si5 0.428897 0.867203 0.274588
Si Si6 0.358507 0.702801 0.190211
Si Si7 0.047998 0.635577 0.778684
Si Si8 0.124727 0.028890 0.109588
O O1 0.216246 0.480473 0.636709
O O2 0.006697 0.442019 0.733266
O O3 0.139321 0.575847 0.752894
O O4 0.950825 0.759954 0.224679
O O5 0.133454 0.709612 0.812113
O O6 0.134737 0.972005 0.350526
O O7 0.310090 0.814699 0.877553
O O8 0.000000 0.000000 0.500000
O O9 0.747034 0.610636 0.508276
O O10 0.796401 0.313255 0.825733
O O11 0.376371 0.246850 0.493745
O O12 0.135764 0.214023 0.537879
O O13 0.399907 0.060148 0.979966
O O14 0.387367 0.792172 0.217469
O O15 0.302314 0.902741 0.290954
O O16 0.500000 0.500000 0.500000
O O17 0.000000 0.500000 0.000000
O O18 0.000000 0.000000 0.000000
#
# Coordination Sequence:
#
# PCOD9089937 Si02
#       8
#     2   2   2   2   2   2   2   2
#     4  10  20  36  64  93 125 168 214 276 320 379
#     4  12  25  41  67 100 130 171 225 273 324 394
#     4  10  19  38  62  93 124 169 217 261 330 387
#     4  10  20  40  65  92 123 172 220 257 326 394
#     4  11  22  40  68  91 130 177 214 262 327 401
#     4  12  25  42  65  95 135 177 213 268 335 394
#     4  11  22  39  63  95 130 165 221 270 327 383
#     4  12  21  40  65  98 131 170 221 273 327 384
#
# _framework density 22.549678
#
# number of rings (size 3 to 8) (size 9 to 14) (size 15 to 20)
#    0.000    1.000    5.000    4.500    0.000    1.000 
#    0.000    1.875    0.000    4.500    0.000    0.000 
#    0.000    0.000    0.000    0.000    0.000    0.000 
#
# Total GULP energy -89143.715482 kJ/mol
# GULP energy per Si atom -5571.482218 kJ/mol
# Density = 2.249835 g / cm^3
# Si number density = 22.549678 Si / 1000 Ang^3
#
#
#
# Elastic Constant Matrix: (Units=GPa)
#
#
# Indices 1 2 3 4 5 6 
#
# 1 87.0613 17.1419 7.5503 8.2816 -11.1270 -27.0617
# 2 17.1419 106.5379 20.9547 3.5995 -4.6369 -14.8642
# 3 7.5503 20.9547 81.1698 10.9645 -10.9520 -19.0266
# 4 8.2816 3.5995 10.9645 34.4473 -1.9850 -9.7771
# 5 -11.1270 -4.6369 -10.9520 -1.9850 27.4028 -2.8388
# 6 -27.0617 -14.8642 -19.0266 -9.7771 -2.8388 51.4671
#
#
#
# Elastic Compliance Matrix: (Units=1/GPa)
#
#
# Indices 1 2 3 4 5 6 
#
# 1 0.015358 -0.001307 0.002157 -0.001341 0.007678 0.008664
# 2 -0.001307 0.010248 -0.002132 0.000405 0.000545 0.001591
# 3 0.002157 -0.002132 0.015460 -0.003094 0.007095 0.006037
# 4 -0.001341 0.000405 -0.003094 0.031581 0.001023 0.004324
# 5 0.007678 0.000545 0.007095 0.001023 0.043588 0.009416
# 6 0.008664 0.001591 0.006037 0.004324 0.009416 0.028018
#
#
# Mechanical properties :
#
#
# Convention : Reuss Voigt Hill
#
# Bulk Modulus (GPa) = 25.97301 40.67366 33.32334
# Shear Modulus (GPa) = 31.31816 37.93824 34.62820
#
# Velocity S-wave (km/s) = 3.73077 4.10619 3.92298
# Velocity P-wave (km/s) = 5.48647 6.36849 5.94386
#
# Compressibility (1/GPa) = 0.03850150
#
# Stress axis : x y z
#
# Youngs Moduli (GPa) = 65.11116 97.57925 64.68253
#
# Poissons Ratio (x) = 0.12754 -0.13950
# Poissons Ratio (y) = 0.08511 0.13792
# Poissons Ratio (z) = -0.14043 0.20806
#
# Static dielectric constant tensor:
#      x y z
#    x 2.005560 -0.033610 0.122000 
#    y -0.033610 1.877230 0.038950 
#    z 0.122000 0.038950 2.071800 
# 
# From -- ./inp_files/271584.got.cif
#   From: 2010.05.17/outbox.cif.g08.bks.cpg/sg2_136_cif.got.tgz:271584.got - 2010.06.03 11:33:40.
