data_PCOD9089912
_publ_section_title
;
Structure prediction by ZEFSAII (Michael W. Deem and Ramdas Pophale) SiO2 
 PCOD9089912
Probable space group: P -1
;
_chemical_formula_sum "Si O2"
_cell_formula_units_Z 16
_cell_length_a 9.245450
_cell_length_b 18.549433
_cell_length_c 5.678028
_cell_angle_alpha 99.189435
_cell_angle_beta 134.606568
_cell_angle_gamma 81.086337
_cell_volume 683.103120
_symmetry_space_group_name_H-M "P -1"
_symmetry_group_IT_number 2
_symmetry_cell_setting 'triclinic'
loop_
_space_group_symop_operation_xyz
x,y,z
-x,-y,-z
loop_
_atom_site_type_symbol
_atom_site_label
_atom_site_fract_x
_atom_site_fract_y
_atom_site_fract_z
Si Si1 0.587188 0.027616 0.870297
Si Si2 0.018098 0.806726 0.371904
Si Si3 0.163521 0.668061 0.713247
Si Si4 0.174529 0.300363 0.272455
Si Si5 0.805220 0.459978 0.664962
Si Si6 0.682697 0.839164 0.390849
Si Si7 0.481856 0.411658 0.657296
Si Si8 0.945484 0.937455 0.084588
O O1 0.530495 0.114235 0.848062
O O2 0.500000 0.000000 0.500000
O O3 0.500000 0.000000 0.000000
O O4 0.809357 0.989159 0.125464
O O5 0.156220 0.752961 0.669277
O O6 0.819415 0.835453 0.309431
O O7 0.093185 0.878241 0.360734
O O8 0.943367 0.749153 0.067061
O O9 0.116396 0.611644 0.423701
O O10 0.993356 0.663905 0.720926
O O11 0.383631 0.635590 0.028673
O O12 0.317276 0.242519 0.556172
O O13 0.317638 0.356921 0.343881
O O14 0.649345 0.436953 0.677578
O O15 0.662302 0.519112 0.384711
O O16 0.000000 0.500000 0.000000
O O17 0.810628 0.884205 0.748590
O O18 0.000000 0.000000 0.000000
#
# Coordination Sequence:
#
# PCOD9089912 Si02
#       8
#     2   2   2   2   2   2   2   2
#     4  10  19  38  62  90 126 172 226 279 346 417
#     4  10  20  41  66  87 133 176 218 273 345 397
#     4  11  23  42  67  95 132 173 216 272 337 394
#     4  10  23  43  66  90 133 174 223 274 332 401
#     4  11  25  44  68  98 136 172 211 269 334 399
#     4   9  20  39  62  88 124 175 215 279 341 401
#     4  11  24  42  66 101 129 168 226 266 325 405
#     4  10  21  38  63  94 130 169 227 280 344 409
#
# _framework density 23.422523000000002
#
# number of rings (size 3 to 8) (size 9 to 14) (size 15 to 20)
#    0.000    1.750    1.250    2.625    0.000    6.500 
#    9.000    0.000    0.000    0.000    0.000    0.000 
#    0.000    0.000    0.000    0.000    0.000    0.000 
#
# Total GULP energy -89235.181070 kJ/mol
# GULP energy per Si atom -5577.198817 kJ/mol
# Density = 2.336921 g / cm^3
# Si number density = 23.422523 Si / 1000 Ang^3
#
#
#
# Elastic Constant Matrix: (Units=GPa)
#
#
# Indices 1 2 3 4 5 6 
#
# 1 95.9398 54.2001 23.6306 0.2121 -1.3215 -10.9581
# 2 54.2001 167.6672 46.2383 -30.6674 21.0225 -11.6526
# 3 23.6306 46.2383 88.9922 -16.3757 11.3516 -3.1972
# 4 0.2121 -30.6674 -16.3757 46.0644 -1.9035 -1.2610
# 5 -1.3215 21.0225 11.3516 -1.9035 22.9371 4.6772
# 6 -10.9581 -11.6526 -3.1972 -1.2610 4.6772 52.9917
#
#
#
# Elastic Compliance Matrix: (Units=1/GPa)
#
#
# Indices 1 2 3 4 5 6 
#
# 1 0.014362 -0.005489 -0.002565 -0.004335 0.006579 0.000924
# 2 -0.005489 0.010619 -0.001687 0.006174 -0.009120 0.002050
# 3 -0.002565 -0.001687 0.014190 0.003724 -0.005422 0.000522
# 4 -0.004335 0.006174 0.003724 0.026970 -0.005890 0.001848
# 5 0.006579 -0.009120 -0.005422 -0.005890 0.055760 -0.006034
# 6 0.000924 0.002050 0.000522 0.001848 -0.006034 0.020121
#
#
# Mechanical properties :
#
#
# Convention : Reuss Voigt Hill
#
# Bulk Modulus (GPa) = 50.79041 66.74859 58.76950
# Shear Modulus (GPa) = 29.75016 39.63397 34.69207
#
# Velocity S-wave (km/s) = 3.56779 4.11801 3.85274
# Velocity P-wave (km/s) = 6.22122 7.15333 6.70350
#
# Compressibility (1/GPa) = 0.01968876
#
# Stress axis : x y z
#
# Youngs Moduli (GPa) = 69.62996 94.17180 70.47149
#
# Poissons Ratio (x) = 0.51688 0.18079
# Poissons Ratio (y) = 0.38217 0.11887
# Poissons Ratio (z) = 0.17864 0.15885
#
# Static dielectric constant tensor:
#      x y z
#    x 1.894070 0.069610 -0.023620 
#    y 0.069610 1.912190 -0.057270 
#    z -0.023620 -0.057270 1.956230 
# 
# From -- ./inp_files/48459.got.cif
#   From: 2010.05.17/outbox.cif.g08.bks.cpg/sg2_25_cif.got.tgz:48459.got - 2010.06.03 11:33:40.
