data_PCOD9089998
_publ_section_title
;
Structure prediction by ZEFSAII (Michael W. Deem and Ramdas Pophale) SiO2 
 PCOD9089998
Probable space group: P -1
;
_chemical_formula_sum "Si O2"
_cell_formula_units_Z 16
_cell_length_a 11.479579
_cell_length_b 17.973070
_cell_length_c 15.684202
_cell_angle_alpha 22.125091
_cell_angle_beta 141.427160
_cell_angle_gamma 126.162942
_cell_volume 623.691841
_symmetry_space_group_name_H-M "P -1"
_symmetry_group_IT_number 2
_symmetry_cell_setting 'triclinic'
loop_
_space_group_symop_operation_xyz
x,y,z
-x,-y,-z
loop_
_atom_site_type_symbol
_atom_site_label
_atom_site_fract_x
_atom_site_fract_y
_atom_site_fract_z
Si Si1 0.372300 0.573611 0.438965
Si Si2 0.369331 0.300272 0.874631
Si Si3 0.958183 0.313175 0.599606
Si Si4 0.804693 0.193815 0.311097
Si Si5 0.272404 0.769231 0.584317
Si Si6 0.681200 0.639839 0.648571
Si Si7 0.146274 0.252268 0.041968
Si Si8 0.896499 0.736983 0.805469
O O1 0.500000 0.500000 0.500000
O O2 0.447928 0.339280 0.787878
O O3 0.451983 0.716120 0.388542
O O4 0.103715 0.700910 0.142899
O O5 0.181057 0.570754 0.516857
O O6 0.223650 0.189096 0.900838
O O7 0.570183 0.207595 0.155127
O O8 0.876380 0.179755 0.639127
O O9 0.880787 0.543650 0.249995
O O10 0.848241 0.214405 0.412323
O O11 0.967807 0.925245 0.652871
O O12 0.755458 0.414429 0.992986
O O13 0.306841 0.983070 0.384148
O O14 0.500000 0.500000 0.000000
O O15 0.715991 0.806550 0.552369
O O16 0.878790 0.520831 0.817068
O O17 0.194999 0.278276 0.139804
#
# Coordination Sequence:
#
# PCOD9089998 Si02
#       8
#     2   2   2   2   2   2   2   2
#     4  10  19  38  63  86 118 153 195 243 291 346
#     4   9  20  37  60  81 116 158 187 245 290 330
#     4  10  20  40  58  83 119 152 198 241 285 345
#     4  10  20  37  55  84 116 150 191 237 290 339
#     4  11  22  38  60  86 120 155 196 239 291 349
#     4  10  20  35  60  82 115 154 185 241 288 340
#     4  10  22  38  61  89 115 159 193 237 295 342
#     4  10  20  35  56  88 115 148 195 229 290 350
#
# _framework density 25.653696
#
# number of rings (size 3 to 8) (size 9 to 14) (size 15 to 20)
#    0.000    2.000    2.500    1.125    0.000    1.500 
#    2.250    5.625    0.000    3.000    0.000    0.000 
#    0.000    0.000    0.000    0.000    0.000    0.000 
#
# Total GULP energy -89459.537028 kJ/mol
# GULP energy per Si atom -5591.221064 kJ/mol
# Density = 2.559531 g / cm^3
# Si number density = 25.653696 Si / 1000 Ang^3
#
#
#
# Elastic Constant Matrix: (Units=GPa)
#
#
# Indices 1 2 3 4 5 6 
#
# 1 109.7854 21.8524 9.4096 -4.4704 -1.4440 -17.6008
# 2 21.8524 148.4308 -4.8225 -1.6512 16.2029 -8.9274
# 3 9.4096 -4.8225 53.8298 -2.6392 0.7621 4.1472
# 4 -4.4704 -1.6512 -2.6392 41.7399 8.6034 2.8935
# 5 -1.4440 16.2029 0.7621 8.6034 34.5408 4.6664
# 6 -17.6008 -8.9274 4.1472 2.8935 4.6664 42.0520
#
#
#
# Elastic Compliance Matrix: (Units=1/GPa)
#
#
# Indices 1 2 3 4 5 6 
#
# 1 0.010263 -0.001375 -0.002216 0.000529 0.000432 0.004138
# 2 -0.001375 0.007495 0.000914 0.000942 -0.004005 0.001305
# 3 -0.002216 0.000914 0.019331 0.001397 -0.000941 -0.002632
# 4 0.000529 0.000942 0.001397 0.025576 -0.006723 -0.000730
# 5 0.000432 -0.004005 -0.000941 -0.006723 0.033054 -0.003782
# 6 0.004138 0.001305 -0.002632 -0.000730 -0.003782 0.026518
#
#
# Mechanical properties :
#
#
# Convention : Reuss Voigt Hill
#
# Bulk Modulus (GPa) = 31.51125 40.54725 36.02925
# Shear Modulus (GPa) = 36.18699 42.70697 39.44698
#
# Velocity S-wave (km/s) = 3.75986 4.08456 3.92557
# Velocity P-wave (km/s) = 5.58200 6.17129 5.88403
#
# Compressibility (1/GPa) = 0.03173470
#
# Stress axis : x y z
#
# Youngs Moduli (GPa) = 97.43759 133.41391 51.73053
#
# Poissons Ratio (x) = 0.18350 0.11465
# Poissons Ratio (y) = 0.13402 -0.04730
# Poissons Ratio (z) = 0.21594 -0.12198
#
# Static dielectric constant tensor:
#      x y z
#    x 1.997480 0.030550 0.027490 
#    y 0.030550 2.075540 -0.024760 
#    z 0.027490 -0.024760 2.114330 
# 
# From -- ./inp_files/472008.got.cif
#   From: 2010.05.17/outbox.cif.g08.bks.cpg/sg2_237_cif.got.tgz:472008.got - 2010.06.03 11:33:40.
