data_PCOD9089634
_publ_section_title
;
Structure prediction by ZEFSAII (Michael W. Deem and Ramdas Pophale) SiO2 
 PCOD9089634
Probable space group: P -1
;
_chemical_formula_sum "Si O2"
_cell_formula_units_Z 14
_cell_length_a 8.171840
_cell_length_b 11.342244
_cell_length_c 14.252835
_cell_angle_alpha 54.891060
_cell_angle_beta 56.935867
_cell_angle_gamma 37.059006
_cell_volume 641.140325
_symmetry_space_group_name_H-M "P -1"
_symmetry_group_IT_number 2
_symmetry_cell_setting 'triclinic'
loop_
_space_group_symop_operation_xyz
x,y,z
-x,-y,-z
loop_
_atom_site_type_symbol
_atom_site_label
_atom_site_fract_x
_atom_site_fract_y
_atom_site_fract_z
Si Si1 0.261597 0.421343 0.511472
Si Si2 0.519590 0.830680 0.613185
Si Si3 0.929809 0.369905 0.920236
Si Si4 0.482309 0.583355 0.308903
Si Si5 0.593516 0.388121 0.163700
Si Si6 0.469052 0.141579 0.754167
Si Si7 0.100339 0.296393 0.275824
O O1 0.491151 0.255379 0.439762
O O2 0.277399 0.585473 0.429056
O O3 0.319337 0.302708 0.640828
O O4 0.000000 0.500000 0.500000
O O5 0.342039 0.814459 0.741570
O O6 0.781209 0.716463 0.654030
O O7 0.500000 0.000000 0.500000
O O8 0.680014 0.466039 0.882578
O O9 0.923583 0.546343 0.850838
O O10 0.229434 0.183608 0.867078
O O11 0.847272 0.330652 0.058116
O O12 0.501928 0.524257 0.222070
O O13 0.415858 0.785834 0.253256
O O14 0.793340 0.396508 0.334751
O O15 0.694437 0.920729 0.739287
#
# Coordination Sequence:
#
# PCOD9089634 Si02
#       7
#     2   2   2   2   2   2   2
#     4  11  21  38  60  83 119 158 197 243 294 352
#     4  10  19  38  60  85 116 155 201 242 287 343
#     4   9  20  41  64  81 116 156 203 245 289 350
#     4  10  22  39  56  89 121 154 192 242 304 355
#     4   9  19  40  62  83 116 159 196 247 297 343
#     4  11  21  36  59  88 119 155 194 243 298 352
#     4  10  21  38  59  89 119 157 194 243 301 348
#
# _framework density 21.836093999999999
#
# number of rings (size 3 to 8) (size 9 to 14) (size 15 to 20)
#    0.000    2.000    1.429    3.857    0.000    2.857 
#    5.143   10.714    0.000    0.000    0.000    0.000 
#    0.000    0.000    0.000    0.000    0.000    0.000 
#
# Total GULP energy -77991.777060 kJ/mol
# GULP energy per Si atom -5570.841219 kJ/mol
# Density = 2.178639 g / cm^3
# Si number density = 21.836094 Si / 1000 Ang^3
#
#
#
# Elastic Constant Matrix: (Units=GPa)
#
#
# Indices 1 2 3 4 5 6 
#
# 1 78.1451 9.0522 26.3547 3.5770 -17.4499 11.2472
# 2 9.0522 75.2152 2.2010 4.1610 0.7598 9.7668
# 3 26.3547 2.2010 121.0259 0.4095 -14.4632 -0.5404
# 4 3.5770 4.1610 0.4095 23.3758 -0.1496 -0.1844
# 5 -17.4499 0.7598 -14.4632 -0.1496 25.4570 9.4079
# 6 11.2472 9.7668 -0.5404 -0.1844 9.4079 24.8784
#
#
#
# Elastic Compliance Matrix: (Units=1/GPa)
#
#
# Indices 1 2 3 4 5 6 
#
# 1 0.020158 -0.000297 -0.002239 -0.003001 0.018469 -0.016052
# 2 -0.000297 0.014245 -0.000023 -0.002528 0.001590 -0.006079
# 3 -0.002239 -0.000023 0.009199 0.000208 0.003769 -0.000203
# 4 -0.003001 -0.002528 0.000208 0.043696 -0.003018 0.003819
# 5 0.018469 0.001590 0.003769 -0.003018 0.066623 -0.034108
# 6 -0.016052 -0.006079 -0.000203 0.003819 -0.034108 0.062761
#
#
# Mechanical properties :
#
#
# Convention : Reuss Voigt Hill
#
# Bulk Modulus (GPa) = 25.98397 38.84465 32.41431
# Shear Modulus (GPa) = 21.31048 30.52746 25.91897
#
# Velocity S-wave (km/s) = 3.12738 3.74308 3.44899
# Velocity P-wave (km/s) = 4.99660 6.04224 5.54413
#
# Compressibility (1/GPa) = 0.03848527
#
# Stress axis : x y z
#
# Youngs Moduli (GPa) = 49.60845 70.20183 108.70286
#
# Poissons Ratio (x) = 0.02083 0.24334
# Poissons Ratio (y) = 0.01472 0.00250
# Poissons Ratio (z) = 0.11105 0.00162
#
# Static dielectric constant tensor:
#      x y z
#    x 1.841440 0.042340 -0.024750 
#    y 0.042340 2.016490 0.083610 
#    z -0.024750 0.083610 1.933220 
# 
# From -- ./inp_files/251367.got.cif
#   From: 2010.05.17/outbox.cif.g08.bks.cpg/sg2_126_cif.got.tgz:251367.got - 2010.06.03 11:33:40.
