data_PCOD9089306
_publ_section_title
;
Structure prediction by ZEFSAII (Michael W. Deem and Ramdas Pophale) SiO2 
 PCOD9089306
Probable space group: P -1
;
_chemical_formula_sum "Si O2"
_cell_formula_units_Z 14
_cell_length_a 12.733329
_cell_length_b 7.833964
_cell_length_c 21.951115
_cell_angle_alpha 119.036780
_cell_angle_beta 152.961025
_cell_angle_gamma 44.858380
_cell_volume 625.119600
_symmetry_space_group_name_H-M "P -1"
_symmetry_group_IT_number 2
_symmetry_cell_setting 'triclinic'
loop_
_space_group_symop_operation_xyz
x,y,z
-x,-y,-z
loop_
_atom_site_type_symbol
_atom_site_label
_atom_site_fract_x
_atom_site_fract_y
_atom_site_fract_z
Si Si1 0.277463 0.218891 0.244553
Si Si2 0.604970 0.503376 0.904899
Si Si3 0.248863 0.298809 0.388924
Si Si4 0.258921 0.987350 0.900121
Si Si5 0.526667 0.657553 0.091280
Si Si6 0.652235 0.602904 0.349479
Si Si7 0.489059 0.505085 0.378769
O O1 0.218998 0.285023 0.298480
O O2 0.511318 0.256484 0.349009
O O3 0.423254 0.917613 0.267206
O O4 0.941822 0.420043 0.068137
O O5 0.341273 0.762200 0.857133
O O6 0.674008 0.269644 0.940407
O O7 0.439889 0.527734 0.762931
O O8 0.330542 0.476132 0.473562
O O9 0.896579 0.473563 0.264633
O O10 0.500000 0.000000 0.500000
O O11 0.368999 0.917054 0.015127
O O12 0.883948 0.240995 0.753716
O O13 0.500000 0.000000 0.000000
O O14 0.500000 0.500000 0.000000
O O15 0.590729 0.556865 0.378004
O O16 0.000000 0.500000 0.500000
#
# Coordination Sequence:
#
# PCOD9089306 Si02
#       7
#     2   2   2   2   2   2   2
#     4  12  25  46  70 107 139 185 246 290 352 422
#     4  11  23  45  70 101 143 184 231 292 352 426
#     4  12  21  40  71 104 142 185 233 300 350 407
#     4  11  21  42  70 109 139 168 236 299 349 421
#     4  10  19  37  67  96 132 179 232 281 344 410
#     4  12  29  50  69  99 148 195 236 287 358 430
#     4  12  26  45  76 106 143 185 236 298 359 420
#
# _framework density 22.395717000000001
#
# number of rings (size 3 to 8) (size 9 to 14) (size 15 to 20)
#    0.000    0.571    5.714    4.286    2.000    1.143 
#    2.571    0.000    0.000    0.000    0.000    0.000 
#    0.000    0.000    0.000    0.000    0.000    0.000 
#
# Total GULP energy -78076.339220 kJ/mol
# GULP energy per Si atom -5576.881373 kJ/mol
# Density = 2.234474 g / cm^3
# Si number density = 22.395717 Si / 1000 Ang^3
#
#
#
# Elastic Constant Matrix: (Units=GPa)
#
#
# Indices 1 2 3 4 5 6 
#
# 1 68.8544 22.0447 12.2096 19.1492 19.4306 3.2295
# 2 22.0447 56.9894 21.0179 16.8976 -1.4548 -7.1039
# 3 12.2096 21.0179 128.1291 22.9238 21.5820 -7.4901
# 4 19.1492 16.8976 22.9238 35.1410 1.5148 -2.3505
# 5 19.4306 -1.4548 21.5820 1.5148 38.5769 11.8452
# 6 3.2295 -7.1039 -7.4901 -2.3505 11.8452 31.0527
#
#
#
# Elastic Compliance Matrix: (Units=1/GPa)
#
#
# Indices 1 2 3 4 5 6 
#
# 1 0.022933 -0.007150 0.003214 -0.010496 -0.013554 0.001130
# 2 -0.007150 0.023544 -0.002935 -0.005550 0.005452 0.002922
# 3 0.003214 -0.002935 0.010982 -0.006811 -0.009008 0.004564
# 4 -0.010496 -0.005550 -0.006811 0.040837 0.007809 -0.001709
# 5 -0.013554 0.005452 -0.009008 0.007809 0.042314 -0.015065
# 6 0.001130 0.002922 0.004564 -0.001709 -0.015065 0.039472
#
#
# Mechanical properties :
#
#
# Convention : Reuss Voigt Hill
#
# Bulk Modulus (GPa) = 22.87323 40.50190 31.68756
# Shear Modulus (GPa) = 23.99260 34.20083 29.09672
#
# Velocity S-wave (km/s) = 3.27663 3.91207 3.60836
# Velocity P-wave (km/s) = 4.95484 6.20723 5.61605
#
# Compressibility (1/GPa) = 0.04371924
#
# Stress axis : x y z
#
# Youngs Moduli (GPa) = 43.60436 42.47306 91.05465
#
# Poissons Ratio (x) = 0.30366 -0.29269
# Poissons Ratio (y) = 0.31175 0.26728
# Poissons Ratio (z) = -0.14016 0.12467
#
# Static dielectric constant tensor:
#      x y z
#    x 1.946080 0.144220 -0.051770 
#    y 0.144220 1.992730 0.013610 
#    z -0.051770 0.013610 1.854620 
# 
# From -- ./inp_files/183311.got.cif
#   From: 2010.05.17/outbox.cif.g08.bks.cpg/sg2_92_cif.got.tgz:183311.got - 2010.06.03 11:33:40.
