data_PCOD9089196
_publ_section_title
;
Structure prediction by ZEFSAII (Michael W. Deem and Ramdas Pophale) SiO2 
 PCOD9089196
Probable space group: P -1
;
_chemical_formula_sum "Si O2"
_cell_formula_units_Z 16
_cell_length_a 13.388582
_cell_length_b 7.463198
_cell_length_c 11.155215
_cell_angle_alpha 118.145336
_cell_angle_beta 40.750713
_cell_angle_gamma 121.398844
_cell_volume 615.094016
_symmetry_space_group_name_H-M "P -1"
_symmetry_group_IT_number 2
_symmetry_cell_setting 'triclinic'
loop_
_space_group_symop_operation_xyz
x,y,z
-x,-y,-z
loop_
_atom_site_type_symbol
_atom_site_label
_atom_site_fract_x
_atom_site_fract_y
_atom_site_fract_z
Si Si1 0.150383 0.008639 0.449440
Si Si2 0.000795 0.764936 0.964561
Si Si3 0.732329 0.073160 0.026494
Si Si4 0.641881 0.220232 0.918891
Si Si5 0.246905 0.340773 0.649037
Si Si6 0.436452 0.044141 0.444029
Si Si7 0.338995 0.321463 0.195386
Si Si8 0.196897 0.615228 0.564860
O O1 0.128068 0.127970 0.627499
O O2 0.297225 0.187724 0.314686
O O3 0.221399 0.810169 0.306084
O O4 0.000000 0.000000 0.500000
O O5 0.032244 0.629286 0.779317
O O6 0.145423 0.821007 0.947566
O O7 0.845136 0.640248 0.140250
O O8 0.000000 0.000000 0.000000
O O9 0.558061 0.012751 0.225208
O O10 0.740633 0.849890 0.889158
O O11 0.729517 0.232700 0.970665
O O12 0.534541 0.376386 0.028925
O O13 0.500000 0.000000 0.000000
O O14 0.398786 0.263709 0.522870
O O15 0.269713 0.526825 0.589345
O O16 0.500000 0.000000 0.500000
O O17 0.275253 0.855513 0.531827
O O18 0.240396 0.486139 0.372274
#
# Coordination Sequence:
#
# PCOD9089196 Si02
#       8
#     2   2   2   2   2   2   2   2
#     4   9  16  31  60  93 122 160 209 253 309 375
#     4  12  23  43  63  90 129 171 212 257 315 378
#     4  10  19  37  66  90 123 173 201 252 324 369
#     4   8  15  32  56  89 121 155 201 249 307 371
#     4  11  22  40  68  88 127 172 204 261 319 364
#     4  12  23  42  64  94 131 165 209 258 313 382
#     4   9  19  37  60  90 127 154 210 262 305 377
#     4  11  24  42  65  96 124 162 220 263 311 376
#
# _framework density 26.012286
#
# number of rings (size 3 to 8) (size 9 to 14) (size 15 to 20)
#    0.000    2.000    2.500    4.875    0.000    1.000 
#    2.250    0.625    8.250    0.000    0.000    0.000 
#    0.000    0.000    0.000    0.000    0.000    0.000 
#
# Total GULP energy -89158.803952 kJ/mol
# GULP energy per Si atom -5572.425247 kJ/mol
# Density = 2.595308 g / cm^3
# Si number density = 26.012286 Si / 1000 Ang^3
#
#
#
# Elastic Constant Matrix: (Units=GPa)
#
#
# Indices 1 2 3 4 5 6 
#
# 1 105.2656 26.8256 11.9657 23.7494 8.3996 -18.7986
# 2 26.8256 86.4709 26.5648 20.6945 2.4796 -25.6566
# 3 11.9657 26.5648 189.1891 36.1769 2.7850 2.8363
# 4 23.7494 20.6945 36.1769 39.0447 -4.8438 4.4842
# 5 8.3996 2.4796 2.7850 -4.8438 28.8401 4.8679
# 6 -18.7986 -25.6566 2.8363 4.4842 4.8679 44.3700
#
#
#
# Elastic Compliance Matrix: (Units=1/GPa)
#
#
# Indices 1 2 3 4 5 6 
#
# 1 0.013975 0.000879 0.001292 -0.012087 -0.007721 0.008415
# 2 0.000879 0.018292 -0.000423 -0.012055 -0.005982 0.012851
# 3 0.001292 -0.000423 0.006643 -0.007101 -0.002317 0.000850
# 4 -0.012087 -0.012055 -0.007101 0.050147 0.016796 -0.018549
# 5 -0.007721 -0.005982 -0.002317 0.016796 0.042669 -0.012961
# 6 0.008415 0.012851 0.000850 -0.018549 -0.012961 0.036776
#
#
# Mechanical properties :
#
#
# Convention : Reuss Voigt Hill
#
# Bulk Modulus (GPa) = 23.58310 56.84864 40.21587
# Shear Modulus (GPa) = 27.91080 43.48892 35.69986
#
# Velocity S-wave (km/s) = 3.27920 4.09328 3.70864
# Velocity P-wave (km/s) = 4.83977 6.65145 5.81658
#
# Compressibility (1/GPa) = 0.04240324
#
# Stress axis : x y z
#
# Youngs Moduli (GPa) = 71.55668 54.66979 150.54049
#
# Poissons Ratio (x) = -0.04804 -0.19443
# Poissons Ratio (y) = -0.06288 0.06374
# Poissons Ratio (z) = -0.09242 0.02315
#
# Static dielectric constant tensor:
#      x y z
#    x 2.098360 0.026130 -0.190900 
#    y 0.026130 2.126080 0.195310 
#    z -0.190900 0.195310 1.928280 
# 
# From -- ./inp_files/448003.got.cif
#   From: 2010.05.17/outbox.cif.g08.bks.cpg/sg2_225_cif.got.tgz:448003.got - 2010.06.03 11:33:40.
