data_PCOD9089433
_publ_section_title
;
Structure prediction by ZEFSAII (Michael W. Deem and Ramdas Pophale) SiO2 
 PCOD9089433
Probable space group: P -1
;
_chemical_formula_sum "Si O2"
_cell_formula_units_Z 16
_cell_length_a 14.744015
_cell_length_b 15.478104
_cell_length_c 16.348872
_cell_angle_alpha 26.364684
_cell_angle_beta 47.587814
_cell_angle_gamma 36.121182
_cell_volume 959.239097
_symmetry_space_group_name_H-M "P -1"
_symmetry_group_IT_number 2
_symmetry_cell_setting 'triclinic'
loop_
_space_group_symop_operation_xyz
x,y,z
-x,-y,-z
loop_
_atom_site_type_symbol
_atom_site_label
_atom_site_fract_x
_atom_site_fract_y
_atom_site_fract_z
Si Si1 0.133566 0.432153 0.412907
Si Si2 0.369083 0.862255 0.783452
Si Si3 0.230371 0.776591 0.099239
Si Si4 0.468393 0.351150 0.703864
Si Si5 0.003831 0.287793 0.898340
Si Si6 0.310000 0.131676 0.927712
Si Si7 0.516585 0.646905 0.125247
Si Si8 0.679098 0.462062 0.015663
O O1 0.182415 0.606484 0.251292
O O2 0.000000 0.500000 0.500000
O O3 0.059655 0.498589 0.311319
O O4 0.280655 0.146657 0.576657
O O5 0.549509 0.705855 0.833744
O O6 0.283939 0.839705 0.931655
O O7 0.353510 0.727535 0.832124
O O8 0.379192 0.637237 0.187652
O O9 0.091674 0.030091 0.013058
O O10 0.500000 0.500000 0.500000
O O11 0.346075 0.317836 0.769260
O O12 0.420175 0.464089 0.729080
O O13 0.624708 0.067883 0.868537
O O14 0.134665 0.253870 0.905480
O O15 0.853978 0.350129 0.982570
O O16 0.423407 0.942995 0.945219
O O17 0.638866 0.533823 0.073845
#
# Coordination Sequence:
#
# PCOD9089433 Si02
#       8
#     2   2   2   2   2   2   2   2
#     4  12  22  31  55  81 107 148 196 231 258 311
#     4  10  21  38  53  75 114 160 191 220 260 320
#     4  10  19  38  54  77 110 150 190 227 264 307
#     4   9  17  37  64  83 101 135 180 233 274 327
#     4  11  20  36  54  83 113 148 183 230 278 313
#     4   8  19  37  59  82 106 134 184 227 273 330
#     4   8  18  36  56  81 104 141 179 223 271 327
#     4  10  20  37  55  74 122 153 177 225 277 321
#
# _framework density 16.679887999999998
#
# number of rings (size 3 to 8) (size 9 to 14) (size 15 to 20)
#    0.750    1.500    2.500    1.125    0.000    1.500 
#    2.250    0.625    0.000    0.750    0.000    0.000 
#    0.000    0.000    0.000    0.000    0.000    0.000 
#
# Total GULP energy -89136.638266 kJ/mol
# GULP energy per Si atom -5571.039892 kJ/mol
# Density = 1.664192 g / cm^3
# Si number density = 16.679888 Si / 1000 Ang^3
#
#
#
# Elastic Constant Matrix: (Units=GPa)
#
#
# Indices 1 2 3 4 5 6 
#
# 1 121.0503 42.4992 47.9701 0.8524 -0.6647 -2.7142
# 2 42.4992 102.0856 25.6116 9.2918 4.6386 -6.9722
# 3 47.9701 25.6116 81.7644 -7.0255 -4.2600 -4.6155
# 4 0.8524 9.2918 -7.0255 25.0701 0.3266 7.2401
# 5 -0.6647 4.6386 -4.2600 0.3266 9.4930 3.5152
# 6 -2.7142 -6.9722 -4.6155 7.2401 3.5152 21.3990
#
#
#
# Elastic Compliance Matrix: (Units=1/GPa)
#
#
# Indices 1 2 3 4 5 6 
#
# 1 0.011806 -0.003426 -0.005938 -0.000589 0.000123 -0.000721
# 2 -0.003426 0.013773 -0.003120 -0.007999 -0.011019 0.007896
# 3 -0.005938 -0.003120 0.017659 0.006698 0.009462 -0.001781
# 4 -0.000589 -0.007999 0.006698 0.050476 0.012690 -0.020399
# 5 0.000123 -0.011019 0.009462 0.012690 0.124259 -0.026239
# 6 -0.000721 0.007896 -0.001781 -0.020399 -0.026239 0.060040
#
#
# Mechanical properties :
#
#
# Convention : Reuss Voigt Hill
#
# Bulk Modulus (GPa) = 54.73464 59.67356 57.20410
# Shear Modulus (GPa) = 16.17754 23.78037 19.97896
#
# Velocity S-wave (km/s) = 3.11767 3.77993 3.46466
# Velocity P-wave (km/s) = 6.77096 7.40972 7.09753
#
# Compressibility (1/GPa) = 0.01826996
#
# Stress axis : x y z
#
# Youngs Moduli (GPa) = 84.70487 72.60665 56.62808
#
# Poissons Ratio (x) = 0.24877 0.33625
# Poissons Ratio (y) = 0.29023 0.17666
# Poissons Ratio (z) = 0.50297 0.22651
#
# Static dielectric constant tensor:
#      x y z
#    x 1.575400 0.005620 0.016440 
#    y 0.005620 1.575290 -0.007120 
#    z 0.016440 -0.007120 1.554600 
# 
# From -- ./inp_files/533151.got.cif
#   From: 2010.05.17/outbox.cif.g08.bks.cpg/sg2_267_cif.got.tgz:533151.got - 2010.06.03 11:33:40.
