data_PCOD9089256
_publ_section_title
;
Structure prediction by ZEFSAII (Michael W. Deem and Ramdas Pophale) SiO2 
 PCOD9089256
Probable space group: P -1
;
_chemical_formula_sum "Si O2"
_cell_formula_units_Z 16
_cell_length_a 24.345472
_cell_length_b 5.574361
_cell_length_c 18.431642
_cell_angle_alpha 116.624034
_cell_angle_beta 17.998503
_cell_angle_gamma 118.277607
_cell_volume 680.639300
_symmetry_space_group_name_H-M "P -1"
_symmetry_group_IT_number 2
_symmetry_cell_setting 'triclinic'
loop_
_space_group_symop_operation_xyz
x,y,z
-x,-y,-z
loop_
_atom_site_type_symbol
_atom_site_label
_atom_site_fract_x
_atom_site_fract_y
_atom_site_fract_z
Si Si1 0.885902 0.869648 0.017309
Si Si2 0.862467 0.330112 0.206066
Si Si3 0.601185 0.060956 0.054809
Si Si4 0.606388 0.431066 0.950176
Si Si5 0.047890 0.737021 0.530652
Si Si6 0.193229 0.299311 0.439903
Si Si7 0.846484 0.540440 0.891368
Si Si8 0.771183 0.816264 0.452340
O O1 0.775399 0.677251 0.069813
O O2 0.008302 0.725897 0.898165
O O3 0.037871 0.057627 0.804050
O O4 0.786443 0.054012 0.220430
O O5 0.725022 0.513338 0.434635
O O6 0.000000 0.500000 0.000000
O O7 0.609053 0.241554 0.994218
O O8 0.391616 0.024881 0.337156
O O9 0.649936 0.758406 0.950417
O O10 0.723892 0.260399 0.983315
O O11 0.403285 0.370911 0.167152
O O12 0.757961 0.331449 0.696333
O O13 0.000000 0.500000 0.500000
O O14 0.893462 0.714589 0.782263
O O15 0.095381 0.040399 0.481684
O O16 0.201997 0.200490 0.498402
O O17 0.049063 0.497673 0.651179
#
# Coordination Sequence:
#
# PCOD9089256 Si02
#       8
#     2   2   2   2   2   2   2   2
#     4  10  19  37  66  99 126 166 220 270 325 395
#     4   9  19  36  65  98 128 160 213 272 328 395
#     4  11  26  43  67  96 140 177 220 275 340 390
#     4  11  26  46  65  96 132 182 230 280 326 391
#     4  12  25  43  64  95 138 179 223 280 338 385
#     4  11  24  40  68  95 128 177 233 278 323 395
#     4  12  24  40  67  96 134 179 220 278 332 399
#     4  10  20  40  65  96 127 173 219 271 329 393
#
# _framework density 23.507311999999999
#
# number of rings (size 3 to 8) (size 9 to 14) (size 15 to 20)
#    0.000    1.250    3.750    1.875    5.250    1.500 
#    0.000    0.625    0.000    6.750    0.000    0.000 
#    0.000    0.000    0.000    0.000    0.000    0.000 
#
# Total GULP energy -89361.197485 kJ/mol
# GULP energy per Si atom -5585.074843 kJ/mol
# Density = 2.345381 g / cm^3
# Si number density = 23.507312 Si / 1000 Ang^3
#
#
#
# Elastic Constant Matrix: (Units=GPa)
#
#
# Indices 1 2 3 4 5 6 
#
# 1 90.4496 28.2753 0.9079 0.4392 14.7035 13.4404
# 2 28.2753 121.2737 4.6428 16.2045 14.9291 25.3510
# 3 0.9079 4.6428 27.8627 9.4554 0.5934 5.7500
# 4 0.4392 16.2045 9.4554 47.4388 3.9570 -0.2808
# 5 14.7035 14.9291 0.5934 3.9570 29.7533 5.6799
# 6 13.4404 25.3510 5.7500 -0.2808 5.6799 39.4654
#
#
#
# Elastic Compliance Matrix: (Units=1/GPa)
#
#
# Indices 1 2 3 4 5 6 
#
# 1 0.012847 -0.002012 0.000199 0.000933 -0.005012 -0.002384
# 2 -0.002012 0.010759 0.000790 -0.003616 -0.002801 -0.005964
# 3 0.000199 0.000790 0.039930 -0.008360 0.001082 -0.006608
# 4 0.000933 -0.003616 -0.008360 0.024196 -0.002412 0.003742
# 5 -0.005012 -0.002801 0.001082 -0.002412 0.038205 -0.002167
# 6 -0.002384 -0.005964 -0.006608 0.003742 -0.002167 0.031283
#
#
# Mechanical properties :
#
#
# Convention : Reuss Voigt Hill
#
# Bulk Modulus (GPa) = 16.26289 34.13755 25.20022
# Shear Modulus (GPa) = 27.81434 37.04883 32.43159
#
# Velocity S-wave (km/s) = 3.44353 3.97426 3.71838
# Velocity P-wave (km/s) = 4.76904 5.96769 5.40172
#
# Compressibility (1/GPa) = 0.06148968
#
# Stress axis : x y z
#
# Youngs Moduli (GPa) = 77.83667 92.94268 25.04398
#
# Poissons Ratio (x) = 0.18704 -0.00498
# Poissons Ratio (y) = 0.15664 -0.01979
# Poissons Ratio (z) = -0.01547 -0.07344
#
# Static dielectric constant tensor:
#      x y z
#    x 1.986270 0.012460 0.053940 
#    y 0.012460 2.067590 -0.026940 
#    z 0.053940 -0.026940 1.920980 
# 
# From -- ./inp_files/39029.got.cif
#   From: 2010.05.17/outbox.cif.g08.bks.cpg/sg2_20_cif.got.tgz:39029.got - 2010.06.03 11:33:40.
