data_PCOD9089530
_publ_section_title
;
Structure prediction by ZEFSAII (Michael W. Deem and Ramdas Pophale) SiO2 
 PCOD9089530
Probable space group: P -1
;
_chemical_formula_sum "Si O2"
_cell_formula_units_Z 16
_cell_length_a 11.642929
_cell_length_b 25.480263
_cell_length_c 9.182243
_cell_angle_alpha 144.722806
_cell_angle_beta 50.463692
_cell_angle_gamma 154.493346
_cell_volume 619.997131
_symmetry_space_group_name_H-M "P -1"
_symmetry_group_IT_number 2
_symmetry_cell_setting 'triclinic'
loop_
_space_group_symop_operation_xyz
x,y,z
-x,-y,-z
loop_
_atom_site_type_symbol
_atom_site_label
_atom_site_fract_x
_atom_site_fract_y
_atom_site_fract_z
Si Si1 0.323319 0.406323 0.142529
Si Si2 0.660557 0.439299 0.740464
Si Si3 0.064162 0.079743 0.282206
Si Si4 0.944209 0.763480 0.532895
Si Si5 0.613502 0.144893 0.643905
Si Si6 0.069607 0.924572 0.091892
Si Si7 0.956799 0.481555 0.171153
Si Si8 0.588010 0.140133 0.321726
O O1 0.187334 0.412542 0.162701
O O2 0.595657 0.588648 0.428781
O O3 0.113371 0.239322 0.034244
O O4 0.479445 0.413296 0.930020
O O5 0.409064 0.258055 0.439796
O O6 0.857619 0.477361 0.764047
O O7 0.979614 0.139430 0.455311
O O8 0.929460 0.948553 0.221811
O O9 0.000000 0.000000 0.000000
O O10 0.050815 0.716778 0.332387
O O11 0.097353 0.889069 0.832877
O O12 0.501226 0.088367 0.442912
O O13 0.500000 0.000000 0.500000
O O14 0.647561 0.265623 0.949262
O O15 0.372193 0.096953 0.319782
O O16 0.080250 0.648519 0.478617
O O17 0.000000 0.500000 0.000000
O O18 0.500000 0.000000 0.000000
#
# Coordination Sequence:
#
# PCOD9089530 Si02
#       8
#     2   2   2   2   2   2   2   2
#     4  10  22  34  64  93 122 164 205 260 319 381
#     4  10  19  38  58  87 127 161 201 260 323 372
#     4   9  20  36  59  88 123 164 202 261 320 377
#     4  10  20  41  61  88 130 165 205 264 325 375
#     4  11  24  42  68  93 128 172 217 266 326 387
#     4  11  21  38  63  91 124 164 219 256 315 389
#     4  10  22  42  63  90 128 169 210 265 325 375
#     4  11  23  42  67  90 127 174 214 268 320 376
#
# _framework density 25.806571999999999
#
# number of rings (size 3 to 8) (size 9 to 14) (size 15 to 20)
#    0.000    1.750    3.750    0.375    1.750    0.500 
#    4.500    0.625   11.000    0.000    0.000    0.000 
#    0.000    0.000    0.000    0.000    0.000    0.000 
#
# Total GULP energy -89276.958142 kJ/mol
# GULP energy per Si atom -5579.809884 kJ/mol
# Density = 2.574784 g / cm^3
# Si number density = 25.806572 Si / 1000 Ang^3
#
#
#
# Elastic Constant Matrix: (Units=GPa)
#
#
# Indices 1 2 3 4 5 6 
#
# 1 134.1360 39.3632 16.5014 1.8129 6.1711 -45.3920
# 2 39.3632 97.5953 39.8669 14.0851 -7.5361 -47.7394
# 3 16.5014 39.8669 160.5798 16.5265 19.1498 -21.8003
# 4 1.8129 14.0851 16.5265 35.1850 -12.8518 -13.1180
# 5 6.1711 -7.5361 19.1498 -12.8518 41.0152 3.7721
# 6 -45.3920 -47.7394 -21.8003 -13.1180 3.7721 42.7448
#
#
#
# Elastic Compliance Matrix: (Units=1/GPa)
#
#
# Indices 1 2 3 4 5 6 
#
# 1 0.012894 0.003138 0.000225 0.004307 -0.001848 0.018797
# 2 0.003138 0.024924 -0.003325 0.004303 0.004210 0.030422
# 3 0.000225 -0.003325 0.008201 -0.004797 -0.005955 -0.000239
# 4 0.004307 0.004303 -0.004797 0.040377 0.013365 0.018144
# 5 -0.001848 0.004210 -0.005955 0.013365 0.032313 0.000953
# 6 0.018797 0.030422 -0.000239 0.018144 0.000953 0.082694
#
#
# Mechanical properties :
#
#
# Convention : Reuss Voigt Hill
#
# Bulk Modulus (GPa) = 21.69439 64.86379 43.27909
# Shear Modulus (GPa) = 23.07397 43.56096 33.31747
#
# Velocity S-wave (km/s) = 2.99341 4.11296 3.59701
# Velocity P-wave (km/s) = 4.51355 6.90973 5.83595
#
# Compressibility (1/GPa) = 0.04609487
#
# Stress axis : x y z
#
# Youngs Moduli (GPa) = 77.55338 40.12146 121.93210
#
# Poissons Ratio (x) = -0.12589 -0.02742
# Poissons Ratio (y) = -0.24335 0.40545
# Poissons Ratio (z) = -0.01744 0.13341
#
# Static dielectric constant tensor:
#      x y z
#    x 2.081820 0.078230 -0.038450 
#    y 0.078230 2.137090 0.089750 
#    z -0.038450 0.089750 2.129040 
# 
# From -- ./inp_files/282280.got.cif
#   From: 2010.05.17/outbox.cif.g08.bks.cpg/sg2_142_cif.got.tgz:282280.got - 2010.06.03 11:33:40.
