data_PCOD9089159
_publ_section_title
;
Structure prediction by ZEFSAII (Michael W. Deem and Ramdas Pophale) SiO2 
 PCOD9089159
Probable space group: P -1
;
_chemical_formula_sum "Si O2"
_cell_formula_units_Z 12
_cell_length_a 11.913907
_cell_length_b 7.421176
_cell_length_c 13.936601
_cell_angle_alpha 91.054079
_cell_angle_beta 140.878602
_cell_angle_gamma 61.124584
_cell_volume 520.400536
_symmetry_space_group_name_H-M "P -1"
_symmetry_group_IT_number 2
_symmetry_cell_setting 'triclinic'
loop_
_space_group_symop_operation_xyz
x,y,z
-x,-y,-z
loop_
_atom_site_type_symbol
_atom_site_label
_atom_site_fract_x
_atom_site_fract_y
_atom_site_fract_z
Si Si1 0.265642 0.340354 0.068580
Si Si2 0.837463 0.154931 0.990459
Si Si3 0.837932 0.862333 0.454834
Si Si4 0.758893 0.210359 0.574991
Si Si5 0.734264 0.539542 0.418078
Si Si6 0.683994 0.718203 0.675465
O O1 0.287651 0.250587 0.192254
O O2 0.554031 0.084555 0.213437
O O3 0.238988 0.576775 0.056521
O O4 0.989511 0.479616 0.842713
O O5 0.570421 0.239022 0.815455
O O6 0.022528 0.972439 0.200758
O O7 0.000000 0.000000 0.000000
O O8 0.841463 0.660442 0.501205
O O9 0.081013 0.693107 0.541762
O O10 0.832731 0.016205 0.535256
O O11 0.740081 0.418443 0.516641
O O12 0.478648 0.344651 0.429143
O O13 0.500000 0.000000 0.500000
#
# Coordination Sequence:
#
# PCOD9089159 Si02
#       6
#     2   2   2   2   2   2
#     4  10  22  42  67  99 137 181 223 285 343 409
#     4  12  27  44  67 107 142 178 237 290 342 412
#     4  10  24  49  74  98 141 185 230 289 352 405
#     4  11  24  46  72 101 136 192 225 281 354 415
#     4  11  25  49  70 105 141 177 236 296 336 415
#     4  10  19  37  65  97 131 176 223 266 345 405
#
# _framework density 23.059161
#
# number of rings (size 3 to 8) (size 9 to 14) (size 15 to 20)
#    0.000    1.333    5.000    0.500    7.000    1.333 
#    9.000    1.667    0.000    0.000    0.000    0.000 
#    0.000    0.000    0.000    0.000    0.000    0.000 
#
# Total GULP energy -67222.383442 kJ/mol
# GULP energy per Si atom -5601.865287 kJ/mol
# Density = 2.300668 g / cm^3
# Si number density = 23.059161 Si / 1000 Ang^3
#
#
#
# Elastic Constant Matrix: (Units=GPa)
#
#
# Indices 1 2 3 4 5 6 
#
# 1 114.4535 30.5066 70.5196 0.0014 13.5545 9.6439
# 2 30.5066 74.3037 20.5004 0.1503 1.3344 6.9101
# 3 70.5196 20.5004 185.8525 -11.3735 -1.1145 -6.8729
# 4 0.0014 0.1503 -11.3735 31.1594 0.9005 5.3158
# 5 13.5545 1.3344 -1.1145 0.9005 47.1583 -19.1533
# 6 9.6439 6.9101 -6.8729 5.3158 -19.1533 44.5750
#
#
#
# Elastic Compliance Matrix: (Units=1/GPa)
#
#
# Indices 1 2 3 4 5 6 
#
# 1 0.014302 -0.003717 -0.005324 -0.000697 -0.006590 -0.006088
# 2 -0.003717 0.015226 -0.000324 0.000088 -0.000034 -0.001631
# 3 -0.005324 -0.000324 0.007714 0.002137 0.003087 0.003463
# 4 -0.000697 0.000088 0.002137 0.033706 -0.002227 -0.004510
# 5 -0.006590 -0.000034 0.003087 -0.002227 0.029193 0.014717
# 6 -0.006088 -0.001631 0.003463 -0.004510 0.014717 0.031399
#
#
# Mechanical properties :
#
#
# Convention : Reuss Voigt Hill
#
# Bulk Modulus (GPa) = 54.02163 68.62921 61.32542
# Shear Modulus (GPa) = 31.96091 41.45076 36.70584
#
# Velocity S-wave (km/s) = 3.72699 4.24439 3.99408
# Velocity P-wave (km/s) = 6.48066 7.33803 6.92263
#
# Compressibility (1/GPa) = 0.01851110
#
# Stress axis : x y z
#
# Youngs Moduli (GPa) = 69.92224 65.67720 129.63701
#
# Poissons Ratio (x) = 0.24412 0.69017
# Poissons Ratio (y) = 0.25990 0.04204
# Poissons Ratio (z) = 0.37226 0.02130
#
# Static dielectric constant tensor:
#      x y z
#    x 1.859590 -0.013100 0.019210 
#    y -0.013100 1.932370 0.011210 
#    z 0.019210 0.011210 1.856340 
# 
# From -- ./inp_files/513148.got.cif
#   From: 2010.05.17/outbox.cif.g08.bks.cpg/sg2_257_cif.got.tgz:513148.got - 2010.06.03 11:33:40.
