data_PCOD9089814
_publ_section_title
;
Structure prediction by ZEFSAII (Michael W. Deem and Ramdas Pophale) SiO2 
 PCOD9089814
Probable space group: P -1
;
_chemical_formula_sum "Si O2"
_cell_formula_units_Z 16
_cell_length_a 9.211931
_cell_length_b 14.292628
_cell_length_c 14.417846
_cell_angle_alpha 136.749075
_cell_angle_beta 39.850949
_cell_angle_gamma 136.679385
_cell_volume 769.774529
_symmetry_space_group_name_H-M "P -1"
_symmetry_group_IT_number 2
_symmetry_cell_setting 'triclinic'
loop_
_space_group_symop_operation_xyz
x,y,z
-x,-y,-z
loop_
_atom_site_type_symbol
_atom_site_label
_atom_site_fract_x
_atom_site_fract_y
_atom_site_fract_z
Si Si1 0.871324 0.156188 0.739932
Si Si2 0.355528 0.362745 0.727147
Si Si3 0.831085 0.805808 0.119751
Si Si4 0.069691 0.174110 0.110199
Si Si5 0.296611 0.789591 0.534715
Si Si6 0.533265 0.301225 0.104786
Si Si7 0.354218 0.882695 0.379596
Si Si8 0.283385 0.051707 0.175797
O O1 0.779162 0.149188 0.675861
O O2 0.160896 0.242015 0.669654
O O3 0.781109 0.997028 0.721279
O O4 0.748786 0.248361 0.929268
O O5 0.248686 0.316859 0.850245
O O6 0.613648 0.342949 0.588518
O O7 0.377868 0.524421 0.806819
O O8 0.594168 0.840353 0.231968
O O9 0.928450 0.760270 0.945347
O O10 0.040919 0.952226 0.165275
O O11 0.331968 0.242851 0.079858
O O12 0.880607 0.198951 0.290749
O O13 0.000000 0.000000 0.000000
O O14 0.202323 0.797446 0.482312
O O15 0.541317 0.941075 0.527944
O O16 0.393368 0.218991 0.206950
O O17 0.500000 0.000000 0.000000
#
# Coordination Sequence:
#
# PCOD9089814 Si02
#       8
#     2   2   2   2   2   2   2   2
#     4  10  20  39  65  91 115 163 212 245 295 359
#     4  10  24  39  59  90 133 161 193 244 316 367
#     4  10  19  38  61  94 116 154 207 251 292 353
#     4  12  20  36  68  92 117 154 212 256 298 346
#     4  10  22  37  59  94 125 155 195 260 304 359
#     4  11  20  37  64  92 125 159 201 255 300 357
#     4  10  19  38  65  88 121 157 207 253 298 346
#     4   9  19  32  59  95 118 149 199 256 295 340
#
# _framework density 20.785307
#
# number of rings (size 3 to 8) (size 9 to 14) (size 15 to 20)
#    0.000    1.750    3.750    0.375    1.750    1.500 
#    0.000    0.000    0.000    1.500    0.000    0.000 
#    0.000    0.000    0.000    0.000    0.000    0.000 
#
# Total GULP energy -89385.313810 kJ/mol
# GULP energy per Si atom -5586.582113 kJ/mol
# Density = 2.073800 g / cm^3
# Si number density = 20.785307 Si / 1000 Ang^3
#
#
#
# Elastic Constant Matrix: (Units=GPa)
#
#
# Indices 1 2 3 4 5 6 
#
# 1 140.5712 35.0605 37.1873 -10.8377 23.7366 -12.0023
# 2 35.0605 85.1238 14.6297 -3.4448 6.5431 -28.3202
# 3 37.1873 14.6297 94.3967 -16.2748 16.9591 -13.4273
# 4 -10.8377 -3.4448 -16.2748 18.2181 -3.0809 -5.1716
# 5 23.7366 6.5431 16.9591 -3.0809 27.5151 -5.0771
# 6 -12.0023 -28.3202 -13.4273 -5.1716 -5.0771 30.2021
#
#
#
# Elastic Compliance Matrix: (Units=1/GPa)
#
#
# Indices 1 2 3 4 5 6 
#
# 1 0.009591 -0.003350 -0.001907 0.002068 -0.006231 -0.000871
# 2 -0.003350 0.019730 0.002631 0.010101 0.001455 0.020314
# 3 -0.001907 0.002631 0.016147 0.015968 -0.005160 0.010755
# 4 0.002068 0.010101 0.015968 0.081382 0.000893 0.031478
# 5 -0.006231 0.001455 -0.005160 0.000893 0.045464 0.004390
# 6 -0.000871 0.020314 0.010755 0.031478 0.004390 0.062722
#
#
# Mechanical properties :
#
#
# Convention : Reuss Voigt Hill
#
# Bulk Modulus (GPa) = 24.86475 54.87185 39.86830
# Shear Modulus (GPa) = 19.70888 30.73467 25.22177
#
# Velocity S-wave (km/s) = 3.08265 3.84952 3.48723
# Velocity P-wave (km/s) = 4.96577 6.79817 5.95290
#
# Compressibility (1/GPa) = 0.04021758
#
# Stress axis : x y z
#
# Youngs Moduli (GPa) = 104.26404 50.68364 61.93076
#
# Poissons Ratio (x) = 0.16977 0.11811
# Poissons Ratio (y) = 0.34924 -0.16296
# Poissons Ratio (z) = 0.19885 -0.13337
#
# Static dielectric constant tensor:
#      x y z
#    x 1.772780 -0.032990 -0.012300 
#    y -0.032990 1.736640 -0.022520 
#    z -0.012300 -0.022520 1.799000 
# 
# From -- ./inp_files/504247.got.cif
#   From: 2010.05.17/outbox.cif.g08.bks.cpg/sg2_253_cif.got.tgz:504247.got - 2010.06.03 11:33:40.
