data_PCOD9089697
_publ_section_title
;
Structure prediction by ZEFSAII (Michael W. Deem and Ramdas Pophale) SiO2 
 PCOD9089697
Probable space group: P -1
;
_chemical_formula_sum "Si O2"
_cell_formula_units_Z 16
_cell_length_a 14.039473
_cell_length_b 10.116478
_cell_length_c 8.641316
_cell_angle_alpha 75.317041
_cell_angle_beta 43.495445
_cell_angle_gamma 89.176218
_cell_volume 790.255152
_symmetry_space_group_name_H-M "P -1"
_symmetry_group_IT_number 2
_symmetry_cell_setting 'triclinic'
loop_
_space_group_symop_operation_xyz
x,y,z
-x,-y,-z
loop_
_atom_site_type_symbol
_atom_site_label
_atom_site_fract_x
_atom_site_fract_y
_atom_site_fract_z
Si Si1 0.397426 0.593847 0.290898
Si Si2 0.415717 0.096664 0.977975
Si Si3 0.635267 0.083122 0.217792
Si Si4 0.034940 0.868026 0.085668
Si Si5 0.147688 0.422117 0.220524
Si Si6 0.885519 0.881091 0.584962
Si Si7 0.559344 0.375337 0.138031
Si Si8 0.912878 0.553011 0.343923
O O1 0.487272 0.742520 0.213994
O O2 0.431058 0.440772 0.326854
O O3 0.227045 0.557011 0.524261
O O4 0.436546 0.621368 0.054511
O O5 0.362087 0.011777 0.909161
O O6 0.274498 0.100976 0.240651
O O7 0.500000 0.000000 0.000000
O O8 0.591370 0.227878 0.187389
O O9 0.500000 0.000000 0.500000
O O10 0.793771 0.113044 0.098914
O O11 0.956664 0.868177 0.341633
O O12 0.960830 0.707685 0.164059
O O13 0.000000 0.000000 0.000000
O O14 0.127686 0.259944 0.259948
O O15 0.118771 0.433251 0.437045
O O16 0.046681 0.486786 0.214900
O O17 0.308334 0.507150 0.986379
O O18 0.000000 0.000000 0.500000
#
# Coordination Sequence:
#
# PCOD9089697 Si02
#       8
#     2   2   2   2   2   2   2   2
#     4  10  21  35  64  97 126 160 213 270 315 374
#     4  12  25  41  65 101 133 164 216 270 325 379
#     4  12  27  44  65  94 135 176 212 263 329 392
#     4  11  25  42  65  94 130 173 216 258 321 390
#     4   9  17  33  60  89 119 158 215 267 309 363
#     4  11  23  40  65  95 126 168 215 273 319 369
#     4  10  19  38  60  92 127 165 212 259 318 381
#     4   9  19  33  61  90 122 161 213 261 310 371
#
# _framework density 20.246625999999999
#
# number of rings (size 3 to 8) (size 9 to 14) (size 15 to 20)
#    0.000    1.500    5.000    0.000    8.750    0.000 
#    0.000    0.625    2.750    1.500    0.000    0.000 
#    0.000    0.000    0.000    0.000    0.000    0.000 
#
# Total GULP energy -89156.995898 kJ/mol
# GULP energy per Si atom -5572.312244 kJ/mol
# Density = 2.020054 g / cm^3
# Si number density = 20.246626 Si / 1000 Ang^3
#
#
#
# Elastic Constant Matrix: (Units=GPa)
#
#
# Indices 1 2 3 4 5 6 
#
# 1 40.4079 16.7949 -0.7643 -16.0107 -15.0096 -5.1312
# 2 16.7949 105.8935 -2.2740 -36.2950 4.6034 -5.1686
# 3 -0.7643 -2.2740 45.9829 -12.8295 -8.3479 0.5344
# 4 -16.0107 -36.2950 -12.8295 32.4945 -0.5757 -7.2668
# 5 -15.0096 4.6034 -8.3479 -0.5757 17.5539 -10.7375
# 6 -5.1312 -5.1686 0.5344 -7.2668 -10.7375 40.4279
#
#
#
# Elastic Compliance Matrix: (Units=1/GPa)
#
#
# Indices 1 2 3 4 5 6 
#
# 1 -0.215354 -0.054037 -0.143296 -0.268336 -0.353662 -0.174512
# 2 -0.054037 0.005570 -0.026502 -0.040182 -0.083041 -0.035074
# 3 -0.143296 -0.026502 -0.062025 -0.151968 -0.214273 -0.104982
# 4 -0.268336 -0.040182 -0.151968 -0.257264 -0.418662 -0.194625
# 5 -0.353662 -0.083041 -0.214273 -0.418662 -0.498531 -0.260334
# 6 -0.174512 -0.035074 -0.104982 -0.194625 -0.260334 -0.104638
#
#
# Mechanical properties :
#
#
# Convention : Reuss Voigt Hill
#
# Bulk Modulus (GPa) = -1.38990 24.42193 11.51602
# Shear Modulus (GPa) = -5.40892 29.99709 12.29408
#
# Velocity S-wave (km/s) = -1.63625 3.85331 2.46685
# Velocity P-wave (km/s) = 2.06343 5.64675 3.71672
#
# Compressibility (1/GPa) = -0.71947730
#
# Stress axis : x y z
#
# Youngs Moduli (GPa) = -4.64352 179.51935 -16.12263
#
# Poissons Ratio (x) = 9.70076 -2.31030
# Poissons Ratio (y) = -0.25092 -0.42727
# Poissons Ratio (z) = -0.66539 4.75754
#
# Static dielectric constant tensor:
#      x y z
#    x 1.720120 -0.007300 0.016180 
#    y -0.007300 1.776330 0.013360 
#    z 0.016180 0.013360 1.726840 
# 
# From -- ./inp_files/257704.got.cif
#   From: 2010.05.17/outbox.cif.g08.bks.cpg/sg2_129_cif.got.tgz:257704.got - 2010.06.03 11:33:40.
