data_PCOD9089145
_publ_section_title
;
Structure prediction by ZEFSAII (Michael W. Deem and Ramdas Pophale) SiO2 
 PCOD9089145
Probable space group: P -1
;
_chemical_formula_sum "Si O2"
_cell_formula_units_Z 14
_cell_length_a 16.213071
_cell_length_b 9.668943
_cell_length_c 5.588232
_cell_angle_alpha 46.213307
_cell_angle_beta 65.444851
_cell_angle_gamma 57.203408
_cell_volume 530.414689
_symmetry_space_group_name_H-M "P -1"
_symmetry_group_IT_number 2
_symmetry_cell_setting 'triclinic'
loop_
_space_group_symop_operation_xyz
x,y,z
-x,-y,-z
loop_
_atom_site_type_symbol
_atom_site_label
_atom_site_fract_x
_atom_site_fract_y
_atom_site_fract_z
Si Si1 0.923444 0.390681 0.671303
Si Si2 0.206408 0.037323 0.328245
Si Si3 0.743358 0.749617 0.590596
Si Si4 0.482646 0.331355 0.501881
Si Si5 0.398496 0.009957 0.855460
Si Si6 0.008379 0.722032 0.774168
Si Si7 0.341791 0.572923 0.740562
O O1 0.817889 0.577726 0.529103
O O2 0.000000 0.500000 0.500000
O O3 0.951042 0.247211 0.573220
O O4 0.927393 0.291234 0.050114
O O5 0.187182 0.175092 0.423984
O O6 0.101908 0.116012 0.232156
O O7 0.253454 0.792562 0.601459
O O8 0.298656 0.077944 0.053368
O O9 0.655842 0.965752 0.360301
O O10 0.690513 0.613168 0.938645
O O11 0.447266 0.179901 0.575148
O O12 0.387557 0.523107 0.478198
O O13 0.569097 0.405893 0.237372
O O14 0.526510 0.188481 0.861003
O O15 0.000000 0.500000 0.000000
#
# Coordination Sequence:
#
# PCOD9089145 Si02
#       7
#     2   2   2   2   2   2   2
#     4  10  20  36  66  94 128 173 215 271 327 390
#     4  11  22  41  64  92 131 165 217 260 333 385
#     4  12  23  39  66  93 125 166 222 262 330 386
#     4   9  20  44  62  87 134 162 216 264 336 383
#     4  10  21  39  68  90 120 180 207 268 322 399
#     4  10  19  37  65  95 129 173 217 269 327 393
#     4  10  23  42  60  95 128 165 210 278 319 395
#
# _framework density 26.394442000000002
#
# number of rings (size 3 to 8) (size 9 to 14) (size 15 to 20)
#    0.000    1.714    4.286    1.714    0.000    1.143 
#    7.714    1.429    0.000    0.000    0.000    0.000 
#    0.000    0.000    0.000    0.000    0.000    0.000 
#
# Total GULP energy -78148.717475 kJ/mol
# GULP energy per Si atom -5582.051248 kJ/mol
# Density = 2.633437 g / cm^3
# Si number density = 26.394442 Si / 1000 Ang^3
#
#
#
# Elastic Constant Matrix: (Units=GPa)
#
#
# Indices 1 2 3 4 5 6 
#
# 1 90.5441 26.8866 36.6589 -2.8794 9.4066 -7.3582
# 2 26.8866 116.4448 23.0357 0.7646 2.3387 -18.9430
# 3 36.6589 23.0357 61.1307 2.3157 17.4755 10.0334
# 4 -2.8794 0.7646 2.3157 36.1446 -5.2074 -4.8331
# 5 9.4066 2.3387 17.4755 -5.2074 38.6981 -2.2840
# 6 -7.3582 -18.9430 10.0334 -4.8331 -2.2840 39.2512
#
#
#
# Elastic Compliance Matrix: (Units=1/GPa)
#
#
# Indices 1 2 3 4 5 6 
#
# 1 0.016103 -0.000599 -0.011085 0.003089 0.001901 0.006054
# 2 -0.000599 0.010923 -0.005712 0.001400 0.002663 0.006947
# 3 -0.011085 -0.005712 0.031466 -0.006568 -0.012906 -0.014438
# 4 0.003089 0.001400 -0.006568 0.030197 0.006609 0.007036
# 5 0.001901 0.002663 -0.012906 0.006609 0.032386 0.007639
# 6 0.006054 0.006947 -0.014438 0.007036 0.007639 0.034966
#
#
# Mechanical properties :
#
#
# Convention : Reuss Voigt Hill
#
# Bulk Modulus (GPa) = 42.19161 49.03134 45.61147
# Shear Modulus (GPa) = 25.15929 34.92133 30.04031
#
# Velocity S-wave (km/s) = 3.09075 3.64133 3.37728
# Velocity P-wave (km/s) = 5.36253 6.02460 5.70318
#
# Compressibility (1/GPa) = 0.02370139
#
# Stress axis : x y z
#
# Youngs Moduli (GPa) = 62.10018 91.54711 31.78013
#
# Poissons Ratio (x) = 0.05481 0.35229
# Poissons Ratio (y) = 0.03718 0.18152
# Poissons Ratio (z) = 0.68839 0.52289
#
# Static dielectric constant tensor:
#      x y z
#    x 2.037920 0.045090 0.073050 
#    y 0.045090 2.078700 0.110730 
#    z 0.073050 0.110730 2.311300 
# 
# From -- ./inp_files/47219.got.cif
#   From: 2010.05.17/outbox.cif.g08.bks.cpg/sg2_24_cif.got.tgz:47219.got - 2010.06.03 11:33:40.
