data_PCOD9089725
_publ_section_title
;
Structure prediction by ZEFSAII (Michael W. Deem and Ramdas Pophale) SiO2 
 PCOD9089725
Probable space group: P -1
;
_chemical_formula_sum "Si O2"
_cell_formula_units_Z 16
_cell_length_a 12.072850
_cell_length_b 11.407948
_cell_length_c 15.469468
_cell_angle_alpha 155.133260
_cell_angle_beta 58.482454
_cell_angle_gamma 132.874735
_cell_volume 624.895622
_symmetry_space_group_name_H-M "P -1"
_symmetry_group_IT_number 2
_symmetry_cell_setting 'triclinic'
loop_
_space_group_symop_operation_xyz
x,y,z
-x,-y,-z
loop_
_atom_site_type_symbol
_atom_site_label
_atom_site_fract_x
_atom_site_fract_y
_atom_site_fract_z
Si Si1 0.171610 0.095546 0.752355
Si Si2 0.816328 0.782324 0.903578
Si Si3 0.625381 0.357264 0.093068
Si Si4 0.313732 0.719222 0.241402
Si Si5 0.363168 0.143710 0.359986
Si Si6 0.835483 0.666338 0.510871
Si Si7 0.263582 0.883312 0.965940
Si Si8 0.330949 0.951611 0.726808
O O1 0.211262 0.882089 0.652702
O O2 0.295839 0.294597 0.757208
O O3 0.198149 0.391735 0.006172
O O4 0.002884 0.868576 0.624249
O O5 0.745322 0.408560 0.722497
O O6 0.807728 0.905577 0.893533
O O7 0.713633 0.880657 0.067834
O O8 0.000000 0.000000 0.000000
O O9 0.591851 0.099543 0.857309
O O10 0.453048 0.186738 0.090323
O O11 0.740886 0.319993 0.083390
O O12 0.329032 0.043894 0.408000
O O13 0.491508 0.815910 0.225027
O O14 0.500000 0.500000 0.500000
O O15 0.206955 0.085086 0.342724
O O16 0.812149 0.422662 0.278113
O O17 0.707335 0.395880 0.451081
#
# Coordination Sequence:
#
# PCOD9089725 Si02
#       8
#     2   2   2   2   2   2   2   2
#     4  10  20  33  55  90 112 144 197 248 292 337
#     4  10  20  34  58  86 118 152 192 240 294 349
#     4  10  21  37  61  82 111 155 203 239 287 361
#     4  10  20  37  64  87 115 157 203 244 288 355
#     4  11  19  37  62  87 112 148 206 252 286 337
#     4  11  21  34  59  87 120 147 188 253 301 340
#     4  10  21  39  58  79 116 163 191 227 304 365
#     4  10  19  38  61  84 118 157 199 243 292 352
#
# _framework density 25.604275000000001
#
# number of rings (size 3 to 8) (size 9 to 14) (size 15 to 20)
#    0.000    1.750    2.500    4.875    0.000    5.500 
#    0.000    1.250    0.000    0.750    0.000    0.000 
#    0.000    0.000    0.000    0.000    0.000    0.000 
#
# Total GULP energy -89316.412462 kJ/mol
# GULP energy per Si atom -5582.275779 kJ/mol
# Density = 2.554600 g / cm^3
# Si number density = 25.604275 Si / 1000 Ang^3
#
#
#
# Elastic Constant Matrix: (Units=GPa)
#
#
# Indices 1 2 3 4 5 6 
#
# 1 163.1679 -4.9965 9.0500 19.3833 1.2421 -20.9551
# 2 -4.9965 8.3897 -2.9388 -0.3889 -7.9901 12.9463
# 3 9.0500 -2.9388 54.1778 -9.9865 13.3110 23.6050
# 4 19.3833 -0.3889 -9.9865 36.0845 -10.0539 12.0301
# 5 1.2421 -7.9901 13.3110 -10.0539 43.7058 17.8919
# 6 -20.9551 12.9463 23.6050 12.0301 17.8919 20.8651
#
#
#
# Elastic Compliance Matrix: (Units=1/GPa)
#
#
# Indices 1 2 3 4 5 6 
#
# 1 0.006152 0.011962 0.000152 -0.001114 0.003122 -0.003450
# 2 0.011962 0.034022 -0.022573 -0.031181 -0.013110 0.045659
# 3 0.000152 -0.022573 0.015743 -0.003018 -0.013617 0.009765
# 4 -0.001114 -0.031181 -0.003018 0.020097 -0.006537 0.015660
# 5 0.003122 -0.013110 -0.013617 -0.006537 0.016296 0.016470
# 6 -0.003450 0.045659 0.009765 0.015660 0.016470 -0.018068
#
#
# Mechanical properties :
#
#
# Convention : Reuss Voigt Hill
#
# Bulk Modulus (GPa) = 28.57267 25.32942 26.95105
# Shear Modulus (GPa) = 46.80458 35.10578 40.95518
#
# Velocity S-wave (km/s) = 4.28015 3.70684 4.00377
# Velocity P-wave (km/s) = 5.96739 5.31366 5.64999
#
# Compressibility (1/GPa) = 0.03499848
#
# Stress axis : x y z
#
# Youngs Moduli (GPa) = 162.54720 29.39246 63.52156
#
# Poissons Ratio (x) = -0.35158 -0.00965
# Poissons Ratio (y) = -1.94431 1.43385
# Poissons Ratio (z) = -0.02469 0.66347
#
# Static dielectric constant tensor:
#      x y z
#    x 2.049850 -0.060000 -0.065330 
#    y -0.060000 2.118480 -0.038780 
#    z -0.065330 -0.038780 2.085680 
# 
# From -- ./inp_files/515741.got.cif
#   From: 2010.05.17/outbox.cif.g08.bks.cpg/sg2_258_cif.got.tgz:515741.got - 2010.06.03 11:33:40.
