data_PCOD9089060
_publ_section_title
;
Structure prediction by ZEFSAII (Michael W. Deem and Ramdas Pophale) SiO2 
 PCOD9089060
Probable space group: P -1
;
_chemical_formula_sum "Si O2"
_cell_formula_units_Z 16
_cell_length_a 13.246221
_cell_length_b 11.069234
_cell_length_c 5.552808
_cell_angle_alpha 67.134045
_cell_angle_beta 98.947267
_cell_angle_gamma 110.963206
_cell_volume 700.417460
_symmetry_space_group_name_H-M "P -1"
_symmetry_group_IT_number 2
_symmetry_cell_setting 'triclinic'
loop_
_space_group_symop_operation_xyz
x,y,z
-x,-y,-z
loop_
_atom_site_type_symbol
_atom_site_label
_atom_site_fract_x
_atom_site_fract_y
_atom_site_fract_z
Si Si1 0.180883 0.097651 0.472949
Si Si2 0.008434 0.880235 0.908026
Si Si3 0.388679 0.311227 0.562812
Si Si4 0.330339 0.942996 0.595221
Si Si5 0.447257 0.578566 0.097097
Si Si6 0.953885 0.416892 0.794175
Si Si7 0.278721 0.684266 0.041495
Si Si8 0.470596 0.844740 0.343494
O O1 0.105755 0.160673 0.242552
O O2 0.266738 0.212859 0.575385
O O3 0.258306 0.031566 0.404196
O O4 0.102782 0.971845 0.696126
O O5 0.029219 0.736101 0.097055
O O6 0.000000 0.000000 0.000000
O O7 0.397478 0.466713 0.380802
O O8 0.448422 0.305436 0.839740
O O9 0.468055 0.259913 0.454769
O O10 0.402959 0.903014 0.457243
O O11 0.418062 0.027774 0.764237
O O12 0.252939 0.802425 0.788959
O O13 0.340568 0.609311 0.946309
O O14 0.500000 0.500000 0.000000
O O15 0.826184 0.395378 0.787466
O O16 0.000000 0.500000 0.500000
O O17 0.000000 0.500000 0.000000
O O18 0.380201 0.760658 0.189905
#
# Coordination Sequence:
#
# PCOD9089060 Si02
#       8
#     2   2   2   2   2   2   2   2
#     4  10  23  42  70  97 144 180 261 308 394 433
#     4  11  27  47  75 106 142 201 262 332 380 462
#     4   9  20  39  59  95 135 186 234 304 364 466
#     4  10  19  37  65 100 137 179 235 299 388 453
#     4  10  21  38  61  96 143 188 247 291 381 471
#     4  12  32  55  80 115 158 209 272 330 399 468
#     4  11  23  39  67  95 143 195 241 312 379 455
#     4   9  20  35  63  98 135 178 230 300 378 463
#
# _framework density 22.843519000000001
#
# number of rings (size 3 to 8) (size 9 to 14) (size 15 to 20)
#    0.000    1.750    1.250    1.125    8.750    1.000 
#    0.000    0.000    0.000    0.000    0.000    0.000 
#    0.000    0.000    0.000    0.000    0.000    0.000 
#
# Total GULP energy -89070.482657 kJ/mol
# GULP energy per Si atom -5566.905166 kJ/mol
# Density = 2.279153 g / cm^3
# Si number density = 22.843519 Si / 1000 Ang^3
#
#
#
# Elastic Constant Matrix: (Units=GPa)
#
#
# Indices 1 2 3 4 5 6 
#
# 1 153.1404 48.3657 35.1591 -0.2697 9.6162 -0.2024
# 2 48.3657 87.1207 25.6832 -3.2671 7.5334 -2.6523
# 3 35.1591 25.6832 53.5500 -10.2213 1.5446 1.6298
# 4 -0.2697 -3.2671 -10.2213 34.5252 -1.8205 1.8555
# 5 9.6162 7.5334 1.5446 -1.8205 30.8360 -0.8523
# 6 -0.2024 -2.6523 1.6298 1.8555 -0.8523 39.7198
#
#
#
# Elastic Compliance Matrix: (Units=1/GPa)
#
#
# Indices 1 2 3 4 5 6 
#
# 1 0.008729 -0.003480 -0.004325 -0.001635 -0.001751 0.000028
# 2 -0.003480 0.015105 -0.004976 -0.000257 -0.002339 0.001157
# 3 -0.004325 -0.004976 0.025269 0.007155 0.001674 -0.001690
# 4 -0.001635 -0.000257 0.007155 0.031245 0.002011 -0.001736
# 5 -0.001751 -0.002339 0.001674 0.002011 0.033593 0.000393
# 6 0.000028 0.001157 -0.001690 -0.001736 0.000393 0.025413
#
#
# Mechanical properties :
#
#
# Convention : Reuss Voigt Hill
#
# Bulk Modulus (GPa) = 42.47873 56.91410 49.69642
# Shear Modulus (GPa) = 28.94134 33.32308 31.13221
#
# Velocity S-wave (km/s) = 3.56327 3.82351 3.69568
# Velocity P-wave (km/s) = 5.96365 6.66792 6.32559
#
# Compressibility (1/GPa) = 0.02354119
#
# Stress axis : x y z
#
# Youngs Moduli (GPa) = 114.55985 66.20211 39.57392
#
# Poissons Ratio (x) = 0.23039 0.17114
# Poissons Ratio (y) = 0.39869 0.19694
# Poissons Ratio (z) = 0.49542 0.32945
#
# Static dielectric constant tensor:
#      x y z
#    x 1.903100 -0.147360 -0.041390 
#    y -0.147360 2.100790 0.039910 
#    z -0.041390 0.039910 1.976610 
# 
# From -- ./inp_files/69265.got.cif
#   From: 2010.05.17/outbox.cif.g08.bks.cpg/sg2_35_cif.got.tgz:69265.got - 2010.06.03 11:33:40.
