data_PCOD9089871
_publ_section_title
;
Structure prediction by ZEFSAII (Michael W. Deem and Ramdas Pophale) SiO2 
 PCOD9089871
Probable space group: P -1
;
_chemical_formula_sum "Si O2"
_cell_formula_units_Z 13
_cell_length_a 11.705814
_cell_length_b 16.909819
_cell_length_c 7.975833
_cell_angle_alpha 69.356567
_cell_angle_beta 110.579725
_cell_angle_gamma 160.913146
_cell_volume 482.240744
_symmetry_space_group_name_H-M "P -1"
_symmetry_group_IT_number 2
_symmetry_cell_setting 'triclinic'
loop_
_space_group_symop_operation_xyz
x,y,z
-x,-y,-z
loop_
_atom_site_type_symbol
_atom_site_label
_atom_site_fract_x
_atom_site_fract_y
_atom_site_fract_z
Si Si1 0.289355 0.100206 0.002082
Si Si2 0.821554 0.099409 0.474117
Si Si3 0.500000 0.500000 0.000000
Si Si4 0.326179 0.308759 0.775007
Si Si5 0.197951 0.483362 0.791734
Si Si6 0.641666 0.221322 0.842604
Si Si7 0.106939 0.667715 0.608950
O O1 0.314940 0.200983 0.823790
O O2 0.452366 0.124636 0.985444
O O3 0.484159 0.259617 0.149307
O O4 0.887671 0.819944 0.054096
O O5 0.958016 0.282914 0.381418
O O6 0.114777 0.225175 0.595216
O O7 0.621247 0.940353 0.326001
O O8 0.516071 0.916063 0.594796
O O9 0.657861 0.566751 0.836792
O O10 0.321707 0.469625 0.838411
O O11 0.862248 0.278952 0.892863
O O12 0.080600 0.448927 0.582453
O O13 0.931172 0.482014 0.766701
#
# Coordination Sequence:
#
# PCOD9089871 Si02
#       7
#     2   2   1   2   2   2   2
#     4  10  22  37  61  86 119 160 196 245 304 351
#     4  10  20  37  61  89 117 161 197 242 294 356
#     4  10  20  36  62  84 112 152 206 244 282 352
#     4  10  20  40  59  83 114 161 206 239 292 367
#     4  10  19  38  62  87 116 160 198 239 290 354
#     4  11  22  38  59  95 125 151 193 254 302 346
#     4  10  20  37  63  90 120 156 200 239 295 362
#
# _framework density 26.957488000000001
#
# number of rings (size 3 to 8) (size 9 to 14) (size 15 to 20)
#    0.000    1.846    1.538    4.154    0.000    0.615 
#    5.538    1.538    0.000    0.000    0.000    0.000 
#    0.000    0.000    0.000    0.000    0.000    0.000 
#
# Total GULP energy -72686.428965 kJ/mol
# GULP energy per Si atom -5591.263767 kJ/mol
# Density = 2.689613 g / cm^3
# Si number density = 26.957488 Si / 1000 Ang^3
#
#
#
# Elastic Constant Matrix: (Units=GPa)
#
#
# Indices 1 2 3 4 5 6 
#
# 1 139.0533 14.4731 21.1927 -7.0063 15.4195 -11.1456
# 2 14.4731 92.6552 26.5695 1.5227 3.1729 -2.0952
# 3 21.1927 26.5695 71.1929 25.6468 12.3883 3.9827
# 4 -7.0063 1.5227 25.6468 46.9507 6.8888 -5.6139
# 5 15.4195 3.1729 12.3883 6.8888 50.7514 2.2401
# 6 -11.1456 -2.0952 3.9827 -5.6139 2.2401 41.4767
#
#
#
# Elastic Compliance Matrix: (Units=1/GPa)
#
#
# Indices 1 2 3 4 5 6 
#
# 1 0.008503 -0.000181 -0.003689 0.004032 -0.002365 0.003303
# 2 -0.000181 0.012447 -0.005743 0.002853 0.000225 0.001506
# 3 -0.003689 -0.005743 0.022625 -0.013034 -0.002048 -0.005108
# 4 0.004032 0.002853 -0.013034 0.030110 -0.002605 0.006695
# 5 -0.002365 0.000225 -0.002048 -0.002605 0.021347 -0.001933
# 6 0.003303 0.001506 -0.005108 0.006695 -0.001933 0.026575
#
#
# Mechanical properties :
#
#
# Convention : Reuss Voigt Hill
#
# Bulk Modulus (GPa) = 41.06928 47.48577 44.27753
# Shear Modulus (GPa) = 33.56834 43.88015 38.72425
#
# Velocity S-wave (km/s) = 3.53261 4.03892 3.79422
# Velocity P-wave (km/s) = 5.64863 6.27724 5.97122
#
# Compressibility (1/GPa) = 0.02434910
#
# Stress axis : x y z
#
# Youngs Moduli (GPa) = 117.60902 80.33948 44.19833
#
# Poissons Ratio (x) = 0.01452 0.16307
# Poissons Ratio (y) = 0.02126 0.25382
# Poissons Ratio (z) = 0.43392 0.46137
#
# Static dielectric constant tensor:
#      x y z
#    x 2.203310 -0.165450 -0.101140 
#    y -0.165450 2.527050 0.036820 
#    z -0.101140 0.036820 2.169080 
# 
# From -- ./inp_files/155302.got.cif
#   From: 2010.05.17/outbox.cif.g08.bks.cpg/sg2_78_cif.got.tgz:155302.got - 2010.06.03 11:33:40.
