data_PCOD9089527
_publ_section_title
;
Structure prediction by ZEFSAII (Michael W. Deem and Ramdas Pophale) SiO2 
 PCOD9089527
Probable space group: P -1
;
_chemical_formula_sum "Si O2"
_cell_formula_units_Z 14
_cell_length_a 14.673517
_cell_length_b 7.895971
_cell_length_c 10.686748
_cell_angle_alpha 132.705109
_cell_angle_beta 67.451900
_cell_angle_gamma 74.028896
_cell_volume 516.698802
_symmetry_space_group_name_H-M "P -1"
_symmetry_group_IT_number 2
_symmetry_cell_setting 'triclinic'
loop_
_space_group_symop_operation_xyz
x,y,z
-x,-y,-z
loop_
_atom_site_type_symbol
_atom_site_label
_atom_site_fract_x
_atom_site_fract_y
_atom_site_fract_z
Si Si1 0.490320 0.654476 0.452472
Si Si2 0.438584 0.385766 0.075951
Si Si3 0.203637 0.667208 0.815125
Si Si4 0.128098 0.965051 0.423634
Si Si5 0.771177 0.864440 0.362360
Si Si6 0.199442 0.088312 0.194593
Si Si7 0.737703 0.562388 0.590298
O O1 0.500000 0.500000 0.500000
O O2 0.603151 0.667032 0.423771
O O3 0.313491 0.001005 0.661555
O O4 0.608516 0.298679 0.117185
O O5 0.308076 0.525359 0.116378
O O6 0.386177 0.752971 0.282148
O O7 0.354317 0.449508 0.282818
O O8 0.608416 0.953067 0.777272
O O9 0.139651 0.020552 0.086944
O O10 0.168108 0.728026 0.717259
O O11 0.161205 0.505903 0.820678
O O12 0.108617 0.160647 0.657718
O O13 0.137157 0.112759 0.372243
O O14 0.000000 0.000000 0.500000
O O15 0.175723 0.405122 0.354949
#
# Coordination Sequence:
#
# PCOD9089527 Si02
#       7
#     2   2   2   2   2   2   2
#     4  10  21  34  53  94 124 145 188 237 308 372
#     4   9  21  31  63  86 118 156 196 236 314 345
#     4  10  22  32  61  89 127 151 187 244 314 366
#     4  10  22  42  61  81 118 165 213 243 276 346
#     4  10  19  38  58  86 122 160 191 252 298 348
#     4  10  22  36  58  88 118 156 200 236 305 351
#     4  11  18  37  57  92 124 150 180 257 307 371
#
# _framework density 27.095088000000001
#
# number of rings (size 3 to 8) (size 9 to 14) (size 15 to 20)
#    1.714    0.286    2.857    1.286    4.000    1.714 
#    0.000    1.429    0.000    3.429    0.000    0.000 
#    0.000    0.000    0.000    0.000    0.000    0.000 
#
# Total GULP energy -78059.003506 kJ/mol
# GULP energy per Si atom -5575.643108 kJ/mol
# Density = 2.703342 g / cm^3
# Si number density = 27.095088 Si / 1000 Ang^3
#
#
#
# Elastic Constant Matrix: (Units=GPa)
#
#
# Indices 1 2 3 4 5 6 
#
# 1 182.6370 50.1308 43.7669 7.5711 23.7644 13.5179
# 2 50.1308 101.3171 22.2757 -1.8229 -5.5452 -1.9043
# 3 43.7669 22.2757 57.2754 1.6895 3.8023 -4.8584
# 4 7.5711 -1.8229 1.6895 31.3331 -8.7501 -4.5008
# 5 23.7644 -5.5452 3.8023 -8.7501 53.7142 -0.8531
# 6 13.5179 -1.9043 -4.8584 -4.5008 -0.8531 40.5567
#
#
#
# Elastic Compliance Matrix: (Units=1/GPa)
#
#
# Indices 1 2 3 4 5 6 
#
# 1 0.008806 -0.003602 -0.005268 -0.003953 -0.004607 -0.004271
# 2 -0.003602 0.012430 -0.002242 0.002982 0.003552 0.001921
# 3 -0.005268 -0.002242 0.022668 0.000754 0.000688 0.004464
# 4 -0.003953 0.002982 0.000754 0.036049 0.007967 0.005716
# 5 -0.004607 0.003552 0.000688 0.007967 0.022321 0.003138
# 6 -0.004271 0.001921 0.004464 0.005716 0.003138 0.027406
#
#
# Mechanical properties :
#
#
# Convention : Reuss Voigt Hill
#
# Bulk Modulus (GPa) = 46.12885 63.73069 54.92977
# Shear Modulus (GPa) = 31.42088 40.12455 35.77271
#
# Velocity S-wave (km/s) = 3.40906 3.85239 3.63749
# Velocity P-wave (km/s) = 5.70591 6.58484 6.16107
#
# Compressibility (1/GPa) = 0.02167841
#
# Stress axis : x y z
#
# Youngs Moduli (GPa) = 113.55958 80.45312 44.11567
#
# Poissons Ratio (x) = 0.28983 0.23239
# Poissons Ratio (y) = 0.40909 0.09891
# Poissons Ratio (z) = 0.59821 0.18039
#
# Static dielectric constant tensor:
#      x y z
#    x 2.337690 0.015920 0.009140 
#    y 0.015920 2.225650 -0.019370 
#    z 0.009140 -0.019370 2.167960 
# 
# From -- ./inp_files/445183.got.cif
#   From: 2010.05.17/outbox.cif.g08.bks.cpg/sg2_223_cif.got.tgz:445183.got - 2010.06.03 11:33:40.
