data_PCOD9089995
_publ_section_title
;
Structure prediction by ZEFSAII (Michael W. Deem and Ramdas Pophale) SiO2 
 PCOD9089995
Probable space group: P -1
;
_chemical_formula_sum "Si O2"
_cell_formula_units_Z 16
_cell_length_a 12.744571
_cell_length_b 7.430609
_cell_length_c 11.628952
_cell_angle_alpha 79.767330
_cell_angle_beta 59.706808
_cell_angle_gamma 47.943640
_cell_volume 683.611114
_symmetry_space_group_name_H-M "P -1"
_symmetry_group_IT_number 2
_symmetry_cell_setting 'triclinic'
loop_
_space_group_symop_operation_xyz
x,y,z
-x,-y,-z
loop_
_atom_site_type_symbol
_atom_site_label
_atom_site_fract_x
_atom_site_fract_y
_atom_site_fract_z
Si Si1 0.632784 0.718468 0.501766
Si Si2 0.834588 0.385904 0.604835
Si Si3 0.299061 0.420629 0.107998
Si Si4 0.004681 0.209830 0.939650
Si Si5 0.549336 0.105294 0.820019
Si Si6 0.254586 0.445271 0.789670
Si Si7 0.325438 0.796656 0.689744
Si Si8 0.203447 0.941302 0.478766
O O1 0.743542 0.644551 0.559489
O O2 0.745041 0.581202 0.343013
O O3 0.512128 0.675412 0.608731
O O4 0.500000 0.000000 0.500000
O O5 0.734660 0.441523 0.769584
O O6 0.832218 0.225638 0.530912
O O7 0.024961 0.223481 0.548454
O O8 0.129872 0.612609 0.106143
O O9 0.347076 0.165203 0.148720
O O10 0.451428 0.314963 0.951494
O O11 0.925784 0.390491 0.072974
O O12 0.191230 0.049328 0.809719
O O13 0.000000 0.000000 0.000000
O O14 0.397741 0.192333 0.810513
O O15 0.671158 0.097115 0.675510
O O16 0.309552 0.601821 0.755760
O O17 0.275561 0.863125 0.575997
#
# Coordination Sequence:
#
# PCOD9089995 Si02
#       8
#     2   2   2   2   2   2   2   2
#     4  12  24  37  58  91 123 154 194 246 296 343
#     4  11  24  38  57  91 127 148 189 260 293 333
#     4  10  21  39  58  87 126 148 196 246 294 349
#     4   9  20  36  65  89 109 155 203 242 283 350
#     4  10  21  37  61  87 114 165 195 235 294 357
#     4  10  19  38  63  86 115 156 202 238 286 352
#     4  11  20  40  63  87 113 158 210 233 283 366
#     4  11  22  38  62  88 117 157 200 242 294 347
#
# _framework density 23.405118000000002
#
# number of rings (size 3 to 8) (size 9 to 14) (size 15 to 20)
#    0.000    1.500    3.750    1.875    0.000    2.000 
#    0.000    1.875    0.000    0.000    0.000    0.000 
#    0.000    0.000    0.000    0.000    0.000    0.000 
#
# Total GULP energy -89437.206491 kJ/mol
# GULP energy per Si atom -5589.825406 kJ/mol
# Density = 2.335185 g / cm^3
# Si number density = 23.405118 Si / 1000 Ang^3
#
#
#
# Elastic Constant Matrix: (Units=GPa)
#
#
# Indices 1 2 3 4 5 6 
#
# 1 41.8438 21.0489 26.0130 1.9127 -5.8784 -11.4190
# 2 21.0489 124.0217 40.4441 -3.5953 -7.2682 -37.0733
# 3 26.0130 40.4441 183.8807 7.0556 10.6338 -13.9746
# 4 1.9127 -3.5953 7.0556 34.4281 -0.5531 -1.5020
# 5 -5.8784 -7.2682 10.6338 -0.5531 29.3479 -6.0889
# 6 -11.4190 -37.0733 -13.9746 -1.5020 -6.0889 31.7226
#
#
#
# Elastic Compliance Matrix: (Units=1/GPa)
#
#
# Indices 1 2 3 4 5 6 
#
# 1 0.030924 0.000045 -0.004098 -0.000220 0.010029 0.011294
# 2 0.000045 0.014825 -0.002498 0.002977 0.008374 0.017989
# 3 -0.004098 -0.002498 0.006703 -0.001580 -0.004387 -0.002359
# 4 -0.000220 0.002977 -0.001580 0.029941 0.002797 0.004658
# 5 0.010029 0.008374 -0.004387 0.002797 0.043956 0.020033
# 6 0.011294 0.017989 -0.002359 0.004658 0.020033 0.059638
#
#
# Mechanical properties :
#
#
# Convention : Reuss Voigt Hill
#
# Bulk Modulus (GPa) = 25.41333 58.30646 41.85989
# Shear Modulus (GPa) = 23.56211 36.58240 30.07226
#
# Velocity S-wave (km/s) = 3.17631 3.95778 3.58838
# Velocity P-wave (km/s) = 4.93290 6.77136 5.92388
#
# Compressibility (1/GPa) = 0.03934943
#
# Stress axis : x y z
#
# Youngs Moduli (GPa) = 32.33713 67.45539 149.19532
#
# Poissons Ratio (x) = -0.00306 0.61140
# Poissons Ratio (y) = -0.00147 0.37275
# Poissons Ratio (z) = 0.13252 0.16853
#
# Static dielectric constant tensor:
#      x y z
#    x 1.860830 0.079030 0.015920 
#    y 0.079030 1.978460 0.033980 
#    z 0.015920 0.033980 1.879200 
# 
# From -- ./inp_files/207718.got.cif
#   From: 2010.05.17/outbox.cif.g08.bks.cpg/sg2_104_cif.got.tgz:207718.got - 2010.06.03 11:33:40.
