data_PCOD9089398
_publ_section_title
;
Structure prediction by ZEFSAII (Michael W. Deem and Ramdas Pophale) SiO2 
 PCOD9089398
Probable space group: P -1
;
_chemical_formula_sum "Si O2"
_cell_formula_units_Z 16
_cell_length_a 6.174794
_cell_length_b 24.197186
_cell_length_c 5.627127
_cell_angle_alpha 76.783125
_cell_angle_beta 75.041860
_cell_angle_gamma 51.150405
_cell_volume 630.102688
_symmetry_space_group_name_H-M "P -1"
_symmetry_group_IT_number 2
_symmetry_cell_setting 'triclinic'
loop_
_space_group_symop_operation_xyz
x,y,z
-x,-y,-z
loop_
_atom_site_type_symbol
_atom_site_label
_atom_site_fract_x
_atom_site_fract_y
_atom_site_fract_z
Si Si1 0.271140 0.592296 0.223105
Si Si2 0.612677 0.752745 0.878731
Si Si3 0.252085 0.986552 0.122015
Si Si4 0.456674 0.432560 0.324001
Si Si5 0.245528 0.170983 0.895607
Si Si6 0.199551 0.770543 0.364629
Si Si7 0.261476 0.348473 0.434927
Si Si8 0.919579 0.125385 0.340424
O O1 0.361857 0.512252 0.272012
O O2 0.411463 0.596872 0.419692
O O3 0.939118 0.643562 0.311318
O O4 0.361936 0.602994 0.934185
O O5 0.795330 0.680750 0.749085
O O6 0.400754 0.821980 0.705691
O O7 0.754300 0.777387 0.976530
O O8 0.405004 0.748548 0.108562
O O9 0.452283 0.901497 0.183790
O O10 0.074821 0.043079 0.327222
O O11 0.500000 0.000000 0.000000
O O12 0.000000 0.000000 0.000000
O O13 0.215070 0.422573 0.361037
O O14 0.074043 0.217434 0.668242
O O15 0.083132 0.145888 0.107157
O O16 0.405001 0.711133 0.555280
O O17 0.082788 0.848080 0.422630
#
# Coordination Sequence:
#
# PCOD9089398 Si02
#       8
#     2   2   2   2   2   2   2   2
#     4  10  24  45  75 109 143 189 240 302 369 433
#     4  10  22  40  59  92 132 178 226 288 354 438
#     4  10  19  37  70  94 128 183 242 303 377 450
#     4  10  24  46  73 109 147 183 243 306 361 437
#     4  10  21  40  65  87 134 176 230 299 364 431
#     4  10  24  40  58  95 134 175 234 292 353 445
#     4  11  25  43  69  98 141 190 238 289 369 440
#     4   9  20  40  60  89 126 173 229 290 367 420
#
# _framework density 25.392686000000001
#
# number of rings (size 3 to 8) (size 9 to 14) (size 15 to 20)
#    0.000    2.000    1.250    0.375    3.500    6.500 
#    0.000    4.375    0.000    0.000    0.000    0.000 
#    0.000    0.000    0.000    0.000    0.000    0.000 
#
# Total GULP energy -89340.708446 kJ/mol
# GULP energy per Si atom -5583.794278 kJ/mol
# Density = 2.533489 g / cm^3
# Si number density = 25.392686 Si / 1000 Ang^3
#
#
#
# Elastic Constant Matrix: (Units=GPa)
#
#
# Indices 1 2 3 4 5 6 
#
# 1 107.9031 35.5721 39.1383 4.2369 21.2280 5.0019
# 2 35.5721 65.5103 43.2241 17.8538 11.6593 20.2348
# 3 39.1383 43.2241 119.8611 31.8222 5.6674 4.3665
# 4 4.2369 17.8538 31.8222 48.8366 5.7316 3.9112
# 5 21.2280 11.6593 5.6674 5.7316 50.3340 2.0337
# 6 5.0019 20.2348 4.3665 3.9112 2.0337 43.2111
#
#
#
# Elastic Compliance Matrix: (Units=1/GPa)
#
#
# Indices 1 2 3 4 5 6 
#
# 1 0.012784 -0.005593 -0.002852 0.003179 -0.004191 0.001337
# 2 -0.005593 0.027587 -0.006489 -0.004203 -0.002373 -0.011123
# 3 -0.002852 -0.006489 0.013120 -0.006349 0.001849 0.002530
# 4 0.003179 -0.004203 -0.006349 0.026184 -0.002634 -0.000004
# 5 -0.004191 -0.002373 0.001849 -0.002634 0.022252 0.000600
# 6 0.001337 -0.011123 0.002530 -0.000004 0.000600 0.027913
#
#
# Mechanical properties :
#
#
# Convention : Reuss Voigt Hill
#
# Bulk Modulus (GPa) = 42.33197 58.79372 50.56284
# Shear Modulus (GPa) = 29.83656 40.16567 35.00111
#
# Velocity S-wave (km/s) = 3.43155 3.98148 3.71670
# Velocity P-wave (km/s) = 5.69279 6.65885 6.19468
#
# Compressibility (1/GPa) = 0.02362281
#
# Stress axis : x y z
#
# Youngs Moduli (GPa) = 78.22584 36.24956 76.21884
#
# Poissons Ratio (x) = 0.20276 0.21734
# Poissons Ratio (y) = 0.43755 0.49456
# Poissons Ratio (z) = 0.22307 0.23521
#
# Static dielectric constant tensor:
#      x y z
#    x 2.116080 0.004820 -0.006970 
#    y 0.004820 1.973740 -0.032200 
#    z -0.006970 -0.032200 1.997260 
# 
# From -- ./inp_files/10681.got.cif
#   From: 2010.05.17/outbox.cif.g08.bks.cpg/sg2_6_cif.got.tgz:10681.got - 2010.06.03 11:33:40.
