data_PCOD9089226
_publ_section_title
;
Structure prediction by ZEFSAII (Michael W. Deem and Ramdas Pophale) SiO2 
 PCOD9089226
Probable space group: P -1
;
_chemical_formula_sum "Si O2"
_cell_formula_units_Z 16
_cell_length_a 13.883216
_cell_length_b 22.228374
_cell_length_c 13.122739
_cell_angle_alpha 155.307929
_cell_angle_beta 31.099075
_cell_angle_gamma 152.774874
_cell_volume 748.750735
_symmetry_space_group_name_H-M "P -1"
_symmetry_group_IT_number 2
_symmetry_cell_setting 'triclinic'
loop_
_space_group_symop_operation_xyz
x,y,z
-x,-y,-z
loop_
_atom_site_type_symbol
_atom_site_label
_atom_site_fract_x
_atom_site_fract_y
_atom_site_fract_z
Si Si1 0.219598 0.518394 0.873285
Si Si2 0.322018 0.520026 0.011579
Si Si3 0.706374 0.722883 0.687405
Si Si4 0.858738 0.344216 0.464197
Si Si5 0.153676 0.972251 0.078586
Si Si6 0.507182 0.833288 0.756372
Si Si7 0.162067 0.159331 0.667843
Si Si8 0.750625 0.546929 0.576200
O O1 0.449162 0.658125 0.829522
O O2 0.229798 0.351969 0.581962
O O3 0.238291 0.549094 0.024520
O O4 0.000000 0.500000 0.000000
O O5 0.317220 0.630903 0.278329
O O6 0.164095 0.326016 0.888537
O O7 0.556676 0.545507 0.813547
O O8 0.834439 0.922773 0.869384
O O9 0.757242 0.638558 0.606468
O O10 0.000000 0.500000 0.500000
O O11 0.027012 0.357242 0.417610
O O12 0.780616 0.166881 0.210039
O O13 0.323995 0.110318 0.216151
O O14 0.921047 0.883531 0.208301
O O15 0.604542 0.807673 0.524064
O O16 0.311634 0.647702 0.676905
O O17 0.500000 0.000000 0.000000
O O18 0.000000 0.000000 0.500000
#
# Coordination Sequence:
#
# PCOD9089226 Si02
#       8
#     2   2   2   2   2   2   2   2
#     4  10  19  37  66  94 119 163 208 255 311 367
#     4  10  21  39  60  87 125 160 207 256 305 372
#     4  10  21  41  60  89 130 159 207 259 307 374
#     4  12  24  41  64  89 125 167 210 250 310 382
#     4  11  22  40  58  90 125 163 203 258 309 365
#     4  10  20  37  62  92 121 152 208 269 312 356
#     4   9  18  35  57  84 119 158 193 256 314 348
#     4  10  23  42  65  88 122 169 201 257 320 360
#
# _framework density 21.368928
#
# number of rings (size 3 to 8) (size 9 to 14) (size 15 to 20)
#    0.000    1.750    1.250    5.250    1.750    1.000 
#    6.750    2.500    0.000    0.000    0.000    0.000 
#    0.000    0.000    0.000    0.000    0.000    0.000 
#
# Total GULP energy -89301.354746 kJ/mol
# GULP energy per Si atom -5581.334672 kJ/mol
# Density = 2.132029 g / cm^3
# Si number density = 21.368928 Si / 1000 Ang^3
#
#
#
# Elastic Constant Matrix: (Units=GPa)
#
#
# Indices 1 2 3 4 5 6 
#
# 1 47.7251 22.7967 23.0580 -5.1620 -8.6845 -9.9128
# 2 22.7967 59.4743 40.0725 11.8621 -7.2643 -24.1090
# 3 23.0580 40.0725 126.7353 4.3688 3.6234 -27.5872
# 4 -5.1620 11.8621 4.3688 28.1718 -3.6892 -4.8063
# 5 -8.6845 -7.2643 3.6234 -3.6892 33.3980 2.3299
# 6 -9.9128 -24.1090 -27.5872 -4.8063 2.3299 32.2978
#
#
#
# Elastic Compliance Matrix: (Units=1/GPa)
#
#
# Indices 1 2 3 4 5 6 
#
# 1 0.030066 -0.011367 -0.002511 0.011559 0.006907 -0.000181
# 2 -0.011367 0.033385 -0.004793 -0.012473 0.002380 0.015310
# 3 -0.002511 -0.004793 0.011128 0.000336 -0.003245 0.005441
# 4 0.011559 -0.012473 0.000336 0.043583 0.005025 0.000647
# 5 0.006907 0.002380 -0.003245 0.005025 0.033199 -0.000523
# 6 -0.000181 0.015310 0.005441 0.000647 -0.000523 0.047116
#
#
# Mechanical properties :
#
#
# Convention : Reuss Voigt Hill
#
# Bulk Modulus (GPa) = 26.85571 45.08768 35.97170
# Shear Modulus (GPa) = 20.14232 28.64069 24.39150
#
# Velocity S-wave (km/s) = 3.07351 3.66498 3.38220
# Velocity P-wave (km/s) = 5.01898 6.24939 5.66767
#
# Compressibility (1/GPa) = 0.03723603
#
# Stress axis : x y z
#
# Youngs Moduli (GPa) = 33.26014 29.95319 89.85945
#
# Poissons Ratio (x) = 0.34049 0.22565
# Poissons Ratio (y) = 0.37808 0.43074
# Poissons Ratio (z) = 0.08352 0.14358
#
# Static dielectric constant tensor:
#      x y z
#    x 1.823970 -0.013410 0.002140 
#    y -0.013410 1.815080 -0.007120 
#    z 0.002140 -0.007120 1.800300 
# 
# From -- ./inp_files/535433.got.cif
#   From: 2010.05.17/outbox.cif.g08.bks.cpg/sg2_268_cif.got.tgz:535433.got - 2010.06.03 11:33:40.
