data_PCOD9089541
_publ_section_title
;
Structure prediction by ZEFSAII (Michael W. Deem and Ramdas Pophale) SiO2 
 PCOD9089541
Probable space group: P -1
;
_chemical_formula_sum "Si O2"
_cell_formula_units_Z 16
_cell_length_a 6.606117
_cell_length_b 15.688893
_cell_length_c 16.645061
_cell_angle_alpha 143.825841
_cell_angle_beta 127.569046
_cell_angle_gamma 67.900426
_cell_volume 781.897050
_symmetry_space_group_name_H-M "P -1"
_symmetry_group_IT_number 2
_symmetry_cell_setting 'triclinic'
loop_
_space_group_symop_operation_xyz
x,y,z
-x,-y,-z
loop_
_atom_site_type_symbol
_atom_site_label
_atom_site_fract_x
_atom_site_fract_y
_atom_site_fract_z
Si Si1 0.916348 0.665850 0.784574
Si Si2 0.003055 0.763124 0.703059
Si Si3 0.683285 0.962684 0.392859
Si Si4 0.788909 0.008477 0.886141
Si Si5 0.532852 0.736282 0.871560
Si Si6 0.650245 0.833522 0.454871
Si Si7 0.747724 0.972245 0.232325
Si Si8 0.195906 0.440704 0.648789
O O1 0.676400 0.686995 0.793941
O O2 0.870917 0.677582 0.686757
O O3 0.997246 0.513354 0.706328
O O4 0.145377 0.813984 0.975959
O O5 0.308213 0.810938 0.838893
O O6 0.875187 0.901340 0.760776
O O7 0.956960 0.654823 0.534544
O O8 0.584956 0.849586 0.356895
O O9 0.640990 0.919157 0.256086
O O10 0.550337 0.097821 0.487994
O O11 0.000000 0.000000 0.500000
O O12 0.482786 0.946799 0.786885
O O13 0.000000 0.000000 0.000000
O O14 0.389827 0.587247 0.770440
O O15 0.720905 0.844643 0.062028
O O16 0.656793 0.666702 0.351876
O O17 0.953697 0.931093 0.614619
#
# Coordination Sequence:
#
# PCOD9089541 Si02
#       8
#     2   2   2   2   2   2   2   2
#     4  10  22  37  56  82 129 167 203 249 308 361
#     4  10  22  38  57  86 127 167 220 258 291 365
#     4   9  21  43  67  95 123 151 207 262 315 373
#     4  10  19  38  58  90 127 160 209 257 292 359
#     4  11  23  37  59  86 130 170 208 251 313 362
#     4  10  23  40  69  95 118 160 210 258 315 373
#     4  11  21  38  65  93 124 165 204 262 307 364
#     4  11  23  40  58  90 128 162 206 259 308 367
#
# _framework density 20.463052999999999
#
# number of rings (size 3 to 8) (size 9 to 14) (size 15 to 20)
#    0.000    1.750    3.750    2.250    3.500    7.500 
#    0.000    0.625    0.000    7.500    0.000    0.000 
#    0.000    0.000    0.000    0.000    0.000    0.000 
#
# Total GULP energy -89187.319927 kJ/mol
# GULP energy per Si atom -5574.207495 kJ/mol
# Density = 2.041648 g / cm^3
# Si number density = 20.463053 Si / 1000 Ang^3
#
#
#
# Elastic Constant Matrix: (Units=GPa)
#
#
# Indices 1 2 3 4 5 6 
#
# 1 115.3498 32.0628 16.8568 0.9186 -29.2868 -20.2484
# 2 32.0628 96.0574 23.5030 10.4286 -20.4095 -10.9861
# 3 16.8568 23.5030 67.7677 13.9896 -14.4535 -12.2039
# 4 0.9186 10.4286 13.9896 30.6949 -8.5116 -9.3780
# 5 -29.2868 -20.4095 -14.4535 -8.5116 33.2244 2.6387
# 6 -20.2484 -10.9861 -12.2039 -9.3780 2.6387 34.8594
#
#
#
# Elastic Compliance Matrix: (Units=1/GPa)
#
#
# Indices 1 2 3 4 5 6 
#
# 1 0.013468 -0.001735 -0.000040 0.005870 0.011660 0.007959
# 2 -0.001735 0.012949 -0.002463 -0.001429 0.004872 0.001458
# 3 -0.000040 -0.002463 0.018397 -0.004998 0.004863 0.003929
# 4 0.005870 -0.001429 -0.004998 0.042033 0.011968 0.011611
# 5 0.011660 0.004872 0.004863 0.011968 0.047787 0.009613
# 6 0.007959 0.001458 0.003929 0.011611 0.009613 0.037540
#
#
# Mechanical properties :
#
#
# Convention : Reuss Voigt Hill
#
# Bulk Modulus (GPa) = 27.51923 47.11334 37.31628
# Shear Modulus (GPa) = 25.93854 33.53923 29.73889
#
# Velocity S-wave (km/s) = 3.56417 4.05287 3.81635
# Velocity P-wave (km/s) = 5.51500 6.70631 6.13962
#
# Compressibility (1/GPa) = 0.03633823
#
# Stress axis : x y z
#
# Youngs Moduli (GPa) = 74.24828 77.22484 54.35768
#
# Poissons Ratio (x) = 0.13401 0.00217
# Poissons Ratio (y) = 0.12884 0.13388
# Poissons Ratio (z) = 0.00296 0.19019
#
# Static dielectric constant tensor:
#      x y z
#    x 1.822830 0.000510 -0.011050 
#    y 0.000510 1.814000 -0.003880 
#    z -0.011050 -0.003880 1.740460 
# 
# From -- ./inp_files/550476.got.cif
#   From: 2010.05.17/outbox.cif.g08.bks.cpg/sg2_276_cif.got.tgz:550476.got - 2010.06.03 11:33:40.
