data_PCOD9089415
_publ_section_title
;
Structure prediction by ZEFSAII (Michael W. Deem and Ramdas Pophale) SiO2 
 PCOD9089415
Probable space group: P -1
;
_chemical_formula_sum "Si O2"
_cell_formula_units_Z 16
_cell_length_a 7.246952
_cell_length_b 14.810508
_cell_length_c 7.309204
_cell_angle_alpha 63.678660
_cell_angle_beta 57.285620
_cell_angle_gamma 71.784249
_cell_volume 588.853153
_symmetry_space_group_name_H-M "P -1"
_symmetry_group_IT_number 2
_symmetry_cell_setting 'triclinic'
loop_
_space_group_symop_operation_xyz
x,y,z
-x,-y,-z
loop_
_atom_site_type_symbol
_atom_site_label
_atom_site_fract_x
_atom_site_fract_y
_atom_site_fract_z
Si Si1 0.483600 0.528510 0.700553
Si Si2 0.539037 0.902337 0.800603
Si Si3 0.047190 0.658480 0.933933
Si Si4 0.537954 0.685189 0.065273
Si Si5 0.155605 0.314040 0.597984
Si Si6 0.053580 0.027364 0.653086
Si Si7 0.753548 0.900086 0.088330
Si Si8 0.159922 0.758879 0.453994
O O1 0.234575 0.573485 0.841809
O O2 0.394737 0.712764 0.299738
O O3 0.531369 0.420965 0.874129
O O4 0.663829 0.606180 0.578688
O O5 0.708095 0.935838 0.529735
O O6 0.379156 0.001948 0.840984
O O7 0.660095 0.883777 0.950405
O O8 0.486981 0.787947 0.882960
O O9 0.128058 0.753827 0.692518
O O10 0.794465 0.659849 0.999781
O O11 0.014757 0.660373 0.166263
O O12 0.500000 0.500000 0.500000
O O13 0.254033 0.200961 0.702364
O O14 0.017203 0.304926 0.495215
O O15 0.888863 0.127125 0.692389
O O16 0.000000 0.000000 0.500000
O O17 0.997418 0.935162 0.891966
#
# Coordination Sequence:
#
# PCOD9089415 Si02
#       8
#     2   2   2   2   2   2   2   2
#     4  12  25  46  79 107 144 197 252 305 368 442
#     4  10  19  37  71  98 135 190 239 295 360 425
#     4  12  24  48  77 100 147 198 242 306 370 432
#     4  12  23  45  74 109 144 194 248 302 369 438
#     4  12  28  47  71 114 150 194 245 306 369 438
#     4  10  20  38  68 101 136 195 237 286 363 428
#     4  10  20  38  64  99 142 181 240 297 354 431
#     4  12  26  45  74 109 154 188 248 304 365 449
#
# _framework density 27.171461000000001
#
# number of rings (size 3 to 8) (size 9 to 14) (size 15 to 20)
#    0.000    0.750    6.250    1.125    0.000    3.000 
#    0.000    1.875    0.000    0.000    0.000    0.000 
#    0.000    0.000    0.000    0.000    0.000    0.000 
#
# Total GULP energy -89620.556700 kJ/mol
# GULP energy per Si atom -5601.284794 kJ/mol
# Density = 2.710962 g / cm^3
# Si number density = 27.171461 Si / 1000 Ang^3
#
#
#
# Elastic Constant Matrix: (Units=GPa)
#
#
# Indices 1 2 3 4 5 6 
#
# 1 99.6345 54.2887 46.7744 7.0520 -6.1408 0.4015
# 2 54.2887 207.8560 92.7992 -11.7074 -31.3758 -24.1903
# 3 46.7744 92.7992 149.1490 -15.4271 -24.3850 -10.3484
# 4 7.0520 -11.7074 -15.4271 64.2038 8.0302 -7.1318
# 5 -6.1408 -31.3758 -24.3850 8.0302 37.9289 13.5448
# 6 0.4015 -24.1903 -10.3484 -7.1318 13.5448 43.7959
#
#
#
# Elastic Compliance Matrix: (Units=1/GPa)
#
#
# Indices 1 2 3 4 5 6 
#
# 1 0.013056 -0.002585 -0.003035 -0.002868 -0.000442 -0.002595
# 2 -0.002585 0.007732 -0.003274 0.000889 0.002670 0.002839
# 3 -0.003035 -0.003274 0.010390 0.001850 0.003080 0.000023
# 4 -0.002868 0.000889 0.001850 0.017570 -0.004072 0.005075
# 5 -0.000442 0.002670 0.003080 -0.004072 0.034617 -0.009162
# 6 -0.002595 0.002839 0.000023 0.005075 -0.009162 0.028091
#
#
# Mechanical properties :
#
#
# Convention : Reuss Voigt Hill
#
# Bulk Modulus (GPa) = 74.68817 93.81824 84.25320
# Shear Modulus (GPa) = 37.39491 46.70421 42.04956
#
# Velocity S-wave (km/s) = 3.71382 4.15042 3.93818
# Velocity P-wave (km/s) = 6.77771 7.58757 7.19404
#
# Compressibility (1/GPa) = 0.01338900
#
# Stress axis : x y z
#
# Youngs Moduli (GPa) = 76.59084 129.33763 96.24360
#
# Poissons Ratio (x) = 0.33440 0.29209
# Poissons Ratio (y) = 0.19802 0.31513
# Poissons Ratio (z) = 0.23245 0.42349
#
# Static dielectric constant tensor:
#      x y z
#    x 2.162380 0.013170 -0.011240 
#    y 0.013170 2.138640 -0.041290 
#    z -0.011240 -0.041290 2.126910 
# 
# From -- ./inp_files/214687.got.cif
#   From: 2010.05.17/outbox.cif.g08.bks.cpg/sg2_108_cif.got.tgz:214687.got - 2010.06.03 11:33:40.
