data_PCOD9089451
_publ_section_title
;
Structure prediction by ZEFSAII (Michael W. Deem and Ramdas Pophale) SiO2 
 PCOD9089451
Probable space group: P -1
;
_chemical_formula_sum "Si O2"
_cell_formula_units_Z 16
_cell_length_a 9.030861
_cell_length_b 8.499188
_cell_length_c 21.433815
_cell_angle_alpha 60.804453
_cell_angle_beta 47.031689
_cell_angle_gamma 99.216071
_cell_volume 668.954362
_symmetry_space_group_name_H-M "P -1"
_symmetry_group_IT_number 2
_symmetry_cell_setting 'triclinic'
loop_
_space_group_symop_operation_xyz
x,y,z
-x,-y,-z
loop_
_atom_site_type_symbol
_atom_site_label
_atom_site_fract_x
_atom_site_fract_y
_atom_site_fract_z
Si Si1 0.585011 0.671722 0.773660
Si Si2 0.782444 0.253612 0.708963
Si Si3 0.855811 0.916039 0.782757
Si Si4 0.139017 0.728600 0.715000
Si Si5 0.129990 0.790938 0.566109
Si Si6 0.900754 0.891037 0.913986
Si Si7 0.738371 0.132503 0.963318
Si Si8 0.695300 0.176189 0.177795
O O1 0.623674 0.744044 0.822934
O O2 0.475340 0.772764 0.749211
O O3 0.909304 0.814408 0.627107
O O4 0.318628 0.336626 0.923107
O O5 0.017086 0.582348 0.584094
O O6 0.967287 0.198965 0.688406
O O7 0.593516 0.091472 0.731093
O O8 0.488149 0.079923 0.874384
O O9 0.738928 0.812105 0.907676
O O10 0.085518 0.903948 0.708048
O O11 0.053423 0.639963 0.683979
O O12 0.910990 0.436344 0.873504
O O13 0.498347 0.926842 0.587736
O O14 0.155784 0.908438 0.824828
O O15 0.983435 0.146478 0.866871
O O16 0.500000 0.000000 0.000000
O O17 0.000000 0.500000 0.000000
#
# Coordination Sequence:
#
# PCOD9089451 Si02
#       8
#     2   2   2   2   2   2   2   2
#     4   9  18  35  56  82 111 151 181 229 285 332
#     4  11  21  36  60  83 115 149 187 232 281 335
#     4  10  20  31  57  85 113 143 183 232 284 328
#     4  10  22  33  55  90 116 148 184 233 278 336
#     4  10  19  38  56  81 121 149 187 225 282 338
#     4  11  19  34  55  85 116 139 190 237 280 323
#     4  12  20  34  57  90 114 143 185 236 286 323
#     4   9  22  36  53  89 112 147 186 238 281 328
#
# _framework density 23.917926999999999
#
# number of rings (size 3 to 8) (size 9 to 14) (size 15 to 20)
#    0.000    1.750    3.750    1.125    5.250    1.000 
#    0.000    2.500    0.000    4.500    0.000    0.000 
#    0.000    0.000    0.000    0.000    0.000    0.000 
#
# Total GULP energy -89214.127488 kJ/mol
# GULP energy per Si atom -5575.882968 kJ/mol
# Density = 2.386349 g / cm^3
# Si number density = 23.917927 Si / 1000 Ang^3
#
#
#
# Elastic Constant Matrix: (Units=GPa)
#
#
# Indices 1 2 3 4 5 6 
#
# 1 111.4212 47.8860 24.7119 11.6929 -18.2588 -30.0024
# 2 47.8860 103.4712 23.2155 0.7688 -14.9511 -34.3030
# 3 24.7119 23.2155 52.2535 -3.2370 -23.2254 -15.8409
# 4 11.6929 0.7688 -3.2370 20.3097 0.3843 -7.1051
# 5 -18.2588 -14.9511 -23.2254 0.3843 32.2924 18.7460
# 6 -30.0024 -34.3030 -15.8409 -7.1051 18.7460 48.5929
#
#
#
# Elastic Compliance Matrix: (Units=1/GPa)
#
#
# Indices 1 2 3 4 5 6 
#
# 1 0.013231 -0.004310 -0.003249 -0.007213 0.001915 0.002274
# 2 -0.004310 0.014680 -0.002808 0.004485 -0.002620 0.008453
# 3 -0.003249 -0.002808 0.030673 0.006355 0.019096 -0.000426
# 4 -0.007213 0.004485 0.006355 0.058181 -0.004532 0.011040
# 5 0.001915 -0.002620 0.019096 -0.004532 0.053840 -0.015876
# 6 0.002274 0.008453 -0.000426 0.011040 -0.015876 0.035550
#
#
# Mechanical properties :
#
#
# Convention : Reuss Voigt Hill
#
# Bulk Modulus (GPa) = 26.41964 50.97475 38.69720
# Shear Modulus (GPa) = 20.87632 31.66116 26.26874
#
# Velocity S-wave (km/s) = 2.95758 3.64227 3.31764
# Velocity P-wave (km/s) = 4.76791 6.24875 5.55787
#
# Compressibility (1/GPa) = 0.03785062
#
# Stress axis : x y z
#
# Youngs Moduli (GPa) = 75.58072 68.12183 32.60145
#
# Poissons Ratio (x) = 0.29361 0.10591
# Poissons Ratio (y) = 0.32576 0.09154
# Poissons Ratio (z) = 0.24553 0.19128
#
# Static dielectric constant tensor:
#      x y z
#    x 1.960400 -0.004140 0.053810 
#    y -0.004140 1.972680 0.015430 
#    z 0.053810 0.015430 1.938640 
# 
# From -- ./inp_files/315893.got.cif
#   From: 2010.05.17/outbox.cif.g08.bks.cpg/sg2_158_cif.got.tgz:315893.got - 2010.06.03 11:33:40.
