data_PCOD9089977
_publ_section_title
;
Structure prediction by ZEFSAII (Michael W. Deem and Ramdas Pophale) SiO2 
 PCOD9089977
Probable space group: P -1
;
_chemical_formula_sum "Si O2"
_cell_formula_units_Z 16
_cell_length_a 10.865002
_cell_length_b 7.191388
_cell_length_c 15.401675
_cell_angle_alpha 115.060115
_cell_angle_beta 138.957188
_cell_angle_gamma 53.418828
_cell_volume 633.758750
_symmetry_space_group_name_H-M "P -1"
_symmetry_group_IT_number 2
_symmetry_cell_setting 'triclinic'
loop_
_space_group_symop_operation_xyz
x,y,z
-x,-y,-z
loop_
_atom_site_type_symbol
_atom_site_label
_atom_site_fract_x
_atom_site_fract_y
_atom_site_fract_z
Si Si1 0.588792 0.850947 0.394637
Si Si2 0.440375 0.692604 0.606191
Si Si3 0.337537 0.196736 0.107239
Si Si4 0.102114 0.740410 0.829913
Si Si5 0.910888 0.336014 0.002839
Si Si6 0.232361 0.790378 0.279771
Si Si7 0.382373 0.285965 0.806017
Si Si8 0.915133 0.461872 0.602230
O O1 0.409530 0.870132 0.369507
O O2 0.538247 0.762509 0.259521
O O3 0.810183 0.649590 0.506732
O O4 0.586188 0.093789 0.424175
O O5 0.488519 0.753935 0.740998
O O6 0.763857 0.347198 0.510534
O O7 0.843326 0.749980 0.905068
O O8 0.353810 0.554997 0.352029
O O9 0.451640 0.926646 0.090729
O O10 0.217060 0.383222 0.005538
O O11 0.129855 0.768594 0.952163
O O12 0.306230 0.544110 0.851801
O O13 0.945869 0.618803 0.724250
O O14 0.982121 0.983375 0.764283
O O15 0.826993 0.278903 0.858292
O O16 0.157660 0.278909 0.678740
#
# Coordination Sequence:
#
# PCOD9089977 Si02
#       8
#     2   2   2   2   2   2   2   2
#     4  10  19  38  63  84 113 154 198 232 276 348
#     4   9  19  36  61  87 107 149 198 233 276 341
#     4   9  19  37  62  87 110 148 203 235 276 352
#     4  10  21  35  56  84 122 151 185 239 293 333
#     4  10  20  39  62  83 113 155 194 240 286 335
#     4  10  21  39  61  83 112 153 195 238 288 336
#     4   9  20  36  57  85 119 151 185 239 290 336
#     4   9  21  37  57  86 121 153 183 236 293 336
#
# _framework density 25.246199000000001
#
# number of rings (size 3 to 8) (size 9 to 14) (size 15 to 20)
#    0.750    1.750    0.000    2.250    0.000    4.500 
#    0.000   11.875    0.000    0.000    0.000    0.000 
#    0.000    0.000    0.000    0.000    0.000    0.000 
#
# Total GULP energy -89433.883817 kJ/mol
# GULP energy per Si atom -5589.617739 kJ/mol
# Density = 2.518874 g / cm^3
# Si number density = 25.246199 Si / 1000 Ang^3
#
#
#
# Elastic Constant Matrix: (Units=GPa)
#
#
# Indices 1 2 3 4 5 6 
#
# 1 48.6277 39.5463 26.9274 -7.5843 2.6896 12.2171
# 2 39.5463 179.3031 23.0407 -50.9093 9.6258 3.0262
# 3 26.9274 23.0407 91.6642 -9.3766 17.3166 4.3390
# 4 -7.5843 -50.9093 -9.3766 62.4942 4.3693 5.6978
# 5 2.6896 9.6258 17.3166 4.3693 29.2450 -0.8519
# 6 12.2171 3.0262 4.3390 5.6978 -0.8519 35.1558
#
#
#
# Elastic Compliance Matrix: (Units=1/GPa)
#
#
# Indices 1 2 3 4 5 6 
#
# 1 0.032499 -0.006828 -0.008459 -0.002356 0.004352 -0.009175
# 2 -0.006828 0.009161 0.001204 0.007088 -0.004154 0.000186
# 3 -0.008459 0.001204 0.015054 0.002810 -0.008943 0.000306
# 4 -0.002356 0.007088 0.002810 0.022787 -0.007302 -0.004009
# 5 0.004352 -0.004154 -0.008943 -0.007302 0.041610 0.002141
# 6 -0.009175 0.000186 0.000306 -0.004009 0.002141 0.032281
#
#
# Mechanical properties :
#
#
# Convention : Reuss Voigt Hill
#
# Bulk Modulus (GPa) = 35.03026 55.40267 45.21646
# Shear Modulus (GPa) = 26.16781 40.71771 33.44276
#
# Velocity S-wave (km/s) = 3.22297 4.02036 3.64354
# Velocity P-wave (km/s) = 5.26836 6.59876 5.97073
#
# Compressibility (1/GPa) = 0.02854675
#
# Stress axis : x y z
#
# Youngs Moduli (GPa) = 30.77035 109.16098 66.42634
#
# Poissons Ratio (x) = 0.74539 0.56193
# Poissons Ratio (y) = 0.21011 -0.07999
# Poissons Ratio (z) = 0.26030 -0.13145
#
# Static dielectric constant tensor:
#      x y z
#    x 1.949010 -0.003850 0.015110 
#    y -0.003850 2.047320 0.039880 
#    z 0.015110 0.039880 2.063430 
# 
# From -- ./inp_files/572051.got.cif
#   From: 2010.05.17/outbox.cif.g08.bks.cpg/sg2_287_cif.got.tgz:572051.got - 2010.06.03 11:33:40.
