data_PCOD9089935
_publ_section_title
;
Structure prediction by ZEFSAII (Michael W. Deem and Ramdas Pophale) SiO2 
 PCOD9089935
Probable space group: P -1
;
_chemical_formula_sum "Si O2"
_cell_formula_units_Z 16
_cell_length_a 8.178625
_cell_length_b 16.595886
_cell_length_c 10.308292
_cell_angle_alpha 117.868985
_cell_angle_beta 75.752635
_cell_angle_gamma 143.961710
_cell_volume 703.906085
_symmetry_space_group_name_H-M "P -1"
_symmetry_group_IT_number 2
_symmetry_cell_setting 'triclinic'
loop_
_space_group_symop_operation_xyz
x,y,z
-x,-y,-z
loop_
_atom_site_type_symbol
_atom_site_label
_atom_site_fract_x
_atom_site_fract_y
_atom_site_fract_z
Si Si1 0.894271 0.256681 0.080095
Si Si2 0.098164 0.967733 0.778816
Si Si3 0.202959 0.591175 0.875314
Si Si4 0.221349 0.533430 0.551835
Si Si5 0.265248 0.013295 0.084086
Si Si6 0.513087 0.596497 0.296670
Si Si7 0.552231 0.288611 0.821799
Si Si8 0.185337 0.337586 0.503477
O O1 0.853356 0.323988 0.040615
O O2 0.209964 0.412874 0.194808
O O3 0.606985 0.148056 0.140965
O O4 0.875525 0.143217 0.958167
O O5 0.963890 0.815582 0.640486
O O6 0.355857 0.115033 0.747546
O O7 0.206786 0.997314 0.927536
O O8 0.881903 0.960048 0.812980
O O9 0.326641 0.619181 0.732686
O O10 0.881388 0.411983 0.812276
O O11 0.412419 0.654733 0.997211
O O12 0.460452 0.628195 0.465048
O O13 0.038862 0.364328 0.500027
O O14 0.000000 0.500000 0.500000
O O15 0.563338 0.686709 0.237305
O O16 0.766129 0.643300 0.336089
O O17 0.500000 0.500000 0.500000
#
# Coordination Sequence:
#
# PCOD9089935 Si02
#       8
#     2   2   2   2   2   2   2   2
#     4  10  19  38  62  93 123 160 225 265 314 368
#     4  11  23  39  60  91 134 167 208 266 329 376
#     4  10  21  38  66  94 127 166 217 265 315 378
#     4  11  20  38  68  96 117 170 221 264 307 379
#     4  10  22  36  62  94 125 166 210 275 319 372
#     4  10  22  40  66  91 130 171 211 262 315 383
#     4  10  21  40  63  91 133 174 202 263 329 378
#     4  10  24  39  62  93 126 164 221 266 311 378
#
# _framework density 22.730305000000001
#
# number of rings (size 3 to 8) (size 9 to 14) (size 15 to 20)
#    0.000    1.750    3.750    1.500    3.500    1.500 
#    0.000    7.500    0.000    0.000    0.000    0.000 
#    0.000    0.000    0.000    0.000    0.000    0.000 
#
# Total GULP energy -89191.480981 kJ/mol
# GULP energy per Si atom -5574.467561 kJ/mol
# Density = 2.267857 g / cm^3
# Si number density = 22.730305 Si / 1000 Ang^3
#
#
#
# Elastic Constant Matrix: (Units=GPa)
#
#
# Indices 1 2 3 4 5 6 
#
# 1 90.9695 44.7632 43.5212 10.6919 3.0008 -37.1961
# 2 44.7632 139.3026 58.9984 21.2186 -2.3850 -35.5142
# 3 43.5212 58.9984 97.7186 2.8257 7.7948 -28.5769
# 4 10.6919 21.2186 2.8257 42.6345 -12.4501 5.0994
# 5 3.0008 -2.3850 7.7948 -12.4501 30.7825 -1.2875
# 6 -37.1961 -35.5142 -28.5769 5.0994 -1.2875 41.9488
#
#
#
# Elastic Compliance Matrix: (Units=1/GPa)
#
#
# Indices 1 2 3 4 5 6 
#
# 1 0.020679 0.000618 -0.004096 -0.008296 -0.003576 0.016968
# 2 0.000618 0.012319 -0.005025 -0.007056 -0.000336 0.008402
# 3 -0.004096 -0.005025 0.016192 0.001076 -0.003534 0.002905
# 4 -0.008296 -0.007056 0.001076 0.034853 0.013399 -0.016423
# 5 -0.003576 -0.000336 -0.003534 0.013399 0.038859 -0.006299
# 6 0.016968 0.008402 0.002905 -0.016423 -0.006299 0.049779
#
#
# Mechanical properties :
#
#
# Convention : Reuss Voigt Hill
#
# Bulk Modulus (GPa) = 31.07115 69.17292 50.12204
# Shear Modulus (GPa) = 24.94807 35.12033 30.03420
#
# Velocity S-wave (km/s) = 3.31655 3.93503 3.63895
# Velocity P-wave (km/s) = 5.32590 7.15150 6.30512
#
# Compressibility (1/GPa) = 0.03218419
#
# Stress axis : x y z
#
# Youngs Moduli (GPa) = 48.35825 81.17295 61.75873
#
# Poissons Ratio (x) = -0.05016 0.25294
# Poissons Ratio (y) = -0.02988 0.31036
# Poissons Ratio (z) = 0.19806 0.40792
#
# Static dielectric constant tensor:
#      x y z
#    x 2.586050 -0.101650 -0.015660 
#    y -0.101650 1.889290 0.005120 
#    z -0.015660 0.005120 1.906170 
# 
# From -- ./inp_files/399302.got.cif
#   From: 2010.05.17/outbox.cif.g08.bks.cpg/sg2_200_cif.got.tgz:399302.got - 2010.06.03 11:33:40.
