data_PCOD9089515
_publ_section_title
;
Structure prediction by ZEFSAII (Michael W. Deem and Ramdas Pophale) SiO2 
 PCOD9089515
Probable space group: P -1
;
_chemical_formula_sum "Si O2"
_cell_formula_units_Z 16
_cell_length_a 12.689746
_cell_length_b 17.957124
_cell_length_c 8.237393
_cell_angle_alpha 40.226983
_cell_angle_beta 73.797375
_cell_angle_gamma 44.301703
_cell_volume 681.889409
_symmetry_space_group_name_H-M "P -1"
_symmetry_group_IT_number 2
_symmetry_cell_setting 'triclinic'
loop_
_space_group_symop_operation_xyz
x,y,z
-x,-y,-z
loop_
_atom_site_type_symbol
_atom_site_label
_atom_site_fract_x
_atom_site_fract_y
_atom_site_fract_z
Si Si1 0.003210 0.638367 0.194902
Si Si2 0.875513 0.966198 0.238693
Si Si3 0.436273 0.929461 0.711640
Si Si4 0.623171 0.572398 0.037551
Si Si5 0.651755 0.803049 0.148638
Si Si6 0.113998 0.663836 0.403516
Si Si7 0.145684 0.730495 0.804301
Si Si8 0.666606 0.339584 0.865305
O O1 0.194838 0.402863 0.471697
O O2 0.021235 0.645493 0.367922
O O3 0.800184 0.756813 0.063236
O O4 0.014560 0.752057 0.917397
O O5 0.959304 0.887230 0.154983
O O6 0.037861 0.859210 0.475692
O O7 0.775531 0.929351 0.387535
O O8 0.726717 0.192903 0.953648
O O9 0.500000 0.000000 0.500000
O O10 0.489739 0.791024 0.778787
O O11 0.543520 0.826629 0.011937
O O12 0.802774 0.449753 0.274195
O O13 0.678922 0.495066 0.960510
O O14 0.538647 0.524437 0.222068
O O15 0.500000 0.000000 0.000000
O O16 0.275278 0.587641 0.354721
O O17 0.217023 0.764564 0.842311
#
# Coordination Sequence:
#
# PCOD9089515 Si02
#       8
#     2   2   2   2   2   2   2   2
#     4  10  22  40  60  87 119 159 199 247 297 354
#     4  10  21  37  59  87 116 154 195 245 295 355
#     4  11  23  39  58  86 119 151 200 245 290 353
#     4  10  21  37  57  85 116 155 192 238 293 358
#     4  11  23  40  62  86 119 157 205 251 294 348
#     4  10  19  38  58  84 117 152 191 244 299 355
#     4  10  21  38  58  84 121 153 191 240 303 353
#     4  10  20  35  61  84 118 148 198 242 297 353
#
# _framework density 23.464216
#
# number of rings (size 3 to 8) (size 9 to 14) (size 15 to 20)
#    0.000    1.750    1.250    3.000    1.750    0.000 
#    0.000    1.875    8.250    0.000    0.000    0.000 
#    0.000    0.000    0.000    0.000    0.000    0.000 
#
# Total GULP energy -89157.935836 kJ/mol
# GULP energy per Si atom -5572.370990 kJ/mol
# Density = 2.341081 g / cm^3
# Si number density = 23.464216 Si / 1000 Ang^3
#
#
#
# Elastic Constant Matrix: (Units=GPa)
#
#
# Indices 1 2 3 4 5 6 
#
# 1 101.3499 31.4571 15.8762 -3.9106 11.8703 -2.6958
# 2 31.4571 102.9566 7.7058 -21.9440 0.0829 4.2310
# 3 15.8762 7.7058 36.5218 -4.7934 7.3384 -2.0187
# 4 -3.9106 -21.9440 -4.7934 21.5992 -1.9695 -2.3581
# 5 11.8703 0.0829 7.3384 -1.9695 38.7200 1.0751
# 6 -2.6958 4.2310 -2.0187 -2.3581 1.0751 32.3034
#
#
#
# Elastic Compliance Matrix: (Units=1/GPa)
#
#
# Indices 1 2 3 4 5 6 
#
# 1 0.012045 -0.004060 -0.004088 -0.003007 -0.003094 0.001165
# 2 -0.004060 0.013849 0.000153 0.013408 0.001902 -0.001228
# 3 -0.004088 0.000153 0.030923 0.006117 -0.004357 0.002163
# 4 -0.003007 0.013408 0.006117 0.061287 0.002775 0.002757
# 5 -0.003094 0.001902 -0.004357 0.002775 0.027780 -0.001502
# 6 0.001165 -0.001228 0.002163 0.002757 -0.001502 0.031601
#
#
# Mechanical properties :
#
#
# Convention : Reuss Voigt Hill
#
# Bulk Modulus (GPa) = 24.49403 38.98962 31.74183
# Shear Modulus (GPa) = 24.14480 30.91045 27.52763
#
# Velocity S-wave (km/s) = 3.21129 3.63346 3.42888
# Velocity P-wave (km/s) = 4.92051 5.85281 5.40679
#
# Compressibility (1/GPa) = 0.04082627
#
# Stress axis : x y z
#
# Youngs Moduli (GPa) = 83.02330 72.20900 32.33800
#
# Poissons Ratio (x) = 0.29320 0.13219
# Poissons Ratio (y) = 0.33711 -0.00494
# Poissons Ratio (z) = 0.33937 -0.01103
#
# Static dielectric constant tensor:
#      x y z
#    x 1.874160 -0.011420 -0.023450 
#    y -0.011420 1.949560 -0.042790 
#    z -0.023450 -0.042790 2.051400 
# 
# From -- ./inp_files/278803.got.cif
#   From: 2010.05.17/outbox.cif.g08.bks.cpg/sg2_140_cif.got.tgz:278803.got - 2010.06.03 11:33:40.
