data_PCOD9089962
_publ_section_title
;
Structure prediction by ZEFSAII (Michael W. Deem and Ramdas Pophale) SiO2 
 PCOD9089962
Probable space group: P -1
;
_chemical_formula_sum "Si O2"
_cell_formula_units_Z 16
_cell_length_a 5.585036
_cell_length_b 10.851728
_cell_length_c 14.230438
_cell_angle_alpha 59.249014
_cell_angle_beta 109.221884
_cell_angle_gamma 92.412494
_cell_volume 691.360486
_symmetry_space_group_name_H-M "P -1"
_symmetry_group_IT_number 2
_symmetry_cell_setting 'triclinic'
loop_
_space_group_symop_operation_xyz
x,y,z
-x,-y,-z
loop_
_atom_site_type_symbol
_atom_site_label
_atom_site_fract_x
_atom_site_fract_y
_atom_site_fract_z
Si Si1 0.837272 0.447720 0.849419
Si Si2 0.915518 0.920676 0.271297
Si Si3 0.204710 0.603899 0.914373
Si Si4 0.508566 0.267665 0.374588
Si Si5 0.958922 0.844958 0.100244
Si Si6 0.249006 0.129631 0.246453
Si Si7 0.087452 0.145970 0.501155
Si Si8 0.525720 0.821483 0.927737
O O1 0.625464 0.567776 0.729009
O O2 0.122452 0.496703 0.866944
O O3 0.856285 0.287912 0.872919
O O4 0.800179 0.443607 0.958747
O O5 0.987472 0.830575 0.221969
O O6 0.798509 0.869731 0.371593
O O7 0.725619 0.059234 0.151808
O O8 0.162953 0.980671 0.321771
O O9 0.459512 0.677468 0.923192
O O10 0.977757 0.738617 0.815023
O O11 0.488611 0.170241 0.316360
O O12 0.813221 0.253388 0.435776
O O13 0.306894 0.203697 0.443443
O O14 0.671703 0.817537 0.045678
O O15 0.000000 0.000000 0.000000
O O16 0.283545 0.122823 0.142965
O O17 0.000000 0.000000 0.500000
#
# Coordination Sequence:
#
# PCOD9089962 Si02
#       8
#     2   2   2   2   2   2   2   2
#     4  10  22  43  63  98 142 179 223 288 344 408
#     4  11  24  38  64  96 134 179 228 286 343 405
#     4   9  20  39  61  98 133 174 220 270 353 418
#     4  11  26  42  70 102 136 176 236 293 349 400
#     4  12  23  42  66  98 141 180 225 275 346 431
#     4  10  19  38  63 100 133 167 217 283 348 411
#     4  12  25  46  70 103 133 180 240 295 345 396
#     4  11  21  38  68  98 135 176 221 280 345 428
#
# _framework density 23.142776999999999
#
# number of rings (size 3 to 8) (size 9 to 14) (size 15 to 20)
#    0.000    1.250    3.750    2.250    5.250    1.500 
#    0.000    1.250    0.000    0.000    0.000    0.000 
#    0.000    0.000    0.000    0.000    0.000    0.000 
#
# Total GULP energy -89236.419118 kJ/mol
# GULP energy per Si atom -5577.276195 kJ/mol
# Density = 2.309010 g / cm^3
# Si number density = 23.142777 Si / 1000 Ang^3
#
#
#
# Elastic Constant Matrix: (Units=GPa)
#
#
# Indices 1 2 3 4 5 6 
#
# 1 81.3682 22.2505 31.6443 -7.0522 7.3447 -4.9307
# 2 22.2505 117.7537 36.6496 -0.6908 -4.1558 -14.2688
# 3 31.6443 36.6496 101.7387 5.6255 -3.9516 -8.0848
# 4 -7.0522 -0.6908 5.6255 30.2191 -8.0063 2.3960
# 5 7.3447 -4.1558 -3.9516 -8.0063 49.2979 -1.9167
# 6 -4.9307 -14.2688 -8.0848 2.3960 -1.9167 24.5654
#
#
#
# Elastic Compliance Matrix: (Units=1/GPa)
#
#
# Indices 1 2 3 4 5 6 
#
# 1 0.014918 -0.001489 -0.004376 0.003694 -0.002092 0.000166
# 2 -0.001489 0.010277 -0.002833 0.000327 0.001100 0.004792
# 3 -0.004376 -0.002833 0.012593 -0.003336 0.000959 0.002021
# 4 0.003694 0.000327 -0.003336 0.036157 0.004953 -0.003307
# 5 -0.002092 0.001100 0.000959 0.004953 0.021638 0.001740
# 6 0.000166 0.004792 0.002021 -0.003307 0.001740 0.044648
#
#
# Mechanical properties :
#
#
# Convention : Reuss Voigt Hill
#
# Bulk Modulus (GPa) = 49.04089 53.54995 51.29542
# Shear Modulus (GPa) = 30.40899 34.83755 32.62327
#
# Velocity S-wave (km/s) = 3.62881 3.88407 3.75861
# Velocity P-wave (km/s) = 6.22850 6.58057 6.40695
#
# Compressibility (1/GPa) = 0.02039115
#
# Stress axis : x y z
#
# Youngs Moduli (GPa) = 67.03337 97.30495 79.40774
#
# Poissons Ratio (x) = 0.14489 0.34749
# Poissons Ratio (y) = 0.09981 0.22500
# Poissons Ratio (z) = 0.29334 0.27571
#
# Static dielectric constant tensor:
#      x y z
#    x 2.044550 0.092460 -0.044590 
#    y 0.092460 1.957240 -0.087490 
#    z -0.044590 -0.087490 1.933260 
# 
# From -- ./inp_files/482750.got.cif
#   From: 2010.05.17/outbox.cif.g08.bks.cpg/sg2_242_cif.got.tgz:482750.got - 2010.06.03 11:33:40.
