data_PCOD9089079
_publ_section_title
;
Structure prediction by ZEFSAII (Michael W. Deem and Ramdas Pophale) SiO2 
 PCOD9089079
Probable space group: P -1
;
_chemical_formula_sum "Si O2"
_cell_formula_units_Z 16
_cell_length_a 11.271223
_cell_length_b 9.245912
_cell_length_c 8.534386
_cell_angle_alpha 70.573568
_cell_angle_beta 69.492496
_cell_angle_gamma 66.679676
_cell_volume 745.280092
_symmetry_space_group_name_H-M "P -1"
_symmetry_group_IT_number 2
_symmetry_cell_setting 'triclinic'
loop_
_space_group_symop_operation_xyz
x,y,z
-x,-y,-z
loop_
_atom_site_type_symbol
_atom_site_label
_atom_site_fract_x
_atom_site_fract_y
_atom_site_fract_z
Si Si1 0.585468 0.848918 0.829940
Si Si2 0.978757 0.858044 0.958174
Si Si3 0.690254 0.048547 0.947051
Si Si4 0.311087 0.648788 0.339412
Si Si5 0.797636 0.643893 0.593207
Si Si6 0.191764 0.669040 0.726336
Si Si7 0.962447 0.558622 0.245614
Si Si8 0.419961 0.466978 0.897299
O O1 0.673750 0.793052 0.654467
O O2 0.623650 0.988833 0.851350
O O3 0.424175 0.901974 0.884583
O O4 0.624840 0.686081 0.977090
O O5 0.017118 0.683929 0.085070
O O6 0.072305 0.826747 0.774068
O O7 0.822032 0.907843 0.980314
O O8 0.000000 0.000000 0.000000
O O9 0.731665 0.200728 0.813901
O O10 0.256595 0.507212 0.355540
O O11 0.258972 0.691316 0.523519
O O12 0.471027 0.586521 0.271966
O O13 0.872126 0.658506 0.393589
O O14 0.915090 0.586138 0.687948
O O15 0.128768 0.523997 0.779117
O O16 0.300500 0.614317 0.833894
O O17 0.500000 0.500000 0.000000
#
# Coordination Sequence:
#
# PCOD9089079 Si02
#       8
#     2   2   2   2   2   2   2   2
#     4  10  20  37  63  83 113 160 197 238 295 352
#     4  12  25  37  58  86 124 159 199 240 295 361
#     4  10  23  38  56  86 123 160 196 234 296 360
#     4  10  22  39  62  91 121 153 199 247 294 354
#     4  10  19  37  65  88 114 158 200 247 299 342
#     4  11  24  40  62  90 118 158 198 253 299 343
#     4  10  22  39  60  90 121 150 202 250 294 358
#     4  11  21  37  68  89 116 151 203 253 293 350
#
# _framework density 21.468439
#
# number of rings (size 3 to 8) (size 9 to 14) (size 15 to 20)
#    0.000    1.500    1.250    3.750    3.500    1.500 
#    0.000    0.625    0.000    0.000    0.000    0.000 
#    0.000    0.000    0.000    0.000    0.000    0.000 
#
# Total GULP energy -89399.407625 kJ/mol
# GULP energy per Si atom -5587.462977 kJ/mol
# Density = 2.141958 g / cm^3
# Si number density = 21.468439 Si / 1000 Ang^3
#
#
#
# Elastic Constant Matrix: (Units=GPa)
#
#
# Indices 1 2 3 4 5 6 
#
# 1 68.3255 7.2833 33.2143 21.6934 1.1118 -15.6931
# 2 7.2833 47.2089 28.0238 31.4993 -5.6551 -10.1601
# 3 33.2143 28.0238 90.8396 37.4316 -24.7479 -10.8575
# 4 21.6934 31.4993 37.4316 36.8639 -9.8562 -16.3587
# 5 1.1118 -5.6551 -24.7479 -9.8562 30.7438 2.7313
# 6 -15.6931 -10.1601 -10.8575 -16.3587 2.7313 35.7547
#
#
#
# Elastic Compliance Matrix: (Units=1/GPa)
#
#
# Indices 1 2 3 4 5 6 
#
# 1 0.023866 0.012410 -0.007617 -0.017888 -0.010831 0.004332
# 2 0.012410 0.058447 -0.000207 -0.062026 -0.009245 -0.005680
# 3 -0.007617 -0.000207 0.025296 -0.019659 0.014817 -0.005847
# 4 -0.017888 -0.062026 -0.019659 0.124551 0.011149 0.024687
# 5 -0.010831 -0.009245 0.014817 0.011149 0.046840 -0.001359
# 6 0.004332 -0.005680 -0.005847 0.024687 -0.001359 0.037879
#
#
# Mechanical properties :
#
#
# Convention : Reuss Voigt Hill
#
# Bulk Modulus (GPa) = 8.56307 38.15742 23.36025
# Shear Modulus (GPa) = 14.42441 29.86266 22.14353
#
# Velocity S-wave (km/s) = 2.59489 3.73366 3.21510
# Velocity P-wave (km/s) = 3.60213 6.03318 4.96863
#
# Compressibility (1/GPa) = 0.11678051
#
# Stress axis : x y z
#
# Youngs Moduli (GPa) = 41.89994 17.10954 39.53209
#
# Poissons Ratio (x) = -0.21232 0.30111
# Poissons Ratio (y) = -0.51997 0.00819
# Poissons Ratio (z) = 0.31915 0.00354
#
# Static dielectric constant tensor:
#      x y z
#    x 1.798590 -0.014260 -0.011800 
#    y -0.014260 1.767820 0.029710 
#    z -0.011800 0.029710 1.792920 
# 
# From -- ./inp_files/238309.got.cif
#   From: 2010.05.17/outbox.cif.g08.bks.cpg/sg2_120_cif.got.tgz:238309.got - 2010.06.03 11:33:40.
