data_PCOD9089183
_publ_section_title
;
Structure prediction by ZEFSAII (Michael W. Deem and Ramdas Pophale) SiO2 
 PCOD9089183
Probable space group: P -1
;
_chemical_formula_sum "Si O2"
_cell_formula_units_Z 16
_cell_length_a 12.411456
_cell_length_b 9.093140
_cell_length_c 14.260035
_cell_angle_alpha 49.637065
_cell_angle_beta 39.141035
_cell_angle_gamma 77.114522
_cell_volume 630.186855
_symmetry_space_group_name_H-M "P -1"
_symmetry_group_IT_number 2
_symmetry_cell_setting 'triclinic'
loop_
_space_group_symop_operation_xyz
x,y,z
-x,-y,-z
loop_
_atom_site_type_symbol
_atom_site_label
_atom_site_fract_x
_atom_site_fract_y
_atom_site_fract_z
Si Si1 0.855400 0.535243 0.015947
Si Si2 0.495193 0.069816 0.345210
Si Si3 0.272874 0.299451 0.115089
Si Si4 0.219198 0.540894 0.531412
Si Si5 0.352695 0.551970 0.631029
Si Si6 0.140401 0.444542 0.326501
Si Si7 0.473754 0.064460 0.138138
Si Si8 0.275538 0.276963 0.454250
O O1 0.701508 0.284819 0.168248
O O2 0.742623 0.588839 0.151023
O O3 0.901996 0.720992 0.825935
O O4 0.000000 0.500000 0.000000
O O5 0.490330 0.104464 0.222691
O O6 0.301893 0.065066 0.520953
O O7 0.467405 0.823581 0.472890
O O8 0.241894 0.381448 0.201927
O O9 0.292909 0.085556 0.210384
O O10 0.497835 0.507352 0.831723
O O11 0.191020 0.507997 0.675982
O O12 0.243899 0.349694 0.546662
O O13 0.037986 0.544118 0.603690
O O14 0.422972 0.807947 0.264682
O O15 0.500000 0.500000 0.500000
O O16 0.106426 0.271326 0.504747
O O17 0.309264 0.712216 0.139723
#
# Coordination Sequence:
#
# PCOD9089183 Si02
#       8
#     2   2   2   2   2   2   2   2
#     4  11  22  38  63  93 127 165 217 255 304 377
#     4  10  20  41  72  86 121 170 213 254 325 378
#     4  10  19  37  66  87 127 169 207 257 321 381
#     4  11  25  37  64  98 130 161 216 266 317 379
#     4  11  24  43  64  89 125 170 212 260 311 375
#     4  11  19  38  65  94 132 161 204 265 321 381
#     4  10  20  40  66  94 125 168 206 264 334 370
#     4  10  19  39  64  93 125 165 203 259 328 380
#
# _framework density 25.389295000000001
#
# number of rings (size 3 to 8) (size 9 to 14) (size 15 to 20)
#    0.000    1.500    3.750    3.750    0.000    2.500 
#    2.250    0.625   16.500    0.000    0.000    0.000 
#    0.000    0.000    0.000    0.000    0.000    0.000 
#
# Total GULP energy -89457.837724 kJ/mol
# GULP energy per Si atom -5591.114858 kJ/mol
# Density = 2.533151 g / cm^3
# Si number density = 25.389295 Si / 1000 Ang^3
#
#
#
# Elastic Constant Matrix: (Units=GPa)
#
#
# Indices 1 2 3 4 5 6 
#
# 1 191.2180 31.2540 10.9147 -2.5480 -5.8893 -0.6994
# 2 31.2540 123.7633 11.9674 0.9245 -0.4355 -2.1233
# 3 10.9147 11.9674 12.7566 -1.8940 0.4807 6.5916
# 4 -2.5480 0.9245 -1.8940 26.4261 -2.1094 5.4879
# 5 -5.8893 -0.4355 0.4807 -2.1094 42.8545 5.0016
# 6 -0.6994 -2.1233 6.5916 5.4879 5.0016 42.2509
#
#
#
# Elastic Compliance Matrix: (Units=1/GPa)
#
#
# Indices 1 2 3 4 5 6 
#
# 1 0.005663 -0.001014 -0.004188 0.000222 0.000758 0.000577
# 2 -0.001014 0.009265 -0.009129 -0.001534 -0.000264 0.002104
# 3 -0.004188 -0.009129 0.101364 0.010955 0.000819 -0.017862
# 4 0.000222 -0.001534 0.010955 0.040449 0.002742 -0.007361
# 5 0.000758 -0.000264 0.000819 0.002742 0.023950 -0.003320
# 6 0.000577 0.002104 -0.017862 -0.007361 -0.003320 0.027919
#
#
# Mechanical properties :
#
#
# Convention : Reuss Voigt Hill
#
# Bulk Modulus (GPa) = 11.41169 48.44557 29.92863
# Shear Modulus (GPa) = 18.76296 40.54641 29.65469
#
# Velocity S-wave (km/s) = 2.72142 4.00057 3.42131
# Velocity P-wave (km/s) = 3.79201 6.36097 5.23647
#
# Compressibility (1/GPa) = 0.08762948
#
# Stress axis : x y z
#
# Youngs Moduli (GPa) = 176.58906 107.92785 9.86546
#
# Poissons Ratio (x) = 0.10946 0.04131
# Poissons Ratio (y) = 0.17909 0.09007
# Poissons Ratio (z) = 0.73952 0.98531
#
# Static dielectric constant tensor:
#      x y z
#    x 2.061900 -0.047610 -0.063840 
#    y -0.047610 1.991570 -0.013120 
#    z -0.063840 -0.013120 2.112860 
# 
# From -- ./inp_files/319448.got.cif
#   From: 2010.05.17/outbox.cif.g08.bks.cpg/sg2_160_cif.got.tgz:319448.got - 2010.06.03 11:33:40.
