data_PCOD9089761
_publ_section_title
;
Structure prediction by ZEFSAII (Michael W. Deem and Ramdas Pophale) SiO2 
 PCOD9089761
Probable space group: P -1
;
_chemical_formula_sum "Si O2"
_cell_formula_units_Z 12
_cell_length_a 9.766387
_cell_length_b 9.646129
_cell_length_c 12.830486
_cell_angle_alpha 34.388660
_cell_angle_beta 82.078787
_cell_angle_gamma 60.968109
_cell_volume 505.475123
_symmetry_space_group_name_H-M "P -1"
_symmetry_group_IT_number 2
_symmetry_cell_setting 'triclinic'
loop_
_space_group_symop_operation_xyz
x,y,z
-x,-y,-z
loop_
_atom_site_type_symbol
_atom_site_label
_atom_site_fract_x
_atom_site_fract_y
_atom_site_fract_z
Si Si1 0.455901 0.262875 0.257580
Si Si2 0.538062 0.860926 0.309811
Si Si3 0.716499 0.280722 0.318626
Si Si4 0.310519 0.895611 0.978843
Si Si5 0.040193 0.186091 0.235558
Si Si6 0.250665 0.853403 0.224630
O O1 0.645721 0.195378 0.284316
O O2 0.305726 0.644158 0.071437
O O3 0.500000 0.000000 0.500000
O O4 0.431139 0.169456 0.207155
O O5 0.394043 0.883503 0.239029
O O6 0.641973 0.527007 0.570235
O O7 0.688494 0.854074 0.240051
O O8 0.527908 0.634018 0.155692
O O9 0.868183 0.282716 0.256843
O O10 0.796677 0.031123 0.561296
O O11 0.184945 0.032147 0.009497
O O12 0.105665 0.969176 0.259332
O O13 0.000000 0.500000 0.000000
#
# Coordination Sequence:
#
# PCOD9089761 Si02
#       6
#     2   2   2   2   2   2
#     4  10  19  38  61  88 122 153 190 242 289 352
#     4  11  20  36  60  90 121 150 190 242 298 344
#     4   9  22  37  58  88 112 156 196 232 286 349
#     4  10  21  37  61  91 115 150 194 240 294 340
#     4  11  22  40  59  82 120 158 197 236 292 351
#     4  11  22  35  60  92 115 150 196 250 285 336
#
# _framework density 23.740041000000002
#
# number of rings (size 3 to 8) (size 9 to 14) (size 15 to 20)
#    1.000    0.667    1.667    5.000    0.000    2.667 
#    0.000    0.833    0.000    2.000    0.000    0.000 
#    0.000    0.000    0.000    0.000    0.000    0.000 
#
# Total GULP energy -67001.345258 kJ/mol
# GULP energy per Si atom -5583.445438 kJ/mol
# Density = 2.368601 g / cm^3
# Si number density = 23.740041 Si / 1000 Ang^3
#
#
#
# Elastic Constant Matrix: (Units=GPa)
#
#
# Indices 1 2 3 4 5 6 
#
# 1 39.8689 11.5896 23.8135 0.6468 -11.4712 1.2819
# 2 11.5896 106.6896 21.2108 21.2569 -10.5254 3.4608
# 3 23.8135 21.2108 91.5042 9.4530 -37.2746 7.9839
# 4 0.6468 21.2569 9.4530 29.6211 -5.1409 -6.7918
# 5 -11.4712 -10.5254 -37.2746 -5.1409 33.9697 1.4377
# 6 1.2819 3.4608 7.9839 -6.7918 1.4377 29.3776
#
#
#
# Elastic Compliance Matrix: (Units=1/GPa)
#
#
# Indices 1 2 3 4 5 6 
#
# 1 0.030566 -0.002596 -0.006927 0.004230 0.002484 0.001711
# 2 -0.002596 0.011694 -0.000385 -0.008758 0.001136 -0.003240
# 3 -0.006927 -0.000385 0.023303 -0.004958 0.022710 -0.008243
# 4 0.004230 -0.008758 -0.004958 0.044297 -0.000549 0.012462
# 5 0.002484 0.001136 0.022710 -0.000549 0.055858 -0.009275
# 6 0.001711 -0.003240 -0.008243 0.012462 -0.009275 0.039922
#
#
# Mechanical properties :
#
#
# Convention : Reuss Voigt Hill
#
# Bulk Modulus (GPa) = 21.85996 39.03228 30.44612
# Shear Modulus (GPa) = 20.77247 30.69026 25.73136
#
# Velocity S-wave (km/s) = 2.96124 3.59940 3.29581
# Velocity P-wave (km/s) = 4.57384 5.80960 5.22836
#
# Compressibility (1/GPa) = 0.04574573
#
# Stress axis : x y z
#
# Youngs Moduli (GPa) = 32.71661 85.51673 42.91314
#
# Poissons Ratio (x) = 0.22203 0.29727
# Poissons Ratio (y) = 0.08494 0.01651
# Poissons Ratio (z) = 0.22663 0.03289
#
# Static dielectric constant tensor:
#      x y z
#    x 1.940330 -0.023770 0.005370 
#    y -0.023770 1.947790 -0.034990 
#    z 0.005370 -0.034990 1.905240 
# 
# From -- ./inp_files/191489.got.cif
#   From: 2010.05.17/outbox.cif.g08.bks.cpg/sg2_96_cif.got.tgz:191489.got - 2010.06.03 11:33:40.
