data_PCOD9089120
_publ_section_title
;
Structure prediction by ZEFSAII (Michael W. Deem and Ramdas Pophale) SiO2 
 PCOD9089120
Probable space group: P -1
;
_chemical_formula_sum "Si O2"
_cell_formula_units_Z 16
_cell_length_a 7.496600
_cell_length_b 12.471751
_cell_length_c 10.988489
_cell_angle_alpha 71.153225
_cell_angle_beta 61.294187
_cell_angle_gamma 114.050115
_cell_volume 626.948177
_symmetry_space_group_name_H-M "P -1"
_symmetry_group_IT_number 2
_symmetry_cell_setting 'triclinic'
loop_
_space_group_symop_operation_xyz
x,y,z
-x,-y,-z
loop_
_atom_site_type_symbol
_atom_site_label
_atom_site_fract_x
_atom_site_fract_y
_atom_site_fract_z
Si Si1 0.290804 0.771473 0.956015
Si Si2 0.229122 0.306527 0.957324
Si Si3 0.524505 0.884257 0.595540
Si Si4 0.094819 0.440811 0.133352
Si Si5 0.129206 0.792345 0.259544
Si Si6 0.009983 0.992501 0.225299
Si Si7 0.617490 0.693835 0.347903
Si Si8 0.910326 0.387332 0.460565
O O1 0.540622 0.883991 0.737116
O O2 0.067447 0.778384 0.977396
O O3 0.266024 0.779695 0.106357
O O4 0.174055 0.601010 0.030629
O O5 0.267053 0.422485 0.996993
O O6 0.416356 0.362764 0.756908
O O7 0.189381 0.172255 0.086755
O O8 0.226289 0.713965 0.728510
O O9 0.787798 0.925076 0.431091
O O10 0.500000 0.000000 0.500000
O O11 0.126372 0.434921 0.269928
O O12 0.194937 0.761165 0.377634
O O13 0.193368 0.949127 0.188353
O O14 0.798201 0.676026 0.376909
O O15 0.810793 0.880493 0.218338
O O16 0.328962 0.627764 0.517276
O O17 0.000000 0.500000 0.500000
#
# Coordination Sequence:
#
# PCOD9089120 Si02
#       8
#     2   2   2   2   2   2   2   2
#     4  10  20  36  59  94 134 165 210 268 319 385
#     4  10  19  37  65  92 132 165 211 266 328 381
#     4  11  19  34  65  99 127 167 217 260 326 383
#     4  11  21  38  60  94 134 170 211 269 325 381
#     4   9  22  41  63  94 127 165 218 262 318 380
#     4  10  19  38  64  98 124 166 215 263 321 384
#     4   9  22  39  65  92 127 165 214 265 324 371
#     4  12  23  43  64  88 135 172 219 263 318 387
#
# _framework density 25.520451999999999
#
# number of rings (size 3 to 8) (size 9 to 14) (size 15 to 20)
#    0.750    1.000    5.000    1.875    0.000    0.500 
#    6.750    3.125    0.000    0.000    0.000    0.000 
#    0.000    0.000    0.000    0.000    0.000    0.000 
#
# Total GULP energy -89354.106791 kJ/mol
# GULP energy per Si atom -5584.631674 kJ/mol
# Density = 2.546237 g / cm^3
# Si number density = 25.520452 Si / 1000 Ang^3
#
#
#
# Elastic Constant Matrix: (Units=GPa)
#
#
# Indices 1 2 3 4 5 6 
#
# 1 51.5075 32.6977 27.7441 -5.9576 -8.4770 -5.3630
# 2 32.6977 148.7922 68.4053 19.6556 10.0593 -35.1282
# 3 27.7441 68.4053 144.0624 22.5740 13.9233 -20.2251
# 4 -5.9576 19.6556 22.5740 53.5771 -6.4395 11.2634
# 5 -8.4770 10.0593 13.9233 -6.4395 42.6813 -0.6844
# 6 -5.3630 -35.1282 -20.2251 11.2634 -0.6844 43.9828
#
#
#
# Elastic Compliance Matrix: (Units=1/GPa)
#
#
# Indices 1 2 3 4 5 6 
#
# 1 0.030511 -0.008345 -0.006217 0.012334 0.011775 -0.008779
# 2 -0.008345 0.013175 -0.001323 -0.008143 -0.005385 0.010899
# 3 -0.006217 -0.001323 0.010983 -0.006496 -0.005409 0.004816
# 4 0.012334 -0.008143 -0.006496 0.030338 0.010815 -0.015588
# 5 0.011775 -0.005385 -0.005409 0.010815 0.030311 -0.007650
# 6 -0.008779 0.010899 0.004816 -0.015588 -0.007650 0.036458
#
#
# Mechanical properties :
#
#
# Convention : Reuss Voigt Hill
#
# Bulk Modulus (GPa) = 43.66484 66.89516 55.28000
# Shear Modulus (GPa) = 26.15361 42.41590 34.28476
#
# Velocity S-wave (km/s) = 3.20474 4.08123 3.66925
# Velocity P-wave (km/s) = 5.55344 6.96260 6.29756
#
# Compressibility (1/GPa) = 0.02290172
#
# Stress axis : x y z
#
# Youngs Moduli (GPa) = 32.77489 75.89889 91.04590
#
# Poissons Ratio (x) = 0.63337 0.56601
# Poissons Ratio (y) = 0.27350 0.12041
# Poissons Ratio (z) = 0.20375 0.10038
#
# Static dielectric constant tensor:
#      x y z
#    x 2.108400 0.099690 0.019080 
#    y 0.099690 2.111680 -0.057160 
#    z 0.019080 -0.057160 2.040580 
# 
# From -- ./inp_files/389724.got.cif
#   From: 2010.05.17/outbox.cif.g08.bks.cpg/sg2_195_cif.got.tgz:389724.got - 2010.06.03 11:33:40.
