data_PCOD9089767
_publ_section_title
;
Structure prediction by ZEFSAII (Michael W. Deem and Ramdas Pophale) SiO2 
 PCOD9089767
Probable space group: P -1
;
_chemical_formula_sum "Si O2"
_cell_formula_units_Z 15
_cell_length_a 14.695355
_cell_length_b 7.600913
_cell_length_c 5.403756
_cell_angle_alpha 99.232979
_cell_angle_beta 100.684289
_cell_angle_gamma 109.638759
_cell_volume 542.201021
_symmetry_space_group_name_H-M "P -1"
_symmetry_group_IT_number 2
_symmetry_cell_setting 'triclinic'
loop_
_space_group_symop_operation_xyz
x,y,z
-x,-y,-z
loop_
_atom_site_type_symbol
_atom_site_label
_atom_site_fract_x
_atom_site_fract_y
_atom_site_fract_z
Si Si1 0.459843 0.219716 0.427978
Si Si2 0.856490 0.817699 0.820703
Si Si3 0.650403 0.156549 0.449616
Si Si4 0.966687 0.644178 0.184873
Si Si5 0.715328 0.954690 0.065575
Si Si6 0.751936 0.433787 0.954192
Si Si7 0.610140 0.569257 0.196516
Si Si8 0.000000 0.000000 0.500000
O O1 0.574269 0.267198 0.427956
O O2 0.416624 0.374571 0.535017
O O3 0.428606 0.060968 0.594263
O O4 0.390243 0.115176 0.144376
O O5 0.778911 0.598983 0.784373
O O6 0.944400 0.813614 0.052973
O O7 0.804988 0.955776 0.936789
O O8 0.900666 0.878468 0.587763
O O9 0.719828 0.239422 0.740230
O O10 0.720058 0.138979 0.262328
O O11 0.855120 0.505075 0.171496
O O12 0.028077 0.792852 0.457985
O O13 0.000000 0.500000 0.000000
O O14 0.695120 0.773315 0.197543
O O15 0.661246 0.433011 0.075402
O O16 0.500000 0.500000 0.000000
#
# Coordination Sequence:
#
# PCOD9089767 Si02
#       8
#     2   2   2   2   2   2   2   1
#     4  10  21  35  62  94 131 188 227 257 335 388
#     4   9  24  45  66 102 131 173 230 278 356 415
#     4  10  20  40  59  93 145 174 219 286 317 397
#     4  10  25  47  71 104 132 171 237 286 361 424
#     4  10  22  38  62  95 130 178 232 265 337 411
#     4   9  21  43  61  98 135 170 227 277 335 409
#     4  10  19  38  61  88 134 174 217 277 319 398
#     4  12  24  48  78  92 136 178 216 304 358 416
#
# _framework density 27.665015
#
# number of rings (size 3 to 8) (size 9 to 14) (size 15 to 20)
#    0.800    1.333    1.333    0.800    1.867    3.200 
#    4.800    0.000    0.000    0.000    0.000    0.000 
#    0.000    0.000    0.000    0.000    0.000    0.000 
#
# Total GULP energy -83508.108818 kJ/mol
# GULP energy per Si atom -5567.207255 kJ/mol
# Density = 2.760205 g / cm^3
# Si number density = 27.665015 Si / 1000 Ang^3
#
#
#
# Elastic Constant Matrix: (Units=GPa)
#
#
# Indices 1 2 3 4 5 6 
#
# 1 111.6474 42.0407 16.7875 -5.8274 -33.1881 -5.1677
# 2 42.0407 120.7814 24.0656 3.6298 -36.4195 -0.2134
# 3 16.7875 24.0656 72.2316 2.5383 -40.0518 9.5756
# 4 -5.8274 3.6298 2.5383 46.3275 8.7733 -23.9045
# 5 -33.1881 -36.4195 -40.0518 8.7733 63.5177 3.6269
# 6 -5.1677 -0.2134 9.5756 -23.9045 3.6269 51.0057
#
#
#
# Elastic Compliance Matrix: (Units=1/GPa)
#
#
# Indices 1 2 3 4 5 6 
#
# 1 0.011376 -0.002791 0.000417 0.001586 0.004302 0.001500
# 2 -0.002791 0.011013 0.000776 -0.003707 0.006004 -0.002547
# 3 0.000417 0.000776 0.026045 -0.010927 0.019242 -0.011334
# 4 0.001586 -0.003707 -0.010927 0.035650 -0.014249 0.019918
# 5 0.004302 0.006004 0.019242 -0.014249 0.036244 -0.012407
# 6 0.001500 -0.002547 -0.011334 0.019918 -0.012407 0.032092
#
#
# Mechanical properties :
#
#
# Convention : Reuss Voigt Hill
#
# Bulk Modulus (GPa) = 22.10511 52.27201 37.18856
# Shear Modulus (GPa) = 29.29209 46.95459 38.12334
#
# Velocity S-wave (km/s) = 3.25747 4.12425 3.71622
# Velocity P-wave (km/s) = 4.70699 6.45096 5.64671
#
# Compressibility (1/GPa) = 0.04523841
#
# Stress axis : x y z
#
# Youngs Moduli (GPa) = 87.90526 90.79938 38.39497
#
# Poissons Ratio (x) = 0.25338 -0.01599
# Poissons Ratio (y) = 0.24530 -0.02980
# Poissons Ratio (z) = -0.03662 -0.07047
#
# Static dielectric constant tensor:
#      x y z
#    x 2.098280 -0.136460 -0.073400 
#    y -0.136460 2.474250 -0.150640 
#    z -0.073400 -0.150640 1.794830 
# 
# From -- ./inp_files/89271.got.cif
#   From: 2010.05.17/outbox.cif.g08.bks.cpg/sg2_45_cif.got.tgz:89271.got - 2010.06.03 11:33:40.
