data_PCOD9089457
_publ_section_title
;
Structure prediction by ZEFSAII (Michael W. Deem and Ramdas Pophale) SiO2 
 PCOD9089457
Probable space group: P -1
;
_chemical_formula_sum "Si O2"
_cell_formula_units_Z 15
_cell_length_a 21.421301
_cell_length_b 14.890631
_cell_length_c 10.512104
_cell_angle_alpha 46.260836
_cell_angle_beta 147.257933
_cell_angle_gamma 154.586745
_cell_volume 743.770472
_symmetry_space_group_name_H-M "P -1"
_symmetry_group_IT_number 2
_symmetry_cell_setting 'triclinic'
loop_
_space_group_symop_operation_xyz
x,y,z
-x,-y,-z
loop_
_atom_site_type_symbol
_atom_site_label
_atom_site_fract_x
_atom_site_fract_y
_atom_site_fract_z
Si Si1 0.734390 0.114652 0.464268
Si Si2 0.164424 0.528246 0.686662
Si Si3 0.897407 0.355639 0.161950
Si Si4 0.601562 0.439363 0.124518
Si Si5 0.500000 0.000000 0.000000
Si Si6 0.402590 0.046458 0.327041
Si Si7 0.788028 0.743533 0.368525
Si Si8 0.030822 0.335782 0.171691
O O1 0.710671 0.246002 0.255723
O O2 0.974454 0.310164 0.657749
O O3 0.650213 0.006532 0.562484
O O4 0.583467 0.937584 0.270748
O O5 0.298122 0.539962 0.843585
O O6 0.060030 0.506140 0.408503
O O7 0.977261 0.318279 0.243417
O O8 0.889159 0.469943 0.948792
O O9 0.680948 0.146602 0.056387
O O10 0.542911 0.279749 0.282893
O O11 0.744436 0.661710 0.228503
O O12 0.399955 0.335438 0.842289
O O13 0.500000 0.000000 0.500000
O O14 0.186854 0.879133 0.054700
O O15 0.816536 0.642896 0.596259
O O16 0.000000 0.000000 0.500000
#
# Coordination Sequence:
#
# PCOD9089457 Si02
#       8
#     2   2   2   2   1   2   2   2
#     4  10  21  34  55  89 127 156 190 241 316 372
#     4  10  19  38  56  85 122 162 190 239 311 371
#     4  10  20  35  57  91 121 156 190 257 310 369
#     4  11  23  40  64  88 125 162 211 254 304 363
#     4  10  22  32  52  86 128 158 194 230 308 384
#     4  12  21  35  62  97 121 155 196 259 318 366
#     4  11  24  41  60  91 120 168 213 260 298 357
#     4  11  21  36  60  88 125 151 205 255 311 361
#
# _framework density 20.167513
#
# number of rings (size 3 to 8) (size 9 to 14) (size 15 to 20)
#    0.000    1.333    5.333    0.800    3.733    0.000 
#    0.000    0.000    0.000    5.600    0.000    0.000 
#    0.000    0.000    0.000    0.000    0.000    0.000 
#
# Total GULP energy -83516.844667 kJ/mol
# GULP energy per Si atom -5567.789644 kJ/mol
# Density = 2.012161 g / cm^3
# Si number density = 20.167513 Si / 1000 Ang^3
#
#
#
# Elastic Constant Matrix: (Units=GPa)
#
#
# Indices 1 2 3 4 5 6 
#
# 1 101.6021 44.7522 39.4640 2.2857 19.9315 24.9512
# 2 44.7522 71.6174 35.0015 10.9035 10.1968 20.9281
# 3 39.4640 35.0015 125.5801 8.9711 28.2074 1.9754
# 4 2.2857 10.9035 8.9711 28.8337 1.3508 -0.9440
# 5 19.9315 10.1968 28.2074 1.3508 44.1661 -0.3089
# 6 24.9512 20.9281 1.9754 -0.9440 -0.3089 33.1237
#
#
#
# Elastic Compliance Matrix: (Units=1/GPa)
#
#
# Indices 1 2 3 4 5 6 
#
# 1 0.016420 -0.006318 -0.002375 0.001770 -0.004546 -0.008227
# 2 -0.006318 0.024099 -0.004021 -0.007704 0.000018 -0.010447
# 3 -0.002375 -0.004021 0.010982 -0.001359 -0.004947 0.003590
# 4 0.001770 -0.007704 -0.001359 0.037998 0.000718 0.004705
# 5 -0.004546 0.000018 -0.004947 0.000718 0.027855 0.003989
# 6 -0.008227 -0.010447 0.003590 0.004705 0.003989 0.042945
#
#
# Mechanical properties :
#
#
# Convention : Reuss Voigt Hill
#
# Bulk Modulus (GPa) = 38.35243 59.69278 49.02260
# Shear Modulus (GPa) = 25.71789 33.19685 29.45737
#
# Velocity S-wave (km/s) = 3.57489 4.06156 3.82597
# Velocity P-wave (km/s) = 6.00816 7.18734 6.62404
#
# Compressibility (1/GPa) = 0.02607397
#
# Stress axis : x y z
#
# Youngs Moduli (GPa) = 60.90104 41.49518 91.05942
#
# Poissons Ratio (x) = 0.26216 0.21627
# Poissons Ratio (y) = 0.38476 0.36613
# Poissons Ratio (z) = 0.14464 0.16684
#
# Static dielectric constant tensor:
#      x y z
#    x 1.154390 0.516020 0.845780 
#    y 0.516020 1.254260 -0.836540 
#    z 0.845780 -0.836540 0.491970 
# 
# From -- ./inp_files/443325.got.cif
#   From: 2010.05.17/outbox.cif.g08.bks.cpg/sg2_222_cif.got.tgz:443325.got - 2010.06.03 11:33:40.
