data_PCOD9089359
_publ_section_title
;
Structure prediction by ZEFSAII (Michael W. Deem and Ramdas Pophale) SiO2 
 PCOD9089359
Probable space group: P -1
;
_chemical_formula_sum "Si O2"
_cell_formula_units_Z 16
_cell_length_a 16.799270
_cell_length_b 19.573874
_cell_length_c 5.638362
_cell_angle_alpha 105.967131
_cell_angle_beta 70.086562
_cell_angle_gamma 158.831151
_cell_volume 624.537580
_symmetry_space_group_name_H-M "P -1"
_symmetry_group_IT_number 2
_symmetry_cell_setting 'triclinic'
loop_
_space_group_symop_operation_xyz
x,y,z
-x,-y,-z
loop_
_atom_site_type_symbol
_atom_site_label
_atom_site_fract_x
_atom_site_fract_y
_atom_site_fract_z
Si Si1 0.388328 0.893419 0.262595
Si Si2 0.206594 0.486807 0.870125
Si Si3 0.927005 0.224523 0.523578
Si Si4 0.397805 0.153829 0.482077
Si Si5 0.418792 0.583680 0.136242
Si Si6 0.020575 0.102258 0.573813
Si Si7 0.184471 0.209023 0.008531
Si Si8 0.897903 0.448885 0.802061
O O1 0.158860 0.761447 0.382352
O O2 0.349557 0.779257 0.175964
O O3 0.500000 0.000000 0.500000
O O4 0.500000 0.000000 0.000000
O O5 0.351357 0.648271 0.694936
O O6 0.010912 0.286378 0.768796
O O7 0.385393 0.572448 0.883968
O O8 0.102206 0.466490 0.119544
O O9 0.159533 0.386995 0.305781
O O10 0.716731 0.009070 0.482637
O O11 0.432140 0.234857 0.740527
O O12 0.220914 0.049685 0.375026
O O13 0.565770 0.630406 0.095887
O O14 0.150929 0.220601 0.307740
O O15 0.130679 0.207516 0.815969
O O16 0.000000 0.000000 0.500000
O O17 0.000000 0.000000 0.000000
O O18 0.000000 0.500000 0.500000
O O19 0.000000 0.500000 0.000000
#
# Coordination Sequence:
#
# PCOD9089359 Si02
#       8
#     2   2   2   2   2   2   2   2
#     4  12  27  47  72 101 140 183 232 292 348 417
#     4  11  25  44  71  99 139 184 231 290 352 417
#     4  11  27  46  66 105 143 177 235 294 350 420
#     4  11  24  43  70 100 136 188 232 285 356 417
#     4  11  24  42  72  99 139 187 227 293 351 412
#     4  10  19  38  66  97 134 178 233 285 333 415
#     4  10  19  37  68  97 134 180 233 280 342 408
#     4  12  25  46  73 100 137 184 231 286 353 417
#
# _framework density 25.618957000000002
#
# number of rings (size 3 to 8) (size 9 to 14) (size 15 to 20)
#    0.000    1.000    3.750    3.750    7.000    1.000 
#    0.000    1.250    0.000    0.000    0.000    0.000 
#    0.000    0.000    0.000    0.000    0.000    0.000 
#
# Total GULP energy -89401.281380 kJ/mol
# GULP energy per Si atom -5587.580086 kJ/mol
# Density = 2.556065 g / cm^3
# Si number density = 25.618957 Si / 1000 Ang^3
#
#
#
# Elastic Constant Matrix: (Units=GPa)
#
#
# Indices 1 2 3 4 5 6 
#
# 1 79.2707 22.2514 16.4070 9.5929 12.5569 14.2901
# 2 22.2514 106.4038 39.6539 -0.4267 1.8363 -6.2014
# 3 16.4070 39.6539 138.3479 1.3949 25.0725 6.5294
# 4 9.5929 -0.4267 1.3949 49.9205 14.5062 -0.1928
# 5 12.5569 1.8363 25.0725 14.5062 40.3502 10.6596
# 6 14.2901 -6.2014 6.5294 -0.1928 10.6596 52.8465
#
#
#
# Elastic Compliance Matrix: (Units=1/GPa)
#
#
# Indices 1 2 3 4 5 6 
#
# 1 0.014934 -0.003252 -0.000163 -0.002153 -0.002598 -0.003884
# 2 -0.003252 0.011422 -0.003336 0.000282 0.001868 0.002256
# 3 -0.000163 -0.003336 0.009296 0.001497 -0.006040 -0.000272
# 4 -0.002153 0.000282 0.001497 0.023089 -0.009200 0.002370
# 5 -0.002598 0.001868 -0.006040 -0.009200 0.033944 -0.005212
# 6 -0.003884 0.002256 -0.000272 0.002370 -0.005212 0.021331
#
#
# Mechanical properties :
#
#
# Convention : Reuss Voigt Hill
#
# Bulk Modulus (GPa) = 45.14832 53.40523 49.27678
# Shear Modulus (GPa) = 37.06405 45.00411 41.03408
#
# Velocity S-wave (km/s) = 3.80773 4.19581 4.00648
# Velocity P-wave (km/s) = 6.08219 6.66066 6.37799
#
# Compressibility (1/GPa) = 0.02214922
#
# Stress axis : x y z
#
# Youngs Moduli (GPa) = 66.96187 87.55101 107.57278
#
# Poissons Ratio (x) = 0.28475 0.01753
# Poissons Ratio (y) = 0.21779 0.35885
# Poissons Ratio (z) = 0.01091 0.29206
#
# Static dielectric constant tensor:
#      x y z
#    x 2.044630 -0.016570 0.037590 
#    y -0.016570 2.025530 -0.039750 
#    z 0.037590 -0.039750 2.142800 
# 
# From -- ./inp_files/112475.got.cif
#   From: 2010.05.17/outbox.cif.g08.bks.cpg/sg2_57_cif.got.tgz:112475.got - 2010.06.03 11:33:40.
