data_PCOD9089728
_publ_section_title
;
Structure prediction by ZEFSAII (Michael W. Deem and Ramdas Pophale) SiO2 
 PCOD9089728
Probable space group: P -1
;
_chemical_formula_sum "Si O2"
_cell_formula_units_Z 16
_cell_length_a 5.153329
_cell_length_b 28.998968
_cell_length_c 17.282916
_cell_angle_alpha 161.584070
_cell_angle_beta 86.314488
_cell_angle_gamma 101.373003
_cell_volume 734.328090
_symmetry_space_group_name_H-M "P -1"
_symmetry_group_IT_number 2
_symmetry_cell_setting 'triclinic'
loop_
_space_group_symop_operation_xyz
x,y,z
-x,-y,-z
loop_
_atom_site_type_symbol
_atom_site_label
_atom_site_fract_x
_atom_site_fract_y
_atom_site_fract_z
Si Si1 0.214076 0.275751 0.687551
Si Si2 0.767486 0.310148 0.650982
Si Si3 0.051327 0.593749 0.371807
Si Si4 0.381427 0.324053 0.407037
Si Si5 0.299205 0.018272 0.822174
Si Si6 0.439812 0.655823 0.924962
Si Si7 0.110829 0.157823 0.665262
Si Si8 0.457778 0.950588 0.301395
O O1 0.501363 0.336186 0.729468
O O2 0.243221 0.282691 0.789819
O O3 0.005959 0.349622 0.776292
O O4 0.025852 0.084780 0.367600
O O5 0.889601 0.386196 0.687784
O O6 0.658694 0.113776 0.334795
O O7 0.345464 0.637227 0.481378
O O8 0.898005 0.705848 0.582825
O O9 0.813238 0.416845 0.121061
O O10 0.432135 0.490784 0.627292
O O11 0.339044 0.177613 0.119318
O O12 0.491978 0.050691 0.793367
O O13 0.741729 0.750434 0.113713
O O14 0.386203 0.776232 0.060900
O O15 0.230065 0.021876 0.436481
O O16 0.766614 0.073159 0.527999
#
# Coordination Sequence:
#
# PCOD9089728 Si02
#       8
#     2   2   2   2   2   2   2   2
#     4   9  19  36  60  90 112 147 202 245 291 328
#     4  10  19  38  61  85 120 151 200 244 280 352
#     4  10  24  40  55  88 123 161 194 232 298 349
#     4  10  24  39  58  88 124 160 188 241 295 354
#     4   9  22  38  64  88 119 149 203 244 291 342
#     4  10  26  40  60  88 126 154 197 234 303 352
#     4  11  21  40  65  90 115 151 200 249 291 345
#     4  11  23  39  67  90 112 155 199 250 291 341
#
# _framework density 21.788627000000002
#
# number of rings (size 3 to 8) (size 9 to 14) (size 15 to 20)
#    1.500    0.500    1.250    1.500    5.250    1.500 
#    0.000    1.875    0.000    0.000    0.000    0.000 
#    0.000    0.000    0.000    0.000    0.000    0.000 
#
# Total GULP energy -89387.850768 kJ/mol
# GULP energy per Si atom -5586.740673 kJ/mol
# Density = 2.173904 g / cm^3
# Si number density = 21.788627 Si / 1000 Ang^3
#
#
#
# Elastic Constant Matrix: (Units=GPa)
#
#
# Indices 1 2 3 4 5 6 
#
# 1 109.5956 13.3125 22.8163 4.8419 -12.1997 -8.1102
# 2 13.3125 88.7342 38.9157 24.7947 2.2698 1.5094
# 3 22.8163 38.9157 114.1716 5.5751 -27.9159 -0.5301
# 4 4.8419 24.7947 5.5751 24.3526 -1.0154 1.5991
# 5 -12.1997 2.2698 -27.9159 -1.0154 22.6717 2.4545
# 6 -8.1102 1.5094 -0.5301 1.5991 2.4545 30.4346
#
#
#
# Elastic Compliance Matrix: (Units=1/GPa)
#
#
# Indices 1 2 3 4 5 6 
#
# 1 0.010105 -0.001437 -0.000287 -0.000430 0.004951 0.002382
# 2 -0.001437 0.022258 -0.010394 -0.020749 -0.016813 0.000778
# 3 -0.000287 -0.010394 0.017624 0.007667 0.023095 -0.001519
# 4 -0.000430 -0.020749 0.007667 0.061339 0.014395 -0.003336
# 5 0.004951 -0.016813 0.023095 0.014395 0.078024 -0.004494
# 6 0.002382 0.000778 -0.001519 -0.003336 -0.004494 0.033965
#
#
# Mechanical properties :
#
#
# Convention : Reuss Voigt Hill
#
# Bulk Modulus (GPa) = 38.83181 51.39894 45.11538
# Shear Modulus (GPa) = 19.52093 31.32223 25.42158
#
# Velocity S-wave (km/s) = 2.99644 3.79562 3.41946
# Velocity P-wave (km/s) = 5.46190 6.54599 6.02836
#
# Compressibility (1/GPa) = 0.02575208
#
# Stress axis : x y z
#
# Youngs Moduli (GPa) = 98.95907 44.92702 56.73972
#
# Poissons Ratio (x) = 0.06457 0.01628
# Poissons Ratio (y) = 0.14222 0.58974
# Poissons Ratio (z) = 0.02840 0.46696
#
# Static dielectric constant tensor:
#      x y z
#    x 1.794300 0.003270 -0.016310 
#    y 0.003270 1.774410 0.048780 
#    z -0.016310 0.048780 1.849310 
# 
# From -- ./inp_files/548837.got.cif
#   From: 2010.05.17/outbox.cif.g08.bks.cpg/sg2_275_cif.got.tgz:548837.got - 2010.06.03 11:33:40.
