data_PCOD9089277
_publ_section_title
;
Structure prediction by ZEFSAII (Michael W. Deem and Ramdas Pophale) SiO2 
 PCOD9089277
Probable space group: P -1
;
_chemical_formula_sum "Si O2"
_cell_formula_units_Z 16
_cell_length_a 8.968237
_cell_length_b 9.888084
_cell_length_c 8.828483
_cell_angle_alpha 67.962339
_cell_angle_beta 96.324047
_cell_angle_gamma 103.575970
_cell_volume 705.209588
_symmetry_space_group_name_H-M "P -1"
_symmetry_group_IT_number 2
_symmetry_cell_setting 'triclinic'
loop_
_space_group_symop_operation_xyz
x,y,z
-x,-y,-z
loop_
_atom_site_type_symbol
_atom_site_label
_atom_site_fract_x
_atom_site_fract_y
_atom_site_fract_z
Si Si1 0.365124 0.428962 0.893852
Si Si2 0.665010 0.351436 0.436936
Si Si3 0.096059 0.952689 0.726581
Si Si4 0.638531 0.111570 0.046643
Si Si5 0.347355 0.597351 0.242863
Si Si6 0.532736 0.871931 0.671333
Si Si7 0.896492 0.621557 0.890428
Si Si8 0.175099 0.925423 0.404181
O O1 0.281426 0.536114 0.739700
O O2 0.475969 0.373581 0.808621
O O3 0.500000 0.500000 0.000000
O O4 0.221978 0.342886 0.009637
O O5 0.652918 0.416852 0.571854
O O6 0.499595 0.269104 0.383477
O O7 0.769077 0.228899 0.520008
O O8 0.226562 0.968726 0.858701
O O9 0.166361 0.977077 0.555882
O O10 0.003128 0.779627 0.790208
O O11 0.986912 0.068620 0.687169
O O12 0.577387 0.161310 0.181477
O O13 0.699099 0.251770 0.886890
O O14 0.500000 0.000000 0.000000
O O15 0.223898 0.462026 0.213828
O O16 0.500000 0.000000 0.500000
O O17 0.699703 0.946477 0.715555
O O18 0.000000 0.500000 0.000000
#
# Coordination Sequence:
#
# PCOD9089277 Si02
#       8
#     2   2   2   2   2   2   2   2
#     4  10  23  41  70  99 130 181 231 279 338 415
#     4  11  21  43  68  99 139 172 237 283 345 405
#     4  11  23  42  67 101 139 180 232 279 347 412
#     4  12  23  42  69 101 137 177 233 287 342 412
#     4  11  25  41  67 105 131 182 233 284 343 402
#     4  10  19  37  67  89 129 181 222 280 332 396
#     4  11  22  44  70  95 139 184 226 280 346 412
#     4  10  23  40  68 101 132 186 230 279 346 406
#
# _framework density 22.688289999999999
#
# number of rings (size 3 to 8) (size 9 to 14) (size 15 to 20)
#    0.000    1.250    3.750    4.125    5.250    0.000 
#    0.000    6.250    0.000    0.000    0.000    0.000 
#    0.000    0.000    0.000    0.000    0.000    0.000 
#
# Total GULP energy -89283.547883 kJ/mol
# GULP energy per Si atom -5580.221743 kJ/mol
# Density = 2.263665 g / cm^3
# Si number density = 22.688290 Si / 1000 Ang^3
#
#
#
# Elastic Constant Matrix: (Units=GPa)
#
#
# Indices 1 2 3 4 5 6 
#
# 1 115.8975 4.0860 22.8831 4.6949 28.4246 -9.7877
# 2 4.0860 38.4391 27.4875 11.0043 17.8964 2.0303
# 3 22.8831 27.4875 113.4393 0.0287 14.3441 0.9618
# 4 4.6949 11.0043 0.0287 34.0386 -2.3924 5.4683
# 5 28.4246 17.8964 14.3441 -2.3924 41.4919 -5.3270
# 6 -9.7877 2.0303 0.9618 5.4683 -5.3270 26.7136
#
#
#
# Elastic Compliance Matrix: (Units=1/GPa)
#
#
# Indices 1 2 3 4 5 6 
#
# 1 0.011810 0.006555 -0.002746 -0.004916 -0.009871 0.002966
# 2 0.006555 0.048630 -0.010147 -0.017947 -0.023235 -0.001889
# 3 -0.002746 -0.010147 0.011536 0.003976 0.002372 -0.000991
# 4 -0.004916 -0.017947 0.003976 0.037611 0.011125 -0.006061
# 5 -0.009871 -0.023235 0.002372 0.011125 0.041221 0.004006
# 6 0.002966 -0.001889 -0.000991 -0.006061 0.004006 0.040740
#
#
# Mechanical properties :
#
#
# Convention : Reuss Voigt Hill
#
# Bulk Modulus (GPa) = 16.86386 41.85434 29.35910
# Shear Modulus (GPa) = 22.32241 34.67010 28.49626
#
# Velocity S-wave (km/s) = 3.14008 3.91334 3.54784
# Velocity P-wave (km/s) = 4.53826 6.23751 5.45446
#
# Compressibility (1/GPa) = 0.05929839
#
# Stress axis : x y z
#
# Youngs Moduli (GPa) = 84.67357 20.56346 86.68884
#
# Poissons Ratio (x) = -0.13480 0.23808
# Poissons Ratio (y) = -0.55504 0.87965
# Poissons Ratio (z) = 0.23255 0.20866
#
# Static dielectric constant tensor:
#      x y z
#    x 1.927430 -0.046480 0.026920 
#    y -0.046480 1.900990 -0.048260 
#    z 0.026920 -0.048260 1.838620 
# 
# From -- ./inp_files/176498.got.cif
#   From: 2010.05.17/outbox.cif.g08.bks.cpg/sg2_89_cif.got.tgz:176498.got - 2010.06.03 11:33:40.
