data_PCOD9089130
_publ_section_title
;
Structure prediction by ZEFSAII (Michael W. Deem and Ramdas Pophale) SiO2 
 PCOD9089130
Probable space group: P -1
;
_chemical_formula_sum "Si O2"
_cell_formula_units_Z 16
_cell_length_a 7.085579
_cell_length_b 7.363515
_cell_length_c 12.472128
_cell_angle_alpha 82.193455
_cell_angle_beta 107.953860
_cell_angle_gamma 102.270372
_cell_volume 603.168270
_symmetry_space_group_name_H-M "P -1"
_symmetry_group_IT_number 2
_symmetry_cell_setting 'triclinic'
loop_
_space_group_symop_operation_xyz
x,y,z
-x,-y,-z
loop_
_atom_site_type_symbol
_atom_site_label
_atom_site_fract_x
_atom_site_fract_y
_atom_site_fract_z
Si Si1 0.323601 0.726636 0.664992
Si Si2 0.378292 0.097692 0.736823
Si Si3 0.304145 0.408475 0.544945
Si Si4 0.224964 0.012915 0.957159
Si Si5 0.547784 0.634303 0.898150
Si Si6 0.834027 0.384202 0.906893
Si Si7 0.853524 0.122904 0.775129
Si Si8 0.312812 0.098278 0.416333
O O1 0.219110 0.582012 0.569039
O O2 0.350475 0.658341 0.795768
O O3 0.557822 0.772420 0.661534
O O4 0.262824 0.926435 0.658121
O O5 0.345402 0.292329 0.667081
O O6 0.614959 0.097459 0.759270
O O7 0.328294 0.061587 0.855100
O O8 0.500000 0.500000 0.500000
O O9 0.217319 0.236788 0.464564
O O10 0.234902 0.809268 0.022654
O O11 0.327722 0.176404 0.042950
O O12 0.920193 0.332951 0.811317
O O13 0.672743 0.515589 0.855549
O O14 0.994118 0.018365 0.881249
O O15 0.500000 0.500000 0.000000
O O16 0.000000 0.500000 0.000000
O O17 0.852266 0.056180 0.658581
O O18 0.500000 0.000000 0.500000
#
# Coordination Sequence:
#
# PCOD9089130 Si02
#       8
#     2   2   2   2   2   2   2   2
#     4  10  21  35  66  96 130 173 227 270 338 410
#     4  11  23  43  69  96 137 177 226 282 347 403
#     4  10  20  38  67 100 128 171 227 284 339 407
#     4  12  26  45  67 102 145 182 229 286 340 417
#     4  12  25  42  68 105 138 184 228 276 347 420
#     4  12  26  43  66 100 146 182 229 285 340 412
#     4  11  23  43  71  96 135 184 226 278 350 407
#     4  10  19  37  65  94 125 172 225 275 339 393
#
# _framework density 26.526592000000001
#
# number of rings (size 3 to 8) (size 9 to 14) (size 15 to 20)
#    0.000    1.000    3.750    4.875    3.500    1.500 
#    0.000    0.625    0.000    1.500    0.000    0.000 
#    0.000    0.000    0.000    0.000    0.000    0.000 
#
# Total GULP energy -89295.226938 kJ/mol
# GULP energy per Si atom -5580.951684 kJ/mol
# Density = 2.646622 g / cm^3
# Si number density = 26.526592 Si / 1000 Ang^3
#
#
#
# Elastic Constant Matrix: (Units=GPa)
#
#
# Indices 1 2 3 4 5 6 
#
# 1 53.7048 27.5969 -2.5754 3.2852 -4.8456 -1.9016
# 2 27.5969 183.0324 68.6017 31.2343 -3.6040 -18.8325
# 3 -2.5754 68.6017 94.1037 31.5753 -9.8728 -5.3154
# 4 3.2852 31.2343 31.5753 82.3591 -8.1472 -5.3303
# 5 -4.8456 -3.6040 -9.8728 -8.1472 33.2822 6.7983
# 6 -1.9016 -18.8325 -5.3154 -5.3303 6.7983 36.7346
#
#
#
# Elastic Compliance Matrix: (Units=1/GPa)
#
#
# Indices 1 2 3 4 5 6 
#
# 1 0.021835 -0.005110 0.004837 -0.000470 0.004282 -0.001650
# 2 -0.005110 0.009206 -0.006664 -0.000748 -0.002700 0.003882
# 3 0.004837 -0.006664 0.017316 -0.003988 0.004569 -0.002084
# 4 -0.000470 -0.000748 -0.003988 0.014217 0.002003 0.000707
# 5 0.004282 -0.002700 0.004569 0.002003 0.033534 -0.006417
# 6 -0.001650 0.003882 -0.002084 0.000707 -0.006417 0.030115
#
#
# Mechanical properties :
#
#
# Convention : Reuss Voigt Hill
#
# Bulk Modulus (GPa) = 28.99993 57.56527 43.28260
# Shear Modulus (GPa) = 32.98346 46.28971 39.63659
#
# Velocity S-wave (km/s) = 3.53003 4.18189 3.86971
# Velocity P-wave (km/s) = 5.25080 6.71310 6.02647
#
# Compressibility (1/GPa) = 0.03448284
#
# Stress axis : x y z
#
# Youngs Moduli (GPa) = 45.79811 108.63054 57.74916
#
# Poissons Ratio (x) = 0.55513 -0.27933
# Poissons Ratio (y) = 0.23404 0.38481
# Poissons Ratio (z) = -0.22152 0.72387
#
# Static dielectric constant tensor:
#      x y z
#    x 2.363720 -0.011840 -0.074820 
#    y -0.011840 2.203300 0.071970 
#    z -0.074820 0.071970 2.200390 
# 
# From -- ./inp_files/378768.got.cif
#   From: 2010.05.17/outbox.cif.g08.bks.cpg/sg2_190_cif.got.tgz:378768.got - 2010.06.03 11:33:40.
