data_PCOD9089758
_publ_section_title
;
Structure prediction by ZEFSAII (Michael W. Deem and Ramdas Pophale) SiO2 
 PCOD9089758
Probable space group: P -1
;
_chemical_formula_sum "Si O2"
_cell_formula_units_Z 16
_cell_length_a 18.300923
_cell_length_b 7.707756
_cell_length_c 9.310088
_cell_angle_alpha 69.490092
_cell_angle_beta 44.536370
_cell_angle_gamma 99.347930
_cell_volume 671.741798
_symmetry_space_group_name_H-M "P -1"
_symmetry_group_IT_number 2
_symmetry_cell_setting 'triclinic'
loop_
_space_group_symop_operation_xyz
x,y,z
-x,-y,-z
loop_
_atom_site_type_symbol
_atom_site_label
_atom_site_fract_x
_atom_site_fract_y
_atom_site_fract_z
Si Si1 0.775055 0.220329 0.832554
Si Si2 0.648031 0.581588 0.265883
Si Si3 0.330295 0.075949 0.676909
Si Si4 0.203312 0.611151 0.829601
Si Si5 0.965092 0.719933 0.589906
Si Si6 0.530696 0.329875 0.066516
Si Si7 0.702929 0.098550 0.652071
Si Si8 0.775856 0.770335 0.719164
O O1 0.865846 0.474681 0.708215
O O2 0.710406 0.175553 0.781702
O O3 0.885079 0.179203 0.672076
O O4 0.659969 0.030425 0.159253
O O5 0.500000 0.500000 0.500000
O O6 0.713217 0.769780 0.252481
O O7 0.674269 0.394384 0.308774
O O8 0.702739 0.688725 0.000475
O O9 0.458785 0.227364 0.351679
O O10 0.224408 0.837031 0.805301
O O11 0.210295 0.666911 0.636358
O O12 0.083282 0.379054 0.150834
O O13 0.922595 0.864822 0.532097
O O14 0.445691 0.098493 0.149531
O O15 0.500000 0.500000 0.000000
O O16 0.688808 0.527591 0.816871
O O17 0.764614 0.958873 0.609168
#
# Coordination Sequence:
#
# PCOD9089758 Si02
#       8
#     2   2   2   2   2   2   2   2
#     4  10  20  39  63  88 117 153 213 255 288 355
#     4  11  20  36  62  88 118 161 208 243 291 364
#     4  10  19  38  63  86 119 160 206 245 291 362
#     4   9  22  40  56  89 122 160 197 248 312 351
#     4   9  21  40  63  84 117 161 205 253 297 349
#     4   9  19  36  59  83 125 157 183 243 309 357
#     4  10  20  38  57  89 123 152 198 244 308 358
#     4  10  19  38  61  88 119 160 199 244 302 359
#
# _framework density 23.818674999999999
#
# number of rings (size 3 to 8) (size 9 to 14) (size 15 to 20)
#    0.000    2.250    2.500    0.000    0.000    1.500 
#   13.500    1.250    0.000    8.250    0.000    0.000 
#    0.000    0.000    0.000    0.000    0.000    0.000 
#
# Total GULP energy -89254.732746 kJ/mol
# GULP energy per Si atom -5578.420797 kJ/mol
# Density = 2.376446 g / cm^3
# Si number density = 23.818675 Si / 1000 Ang^3
#
#
#
# Elastic Constant Matrix: (Units=GPa)
#
#
# Indices 1 2 3 4 5 6 
#
# 1 134.1551 26.9928 64.1769 0.9057 11.2890 0.3403
# 2 26.9928 83.2676 24.1520 -10.1168 5.7370 12.7511
# 3 64.1769 24.1520 79.2816 -16.4065 29.2236 -3.5843
# 4 0.9057 -10.1168 -16.4065 33.7277 3.4347 -1.2928
# 5 11.2890 5.7370 29.2236 3.4347 48.2607 4.3260
# 6 0.3403 12.7511 -3.5843 -1.2928 4.3260 47.7962
#
#
#
# Elastic Compliance Matrix: (Units=1/GPa)
#
#
# Indices 1 2 3 4 5 6 
#
# 1 0.015248 -0.001488 -0.016871 -0.009922 0.007706 -0.001943
# 2 -0.001488 0.014254 -0.003015 0.002629 0.000651 -0.004006
# 3 -0.016871 -0.003015 0.040081 0.021544 -0.022083 0.006511
# 4 -0.009922 0.002629 0.021544 0.042782 -0.014391 0.003444
# 5 0.007706 0.000651 -0.022083 -0.014391 0.033714 -0.005325
# 6 -0.001943 -0.004006 0.006511 0.003444 -0.005325 0.023068
#
#
# Mechanical properties :
#
#
# Convention : Reuss Voigt Hill
#
# Bulk Modulus (GPa) = 37.26473 58.59419 47.92946
# Shear Modulus (GPa) = 22.64086 38.04909 30.34497
#
# Velocity S-wave (km/s) = 3.08644 4.00114 3.57318
# Velocity P-wave (km/s) = 5.32735 6.78226 6.09835
#
# Compressibility (1/GPa) = 0.02683503
#
# Stress axis : x y z
#
# Youngs Moduli (GPa) = 65.58390 70.15370 24.94961
#
# Poissons Ratio (x) = 0.10441 0.42092
# Poissons Ratio (y) = 0.09761 0.07521
# Poissons Ratio (z) = 1.10646 0.21149
#
# Static dielectric constant tensor:
#      x y z
#    x 1.927410 0.001960 -0.026050 
#    y 0.001960 2.094020 -0.019190 
#    z -0.026050 -0.019190 1.881120 
# 
# From -- ./inp_files/328695.got.cif
#   From: 2010.05.17/outbox.cif.g08.bks.cpg/sg2_165_cif.got.tgz:328695.got - 2010.06.03 11:33:40.
