data_PCOD9089383
_publ_section_title
;
Structure prediction by ZEFSAII (Michael W. Deem and Ramdas Pophale) SiO2 
 PCOD9089383
Probable space group: P -1
;
_chemical_formula_sum "Si O2"
_cell_formula_units_Z 16
_cell_length_a 17.353419
_cell_length_b 7.301417
_cell_length_c 8.902349
_cell_angle_alpha 53.316103
_cell_angle_beta 131.517690
_cell_angle_gamma 96.215793
_cell_volume 594.481283
_symmetry_space_group_name_H-M "P -1"
_symmetry_group_IT_number 2
_symmetry_cell_setting 'triclinic'
loop_
_space_group_symop_operation_xyz
x,y,z
-x,-y,-z
loop_
_atom_site_type_symbol
_atom_site_label
_atom_site_fract_x
_atom_site_fract_y
_atom_site_fract_z
Si Si1 0.031686 0.375154 0.267043
Si Si2 0.213831 0.139082 0.836331
Si Si3 0.404297 0.148766 0.616010
Si Si4 0.591423 0.247445 0.929599
Si Si5 0.789013 0.767408 0.884788
Si Si6 0.420665 0.382513 0.025806
Si Si7 0.815720 0.278441 0.608351
Si Si8 0.022455 0.997399 0.780920
O O1 0.035724 0.103432 0.367206
O O2 0.150610 0.332433 0.520043
O O3 0.922940 0.553273 0.144143
O O4 0.000000 0.500000 0.000000
O O5 0.102820 0.107105 0.762635
O O6 0.251608 0.214000 0.004836
O O7 0.317093 0.884643 0.021191
O O8 0.461420 0.318792 0.669659
O O9 0.286649 0.295734 0.298918
O O10 0.385411 0.982926 0.806398
O O11 0.500711 0.925792 0.740833
O O12 0.603733 0.478410 0.912125
O O13 0.781303 0.040960 0.691256
O O14 0.305920 0.485271 0.722617
O O15 0.500000 0.500000 0.000000
O O16 0.884281 0.230408 0.878105
O O17 0.916015 0.190946 0.653270
#
# Coordination Sequence:
#
# PCOD9089383 Si02
#       8
#     2   2   2   2   2   2   2   2
#     4  12  23  40  68  98 128 175 224 269 333 403
#     4  11  25  44  64  96 140 170 214 282 339 398
#     4  10  22  42  69  96 128 178 233 272 328 402
#     4  10  21  41  67  97 127 175 224 278 323 401
#     4  11  22  42  64  92 139 167 218 278 331 390
#     4  10  19  37  69  94 130 169 226 276 324 384
#     4  10  19  40  64  97 129 179 216 267 330 402
#     4  10  23  40  67  94 137 174 220 269 336 404
#
# _framework density 26.914221999999999
#
# number of rings (size 3 to 8) (size 9 to 14) (size 15 to 20)
#    0.000    1.500    3.750    2.250    0.000    4.500 
#    4.500    0.625    0.000    0.000    0.000    0.000 
#    0.000    0.000    0.000    0.000    0.000    0.000 
#
# Total GULP energy -89680.603450 kJ/mol
# GULP energy per Si atom -5605.037716 kJ/mol
# Density = 2.685296 g / cm^3
# Si number density = 26.914222 Si / 1000 Ang^3
#
#
#
# Elastic Constant Matrix: (Units=GPa)
#
#
# Indices 1 2 3 4 5 6 
#
# 1 105.7734 12.3987 38.4524 9.0600 -0.0783 -18.9930
# 2 12.3987 108.9110 33.7632 39.4229 11.3578 -21.3808
# 3 38.4524 33.7632 100.4508 37.6040 27.2302 3.8288
# 4 9.0600 39.4229 37.6040 56.8922 9.5222 5.5575
# 5 -0.0783 11.3578 27.2302 9.5222 40.1032 6.9031
# 6 -18.9930 -21.3808 3.8288 5.5575 6.9031 45.2439
#
#
#
# Elastic Compliance Matrix: (Units=1/GPa)
#
#
# Indices 1 2 3 4 5 6 
#
# 1 0.012695 0.001352 -0.006406 0.000200 0.002904 0.006042
# 2 0.001352 0.015428 -0.001467 -0.010453 -0.002551 0.009655
# 3 -0.006406 -0.001467 0.018899 -0.008549 -0.009985 -0.002408
# 4 0.000200 -0.010453 -0.008549 0.030770 0.002897 -0.008354
# 5 0.002904 -0.002551 -0.009985 0.002897 0.032524 -0.004460
# 6 0.006042 0.009655 -0.002408 -0.008354 -0.004460 0.031112
#
#
# Mechanical properties :
#
#
# Convention : Reuss Voigt Hill
#
# Bulk Modulus (GPa) = 29.42916 53.81820 41.62368
# Shear Modulus (GPa) = 30.15760 43.81591 36.98675
#
# Velocity S-wave (km/s) = 3.35103 4.03920 3.71110
# Velocity P-wave (km/s) = 5.09222 6.46476 5.81910
#
# Compressibility (1/GPa) = 0.03397991
#
# Stress axis : x y z
#
# Youngs Moduli (GPa) = 78.77343 64.81872 52.91217
#
# Poissons Ratio (x) = -0.08763 0.33896
# Poissons Ratio (y) = -0.10649 0.07760
# Poissons Ratio (z) = 0.50464 0.09506
#
# Static dielectric constant tensor:
#      x y z
#    x 2.307610 0.248440 -0.173740 
#    y 0.248440 2.333360 -0.095290 
#    z -0.173740 -0.095290 2.143030 
# 
# From -- ./inp_files/328616.got.cif
#   From: 2010.05.17/outbox.cif.g08.bks.cpg/sg2_165_cif.got.tgz:328616.got - 2010.06.03 11:33:40.
