data_PCOD9089902
_publ_section_title
;
Structure prediction by ZEFSAII (Michael W. Deem and Ramdas Pophale) SiO2 
 PCOD9089902
Probable space group: P -1
;
_chemical_formula_sum "Si O2"
_cell_formula_units_Z 16
_cell_length_a 8.634494
_cell_length_b 15.234744
_cell_length_c 15.441046
_cell_angle_alpha 27.543697
_cell_angle_beta 83.320976
_cell_angle_gamma 65.440030
_cell_volume 683.621586
_symmetry_space_group_name_H-M "P -1"
_symmetry_group_IT_number 2
_symmetry_cell_setting 'triclinic'
loop_
_space_group_symop_operation_xyz
x,y,z
-x,-y,-z
loop_
_atom_site_type_symbol
_atom_site_label
_atom_site_fract_x
_atom_site_fract_y
_atom_site_fract_z
Si Si1 0.893796 0.132529 0.176193
Si Si2 0.647920 0.802083 0.394396
Si Si3 0.867602 0.938265 0.165204
Si Si4 0.431547 0.807434 0.726678
Si Si5 0.138343 0.394063 0.272772
Si Si6 0.833029 0.039241 0.541394
Si Si7 0.759413 0.695487 0.917474
Si Si8 0.324360 0.594787 0.357624
O O1 0.712746 0.194774 0.195641
O O2 0.887988 0.032934 0.172214
O O3 0.861929 0.382478 0.943040
O O4 0.112751 0.923516 0.400048
O O5 0.731489 0.864973 0.257661
O O6 0.834446 0.643122 0.593521
O O7 0.597283 0.636277 0.508438
O O8 0.441863 0.060176 0.228690
O O9 0.104941 0.705944 0.318787
O O10 0.744736 0.168778 0.902219
O O11 0.386643 0.768984 0.666206
O O12 0.661140 0.632153 0.909664
O O13 0.328510 0.104599 0.478008
O O14 0.927376 0.487495 0.159403
O O15 0.856327 0.794230 0.772731
O O16 0.000000 0.000000 0.500000
O O17 0.500000 0.500000 0.500000
#
# Coordination Sequence:
#
# PCOD9089902 Si02
#       8
#     2   2   2   2   2   2   2   2
#     4  10  19  38  62  89 122 167 203 254 309 365
#     4  11  23  43  64  94 125 163 204 254 316 368
#     4  11  23  45  64  92 130 159 207 257 307 372
#     4  10  20  41  59  91 126 165 211 260 308 354
#     4  10  21  37  63  88 122 165 204 256 306 366
#     4   9  20  36  62  90 128 167 208 258 309 357
#     4  10  21  35  64  92 122 166 212 255 300 373
#     4  11  27  42  69  96 122 162 204 257 311 377
#
# _framework density 23.404761000000001
#
# number of rings (size 3 to 8) (size 9 to 14) (size 15 to 20)
#    0.000    1.750    3.750    0.750    3.500    3.500 
#    0.000    7.500    0.000   19.500    0.000    0.000 
#    0.000    0.000    0.000    0.000    0.000    0.000 
#
# Total GULP energy -89517.954595 kJ/mol
# GULP energy per Si atom -5594.872162 kJ/mol
# Density = 2.335149 g / cm^3
# Si number density = 23.404761 Si / 1000 Ang^3
#
#
#
# Elastic Constant Matrix: (Units=GPa)
#
#
# Indices 1 2 3 4 5 6 
#
# 1 105.1094 14.5085 52.4026 11.8431 17.9989 2.8883
# 2 14.5085 58.7443 51.5315 18.4348 18.5294 3.4828
# 3 52.4026 51.5315 95.4288 7.5628 17.5797 8.1436
# 4 11.8431 18.4348 7.5628 31.7363 12.0880 4.3331
# 5 17.9989 18.5294 17.5797 12.0880 57.2961 18.2855
# 6 2.8883 3.4828 8.1436 4.3331 18.2855 44.8949
#
#
#
# Elastic Compliance Matrix: (Units=1/GPa)
#
#
# Indices 1 2 3 4 5 6 
#
# 1 0.016879 0.013042 -0.015124 -0.009198 -0.003941 0.003139
# 2 0.013042 0.052482 -0.032609 -0.025517 -0.007801 0.006645
# 3 -0.015124 -0.032609 0.035065 0.015860 0.002980 -0.005602
# 4 -0.009198 -0.025517 0.015860 0.047467 -0.002505 -0.003867
# 5 -0.003941 -0.007801 0.002980 -0.002505 0.023735 -0.009107
# 6 0.003139 0.006645 -0.005602 -0.003867 -0.009107 0.026656
#
#
# Mechanical properties :
#
#
# Convention : Reuss Voigt Hill
#
# Bulk Modulus (GPa) = 28.53683 55.12972 41.83327
# Shear Modulus (GPa) = 17.64623 36.17480 26.91051
#
# Velocity S-wave (km/s) = 2.74881 3.93570 3.39453
# Velocity P-wave (km/s) = 4.72163 6.65275 5.76857
#
# Compressibility (1/GPa) = 0.03504244
#
# Stress axis : x y z
#
# Youngs Moduli (GPa) = 59.24605 19.05427 28.51827
#
# Poissons Ratio (x) = -0.24850 0.43131
# Poissons Ratio (y) = -0.77267 0.92996
# Poissons Ratio (z) = 0.89604 0.62135
#
# Static dielectric constant tensor:
#      x y z
#    x 1.907280 -0.004740 -0.010500 
#    y -0.004740 1.880100 -0.020910 
#    z -0.010500 -0.020910 1.909450 
# 
# From -- ./inp_files/359033.got.cif
#   From: 2010.05.17/outbox.cif.g08.bks.cpg/sg2_180_cif.got.tgz:359033.got - 2010.06.03 11:33:40.
