data_PCOD9089096
_publ_section_title
;
Structure prediction by ZEFSAII (Michael W. Deem and Ramdas Pophale) SiO2 
 PCOD9089096
Probable space group: P -1
;
_chemical_formula_sum "Si O2"
_cell_formula_units_Z 16
_cell_length_a 7.033934
_cell_length_b 12.587870
_cell_length_c 7.472169
_cell_angle_alpha 100.079019
_cell_angle_beta 72.528513
_cell_angle_gamma 90.767860
_cell_volume 620.801446
_symmetry_space_group_name_H-M "P -1"
_symmetry_group_IT_number 2
_symmetry_cell_setting 'triclinic'
loop_
_space_group_symop_operation_xyz
x,y,z
-x,-y,-z
loop_
_atom_site_type_symbol
_atom_site_label
_atom_site_fract_x
_atom_site_fract_y
_atom_site_fract_z
Si Si1 0.059420 0.599423 0.894307
Si Si2 0.545083 0.368287 0.639983
Si Si3 0.535042 0.602993 0.720269
Si Si4 0.304062 0.162526 0.166947
Si Si5 0.566067 0.162072 0.773087
Si Si6 0.770276 0.971263 0.508314
Si Si7 0.014574 0.216393 0.762144
Si Si8 0.025201 0.705452 0.597983
O O1 0.298218 0.605079 0.824184
O O2 0.984390 0.605389 0.711665
O O3 0.973037 0.702967 0.055341
O O4 0.000000 0.500000 0.000000
O O5 0.600679 0.483578 0.739238
O O6 0.418975 0.397658 0.507356
O O7 0.476177 0.279348 0.770458
O O8 0.739522 0.304810 0.489281
O O9 0.615357 0.716575 0.793702
O O10 0.326427 0.090234 0.315267
O O11 0.065469 0.189208 0.242986
O O12 0.420209 0.117212 0.950532
O O13 0.784648 0.179856 0.806972
O O14 0.631657 0.079922 0.569707
O O15 0.822382 0.882784 0.315293
O O16 0.000000 0.000000 0.500000
O O17 0.042924 0.279506 0.583339
#
# Coordination Sequence:
#
# PCOD9089096 Si02
#       8
#     2   2   2   2   2   2   2   2
#     4  11  23  38  62  91 128 165 211 255 313 371
#     4   9  21  40  61  85 132 164 203 256 311 372
#     4  10  22  39  60  90 125 168 206 257 309 373
#     4  11  21  37  64  91 124 157 211 258 312 367
#     4  10  19  37  65  90 121 161 211 259 306 368
#     4   9  20  38  65  90 121 164 205 256 320 369
#     4   9  19  40  63  85 124 164 204 256 314 369
#     4   9  22  38  56  89 122 163 202 251 306 373
#
# _framework density 25.773135
#
# number of rings (size 3 to 8) (size 9 to 14) (size 15 to 20)
#    0.000    2.250    1.250    1.125    1.750    9.500 
#    0.000    0.625    5.500    8.250    0.000    0.000 
#    0.000    0.000    0.000    0.000    0.000    0.000 
#
# Total GULP energy -89315.353527 kJ/mol
# GULP energy per Si atom -5582.209595 kJ/mol
# Density = 2.571447 g / cm^3
# Si number density = 25.773135 Si / 1000 Ang^3
#
#
#
# Elastic Constant Matrix: (Units=GPa)
#
#
# Indices 1 2 3 4 5 6 
#
# 1 57.6078 23.6880 27.2230 -0.4526 -24.0890 3.5528
# 2 23.6880 132.2146 41.3792 4.6569 -4.9377 -9.4128
# 3 27.2230 41.3792 136.1031 -2.9929 -17.3777 -1.2277
# 4 -0.4526 4.6569 -2.9929 52.6864 -5.6102 -2.4392
# 5 -24.0890 -4.9377 -17.3777 -5.6102 45.3976 1.0348
# 6 3.5528 -9.4128 -1.2277 -2.4392 1.0348 37.5395
#
#
#
# Elastic Compliance Matrix: (Units=1/GPa)
#
#
# Indices 1 2 3 4 5 6 
#
# 1 0.025440 -0.003661 -0.002382 0.001565 0.012465 -0.003646
# 2 -0.003661 0.009077 -0.002286 -0.001061 -0.002019 0.002535
# 3 -0.002382 -0.002286 0.008788 0.000887 0.001962 -0.000057
# 4 0.001565 -0.001061 0.000887 0.019542 0.003452 0.000789
# 5 0.012465 -0.002019 0.001962 0.003452 0.029651 -0.002215
# 6 -0.003646 0.002535 -0.000057 0.000789 -0.002215 0.027730
#
#
# Mechanical properties :
#
#
# Convention : Reuss Voigt Hill
#
# Bulk Modulus (GPa) = 37.52819 56.72288 47.12553
# Shear Modulus (GPa) = 34.30111 42.70039 38.50075
#
# Velocity S-wave (km/s) = 3.65209 4.07477 3.86921
# Velocity P-wave (km/s) = 5.69001 6.64791 6.18752
#
# Compressibility (1/GPa) = 0.02664664
#
# Stress axis : x y z
#
# Youngs Moduli (GPa) = 39.30887 110.16579 113.78767
#
# Poissons Ratio (x) = 0.40337 0.27105
# Poissons Ratio (y) = 0.14393 0.26008
# Poissons Ratio (z) = 0.09364 0.25181
#
# Static dielectric constant tensor:
#      x y z
#    x 2.155590 -0.001110 0.002220 
#    y -0.001110 2.085250 -0.019450 
#    z 0.002220 -0.019450 2.062670 
# 
# From -- ./inp_files/179898.got.cif
#   From: 2010.05.17/outbox.cif.g08.bks.cpg/sg2_90_cif.got.tgz:179898.got - 2010.06.03 11:33:40.
