data_PCOD9089672
_publ_section_title
;
Structure prediction by ZEFSAII (Michael W. Deem and Ramdas Pophale) SiO2 
 PCOD9089672
Probable space group: P -1
;
_chemical_formula_sum "Si O2"
_cell_formula_units_Z 16
_cell_length_a 9.518787
_cell_length_b 28.996134
_cell_length_c 17.089484
_cell_angle_alpha 162.196509
_cell_angle_beta 37.628224
_cell_angle_gamma 135.812982
_cell_volume 863.044522
_symmetry_space_group_name_H-M "P -1"
_symmetry_group_IT_number 2
_symmetry_cell_setting 'triclinic'
loop_
_space_group_symop_operation_xyz
x,y,z
-x,-y,-z
loop_
_atom_site_type_symbol
_atom_site_label
_atom_site_fract_x
_atom_site_fract_y
_atom_site_fract_z
Si Si1 0.641718 0.723117 0.282813
Si Si2 0.930818 0.781409 0.703291
Si Si3 0.261188 0.886642 0.612121
Si Si4 0.411155 0.839729 0.294251
Si Si5 0.681942 0.400473 0.661136
Si Si6 0.727674 0.500972 0.629021
Si Si7 0.197422 0.697826 0.012993
Si Si8 0.498203 0.353299 0.353446
O O1 0.509765 0.857958 0.502127
O O2 0.491663 0.706593 0.401170
O O3 0.916021 0.720324 0.169577
O O4 0.617689 0.569832 0.999072
O O5 0.691429 0.752891 0.726305
O O6 0.115909 0.776802 0.544186
O O7 0.057728 0.665152 0.525682
O O8 0.876675 0.943852 0.033167
O O9 0.281734 0.859551 0.467282
O O10 0.266340 0.801262 0.220273
O O11 0.500000 0.000000 0.500000
O O12 0.600727 0.679870 0.963319
O O13 0.675017 0.428235 0.617193
O O14 0.645750 0.394888 0.427765
O O15 0.000000 0.500000 0.500000
O O16 0.325643 0.519155 0.680419
O O17 0.322855 0.722504 0.915765
#
# Coordination Sequence:
#
# PCOD9089672 Si02
#       8
#     2   2   2   2   2   2   2   2
#     4  10  19  38  60  89 117 148 195 243 287 340
#     4  10  21  40  63  86 119 158 191 235 293 352
#     4  10  22  39  61  88 120 155 194 235 290 353
#     4  11  24  40  58  85 120 157 192 238 297 345
#     4  10  20  36  64  86 115 155 191 240 291 340
#     4  11  24  38  59  89 117 151 199 244 284 346
#     4  10  21  37  59  86 117 153 195 241 285 347
#     4  10  21  36  59  86 116 155 194 237 292 340
#
# _framework density 18.539019
#
# number of rings (size 3 to 8) (size 9 to 14) (size 15 to 20)
#    0.000    1.750    2.500    1.500    5.250    1.000 
#    2.250    3.750    0.000    4.500    0.000    0.000 
#    0.000    0.000    0.000    0.000    0.000    0.000 
#
# Total GULP energy -89139.808979 kJ/mol
# GULP energy per Si atom -5571.238061 kJ/mol
# Density = 1.849682 g / cm^3
# Si number density = 18.539019 Si / 1000 Ang^3
#
#
#
# Elastic Constant Matrix: (Units=GPa)
#
#
# Indices 1 2 3 4 5 6 
#
# 1 134.2237 79.2544 48.2937 -32.9879 15.1424 1.4490
# 2 79.2544 84.8415 31.9053 -23.5826 13.9648 -0.9455
# 3 48.2937 31.9053 71.0197 -15.4227 11.5218 -8.1994
# 4 -32.9879 -23.5826 -15.4227 27.5968 -1.6778 -4.0507
# 5 15.1424 13.9648 11.5218 -1.6778 27.4084 -1.7792
# 6 1.4490 -0.9455 -8.1994 -4.0507 -1.7792 34.9029
#
#
#
# Elastic Compliance Matrix: (Units=1/GPa)
#
#
# Indices 1 2 3 4 5 6 
#
# 1 0.019914 -0.014043 -0.005375 0.008503 -0.001167 -0.001543
# 2 -0.014043 0.027889 -0.000381 0.006738 -0.005766 0.001737
# 3 -0.005375 -0.000381 0.020418 0.005159 -0.004755 0.005366
# 4 0.008503 0.006738 0.005159 0.055704 -0.006423 0.007179
# 5 -0.001167 -0.005766 -0.004755 -0.006423 0.041684 0.000154
# 6 -0.001543 0.001737 0.005366 0.007179 0.000154 0.030864
#
#
# Mechanical properties :
#
#
# Convention : Reuss Voigt Hill
#
# Bulk Modulus (GPa) = 34.93588 67.66573 51.30080
# Shear Modulus (GPa) = 20.35730 26.69038 23.52384
#
# Velocity S-wave (km/s) = 3.31732 3.79844 3.56600
# Velocity P-wave (km/s) = 5.79295 7.47100 6.68484
#
# Compressibility (1/GPa) = 0.02862387
#
# Stress axis : x y z
#
# Youngs Moduli (GPa) = 50.21543 35.85581 48.97627
#
# Poissons Ratio (x) = 0.50352 0.26326
# Poissons Ratio (y) = 0.70518 0.01864
# Poissons Ratio (z) = 0.26992 0.01365
#
# Static dielectric constant tensor:
#      x y z
#    x 1.631070 -0.014310 -0.022440 
#    y -0.014310 1.699460 0.013620 
#    z -0.022440 0.013620 1.639960 
# 
# From -- ./inp_files/243132.got.cif
#   From: 2010.05.17/outbox.cif.g08.bks.cpg/sg2_122_cif.got.tgz:243132.got - 2010.06.03 11:33:40.
