data_PCOD9089059
_publ_section_title
;
Structure prediction by ZEFSAII (Michael W. Deem and Ramdas Pophale) SiO2 
 PCOD9089059
Probable space group: P -1
;
_chemical_formula_sum "Si O2"
_cell_formula_units_Z 16
_cell_length_a 11.359926
_cell_length_b 20.047100
_cell_length_c 5.303698
_cell_angle_alpha 58.297974
_cell_angle_beta 63.942807
_cell_angle_gamma 39.397473
_cell_volume 650.989753
_symmetry_space_group_name_H-M "P -1"
_symmetry_group_IT_number 2
_symmetry_cell_setting 'triclinic'
loop_
_space_group_symop_operation_xyz
x,y,z
-x,-y,-z
loop_
_atom_site_type_symbol
_atom_site_label
_atom_site_fract_x
_atom_site_fract_y
_atom_site_fract_z
Si Si1 0.017547 0.683766 0.304594
Si Si2 0.743177 0.317078 0.229054
Si Si3 0.341263 0.185431 0.835635
Si Si4 0.600620 0.533612 0.463859
Si Si5 0.004644 0.140206 0.776847
Si Si6 0.237479 0.841854 0.727571
Si Si7 0.639705 0.981731 0.601746
Si Si8 0.465179 0.766708 0.143673
O O1 0.181381 0.575100 0.526684
O O2 0.951941 0.793853 0.268374
O O3 0.834985 0.711323 0.364628
O O4 0.136546 0.658084 0.995169
O O5 0.524105 0.417196 0.264969
O O6 0.843255 0.229617 0.542788
O O7 0.752036 0.258245 0.091714
O O8 0.396562 0.222931 0.924581
O O9 0.519192 0.084335 0.704055
O O10 0.275079 0.130136 0.117814
O O11 0.500000 0.500000 0.500000
O O12 0.565497 0.641001 0.235163
O O13 0.190550 0.045499 0.630039
O O14 0.970982 0.078379 0.116701
O O15 0.327382 0.823238 0.409054
O O16 0.358161 0.825714 0.868251
O O17 0.500000 0.000000 0.500000
#
# Coordination Sequence:
#
# PCOD9089059 Si02
#       8
#     2   2   2   2   2   2   2   2
#     4  11  21  35  64  99 139 175 233 278 335 412
#     4  10  19  37  65 100 135 170 225 288 335 395
#     4  11  26  43  67 101 136 186 229 290 347 413
#     4  11  20  38  67 104 137 187 227 275 340 410
#     4  11  19  39  70 101 132 172 233 290 338 402
#     4  10  21  41  67  96 133 186 217 282 344 400
#     4  11  24  45  72  97 129 180 241 286 349 415
#     4  11  25  44  67  99 151 183 225 282 347 411
#
# _framework density 24.577957999999999
#
# number of rings (size 3 to 8) (size 9 to 14) (size 15 to 20)
#    0.000    1.250    6.250    1.125    1.750    1.500 
#    0.000    1.250    0.000    5.250    0.000    0.000 
#    0.000    0.000    0.000    0.000    0.000    0.000 
#
# Total GULP energy -89085.468382 kJ/mol
# GULP energy per Si atom -5567.841774 kJ/mol
# Density = 2.452202 g / cm^3
# Si number density = 24.577958 Si / 1000 Ang^3
#
#
#
# Elastic Constant Matrix: (Units=GPa)
#
#
# Indices 1 2 3 4 5 6 
#
# 1 138.9815 31.7252 6.3752 -8.8765 24.9015 15.9006
# 2 31.7252 72.5217 3.0997 -22.2902 5.7812 -0.5602
# 3 6.3752 3.0997 58.0131 2.3891 3.8916 9.9762
# 4 -8.8765 -22.2902 2.3891 29.4028 2.3466 -4.1505
# 5 24.9015 5.7812 3.8916 2.3466 40.5475 5.3967
# 6 15.9006 -0.5602 9.9762 -4.1505 5.3967 38.7848
#
#
#
# Elastic Compliance Matrix: (Units=1/GPa)
#
#
# Indices 1 2 3 4 5 6 
#
# 1 0.009251 -0.003735 0.000058 -0.000121 -0.004719 -0.003218
# 2 -0.003735 0.020358 -0.001901 0.015202 -0.001865 0.004201
# 3 0.000058 -0.001901 0.018397 -0.003583 -0.000647 -0.005077
# 4 -0.000121 0.015202 -0.003583 0.047209 -0.005412 0.006996
# 5 -0.004719 -0.001865 -0.000647 -0.005412 0.028531 -0.002475
# 6 -0.003218 0.004201 -0.005077 0.006996 -0.002475 0.029562
#
#
# Mechanical properties :
#
#
# Convention : Reuss Voigt Hill
#
# Bulk Modulus (GPa) = 27.13744 39.10183 33.11964
# Shear Modulus (GPa) = 28.28902 36.96811 32.62856
#
# Velocity S-wave (km/s) = 3.39631 3.88250 3.64751
# Velocity P-wave (km/s) = 5.14249 6.00352 5.58961
#
# Compressibility (1/GPa) = 0.03684945
#
# Stress axis : x y z
#
# Youngs Moduli (GPa) = 108.09458 49.12111 54.35780
#
# Poissons Ratio (x) = 0.18349 -0.00315
# Poissons Ratio (y) = 0.40378 0.10331
# Poissons Ratio (z) = -0.00626 0.09336
#
# Static dielectric constant tensor:
#      x y z
#    x 1.996590 -0.116090 -0.024160 
#    y -0.116090 4.246690 1.330940 
#    z -0.024160 1.330940 2.990150 
# 
# From -- ./inp_files/82466.got.cif
#   From: 2010.05.17/outbox.cif.g08.bks.cpg/sg2_42_cif.got.tgz:82466.got - 2010.06.03 11:33:40.
