data_PCOD9089508
_publ_section_title
;
Structure prediction by ZEFSAII (Michael W. Deem and Ramdas Pophale) SiO2 
 PCOD9089508
Probable space group: P -1
;
_chemical_formula_sum "Si O2"
_cell_formula_units_Z 14
_cell_length_a 5.471814
_cell_length_b 5.315359
_cell_length_c 20.664153
_cell_angle_alpha 117.715317
_cell_angle_beta 85.373517
_cell_angle_gamma 97.607991
_cell_volume 527.247119
_symmetry_space_group_name_H-M "P -1"
_symmetry_group_IT_number 2
_symmetry_cell_setting 'triclinic'
loop_
_space_group_symop_operation_xyz
x,y,z
-x,-y,-z
loop_
_atom_site_type_symbol
_atom_site_label
_atom_site_fract_x
_atom_site_fract_y
_atom_site_fract_z
Si Si1 0.902873 0.795175 0.554219
Si Si2 0.268498 0.669191 0.336770
Si Si3 0.419098 0.402992 0.061390
Si Si4 0.751314 0.722091 0.403964
Si Si5 0.393893 0.867156 0.227006
Si Si6 0.109611 0.720869 0.895314
Si Si7 0.912345 0.963800 0.202502
O O1 0.769294 0.819288 0.489589
O O2 0.000000 0.500000 0.500000
O O3 0.726624 0.978161 0.621238
O O4 0.161124 0.971118 0.593262
O O5 0.486651 0.599927 0.370656
O O6 0.327578 0.632460 0.256187
O O7 0.997060 0.574125 0.360537
O O8 0.418440 0.690863 0.138942
O O9 0.626868 0.227471 0.068323
O O10 0.137081 0.263579 0.055313
O O11 0.500000 0.500000 0.000000
O O12 0.662875 0.031443 0.250206
O O13 0.171474 0.056355 0.242544
O O14 0.099722 0.383096 0.836373
O O15 0.090937 0.911428 0.854768
#
# Coordination Sequence:
#
# PCOD9089508 Si02
#       7
#     2   2   2   2   2   2   2
#     4   9  20  36  58  84 115 149 196 237 292 350
#     4  10  19  38  58  81 120 149 196 239 298 352
#     4  10  21  40  63  93 123 162 208 255 311 368
#     4   9  20  36  58  81 114 152 188 242 287 355
#     4  10  21  38  62  86 122 161 200 261 302 371
#     4  10  21  40  63  90 121 161 208 257 311 370
#     4  10  21  40  64  87 125 162 204 255 313 366
#
# _framework density 26.553014000000001
#
# number of rings (size 3 to 8) (size 9 to 14) (size 15 to 20)
#    0.857    1.429    0.000    2.571    0.000    0.571 
#    0.000   25.714    0.000    0.000    0.000    0.000 
#    0.000    0.000    0.000    0.000    0.000    0.000 
#
# Total GULP energy -78045.665155 kJ/mol
# GULP energy per Si atom -5574.690368 kJ/mol
# Density = 2.649258 g / cm^3
# Si number density = 26.553014 Si / 1000 Ang^3
#
#
#
# Elastic Constant Matrix: (Units=GPa)
#
#
# Indices 1 2 3 4 5 6 
#
# 1 231.9353 19.6499 8.9603 -3.5808 17.3869 6.5356
# 2 19.6499 65.8344 10.4833 3.1789 2.7532 1.4391
# 3 8.9603 10.4833 97.9027 -20.0834 5.1129 3.5619
# 4 -3.5808 3.1789 -20.0834 50.1299 -12.5096 -6.2462
# 5 17.3869 2.7532 5.1129 -12.5096 43.6146 -3.4029
# 6 6.5356 1.4391 3.5619 -6.2462 -3.4029 30.9059
#
#
#
# Elastic Compliance Matrix: (Units=1/GPa)
#
#
# Indices 1 2 3 4 5 6 
#
# 1 0.004594 -0.001218 -0.000210 -0.000299 -0.001906 -0.001161
# 2 -0.001218 0.016038 -0.001986 -0.002253 -0.001005 -0.000826
# 3 -0.000210 -0.001986 0.011408 0.004707 0.000206 -0.000204
# 4 -0.000299 -0.002253 0.004707 0.024399 0.007124 0.005341
# 5 -0.001906 -0.001005 0.000206 0.007124 0.026141 0.004744
# 6 -0.001161 -0.000826 -0.000204 0.005341 0.004744 0.034266
#
#
# Mechanical properties :
#
#
# Convention : Reuss Voigt Hill
#
# Bulk Modulus (GPa) = 39.66075 52.65105 46.15590
# Shear Modulus (GPa) = 37.85663 48.70201 43.27932
#
# Velocity S-wave (km/s) = 3.77994 4.28733 4.04161
# Velocity P-wave (km/s) = 5.83262 6.66183 6.26097
#
# Compressibility (1/GPa) = 0.02521385
#
# Stress axis : x y z
#
# Youngs Moduli (GPa) = 217.68257 62.35071 87.65523
#
# Poissons Ratio (x) = 0.07596 0.01836
# Poissons Ratio (y) = 0.26520 0.17404
# Poissons Ratio (z) = 0.04561 0.12380
#
# Static dielectric constant tensor:
#      x y z
#    x 2.118100 0.060700 0.022130 
#    y 0.060700 2.355690 -0.009040 
#    z 0.022130 -0.009040 2.048620 
# 
# From -- ./inp_files/581154.got.cif
#   From: 2010.05.17/outbox.cif.g08.bks.cpg/sg2_291_cif.got.tgz:581154.got - 2010.06.03 11:33:40.
