data_PCOD9089122
_publ_section_title
;
Structure prediction by ZEFSAII (Michael W. Deem and Ramdas Pophale) SiO2 
 PCOD9089122
Probable space group: P -1
;
_chemical_formula_sum "Si O2"
_cell_formula_units_Z 14
_cell_length_a 16.798365
_cell_length_b 13.418883
_cell_length_c 11.513626
_cell_angle_alpha 145.251185
_cell_angle_beta 151.371235
_cell_angle_gamma 31.594535
_cell_volume 622.517152
_symmetry_space_group_name_H-M "P -1"
_symmetry_group_IT_number 2
_symmetry_cell_setting 'triclinic'
loop_
_space_group_symop_operation_xyz
x,y,z
-x,-y,-z
loop_
_atom_site_type_symbol
_atom_site_label
_atom_site_fract_x
_atom_site_fract_y
_atom_site_fract_z
Si Si1 0.687112 0.866685 0.535273
Si Si2 0.413824 0.770997 0.396429
Si Si3 0.675762 0.477513 0.123271
Si Si4 0.639836 0.087702 0.287801
Si Si5 0.044680 0.710348 0.494960
Si Si6 0.821303 0.708776 0.789811
Si Si7 0.198612 0.919501 0.741068
O O1 0.656910 0.691172 0.274852
O O2 0.840464 0.773914 0.745471
O O3 0.500000 0.000000 0.500000
O O4 0.705676 0.006656 0.597964
O O5 0.623274 0.705756 0.552467
O O6 0.421671 0.770759 0.544438
O O7 0.329271 0.640140 0.108029
O O8 0.867682 0.362103 0.334458
O O9 0.500000 0.500000 0.000000
O O10 0.843819 0.904850 0.410805
O O11 0.655148 0.174546 0.266379
O O12 0.500000 0.000000 0.000000
O O13 0.034587 0.526057 0.241564
O O14 0.196618 0.766185 0.684271
O O15 0.806052 0.884972 0.021312
O O16 0.000000 0.000000 0.500000
#
# Coordination Sequence:
#
# PCOD9089122 Si02
#       7
#     2   2   2   2   2   2   2
#     4   9  18  32  60  92 116 155 193 247 308 365
#     4  11  21  37  62  90 132 159 193 261 311 361
#     4  11  19  35  63 100 119 153 211 249 308 377
#     4  11  24  43  60  88 129 171 204 254 315 356
#     4  10  23  41  68  90 121 162 211 258 299 373
#     4  10  19  37  65  93 116 159 213 250 302 373
#     4  10  22  40  63  86 119 165 219 246 298 364
#
# _framework density 22.489339999999999
#
# number of rings (size 3 to 8) (size 9 to 14) (size 15 to 20)
#    0.000    1.714    5.714    0.857    2.000    2.857 
#    0.000    7.857    0.000    0.000    0.000    0.000 
#    0.000    0.000    0.000    0.000    0.000    0.000 
#
# Total GULP energy -78146.040620 kJ/mol
# GULP energy per Si atom -5581.860044 kJ/mol
# Density = 2.243815 g / cm^3
# Si number density = 22.489340 Si / 1000 Ang^3
#
#
#
# Elastic Constant Matrix: (Units=GPa)
#
#
# Indices 1 2 3 4 5 6 
#
# 1 52.2949 -14.5282 37.6274 12.4208 -13.4699 -5.0379
# 2 -14.5282 42.9898 21.2306 9.9794 6.4405 6.9483
# 3 37.6274 21.2306 157.2813 35.4932 -28.0343 8.5219
# 4 12.4208 9.9794 35.4932 41.4974 -5.9915 8.8007
# 5 -13.4699 6.4405 -28.0343 -5.9915 26.2869 1.3515
# 6 -5.0379 6.9483 8.5219 8.8007 1.3515 8.9216
#
#
#
# Elastic Compliance Matrix: (Units=1/GPa)
#
#
# Indices 1 2 3 4 5 6 
#
# 1 0.035909 0.014715 -0.009261 -0.012679 0.000481 0.030097
# 2 0.014715 0.036579 -0.008995 -0.006616 -0.012359 -0.003189
# 3 -0.009261 -0.008995 0.012832 -0.002347 0.011115 -0.009850
# 4 -0.012679 -0.006616 -0.002347 0.040644 0.003965 -0.040460
# 5 0.000481 -0.012359 0.011115 0.003965 0.054739 -0.012923
# 6 0.030097 -0.003189 -0.009850 -0.040460 -0.012923 0.182843
#
#
# Mechanical properties :
#
#
# Convention : Reuss Voigt Hill
#
# Bulk Modulus (GPa) = 12.78135 37.91396 25.34766
# Shear Modulus (GPa) = 12.60375 29.22360 20.91367
#
# Velocity S-wave (km/s) = 2.36991 3.60869 3.05280
# Velocity P-wave (km/s) = 3.63102 5.85310 4.87047
#
# Compressibility (1/GPa) = 0.07823897
#
# Stress axis : x y z
#
# Youngs Moduli (GPa) = 27.84850 27.33786 77.92885
#
# Poissons Ratio (x) = -0.40228 0.72166
# Poissons Ratio (y) = -0.40980 0.70099
# Poissons Ratio (z) = 0.25789 0.24591
#
# Static dielectric constant tensor:
#      x y z
#    x 1.879890 0.009390 -0.018810 
#    y 0.009390 1.941360 0.011590 
#    z -0.018810 0.011590 1.820410 
# 
# From -- ./inp_files/379619.got.cif
#   From: 2010.05.17/outbox.cif.g08.bks.cpg/sg2_190_cif.got.tgz:379619.got - 2010.06.03 11:33:40.
