data_PCOD9090863
_publ_section_title
;
Structure prediction by ZEFSAII (Michael W. Deem and Ramdas Pophale) SiO2 
 PCOD9090863
Probable space group: P -1
;
_chemical_formula_sum "Si O2"
_cell_formula_units_Z 16
_cell_length_a 10.627514
_cell_length_b 11.277418
_cell_length_c 7.599830
_cell_angle_alpha 57.953245
_cell_angle_beta 58.364240
_cell_angle_gamma 66.326281
_cell_volume 647.669588
_symmetry_space_group_name_H-M "P -1"
_symmetry_group_IT_number 2
_symmetry_cell_setting 'triclinic'
loop_
_space_group_symop_operation_xyz
x,y,z
-x,-y,-z
loop_
_atom_site_type_symbol
_atom_site_label
_atom_site_fract_x
_atom_site_fract_y
_atom_site_fract_z
Si Si1 0.672841 0.724609 0.688011
Si Si2 0.977545 0.560303 0.692445
Si Si3 0.277796 0.677611 0.292584
Si Si4 0.134128 0.982575 0.151206
Si Si5 0.128189 0.307017 0.957778
Si Si6 0.198781 0.995099 0.677087
Si Si7 0.398537 0.407208 0.797854
Si Si8 0.636462 0.312537 0.189614
O O1 0.541475 0.688998 0.688795
O O2 0.832530 0.620693 0.635361
O O3 0.702609 0.883576 0.517789
O O4 0.614047 0.703151 0.944786
O O5 0.126644 0.616025 0.481053
O O6 0.015186 0.390672 0.830894
O O7 0.934993 0.631831 0.857196
O O8 0.424294 0.604791 0.349818
O O9 0.243276 0.843137 0.244475
O O10 0.315843 0.666496 0.064702
O O11 0.962984 0.964110 0.326389
O O12 0.149395 0.138845 0.078032
O O13 0.163916 0.985890 0.917186
O O14 0.287499 0.358837 0.776219
O O15 0.279185 0.838967 0.687444
O O16 0.334199 0.557900 0.815256
#
# Coordination Sequence:
#
# PCOD9090863 Si02
#       8
#     2   2   2   2   2   2   2   2
#     4  10  19  39  60  92 119 154 201 245 299 355
#     4  10  22  40  61  90 121 160 207 247 293 363
#     4  10  20  41  63  91 122 155 205 250 302 350
#     4  10  22  39  61  92 125 157 195 256 299 355
#     4  10  24  42  59  86 125 165 203 240 303 358
#     4  10  21  38  63  94 122 152 203 249 307 351
#     4  10  23  42  61  90 125 162 199 244 301 364
#     4  10  22  39  65  91 126 156 193 254 307 352
#
# _framework density 24.703954
#
# number of rings (size 3 to 8) (size 9 to 14) (size 15 to 20)
#    0.000    2.000    1.250    1.875    5.250    3.500 
#    2.250    6.250    0.000    0.000    0.000    0.000 
#    0.000    0.000    0.000    0.000    0.000    0.000 
#
# Total GULP energy -89637.955344 kJ/mol
# GULP energy per Si atom -5602.372209 kJ/mol
# Density = 2.464773 g / cm^3
# Si number density = 24.703954 Si / 1000 Ang^3
#
#
#
# Elastic Constant Matrix: (Units=GPa)
#
#
# Indices 1 2 3 4 5 6 
#
# 1 70.1193 37.9664 11.1548 14.0385 -23.6279 -16.7817
# 2 37.9664 133.4098 29.0074 -22.2734 0.5820 -5.3002
# 3 11.1548 29.0074 94.7321 4.6979 -26.4058 -1.8092
# 4 14.0385 -22.2734 4.6979 39.1811 2.1484 -8.7028
# 5 -23.6279 0.5820 -26.4058 2.1484 43.9592 -1.9887
# 6 -16.7817 -5.3002 -1.8092 -8.7028 -1.9887 28.2306
#
#
#
# Elastic Compliance Matrix: (Units=1/GPa)
#
#
# Indices 1 2 3 4 5 6 
#
# 1 0.041079 -0.017437 0.010519 -0.023878 0.030547 0.016611
# 2 -0.017437 0.017067 -0.008453 0.017033 -0.015669 -0.003556
# 3 0.010519 -0.008453 0.017185 -0.010747 0.016778 0.003636
# 4 -0.023878 0.017033 -0.010747 0.046489 -0.021737 0.001115
# 5 0.030547 -0.015669 0.016778 -0.021737 0.051112 0.013192
# 6 0.016611 -0.003556 0.003636 0.001115 0.013192 0.046135
#
#
# Mechanical properties :
#
#
# Convention : Reuss Voigt Hill
#
# Bulk Modulus (GPa) = 22.42793 50.50206 36.46499
# Shear Modulus (GPa) = 18.89123 36.94969 27.92046
#
# Velocity S-wave (km/s) = 2.76833 3.87162 3.36549
# Velocity P-wave (km/s) = 4.39506 6.36186 5.46762
#
# Compressibility (1/GPa) = 0.04458727
#
# Stress axis : x y z
#
# Youngs Moduli (GPa) = 24.34326 58.59336 58.19029
#
# Poissons Ratio (x) = 1.02172 -0.61208
# Poissons Ratio (y) = 0.42448 0.49188
# Poissons Ratio (z) = -0.25606 0.49529
#
# Static dielectric constant tensor:
#      x y z
#    x 1.973490 -0.023900 0.019620 
#    y -0.023900 1.923900 0.021460 
#    z 0.019620 0.021460 1.987270 
# 
# From -- ./inp_files/261403.got.cif
#   From: 2010.05.17/outbox.cif.g08.bks.cpg/sg2_131_cif.got.tgz:261403.got - 2010.06.03 11:33:40.
