data_PCOD9090061
_publ_section_title
;
Structure prediction by ZEFSAII (Michael W. Deem and Ramdas Pophale) SiO2 
 PCOD9090061
Probable space group: P -1
;
_chemical_formula_sum "Si O2"
_cell_formula_units_Z 14
_cell_length_a 7.785827
_cell_length_b 16.987737
_cell_length_c 20.566260
_cell_angle_alpha 19.739918
_cell_angle_beta 138.750757
_cell_angle_gamma 132.878375
_cell_volume 601.214939
_symmetry_space_group_name_H-M "P -1"
_symmetry_group_IT_number 2
_symmetry_cell_setting 'triclinic'
loop_
_space_group_symop_operation_xyz
x,y,z
-x,-y,-z
loop_
_atom_site_type_symbol
_atom_site_label
_atom_site_fract_x
_atom_site_fract_y
_atom_site_fract_z
Si Si1 0.609596 0.694308 0.424176
Si Si2 0.379265 0.647939 0.538290
Si Si3 0.888708 0.885235 0.860019
Si Si4 0.920998 0.741727 0.668406
Si Si5 0.346890 0.375152 0.110972
Si Si6 0.840354 0.430572 0.268295
Si Si7 0.483118 0.864998 0.031762
O O1 0.500000 0.500000 0.500000
O O2 0.485076 0.677274 0.472862
O O3 0.928808 0.642443 0.558154
O O4 0.515252 0.946319 0.170947
O O5 0.615971 0.711073 0.603213
O O6 0.330817 0.376715 0.739787
O O7 0.146299 0.850311 0.330535
O O8 0.742164 0.845744 0.781033
O O9 0.795263 0.711838 0.023599
O O10 0.190633 0.791368 0.007114
O O11 0.024976 0.675038 0.677511
O O12 0.000000 0.000000 0.500000
O O13 0.089630 0.559381 0.906022
O O14 0.553792 0.342966 0.253347
O O15 0.500000 0.500000 0.000000
O O16 0.500000 0.000000 0.000000
#
# Coordination Sequence:
#
# PCOD9090061 Si02
#       7
#     2   2   2   2   2   2   2
#     4  11  22  42  62  85 122 161 199 257 305 351
#     4  11  21  39  65  90 119 162 202 246 302 360
#     4  10  19  38  63  91 122 158 202 244 301 360
#     4   9  14  27  57  89 115 157 196 234 294 358
#     4   8  14  28  54  87 118 156 195 241 292 357
#     4   9  17  33  56  88 121 157 200 244 295 357
#     4  12  23  43  63  85 125 158 203 257 301 352
#
# _framework density 23.286182
#
# number of rings (size 3 to 8) (size 9 to 14) (size 15 to 20)
#    0.000    2.286    5.714    2.571    0.000    0.571 
#    2.571    2.143    0.000    4.286    0.000    0.000 
#    0.000    0.000    0.000    0.000    0.000    0.000 
#
# Total GULP energy -78140.582401 kJ/mol
# GULP energy per Si atom -5581.470171 kJ/mol
# Density = 2.323318 g / cm^3
# Si number density = 23.286182 Si / 1000 Ang^3
#
#
#
# Elastic Constant Matrix: (Units=GPa)
#
#
# Indices 1 2 3 4 5 6 
#
# 1 27.7737 12.0116 15.3636 6.1006 -10.7796 -15.5623
# 2 12.0116 123.6463 49.4884 -12.5473 -4.8942 -6.8593
# 3 15.3636 49.4884 144.0574 -27.7248 -6.7548 -29.3800
# 4 6.1006 -12.5473 -27.7248 46.3271 -4.4277 7.6255
# 5 -10.7796 -4.8942 -6.7548 -4.4277 33.2520 -3.7315
# 6 -15.5623 -6.8593 -29.3800 7.6255 -3.7315 8.6340
#
#
#
# Elastic Compliance Matrix: (Units=1/GPa)
#
#
# Indices 1 2 3 4 5 6 
#
# 1 -0.010269 0.002977 -0.017093 0.004431 -0.015293 -0.084832
# 2 0.002977 0.008996 -0.001488 0.000000 0.002967 0.008733
# 3 -0.017093 -0.001488 0.007041 0.008491 -0.005194 -0.017776
# 4 0.004431 0.000000 0.008491 0.023661 0.008519 0.019666
# 5 -0.015293 0.002967 -0.005194 0.008519 0.020994 -0.041332
# 6 -0.084832 0.008733 -0.017776 0.019666 -0.041332 -0.125867
#
#
# Mechanical properties :
#
#
# Convention : Reuss Voigt Hill
#
# Bulk Modulus (GPa) = -39.30916 49.91163 5.30124
# Shear Modulus (GPa) = -94.84418 32.21688 -31.31365
#
# Velocity S-wave (km/s) = -6.38891 3.72360 -3.67104
# Velocity P-wave (km/s) = 8.44641 6.32199 3.96070
#
# Compressibility (1/GPa) = -0.02543937
#
# Stress axis : x y z
#
# Youngs Moduli (GPa) = -97.37921 111.16416 142.02592
#
# Poissons Ratio (x) = -0.33095 2.42764
# Poissons Ratio (y) = 0.28991 0.21129
# Poissons Ratio (z) = -1.66450 0.16537
#
# Static dielectric constant tensor:
#      x y z
#    x 1.886010 0.032140 -0.026520 
#    y 0.032140 1.942280 0.047590 
#    z -0.026520 0.047590 1.976870 
# 
# From -- ./inp_files/590934.got.cif
#   From: 2010.05.17/outbox.cif.g08.bks.cpg/sg2_296_cif.got.tgz:590934.got - 2010.06.03 11:33:40.
