data_PCOD9090994
_publ_section_title
;
Structure prediction by ZEFSAII (Michael W. Deem and Ramdas Pophale) SiO2 
 PCOD9090994
Probable space group: P -1
;
_chemical_formula_sum "Si O2"
_cell_formula_units_Z 16
_cell_length_a 13.933302
_cell_length_b 7.359099
_cell_length_c 14.385211
_cell_angle_alpha 52.718656
_cell_angle_beta 44.321638
_cell_angle_gamma 41.053148
_cell_volume 669.748903
_symmetry_space_group_name_H-M "P -1"
_symmetry_group_IT_number 2
_symmetry_cell_setting 'triclinic'
loop_
_space_group_symop_operation_xyz
x,y,z
-x,-y,-z
loop_
_atom_site_type_symbol
_atom_site_label
_atom_site_fract_x
_atom_site_fract_y
_atom_site_fract_z
Si Si1 0.500119 0.351036 0.449742
Si Si2 0.693260 0.802300 0.949097
Si Si3 0.216714 0.655828 0.392755
Si Si4 0.760160 0.407242 0.178769
Si Si5 0.890991 0.015103 0.985188
Si Si6 0.678486 0.314363 0.884385
Si Si7 0.989754 0.677982 0.676064
Si Si8 0.296303 0.218211 0.733901
O O1 0.500000 0.500000 0.500000
O O2 0.355549 0.560114 0.409035
O O3 0.678819 0.241167 0.312543
O O4 0.449896 0.144523 0.583297
O O5 0.823732 0.695537 0.807792
O O6 0.720762 0.007658 0.926391
O O7 0.714805 0.544948 0.067077
O O8 0.500000 0.000000 0.000000
O O9 0.306553 0.558259 0.260964
O O10 0.095809 0.569757 0.540471
O O11 0.087819 0.992396 0.365521
O O12 0.677657 0.664408 0.226794
O O13 0.959363 0.246016 0.096959
O O14 0.809617 0.255032 0.891277
O O15 0.750245 0.988169 0.136232
O O16 0.000000 0.000000 0.000000
O O17 0.500000 0.500000 0.000000
O O18 0.128438 0.478334 0.719107
#
# Coordination Sequence:
#
# PCOD9090994 Si02
#       8
#     2   2   2   2   2   2   2   2
#     4   9  20  34  63  96 128 157 204 275 328 384
#     4  11  21  34  64  97 125 165 216 274 328 376
#     4   9  18  35  59  90 128 169 207 258 335 378
#     4  11  19  37  63  96 123 152 221 269 319 380
#     4  12  26  40  64  92 127 175 220 266 319 379
#     4  11  25  42  63  93 136 177 213 267 329 395
#     4   9  17  32  60  89 120 159 208 266 317 376
#     4  10  19  39  62  90 123 160 206 269 327 381
#
# _framework density 23.889552999999999
#
# number of rings (size 3 to 8) (size 9 to 14) (size 15 to 20)
#    0.000    1.750    2.500    3.375    3.500    1.000 
#    0.000    0.625    0.000    3.750    0.000    0.000 
#    0.000    0.000    0.000    0.000    0.000    0.000 
#
# Total GULP energy -89220.325053 kJ/mol
# GULP energy per Si atom -5576.270316 kJ/mol
# Density = 2.383518 g / cm^3
# Si number density = 23.889553 Si / 1000 Ang^3
#
#
#
# Elastic Constant Matrix: (Units=GPa)
#
#
# Indices 1 2 3 4 5 6 
#
# 1 87.7212 24.3958 56.9354 0.4273 8.7393 -10.9811
# 2 24.3958 44.7171 34.0721 4.0534 6.7267 -12.1278
# 3 56.9354 34.0721 255.3479 16.3577 2.7234 -2.7463
# 4 0.4273 4.0534 16.3577 35.6206 0.6460 1.3463
# 5 8.7393 6.7267 2.7234 0.6460 46.5088 -7.1130
# 6 -10.9811 -12.1278 -2.7463 1.3463 -7.1130 43.0724
#
#
#
# Elastic Compliance Matrix: (Units=1/GPa)
#
#
# Indices 1 2 3 4 5 6 
#
# 1 0.015075 -0.005605 -0.002683 0.001651 -0.001616 0.001775
# 2 -0.005605 0.029570 -0.002452 -0.002379 -0.002057 0.006475
# 3 -0.002683 -0.002452 0.004951 -0.001936 0.000455 -0.000923
# 4 0.001651 -0.002379 -0.001936 0.029274 -0.000468 -0.001365
# 5 -0.001616 -0.002057 0.000455 -0.000468 0.022506 0.002769
# 6 0.001775 0.006475 -0.000923 -0.001365 0.002769 0.025934
#
#
# Mechanical properties :
#
#
# Convention : Reuss Voigt Hill
#
# Bulk Modulus (GPa) = 35.56652 68.73254 52.14953
# Shear Modulus (GPa) = 31.61329 43.19921 37.40625
#
# Velocity S-wave (km/s) = 3.64168 4.25701 3.96131
# Velocity P-wave (km/s) = 5.70987 7.27985 6.54213
#
# Compressibility (1/GPa) = 0.02811633
#
# Stress axis : x y z
#
# Youngs Moduli (GPa) = 66.33439 33.81780 201.98693
#
# Poissons Ratio (x) = 0.18955 0.54190
# Poissons Ratio (y) = 0.37182 0.49525
# Poissons Ratio (z) = 0.17797 0.08292
#
# Static dielectric constant tensor:
#      x y z
#    x 1.964050 0.089910 0.009570 
#    y 0.089910 2.114910 0.048560 
#    z 0.009570 0.048560 1.963000 
# 
# From -- ./inp_files/314087.got.cif
#   From: 2010.05.17/outbox.cif.g08.bks.cpg/sg2_158_cif.got.tgz:314087.got - 2010.06.03 11:33:40.
