data_PCOD9090849
_publ_section_title
;
Structure prediction by ZEFSAII (Michael W. Deem and Ramdas Pophale) SiO2 
 PCOD9090849
Probable space group: P -1
;
_chemical_formula_sum "Si O2"
_cell_formula_units_Z 16
_cell_length_a 11.662430
_cell_length_b 10.998770
_cell_length_c 9.068893
_cell_angle_alpha 53.902902
_cell_angle_beta 67.289433
_cell_angle_gamma 50.254601
_cell_volume 722.646457
_symmetry_space_group_name_H-M "P -1"
_symmetry_group_IT_number 2
_symmetry_cell_setting 'triclinic'
loop_
_space_group_symop_operation_xyz
x,y,z
-x,-y,-z
loop_
_atom_site_type_symbol
_atom_site_label
_atom_site_fract_x
_atom_site_fract_y
_atom_site_fract_z
Si Si1 0.802255 0.134314 0.648085
Si Si2 0.746649 0.845451 0.441728
Si Si3 0.051949 0.053612 0.793675
Si Si4 0.775286 0.567719 0.116480
Si Si5 0.482092 0.853195 0.197139
Si Si6 0.491620 0.208869 0.431251
Si Si7 0.099902 0.243036 0.255796
Si Si8 0.289777 0.695083 0.749042
O O1 0.655588 0.158589 0.778946
O O2 0.751825 0.252916 0.440264
O O3 0.894713 0.926101 0.695818
O O4 0.908700 0.159697 0.681655
O O5 0.679924 0.724297 0.543231
O O6 0.829979 0.805607 0.583634
O O7 0.865380 0.845519 0.276295
O O8 0.596373 0.047755 0.379405
O O9 0.175798 0.871160 0.775577
O O10 0.000000 0.000000 0.000000
O O11 0.639442 0.667465 0.225105
O O12 0.730902 0.466575 0.095219
O O13 0.933451 0.417527 0.213630
O O14 0.801490 0.709856 0.924650
O O15 0.460356 0.878127 0.366247
O O16 0.500000 0.000000 0.000000
O O17 0.545459 0.343916 0.290127
#
# Coordination Sequence:
#
# PCOD9090849 Si02
#       8
#     2   2   2   2   2   2   2   2
#     4  11  20  39  66  88 122 164 212 242 309 380
#     4  10  19  39  60  89 121 169 205 246 310 380
#     4  11  22  34  62  97 122 157 209 261 296 362
#     4  11  23  35  65  92 126 153 213 267 305 356
#     4  11  21  37  61  93 117 158 212 261 298 362
#     4   9  20  35  63  87 122 163 207 248 306 370
#     4  11  20  39  63  91 119 171 207 246 313 376
#     4  10  20  41  64  90 123 168 208 252 305 374
#
# _framework density 22.140841000000002
#
# number of rings (size 3 to 8) (size 9 to 14) (size 15 to 20)
#    0.000    1.500    6.250    1.125    1.750    2.000 
#    2.250    1.250    2.750    0.000    0.000    0.000 
#    0.000    0.000    0.000    0.000    0.000    0.000 
#
# Total GULP energy -89320.025057 kJ/mol
# GULP energy per Si atom -5582.501566 kJ/mol
# Density = 2.209045 g / cm^3
# Si number density = 22.140841 Si / 1000 Ang^3
#
#
#
# Elastic Constant Matrix: (Units=GPa)
#
#
# Indices 1 2 3 4 5 6 
#
# 1 149.6904 5.0737 28.4555 10.1386 -45.1243 -9.8433
# 2 5.0737 41.7637 0.1483 2.4452 -9.0450 -15.2549
# 3 28.4555 0.1483 59.8072 11.0011 -26.8682 -7.2785
# 4 10.1386 2.4452 11.0011 21.3304 -2.8156 -13.7191
# 5 -45.1243 -9.0450 -26.8682 -2.8156 33.7710 6.0232
# 6 -9.8433 -15.2549 -7.2785 -13.7191 6.0232 25.9392
#
#
#
# Elastic Compliance Matrix: (Units=1/GPa)
#
#
# Indices 1 2 3 4 5 6 
#
# 1 0.012196 0.003191 0.004246 -0.005684 0.020049 0.000034
# 2 0.003191 0.035575 0.006661 0.009306 0.015344 0.025361
# 3 0.004246 0.006661 0.031563 -0.015692 0.031479 -0.001224
# 4 -0.005684 0.009306 -0.015692 0.085237 -0.019119 0.048434
# 5 0.020049 0.015344 0.031479 -0.019119 0.084732 -0.004322
# 6 0.000034 0.025361 -0.001224 0.048434 -0.004322 0.079756
#
#
# Mechanical properties :
#
#
# Convention : Reuss Voigt Hill
#
# Bulk Modulus (GPa) = 9.29969 35.40181 22.35075
# Shear Modulus (GPa) = 14.84977 30.71371 22.78174
#
# Velocity S-wave (km/s) = 2.59259 3.72855 3.21120
# Velocity P-wave (km/s) = 3.62924 5.87879 4.88526
#
# Compressibility (1/GPa) = 0.10753051
#
# Stress axis : x y z
#
# Youngs Moduli (GPa) = 81.99262 28.10990 31.68250
#
# Poissons Ratio (x) = -0.08969 -0.13452
# Poissons Ratio (y) = -0.26162 -0.21105
# Poissons Ratio (z) = -0.34814 -0.18725
#
# Static dielectric constant tensor:
#      x y z
#    x 1.880310 0.015540 -0.052710 
#    y 0.015540 1.829680 -0.008880 
#    z -0.052710 -0.008880 1.825630 
# 
# From -- ./inp_files/205249.got.cif
#   From: 2010.05.17/outbox.cif.g08.bks.cpg/sg2_103_cif.got.tgz:205249.got - 2010.06.03 11:33:40.
