data_PCOD9090407
_publ_section_title
;
Structure prediction by ZEFSAII (Michael W. Deem and Ramdas Pophale) SiO2 
 PCOD9090407
Probable space group: P -1
;
_chemical_formula_sum "Si O2"
_cell_formula_units_Z 16
_cell_length_a 8.358129
_cell_length_b 12.764607
_cell_length_c 11.423724
_cell_angle_alpha 72.012422
_cell_angle_beta 56.743543
_cell_angle_gamma 45.777943
_cell_volume 724.842937
_symmetry_space_group_name_H-M "P -1"
_symmetry_group_IT_number 2
_symmetry_cell_setting 'triclinic'
loop_
_space_group_symop_operation_xyz
x,y,z
-x,-y,-z
loop_
_atom_site_type_symbol
_atom_site_label
_atom_site_fract_x
_atom_site_fract_y
_atom_site_fract_z
Si Si1 0.420540 0.373592 0.118219
Si Si2 0.506708 0.442543 0.641026
Si Si3 0.181782 0.108985 0.579903
Si Si4 0.374666 0.105502 0.900963
Si Si5 0.488608 0.100759 0.280527
Si Si6 0.197973 0.593437 0.935704
Si Si7 0.939655 0.410157 0.622078
Si Si8 0.779462 0.120885 0.638847
O O1 0.442021 0.239214 0.198571
O O2 0.658480 0.354958 0.079964
O O3 0.175023 0.515109 0.234581
O O4 0.346436 0.433705 0.994454
O O5 0.500000 0.500000 0.500000
O O6 0.265417 0.551932 0.785806
O O7 0.729395 0.422046 0.629452
O O8 0.575202 0.292228 0.628492
O O9 0.240085 0.125658 0.416222
O O10 0.156179 0.235938 0.611039
O O11 0.933597 0.127888 0.674013
O O12 0.373942 0.959363 0.627526
O O13 0.604860 0.092272 0.766694
O O14 0.344178 0.026626 0.838154
O O15 0.106033 0.270972 0.973998
O O16 0.500000 0.000000 0.000000
O O17 0.000000 0.500000 0.500000
O O18 0.000000 0.000000 0.500000
#
# Coordination Sequence:
#
# PCOD9090407 Si02
#       8
#     2   2   2   2   2   2   2   2
#     4  10  22  43  74  99 139 180 234 301 349 414
#     4  10  25  42  69  99 130 183 229 286 346 414
#     4  10  22  41  69 103 137 172 243 287 345 414
#     4  12  29  46  69 102 146 193 230 289 358 425
#     4  11  23  41  70 103 130 185 233 294 346 410
#     4  10  25  48  67 104 140 186 240 285 359 425
#     4  10  19  38  65  99 132 173 222 287 344 403
#     4  11  25  47  68 101 147 185 228 292 350 423
#
# _framework density 22.073747000000001
#
# number of rings (size 3 to 8) (size 9 to 14) (size 15 to 20)
#    0.000    1.500    2.500    0.750    5.250    5.000 
#    0.000    0.000    0.000    0.000    0.000    0.000 
#    0.000    0.000    0.000    0.000    0.000    0.000 
#
# Total GULP energy -89120.013082 kJ/mol
# GULP energy per Si atom -5570.000818 kJ/mol
# Density = 2.202351 g / cm^3
# Si number density = 22.073747 Si / 1000 Ang^3
#
#
#
# Elastic Constant Matrix: (Units=GPa)
#
#
# Indices 1 2 3 4 5 6 
#
# 1 28.7110 41.5109 35.4940 -6.2806 -11.0831 2.3695
# 2 41.5109 147.1603 81.4612 -4.0995 -4.7916 2.8759
# 3 35.4940 81.4612 143.0068 3.8223 0.0266 -2.4687
# 4 -6.2806 -4.0995 3.8223 50.2318 -3.9291 -1.2344
# 5 -11.0831 -4.7916 0.0266 -3.9291 36.2414 -0.6383
# 6 2.3695 2.8759 -2.4687 -1.2344 -0.6383 26.0358
#
#
#
# Elastic Compliance Matrix: (Units=1/GPa)
#
#
# Indices 1 2 3 4 5 6 
#
# 1 0.087444 -0.016207 -0.012916 0.012464 0.025851 -0.006168
# 2 -0.016207 0.013149 -0.003449 -0.000962 -0.003327 -0.000432
# 3 -0.012916 -0.003449 0.012290 -0.003140 -0.004712 0.002457
# 4 0.012464 -0.000962 -0.003140 0.022099 0.006080 -0.000129
# 5 0.025851 -0.003327 -0.004712 0.006080 0.035699 -0.001268
# 6 -0.006168 -0.000432 0.002457 -0.000129 -0.001268 0.039213
#
#
# Mechanical properties :
#
#
# Convention : Reuss Voigt Hill
#
# Bulk Modulus (GPa) = 20.94675 70.64560 45.79618
# Shear Modulus (GPa) = 17.18498 33.19595 25.19046
#
# Velocity S-wave (km/s) = 2.79323 3.88218 3.38182
# Velocity P-wave (km/s) = 4.46239 7.22280 6.00341
#
# Compressibility (1/GPa) = 0.04774009
#
# Stress axis : x y z
#
# Youngs Moduli (GPa) = 11.43588 76.04861 81.36594
#
# Poissons Ratio (x) = 1.23253 1.05090
# Poissons Ratio (y) = 0.18534 0.28062
# Poissons Ratio (z) = 0.14770 0.26228
#
# Static dielectric constant tensor:
#      x y z
#    x 1.632440 0.411310 -0.432050 
#    y 0.411310 1.209310 0.693380 
#    z -0.432050 0.693380 1.305230 
# 
# From -- ./inp_files/392439.got.cif
#   From: 2010.05.17/outbox.cif.g08.bks.cpg/sg2_197_cif.got.tgz:392439.got - 2010.06.03 11:33:40.
