data_PCOD9090545
_publ_section_title
;
Structure prediction by ZEFSAII (Michael W. Deem and Ramdas Pophale) SiO2 
 PCOD9090545
Probable space group: P -1
;
_chemical_formula_sum "Si O2"
_cell_formula_units_Z 16
_cell_length_a 7.689459
_cell_length_b 15.062083
_cell_length_c 12.017054
_cell_angle_alpha 135.003876
_cell_angle_beta 127.620500
_cell_angle_gamma 36.105856
_cell_volume 577.344275
_symmetry_space_group_name_H-M "P -1"
_symmetry_group_IT_number 2
_symmetry_cell_setting 'triclinic'
loop_
_space_group_symop_operation_xyz
x,y,z
-x,-y,-z
loop_
_atom_site_type_symbol
_atom_site_label
_atom_site_fract_x
_atom_site_fract_y
_atom_site_fract_z
Si Si1 0.708909 0.326015 0.999964
Si Si2 0.425881 0.246632 0.997846
Si Si3 0.959293 0.550949 0.221305
Si Si4 0.463837 0.059683 0.336461
Si Si5 0.791784 0.252733 0.311314
Si Si6 0.120930 0.366018 0.328243
Si Si7 0.328168 0.808598 0.326551
Si Si8 0.310327 0.644115 0.392432
O O1 0.865813 0.175063 0.835329
O O2 0.500000 0.500000 0.000000
O O3 0.515217 0.312392 0.994469
O O4 0.918220 0.334871 0.163938
O O5 0.102096 0.395569 0.055484
O O6 0.677130 0.178091 0.128855
O O7 0.440182 0.103811 0.828357
O O8 0.164285 0.445169 0.314885
O O9 0.041647 0.649501 0.285774
O O10 0.645716 0.682404 0.275713
O O11 0.395757 0.188038 0.328850
O O12 0.677678 0.049558 0.498045
O O13 0.137060 0.153879 0.341303
O O14 0.748638 0.259158 0.431508
O O15 0.591147 0.443754 0.350194
O O16 0.000000 0.500000 0.500000
O O17 0.331300 0.713378 0.348435
#
# Coordination Sequence:
#
# PCOD9090545 Si02
#       8
#     2   2   2   2   2   2   2   2
#     4  12  24  47  71 105 146 187 235 297 349 429
#     4  11  27  42  68 110 148 181 241 296 361 421
#     4  11  23  42  69 105 137 185 237 292 354 416
#     4  12  24  44  71 106 144 192 231 299 362 417
#     4  10  19  38  67 105 137 178 236 296 357 406
#     4  12  23  42  74 109 140 182 245 295 351 422
#     4  12  25  44  73 104 143 191 237 292 352 423
#     4  10  22  39  69 109 137 177 246 300 343 417
#
# _framework density 27.713101999999999
#
# number of rings (size 3 to 8) (size 9 to 14) (size 15 to 20)
#    0.000    0.750    5.000    2.625    5.250    1.500 
#    2.250    0.000    0.000    1.500    0.000    0.000 
#    0.000    0.000    0.000    0.000    0.000    0.000 
#
# Total GULP energy -89634.912434 kJ/mol
# GULP energy per Si atom -5602.182027 kJ/mol
# Density = 2.765003 g / cm^3
# Si number density = 27.713102 Si / 1000 Ang^3
#
#
#
# Elastic Constant Matrix: (Units=GPa)
#
#
# Indices 1 2 3 4 5 6 
#
# 1 153.2815 37.5050 72.2497 4.5395 -11.7899 27.1368
# 2 37.5050 95.9813 73.9818 -13.7414 -7.1759 12.4444
# 3 72.2497 73.9818 284.8514 -0.9076 3.8602 27.5592
# 4 4.5395 -13.7414 -0.9076 46.4084 15.7151 1.1618
# 5 -11.7899 -7.1759 3.8602 15.7151 51.3551 -8.7785
# 6 27.1368 12.4444 27.5592 1.1618 -8.7785 24.8168
#
#
#
# Elastic Compliance Matrix: (Units=1/GPa)
#
#
# Indices 1 2 3 4 5 6 
#
# 1 0.008891 -0.001851 -0.001111 -0.001657 0.001164 -0.007070
# 2 -0.001851 0.014399 -0.003070 0.004384 0.000145 -0.001941
# 3 -0.001111 -0.003070 0.004928 -0.000084 -0.001589 -0.003276
# 4 -0.001657 0.004384 -0.000084 0.025993 -0.008487 -0.004512
# 5 0.001164 0.000145 -0.001589 -0.008487 0.024071 0.009331
# 6 -0.007070 -0.001941 -0.003276 -0.004512 0.009331 0.056149
#
#
# Mechanical properties :
#
#
# Convention : Reuss Voigt Hill
#
# Bulk Modulus (GPa) = 61.91052 100.17634 81.04343
# Shear Modulus (GPa) = 32.92041 47.87459 40.39750
#
# Velocity S-wave (km/s) = 3.45033 4.16084 3.82213
# Velocity P-wave (km/s) = 6.18558 7.70127 6.98466
#
# Compressibility (1/GPa) = 0.01615234
#
# Stress axis : x y z
#
# Youngs Moduli (GPa) = 112.47232 69.45083 202.91617
#
# Poissons Ratio (x) = 0.12855 0.22552
# Poissons Ratio (y) = 0.20819 0.62303
# Poissons Ratio (z) = 0.12500 0.21324
#
# Static dielectric constant tensor:
#      x y z
#    x 2.272270 -0.088910 0.100360 
#    y -0.088910 2.182460 -0.039010 
#    z 0.100360 -0.039010 2.225960 
# 
# From -- ./inp_files/397803.got.cif
#   From: 2010.05.17/outbox.cif.g08.bks.cpg/sg2_199_cif.got.tgz:397803.got - 2010.06.03 11:33:40.
