data_PCOD9090440
_publ_section_title
;
Structure prediction by ZEFSAII (Michael W. Deem and Ramdas Pophale) SiO2 
 PCOD9090440
Probable space group: P -1
;
_chemical_formula_sum "Si O2"
_cell_formula_units_Z 16
_cell_length_a 16.586103
_cell_length_b 5.209743
_cell_length_c 8.711588
_cell_angle_alpha 85.925872
_cell_angle_beta 81.769531
_cell_angle_gamma 112.762004
_cell_volume 680.363171
_symmetry_space_group_name_H-M "P -1"
_symmetry_group_IT_number 2
_symmetry_cell_setting 'triclinic'
loop_
_space_group_symop_operation_xyz
x,y,z
-x,-y,-z
loop_
_atom_site_type_symbol
_atom_site_label
_atom_site_fract_x
_atom_site_fract_y
_atom_site_fract_z
Si Si1 0.673170 0.459613 0.850438
Si Si2 0.407681 0.623567 0.655027
Si Si3 0.098045 0.697087 0.281790
Si Si4 0.250554 0.798952 0.679007
Si Si5 0.503234 0.239307 0.713201
Si Si6 0.775730 0.844112 0.549734
Si Si7 0.751206 0.049404 0.981996
Si Si8 0.085289 0.343541 0.586765
O O1 0.571995 0.363626 0.827979
O O2 0.727613 0.560140 0.670226
O O3 0.690786 0.202304 0.924534
O O4 0.713316 0.730162 0.940873
O O5 0.308427 0.612854 0.675332
O O6 0.431278 0.376326 0.726970
O O7 0.446063 0.677654 0.468719
O O8 0.458737 0.902905 0.731664
O O9 0.147304 0.742344 0.105054
O O10 0.074090 0.422835 0.408102
O O11 0.010874 0.763266 0.306696
O O12 0.178237 0.926310 0.344004
O O13 0.152548 0.610382 0.650963
O O14 0.288120 0.052907 0.534648
O O15 0.248819 0.928807 0.837218
O O16 0.858184 0.843231 0.429244
#
# Coordination Sequence:
#
# PCOD9090440 Si02
#       8
#     2   2   2   2   2   2   2   2
#     4  11  23  43  68  90 127 171 217 254 318 379
#     4  10  23  38  63  98 128 156 208 274 312 370
#     4   9  20  38  61  96 121 167 214 265 309 372
#     4  11  26  39  61  95 131 168 208 260 329 372
#     4  10  22  40  66  96 121 162 215 266 312 366
#     4  10  21  37  66  93 122 167 216 267 308 378
#     4  11  25  43  62  95 134 173 205 260 317 388
#     4  10  19  38  66  89 126 161 222 262 312 368
#
# _framework density 23.516852
#
# number of rings (size 3 to 8) (size 9 to 14) (size 15 to 20)
#    0.000    1.750    1.250    1.875   12.250    0.500 
#    0.000    4.375    0.000    0.000    0.000    0.000 
#    0.000    0.000    0.000    0.000    0.000    0.000 
#
# Total GULP energy -89442.106477 kJ/mol
# GULP energy per Si atom -5590.131655 kJ/mol
# Density = 2.346333 g / cm^3
# Si number density = 23.516852 Si / 1000 Ang^3
#
#
#
# Elastic Constant Matrix: (Units=GPa)
#
#
# Indices 1 2 3 4 5 6 
#
# 1 97.9892 19.0523 29.3087 4.5171 -5.4268 -9.8542
# 2 19.0523 74.6092 18.2729 12.9185 0.4319 -21.1120
# 3 29.3087 18.2729 68.7393 10.0880 -5.3038 4.1973
# 4 4.5171 12.9185 10.0880 19.6399 -3.0808 -3.9042
# 5 -5.4268 0.4319 -5.3038 -3.0808 23.7479 -0.6526
# 6 -9.8542 -21.1120 4.1973 -3.9042 -0.6526 37.9308
#
#
#
# Elastic Compliance Matrix: (Units=1/GPa)
#
#
# Indices 1 2 3 4 5 6 
#
# 1 0.012380 -0.001235 -0.005238 0.001624 0.001983 0.003310
# 2 -0.001235 0.018963 -0.004039 -0.008546 -0.002370 0.009761
# 3 -0.005238 -0.004039 0.019452 -0.007079 0.002125 -0.006453
# 4 0.001624 -0.008546 -0.007079 0.061475 0.007000 0.002897
# 5 0.001983 -0.002370 0.002125 0.007000 0.044000 0.000439
# 6 0.003310 0.009761 -0.006453 0.002897 0.000439 0.033676
#
#
# Mechanical properties :
#
#
# Convention : Reuss Voigt Hill
#
# Bulk Modulus (GPa) = 33.58909 41.62282 37.60596
# Shear Modulus (GPa) = 22.63551 27.91065 25.27308
#
# Velocity S-wave (km/s) = 3.10582 3.44879 3.28179
# Velocity P-wave (km/s) = 5.21301 5.79624 5.51235
#
# Compressibility (1/GPa) = 0.02977157
#
# Stress axis : x y z
#
# Youngs Moduli (GPa) = 80.77775 52.73411 51.40967
#
# Poissons Ratio (x) = 0.06511 0.26926
# Poissons Ratio (y) = 0.09973 0.20765
# Poissons Ratio (z) = 0.42308 0.21300
#
# Static dielectric constant tensor:
#      x y z
#    x 1.882750 0.011210 -0.019760 
#    y 0.011210 1.930930 -0.018910 
#    z -0.019760 -0.018910 1.925120 
# 
# From -- ./inp_files/112908.got.cif
#   From: 2010.05.17/outbox.cif.g08.bks.cpg/sg2_57_cif.got.tgz:112908.got - 2010.06.03 11:33:40.
