data_PCOD9090018
_publ_section_title
;
Structure prediction by ZEFSAII (Michael W. Deem and Ramdas Pophale) SiO2 
 PCOD9090018
Probable space group: P -1
;
_chemical_formula_sum "Si O2"
_cell_formula_units_Z 16
_cell_length_a 17.395259
_cell_length_b 19.567301
_cell_length_c 7.013747
_cell_angle_alpha 51.822301
_cell_angle_beta 59.280070
_cell_angle_gamma 20.606666
_cell_volume 640.408106
_symmetry_space_group_name_H-M "P -1"
_symmetry_group_IT_number 2
_symmetry_cell_setting 'triclinic'
loop_
_space_group_symop_operation_xyz
x,y,z
-x,-y,-z
loop_
_atom_site_type_symbol
_atom_site_label
_atom_site_fract_x
_atom_site_fract_y
_atom_site_fract_z
Si Si1 0.890332 0.686109 0.489579
Si Si2 0.876886 0.406069 0.971501
Si Si3 0.562353 0.337221 0.265530
Si Si4 0.825057 0.080350 0.013518
Si Si5 0.328034 0.219845 0.739824
Si Si6 0.329426 0.953680 0.270952
Si Si7 0.618207 0.084578 0.188274
Si Si8 0.841386 0.250625 0.117858
O O1 0.749520 0.749741 0.416814
O O2 0.036377 0.620782 0.280101
O O3 0.085876 0.455858 0.739859
O O4 0.716011 0.904221 0.440285
O O5 0.640742 0.657318 0.897006
O O6 0.852060 0.324329 0.110685
O O7 0.093691 0.212011 0.169477
O O8 0.652113 0.164660 0.510232
O O9 0.697722 0.293314 0.270993
O O10 0.618156 0.293195 0.042898
O O11 0.293878 0.590476 0.172677
O O12 0.778317 0.016865 0.191722
O O13 0.910868 0.001721 0.822377
O O14 0.000000 0.000000 0.000000
O O15 0.470664 0.180462 0.635919
O O16 0.500000 0.000000 0.000000
O O17 0.363526 0.934421 0.033438
#
# Coordination Sequence:
#
# PCOD9090018 Si02
#       8
#     2   2   2   2   2   2   2   2
#     4  10  23  43  72  93 128 173 212 272 332 388
#     4  11  21  40  62  93 132 173 210 266 323 389
#     4  10  22  37  62  92 123 171 220 266 322 386
#     4  10  20  37  63  91 124 170 220 262 312 387
#     4  11  21  45  72  94 128 170 215 273 337 384
#     4  11  24  41  63  95 132 166 213 283 324 383
#     4  11  22  41  64  95 130 172 218 262 328 390
#     4  10  19  38  63  87 127 170 217 262 316 384
#
# _framework density 24.984068000000001
#
# number of rings (size 3 to 8) (size 9 to 14) (size 15 to 20)
#    0.000    1.500    6.250    0.750    0.000    1.500 
#    0.000    5.625    0.000    0.000    0.000    0.000 
#    0.000    0.000    0.000    0.000    0.000    0.000 
#
# Total GULP energy -89078.649778 kJ/mol
# GULP energy per Si atom -5567.415611 kJ/mol
# Density = 2.492720 g / cm^3
# Si number density = 24.984068 Si / 1000 Ang^3
#
#
#
# Elastic Constant Matrix: (Units=GPa)
#
#
# Indices 1 2 3 4 5 6 
#
# 1 170.3449 56.9284 27.6512 -23.1545 -19.4582 -8.3181
# 2 56.9284 136.9333 55.0889 -35.3316 -2.3202 5.5235
# 3 27.6512 55.0889 113.7581 -45.4876 -7.4514 3.2040
# 4 -23.1545 -35.3316 -45.4876 33.4926 3.5507 -4.6158
# 5 -19.4582 -2.3202 -7.4514 3.5507 37.7417 -8.1519
# 6 -8.3181 5.5235 3.2040 -4.6158 -8.1519 46.3884
#
#
#
# Elastic Compliance Matrix: (Units=1/GPa)
#
#
# Indices 1 2 3 4 5 6 
#
# 1 0.007765 -0.002706 0.001320 0.004235 0.004304 0.002801
# 2 -0.002706 0.011090 -0.001894 0.007292 -0.002057 -0.001311
# 3 0.001320 -0.001894 0.019844 0.025891 0.002501 0.002107
# 4 0.004235 0.007292 0.025891 0.076272 0.001868 0.006021
# 5 0.004304 -0.002057 0.002501 0.001868 0.030278 0.006351
# 6 0.002801 -0.001311 0.002107 0.006021 0.006351 0.023785
#
#
# Mechanical properties :
#
#
# Convention : Reuss Voigt Hill
#
# Bulk Modulus (GPa) = 31.11717 77.81925 54.46821
# Shear Modulus (GPa) = 26.83718 42.28237 34.55978
#
# Velocity S-wave (km/s) = 3.28101 4.11831 3.72327
# Velocity P-wave (km/s) = 5.18027 7.33683 6.35076
#
# Compressibility (1/GPa) = 0.03213660
#
# Stress axis : x y z
#
# Youngs Moduli (GPa) = 128.78682 90.17454 50.39213
#
# Poissons Ratio (x) = 0.24404 -0.06650
# Poissons Ratio (y) = 0.34854 0.09547
# Poissons Ratio (z) = -0.16996 0.17083
#
# Static dielectric constant tensor:
#      x y z
#    x 1.972700 0.003600 -0.011450 
#    y 0.003600 2.060520 0.023240 
#    z -0.011450 0.023240 2.058840 
# 
# From -- ./inp_files/337592.got.cif
#   From: 2010.05.17/outbox.cif.g08.bks.cpg/sg2_169_cif.got.tgz:337592.got - 2010.06.03 11:33:40.
