data_PCOD9090735
_publ_section_title
;
Structure prediction by ZEFSAII (Michael W. Deem and Ramdas Pophale) SiO2 
 PCOD9090735
Probable space group: P -1
;
_chemical_formula_sum "Si O2"
_cell_formula_units_Z 14
_cell_length_a 11.268620
_cell_length_b 7.911623
_cell_length_c 12.658888
_cell_angle_alpha 100.028385
_cell_angle_beta 31.636411
_cell_angle_gamma 87.994444
_cell_volume 545.003663
_symmetry_space_group_name_H-M "P -1"
_symmetry_group_IT_number 2
_symmetry_cell_setting 'triclinic'
loop_
_space_group_symop_operation_xyz
x,y,z
-x,-y,-z
loop_
_atom_site_type_symbol
_atom_site_label
_atom_site_fract_x
_atom_site_fract_y
_atom_site_fract_z
Si Si1 0.625124 0.784492 0.920537
Si Si2 0.009716 0.907281 0.654949
Si Si3 0.844166 0.771805 0.157964
Si Si4 0.604788 0.959601 0.566818
Si Si5 0.173487 0.724756 0.285578
Si Si6 0.266321 0.347683 0.406530
Si Si7 0.624720 0.463605 0.286224
O O1 0.686722 0.664152 0.753997
O O2 0.844748 0.808428 0.823175
O O3 0.448982 0.697562 0.100900
O O4 0.500000 0.000000 0.000000
O O5 0.046351 0.818017 0.500849
O O6 0.259531 0.894038 0.516446
O O7 0.881521 0.124263 0.750826
O O8 0.759010 0.810649 0.348551
O O9 0.744451 0.613023 0.181006
O O10 0.669863 0.952372 0.250952
O O11 0.129432 0.717478 0.920636
O O12 0.630429 0.859298 0.647721
O O13 0.023185 0.596875 0.351855
O O14 0.419526 0.450045 0.360735
O O15 0.500000 0.500000 0.500000
#
# Coordination Sequence:
#
# PCOD9090735 Si02
#       7
#     2   2   2   2   2   2   2
#     4   9  16  27  49  86 112 142 177 226 285 336
#     4   8  15  27  47  77 119 134 171 226 283 325
#     4  10  24  39  58  79 117 148 195 234 282 332
#     4  10  19  39  56  89 113 144 186 248 281 321
#     4   8  15  28  45  80 114 140 172 224 273 342
#     4  10  20  31  58  83 114 143 187 234 278 327
#     4  11  23  42  56  79 112 160 192 228 275 348
#
# _framework density 25.687898000000001
#
# number of rings (size 3 to 8) (size 9 to 14) (size 15 to 20)
#    0.000    2.571    1.429    2.571    6.000    0.571 
#    0.000    0.000    0.000    3.429    0.000    9.000 
#    0.000    0.000    0.000    0.000    0.000    0.000 
#
# Total GULP energy -78152.153770 kJ/mol
# GULP energy per Si atom -5582.296698 kJ/mol
# Density = 2.562943 g / cm^3
# Si number density = 25.687898 Si / 1000 Ang^3
#
#
#
# Elastic Constant Matrix: (Units=GPa)
#
#
# Indices 1 2 3 4 5 6 
#
# 1 92.4358 25.3546 40.7330 -7.4139 -22.2321 26.8803
# 2 25.3546 97.1864 39.0802 -26.6386 -20.4403 41.6756
# 3 40.7330 39.0802 124.4987 -13.3675 -22.3585 5.6336
# 4 -7.4139 -26.6386 -13.3675 34.6448 8.9909 -17.0280
# 5 -22.2321 -20.4403 -22.3585 8.9909 29.5426 -11.4252
# 6 26.8803 41.6756 5.6336 -17.0280 -11.4252 48.4220
#
#
#
# Elastic Compliance Matrix: (Units=1/GPa)
#
#
# Indices 1 2 3 4 5 6 
#
# 1 0.016895 0.002828 -0.004874 -0.003330 0.007916 -0.010549
# 2 0.002828 0.021138 -0.005370 0.005677 0.004767 -0.016017
# 3 -0.004874 -0.005370 0.011902 0.002150 0.003918 0.007623
# 4 -0.003330 0.005677 0.002150 0.039284 -0.005321 0.009271
# 5 0.007916 0.004767 0.003918 -0.005321 0.047872 0.000471
# 6 -0.010549 -0.016017 0.007623 0.009271 0.000471 0.042778
#
#
# Mechanical properties :
#
#
# Convention : Reuss Voigt Hill
#
# Bulk Modulus (GPa) = 28.48742 58.27294 43.38018
# Shear Modulus (GPa) = 24.22457 36.45209 30.33833
#
# Velocity S-wave (km/s) = 3.07422 3.77110 3.44035
# Velocity P-wave (km/s) = 4.86980 6.45723 5.71886
#
# Compressibility (1/GPa) = 0.03510321
#
# Stress axis : x y z
#
# Youngs Moduli (GPa) = 59.19004 47.30746 84.01888
#
# Poissons Ratio (x) = -0.13379 0.40950
# Poissons Ratio (y) = -0.16739 0.45119
# Poissons Ratio (z) = 0.28848 0.25405
#
# Static dielectric constant tensor:
#      x y z
#    x 1.996360 -0.028290 -0.082430 
#    y -0.028290 2.143500 0.053050 
#    z -0.082430 0.053050 2.147390 
# 
# From -- ./inp_files/307711.got.cif
#   From: 2010.05.17/outbox.cif.g08.bks.cpg/sg2_154_cif.got.tgz:307711.got - 2010.06.03 11:33:40.
