data_PCOD9090247
_publ_section_title
;
Structure prediction by ZEFSAII (Michael W. Deem and Ramdas Pophale) SiO2 
 PCOD9090247
Probable space group: P -1
;
_chemical_formula_sum "Si O2"
_cell_formula_units_Z 14
_cell_length_a 15.380773
_cell_length_b 7.538688
_cell_length_c 17.348476
_cell_angle_alpha 46.654254
_cell_angle_beta 25.099659
_cell_angle_gamma 58.798157
_cell_volume 584.548837
_symmetry_space_group_name_H-M "P -1"
_symmetry_group_IT_number 2
_symmetry_cell_setting 'triclinic'
loop_
_space_group_symop_operation_xyz
x,y,z
-x,-y,-z
loop_
_atom_site_type_symbol
_atom_site_label
_atom_site_fract_x
_atom_site_fract_y
_atom_site_fract_z
Si Si1 0.810728 0.869494 0.295574
Si Si2 0.619015 0.302127 0.665687
Si Si3 0.796435 0.683262 0.906252
Si Si4 0.741226 0.008934 0.483700
Si Si5 0.281550 0.923161 0.853667
Si Si6 0.784770 0.465757 0.639097
Si Si7 0.402922 0.227897 0.113755
O O1 0.691311 0.557284 0.478520
O O2 0.757402 0.975298 0.387876
O O3 0.738643 0.995215 0.242167
O O4 0.072395 0.944184 0.059373
O O5 0.800503 0.402673 0.557220
O O6 0.632454 0.015965 0.729273
O O7 0.388310 0.278203 0.899388
O O8 0.777015 0.780643 0.804861
O O9 0.740732 0.376577 0.036492
O O10 0.033804 0.804214 0.717400
O O11 0.519541 0.075390 0.651361
O O12 0.722838 0.723947 0.613399
O O13 0.000000 0.500000 0.500000
O O14 0.603060 0.237412 0.894964
O O15 0.500000 0.500000 0.000000
#
# Coordination Sequence:
#
# PCOD9090247 Si02
#       7
#     2   2   2   2   2   2   2
#     4  10  24  45  72 101 142 183 228 297 338 411
#     4  10  21  42  65  98 135 185 228 275 350 414
#     4  11  23  43  71 101 137 185 233 282 344 422
#     4  11  22  43  73  97 143 187 225 286 348 411
#     4  11  23  47  69 105 145 173 242 285 341 414
#     4  10  19  38  64  94 134 179 226 276 339 415
#     4  11  23  40  67  99 140 176 228 291 343 414
#
# _framework density 23.950097
#
# number of rings (size 3 to 8) (size 9 to 14) (size 15 to 20)
#    0.000    1.429    4.286    3.857    0.000    5.143 
#    2.571    3.571    0.000    0.000    0.000    0.000 
#    0.000    0.000    0.000    0.000    0.000    0.000 
#
# Total GULP energy -78248.055953 kJ/mol
# GULP energy per Si atom -5589.146854 kJ/mol
# Density = 2.389559 g / cm^3
# Si number density = 23.950097 Si / 1000 Ang^3
#
#
#
# Elastic Constant Matrix: (Units=GPa)
#
#
# Indices 1 2 3 4 5 6 
#
# 1 84.4121 25.3078 46.6010 4.2770 -16.7427 -24.3290
# 2 25.3078 56.2096 5.9734 6.6195 -15.3956 -6.8885
# 3 46.6010 5.9734 108.5524 20.0201 -27.6579 -18.9248
# 4 4.2770 6.6195 20.0201 33.1942 -5.3900 -11.7258
# 5 -16.7427 -15.3956 -27.6579 -5.3900 54.3552 -2.7472
# 6 -24.3290 -6.8885 -18.9248 -11.7258 -2.7472 39.3270
#
#
#
# Elastic Compliance Matrix: (Units=1/GPa)
#
#
# Indices 1 2 3 4 5 6 
#
# 1 0.021651 -0.008071 -0.008021 0.007626 0.001589 0.010505
# 2 -0.008071 0.023213 0.004734 -0.005422 0.005968 0.000151
# 3 -0.008021 0.004734 0.015665 -0.007832 0.006141 0.001500
# 4 0.007626 -0.005422 -0.007832 0.039339 0.001327 0.011822
# 5 0.001589 0.005968 0.006141 0.001327 0.024191 0.007069
# 6 0.010505 0.000151 0.001500 0.011822 0.007069 0.036694
#
#
# Mechanical properties :
#
#
# Convention : Reuss Voigt Hill
#
# Bulk Modulus (GPa) = 26.44497 44.99316 35.71907
# Shear Modulus (GPa) = 25.50074 36.79472 31.14773
#
# Velocity S-wave (km/s) = 3.26658 3.92383 3.61019
# Velocity P-wave (km/s) = 5.02922 6.27340 5.68545
#
# Compressibility (1/GPa) = 0.03781437
#
# Stress axis : x y z
#
# Youngs Moduli (GPa) = 46.18715 43.07922 63.83539
#
# Poissons Ratio (x) = 0.34770 0.51201
# Poissons Ratio (y) = 0.37279 -0.30223
# Poissons Ratio (z) = 0.37045 -0.20396
#
# Static dielectric constant tensor:
#      x y z
#    x 2.023030 0.114560 -0.042020 
#    y 0.114560 2.088440 -0.101400 
#    z -0.042020 -0.101400 2.078290 
# 
# From -- ./inp_files/599353.got.cif
#   From: 2010.05.17/outbox.cif.g08.bks.cpg/sg2_300_cif.got.tgz:599353.got - 2010.06.03 11:33:40.
