data_PCOD9090529
_publ_section_title
;
Structure prediction by ZEFSAII (Michael W. Deem and Ramdas Pophale) SiO2 
 PCOD9090529
Probable space group: P -1
;
_chemical_formula_sum "Si O2"
_cell_formula_units_Z 12
_cell_length_a 6.480306
_cell_length_b 12.730869
_cell_length_c 8.889736
_cell_angle_alpha 118.453249
_cell_angle_beta 50.820418
_cell_angle_gamma 121.383906
_cell_volume 473.136659
_symmetry_space_group_name_H-M "P -1"
_symmetry_group_IT_number 2
_symmetry_cell_setting 'triclinic'
loop_
_space_group_symop_operation_xyz
x,y,z
-x,-y,-z
loop_
_atom_site_type_symbol
_atom_site_label
_atom_site_fract_x
_atom_site_fract_y
_atom_site_fract_z
Si Si1 0.499054 0.704781 0.902942
Si Si2 0.947394 0.364994 0.359988
Si Si3 0.779043 0.555925 0.019225
Si Si4 0.292279 0.066483 0.825423
Si Si5 0.694225 0.794692 0.384531
Si Si6 0.431343 0.089634 0.224934
O O1 0.805535 0.687570 0.735957
O O2 0.268846 0.570265 0.946536
O O3 0.451097 0.783736 0.839717
O O4 0.534947 0.797636 0.092277
O O5 0.000000 0.500000 0.500000
O O6 0.641501 0.273188 0.482457
O O7 0.995771 0.396227 0.183175
O O8 0.783883 0.675896 0.202417
O O9 0.500000 0.500000 0.000000
O O10 0.226905 0.100707 0.711778
O O11 0.457259 0.970785 0.725098
O O12 0.000000 0.000000 0.000000
O O13 0.802362 0.864940 0.541250
O O14 0.500000 0.000000 0.000000
#
# Coordination Sequence:
#
# PCOD9090529 Si02
#       6
#     2   2   2   2   2   2
#     4  10  20  42  63  95 140 155 211 277 317 378
#     4  11  19  37  69  99 124 168 212 258 324 387
#     4  10  19  38  66  98 127 162 215 268 319 381
#     4  11  22  43  69  91 126 175 226 261 306 391
#     4  12  22  41  72  94 127 172 221 263 319 385
#     4  10  25  42  62  96 135 173 212 265 321 378
#
# _framework density 25.362649000000001
#
# number of rings (size 3 to 8) (size 9 to 14) (size 15 to 20)
#    0.000    1.333    6.667    1.500    0.000    0.667 
#    0.000   11.667    0.000    0.000    0.000    0.000 
#    0.000    0.000    0.000    0.000    0.000    0.000 
#
# Total GULP energy -66858.044274 kJ/mol
# GULP energy per Si atom -5571.503689 kJ/mol
# Density = 2.530492 g / cm^3
# Si number density = 25.362649 Si / 1000 Ang^3
#
#
#
# Elastic Constant Matrix: (Units=GPa)
#
#
# Indices 1 2 3 4 5 6 
#
# 1 32.8162 60.1533 19.6370 1.2194 -0.4801 -2.5031
# 2 60.1533 221.2170 98.3738 -10.9005 7.1282 -30.8595
# 3 19.6370 98.3738 209.4052 13.1096 21.4012 -1.8913
# 4 1.2194 -10.9005 13.1096 63.1787 3.8840 -5.6273
# 5 -0.4801 7.1282 21.4012 3.8840 40.6364 -0.3035
# 6 -2.5031 -30.8595 -1.8913 -5.6273 -0.3035 47.4985
#
#
#
# Elastic Compliance Matrix: (Units=1/GPa)
#
#
# Indices 1 2 3 4 5 6 
#
# 1 0.069209 -0.022846 0.004273 -0.007419 0.003195 -0.011884
# 2 -0.022846 0.014247 -0.004697 0.004665 -0.000678 0.008413
# 3 0.004273 -0.004697 0.006972 -0.002435 -0.002586 -0.002854
# 4 -0.007419 0.004665 -0.002435 0.017774 -0.001288 0.004640
# 5 0.003195 -0.000678 -0.002586 -0.001288 0.026248 -0.000360
# 6 -0.011884 0.008413 -0.002854 0.004640 -0.000360 0.026327
#
#
# Mechanical properties :
#
#
# Convention : Reuss Voigt Hill
#
# Bulk Modulus (GPa) = 22.78526 91.08517 56.93522
# Shear Modulus (GPa) = 22.52801 49.28099 35.90450
#
# Velocity S-wave (km/s) = 2.98356 4.41279 3.76659
# Velocity P-wave (km/s) = 4.56860 7.87113 6.43533
#
# Compressibility (1/GPa) = 0.04388802
#
# Stress axis : x y z
#
# Youngs Moduli (GPa) = 14.44901 70.19096 143.42375
#
# Poissons Ratio (x) = 1.60356 -0.61284
# Poissons Ratio (y) = 0.33010 0.67369
# Poissons Ratio (z) = -0.06174 0.32970
#
# Static dielectric constant tensor:
#      x y z
#    x 2.314750 0.025200 -0.005040 
#    y 0.025200 1.981200 0.063490 
#    z -0.005040 0.063490 1.994290 
# 
# From -- ./inp_files/62945.got.cif
#   From: 2010.05.17/outbox.cif.g08.bks.cpg/sg2_32_cif.got.tgz:62945.got - 2010.06.03 11:33:40.
