data_PCOD9090217
_publ_section_title
;
Structure prediction by ZEFSAII (Michael W. Deem and Ramdas Pophale) SiO2 
 PCOD9090217
Probable space group: P -1
;
_chemical_formula_sum "Si O2"
_cell_formula_units_Z 16
_cell_length_a 12.427782
_cell_length_b 8.030256
_cell_length_c 17.955055
_cell_angle_alpha 62.839087
_cell_angle_beta 24.212307
_cell_angle_gamma 63.238769
_cell_volume 651.013723
_symmetry_space_group_name_H-M "P -1"
_symmetry_group_IT_number 2
_symmetry_cell_setting 'triclinic'
loop_
_space_group_symop_operation_xyz
x,y,z
-x,-y,-z
loop_
_atom_site_type_symbol
_atom_site_label
_atom_site_fract_x
_atom_site_fract_y
_atom_site_fract_z
Si Si1 0.637199 0.695228 0.871961
Si Si2 0.196232 0.328943 0.698890
Si Si3 0.809533 0.776871 0.034438
Si Si4 0.576054 0.215874 0.856473
Si Si5 0.951588 0.057538 0.433334
Si Si6 0.594904 0.351996 0.116984
Si Si7 0.624937 0.995061 0.247672
Si Si8 0.346935 0.563293 0.700653
O O1 0.567993 0.755142 0.819200
O O2 0.939742 0.736038 0.684265
O O3 0.500000 0.500000 0.000000
O O4 0.511373 0.807218 0.998689
O O5 0.282599 0.116444 0.714486
O O6 0.280543 0.455657 0.688501
O O7 0.365198 0.369639 0.510878
O O8 0.879911 0.364998 0.895759
O O9 0.623138 0.843561 0.069539
O O10 0.798815 0.914885 0.083606
O O11 0.690335 0.589226 0.180337
O O12 0.104899 0.722293 0.831214
O O13 0.859809 0.106223 0.691668
O O14 0.551179 0.443773 0.817228
O O15 0.000000 0.000000 0.500000
O O16 0.664936 0.060597 0.579425
O O17 0.624169 0.219333 0.197584
#
# Coordination Sequence:
#
# PCOD9090217 Si02
#       8
#     2   2   2   2   2   2   2   2
#     4  10  24  42  66  95 132 171 213 272 320 383
#     4  10  21  39  66  93 125 168 215 271 322 389
#     4  10  19  38  64  92 126 164 213 270 326 388
#     4  11  23  40  70  92 127 176 214 269 319 391
#     4  12  23  44  66  99 127 172 223 261 327 387
#     4  11  22  44  62  96 134 173 214 269 334 373
#     4  11  24  40  66  92 134 172 215 271 321 389
#     4   9  20  37  63  98 119 164 221 264 324 391
#
# _framework density 24.577054
#
# number of rings (size 3 to 8) (size 9 to 14) (size 15 to 20)
#    0.000    1.500    3.750    0.750    1.750    3.500 
#    0.000    0.625    0.000    0.000    0.000    0.000 
#    0.000    0.000    0.000    0.000    0.000    0.000 
#
# Total GULP energy -89414.067027 kJ/mol
# GULP energy per Si atom -5588.379189 kJ/mol
# Density = 2.452112 g / cm^3
# Si number density = 24.577054 Si / 1000 Ang^3
#
#
#
# Elastic Constant Matrix: (Units=GPa)
#
#
# Indices 1 2 3 4 5 6 
#
# 1 66.5168 4.3407 7.1709 0.9944 -2.3222 -3.2723
# 2 4.3407 118.3617 41.7630 -5.9812 -5.2501 -10.2475
# 3 7.1709 41.7630 145.7291 -7.1806 -20.3169 -3.0058
# 4 0.9944 -5.9812 -7.1806 35.7391 4.7936 -5.2337
# 5 -2.3222 -5.2501 -20.3169 4.7936 37.3105 6.5559
# 6 -3.2723 -10.2475 -3.0058 -5.2337 6.5559 26.9044
#
#
#
# Elastic Compliance Matrix: (Units=1/GPa)
#
#
# Indices 1 2 3 4 5 6 
#
# 1 0.015209 -0.000208 -0.000627 -0.000408 0.000359 0.001534
# 2 -0.000208 0.009832 -0.002786 0.001828 -0.001089 0.004029
# 3 -0.000627 -0.002786 0.008279 0.000481 0.004217 -0.001146
# 4 -0.000408 0.001828 0.000481 0.030161 -0.004738 0.007722
# 5 0.000359 -0.001089 0.004217 -0.004738 0.031050 -0.008388
# 6 0.001534 0.004029 -0.001146 0.007722 -0.008388 0.042308
#
#
# Mechanical properties :
#
#
# Convention : Reuss Voigt Hill
#
# Bulk Modulus (GPa) = 38.34756 48.57299 43.46027
# Shear Modulus (GPa) = 32.72783 38.47970 35.60377
#
# Velocity S-wave (km/s) = 3.65313 3.96115 3.81025
# Velocity P-wave (km/s) = 5.78192 6.38181 6.08926
#
# Compressibility (1/GPa) = 0.02607728
#
# Stress axis : x y z
#
# Youngs Moduli (GPa) = 65.75030 101.70562 120.78262
#
# Poissons Ratio (x) = 0.02119 0.07575
# Poissons Ratio (y) = 0.01370 0.33652
# Poissons Ratio (z) = 0.04123 0.28337
#
# Static dielectric constant tensor:
#      x y z
#    x 1.993270 -0.019140 0.035250 
#    y -0.019140 2.039090 -0.038500 
#    z 0.035250 -0.038500 1.995090 
# 
# From -- ./inp_files/597138.got.cif
#   From: 2010.05.17/outbox.cif.g08.bks.cpg/sg2_299_cif.got.tgz:597138.got - 2010.06.03 11:33:40.
