data_PCOD9090867
_publ_section_title
;
Structure prediction by ZEFSAII (Michael W. Deem and Ramdas Pophale) SiO2 
 PCOD9090867
Probable space group: P -1
;
_chemical_formula_sum "Si O2"
_cell_formula_units_Z 15
_cell_length_a 5.506329
_cell_length_b 11.475257
_cell_length_c 21.188479
_cell_angle_alpha 36.674654
_cell_angle_beta 69.605433
_cell_angle_gamma 52.528910
_cell_volume 606.562284
_symmetry_space_group_name_H-M "P -1"
_symmetry_group_IT_number 2
_symmetry_cell_setting 'triclinic'
loop_
_space_group_symop_operation_xyz
x,y,z
-x,-y,-z
loop_
_atom_site_type_symbol
_atom_site_label
_atom_site_fract_x
_atom_site_fract_y
_atom_site_fract_z
Si Si1 0.870743 0.081847 0.155220
Si Si2 0.973714 0.585277 0.325418
Si Si3 0.175346 0.139769 0.554083
Si Si4 0.195917 0.495623 0.756066
Si Si5 0.653761 0.785745 0.762075
Si Si6 0.684332 0.162501 0.670652
Si Si7 0.788484 0.025499 0.948979
Si Si8 0.000000 0.000000 0.500000
O O1 0.924171 0.826177 0.248985
O O2 0.138133 0.021818 0.207566
O O3 0.956863 0.143617 0.054963
O O4 0.538280 0.242589 0.153556
O O5 0.935944 0.581527 0.255394
O O6 0.652546 0.621935 0.365785
O O7 0.248810 0.333233 0.444178
O O8 0.910768 0.230436 0.593642
O O9 0.075335 0.091226 0.518663
O O10 0.462920 0.889862 0.667879
O O11 0.567793 0.295244 0.822436
O O12 0.996001 0.552533 0.813563
O O13 0.129609 0.743367 0.633787
O O14 0.660562 0.008060 0.686858
O O15 0.500000 0.000000 0.000000
O O16 0.000000 0.000000 0.000000
#
# Coordination Sequence:
#
# PCOD9090867 Si02
#       8
#     2   2   2   2   2   2   2   1
#     4  10  23  44  68  99 137 190 239 310 369 434
#     4  10  21  36  65  96 143 191 248 295 350 437
#     4  10  21  35  57 101 142 197 242 286 361 428
#     4  11  23  46  70 111 144 192 245 300 372 435
#     4  10  23  40  67  97 147 189 236 304 369 442
#     4  10  19  39  60  93 143 189 238 295 355 438
#     4  12  28  51  82 109 142 192 255 316 368 442
#     4  10  22  38  66 106 152 190 232 304 360 450
#
# _framework density 24.72953
#
# number of rings (size 3 to 8) (size 9 to 14) (size 15 to 20)
#    0.000    1.600    2.667    1.200    1.867   11.200 
#    0.000    1.333    0.000    0.000    0.000    0.000 
#    0.000    0.000    0.000    0.000    0.000    0.000 
#
# Total GULP energy -83597.588551 kJ/mol
# GULP energy per Si atom -5573.172570 kJ/mol
# Density = 2.467324 g / cm^3
# Si number density = 24.729530 Si / 1000 Ang^3
#
#
#
# Elastic Constant Matrix: (Units=GPa)
#
#
# Indices 1 2 3 4 5 6 
#
# 1 71.0633 32.1371 25.2257 17.5756 5.0130 -0.4905
# 2 32.1371 147.1765 25.5527 19.8299 7.6505 -13.1232
# 3 25.2257 25.5527 77.3799 12.7479 1.1748 0.2847
# 4 17.5756 19.8299 12.7479 34.0113 11.6972 -2.2337
# 5 5.0130 7.6505 1.1748 11.6972 21.9589 7.8859
# 6 -0.4905 -13.1232 0.2847 -2.2337 7.8859 47.4742
#
#
#
# Elastic Compliance Matrix: (Units=1/GPa)
#
#
# Indices 1 2 3 4 5 6 
#
# 1 0.018246 -0.002498 -0.004006 -0.006845 0.000907 -0.000951
# 2 -0.002498 0.008211 -0.001535 -0.002070 -0.001999 0.002488
# 3 -0.004006 -0.001535 0.015346 -0.003973 0.003203 -0.001277
# 4 -0.006845 -0.002070 -0.003973 0.043784 -0.022698 0.005211
# 5 0.000907 -0.001999 0.003203 -0.022698 0.062247 -0.011970
# 6 -0.000951 0.002488 -0.001277 0.005211 -0.011970 0.023983
#
#
# Mechanical properties :
#
#
# Convention : Reuss Voigt Hill
#
# Bulk Modulus (GPa) = 38.87113 51.27228 45.07171
# Shear Modulus (GPa) = 25.44897 34.86917 30.15907
#
# Velocity S-wave (km/s) = 3.21143 3.75910 3.49600
# Velocity P-wave (km/s) = 5.43173 6.29439 5.87890
#
# Compressibility (1/GPa) = 0.02572603
#
# Stress axis : x y z
#
# Youngs Moduli (GPa) = 54.80608 121.78403 65.16150
#
# Poissons Ratio (x) = 0.30426 0.26102
# Poissons Ratio (y) = 0.13692 0.10001
# Poissons Ratio (z) = 0.21954 0.18692
#
# Static dielectric constant tensor:
#      x y z
#    x 2.023840 -0.078730 -0.056360 
#    y -0.078730 1.957710 -0.017290 
#    z -0.056360 -0.017290 2.037870 
# 
# From -- ./inp_files/544694.got.cif
#   From: 2010.05.17/outbox.cif.g08.bks.cpg/sg2_273_cif.got.tgz:544694.got - 2010.06.03 11:33:40.
