data_PCOD9090162
_publ_section_title
;
Structure prediction by ZEFSAII (Michael W. Deem and Ramdas Pophale) SiO2 
 PCOD9090162
Probable space group: P -1
;
_chemical_formula_sum "Si O2"
_cell_formula_units_Z 16
_cell_length_a 9.202980
_cell_length_b 11.176989
_cell_length_c 11.464178
_cell_angle_alpha 127.187622
_cell_angle_beta 72.920755
_cell_angle_gamma 126.920640
_cell_volume 746.582545
_symmetry_space_group_name_H-M "P -1"
_symmetry_group_IT_number 2
_symmetry_cell_setting 'triclinic'
loop_
_space_group_symop_operation_xyz
x,y,z
-x,-y,-z
loop_
_atom_site_type_symbol
_atom_site_label
_atom_site_fract_x
_atom_site_fract_y
_atom_site_fract_z
Si Si1 0.189438 0.161796 0.997532
Si Si2 0.554739 0.449736 0.837862
Si Si3 0.862484 0.055356 0.322983
Si Si4 0.754381 0.770433 0.620771
Si Si5 0.523259 0.832520 0.901376
Si Si6 0.274406 0.433918 0.711824
Si Si7 0.486547 0.922730 0.329965
Si Si8 0.863492 0.100332 0.626166
O O1 0.168371 0.118815 0.839009
O O2 0.251299 0.365365 0.128544
O O3 0.352985 0.151254 0.008118
O O4 0.000000 0.000000 0.000000
O O5 0.409183 0.414038 0.752177
O O6 0.555592 0.274876 0.757273
O O7 0.500000 0.500000 0.000000
O O8 0.838828 0.049062 0.464205
O O9 0.073432 0.209513 0.340696
O O10 0.693155 0.059094 0.314437
O O11 0.627863 0.800921 0.752365
O O12 0.682881 0.604306 0.451315
O O13 0.845798 0.941993 0.612996
O O14 0.331226 0.638143 0.836269
O O15 0.500000 0.000000 0.000000
O O16 0.061196 0.285917 0.700543
O O17 0.312434 0.898354 0.294268
O O18 0.500000 0.000000 0.500000
#
# Coordination Sequence:
#
# PCOD9090162 Si02
#       8
#     2   2   2   2   2   2   2   2
#     4  11  23  40  63  86 124 165 207 241 306 375
#     4  11  22  37  64  89 121 163 203 253 302 366
#     4  10  19  38  64  88 121 157 209 246 299 360
#     4  11  21  40  69  89 121 167 210 244 301 370
#     4  11  26  42  61  91 129 164 198 255 313 359
#     4  10  22  42  61  92 122 163 210 244 304 373
#     4  10  20  37  61  95 124 152 199 261 307 348
#     4  10  22  36  68  95 121 154 206 263 308 343
#
# _framework density 21.430986999999998
#
# number of rings (size 3 to 8) (size 9 to 14) (size 15 to 20)
#    0.000    1.500    2.500    4.125    1.750    1.000 
#    0.000    1.250    0.000    3.000    0.000    0.000 
#    0.000    0.000    0.000    0.000    0.000    0.000 
#
# Total GULP energy -89169.133262 kJ/mol
# GULP energy per Si atom -5573.070829 kJ/mol
# Density = 2.138221 g / cm^3
# Si number density = 21.430987 Si / 1000 Ang^3
#
#
#
# Elastic Constant Matrix: (Units=GPa)
#
#
# Indices 1 2 3 4 5 6 
#
# 1 112.5936 28.4918 30.4926 24.5934 -4.7150 17.5161
# 2 28.4918 86.6192 27.6364 24.2179 3.0458 15.4080
# 3 30.4926 27.6364 116.8466 21.0121 14.0465 1.9439
# 4 24.5934 24.2179 21.0121 40.3079 -2.6135 -2.2221
# 5 -4.7150 3.0458 14.0465 -2.6135 37.8414 8.1739
# 6 17.5161 15.4080 1.9439 -2.2221 8.1739 34.6340
#
#
#
# Elastic Compliance Matrix: (Units=1/GPa)
#
#
# Indices 1 2 3 4 5 6 
#
# 1 0.012200 -0.000428 -0.002278 -0.006162 0.003502 -0.007074
# 2 -0.000428 0.016098 -0.002054 -0.008725 0.000429 -0.007491
# 3 -0.002278 -0.002054 0.010749 -0.003162 -0.004846 0.002403
# 4 -0.006162 -0.008725 -0.003162 0.036067 0.001633 0.009104
# 5 0.003502 0.000429 -0.004846 0.001633 0.030644 -0.008818
# 6 -0.007074 -0.007491 0.002403 0.009104 -0.008818 0.038313
#
#
# Mechanical properties :
#
#
# Convention : Reuss Voigt Hill
#
# Bulk Modulus (GPa) = 33.86627 54.36678 44.11653
# Shear Modulus (GPa) = 30.59357 37.85258 34.22308
#
# Velocity S-wave (km/s) = 3.78238 4.20724 4.00045
# Velocity P-wave (km/s) = 5.90863 7.00175 6.47829
#
# Compressibility (1/GPa) = 0.02952791
#
# Stress axis : x y z
#
# Youngs Moduli (GPa) = 81.96934 62.12050 93.02780
#
# Poissons Ratio (x) = 0.02661 0.21189
# Poissons Ratio (y) = 0.03511 0.19104
# Poissons Ratio (z) = 0.18670 0.12757
#
# Static dielectric constant tensor:
#      x y z
#    x 1.831130 0.061470 -0.000630 
#    y 0.061470 1.837400 -0.036860 
#    z -0.000630 -0.036860 1.808190 
# 
# From -- ./inp_files/274728.got.cif
#   From: 2010.05.17/outbox.cif.g08.bks.cpg/sg2_138_cif.got.tgz:274728.got - 2010.06.03 11:33:40.
