data_PCOD9090092
_publ_section_title
;
Structure prediction by ZEFSAII (Michael W. Deem and Ramdas Pophale) SiO2 
 PCOD9090092
Probable space group: P -1
;
_chemical_formula_sum "Si O2"
_cell_formula_units_Z 12
_cell_length_a 8.781150
_cell_length_b 12.484561
_cell_length_c 7.483147
_cell_angle_alpha 130.495769
_cell_angle_beta 53.813301
_cell_angle_gamma 96.373535
_cell_volume 451.201472
_symmetry_space_group_name_H-M "P -1"
_symmetry_group_IT_number 2
_symmetry_cell_setting 'triclinic'
loop_
_space_group_symop_operation_xyz
x,y,z
-x,-y,-z
loop_
_atom_site_type_symbol
_atom_site_label
_atom_site_fract_x
_atom_site_fract_y
_atom_site_fract_z
Si Si1 0.101529 0.076927 0.681681
Si Si2 0.764716 0.797296 0.930585
Si Si3 0.228572 0.904137 0.844044
Si Si4 0.662856 0.510173 0.257129
Si Si5 0.873508 0.711707 0.377512
Si Si6 0.397154 0.720260 0.200739
O O1 0.162126 0.124645 0.504904
O O2 0.232245 0.889916 0.417548
O O3 0.154257 0.176963 0.905632
O O4 0.855715 0.126460 0.944839
O O5 0.906857 0.708627 0.565376
O O6 0.616664 0.715521 0.985550
O O7 0.664857 0.978322 0.122221
O O8 0.351962 0.750744 0.474971
O O9 0.000000 0.000000 0.000000
O O10 0.500000 0.500000 0.500000
O O11 0.675860 0.675301 0.435909
O O12 0.630173 0.425380 0.013398
O O13 0.913853 0.401664 0.998277
#
# Coordination Sequence:
#
# PCOD9090092 Si02
#       6
#     2   2   2   2   2   2
#     4  10  21  39  64  99 117 159 217 257 306 369
#     4  10  19  38  63  93 130 162 196 265 317 358
#     4   8  16  32  57  87 122 155 195 252 310 351
#     4  11  23  44  61  89 130 170 203 252 316 372
#     4  11  24  42  68  89 126 166 208 258 308 369
#     4  10  19  38  65  91 128 165 204 257 313 366
#
# _framework density 26.595658
#
# number of rings (size 3 to 8) (size 9 to 14) (size 15 to 20)
#    0.000    2.333    1.667    5.000    0.000    3.333 
#    6.000    8.333    0.000    0.000    0.000    0.000 
#    0.000    0.000    0.000    0.000    0.000    0.000 
#
# Total GULP energy -67016.184810 kJ/mol
# GULP energy per Si atom -5584.682067 kJ/mol
# Density = 2.653512 g / cm^3
# Si number density = 26.595658 Si / 1000 Ang^3
#
#
#
# Elastic Constant Matrix: (Units=GPa)
#
#
# Indices 1 2 3 4 5 6 
#
# 1 78.5630 40.7130 39.4789 -11.4071 22.5113 23.6284
# 2 40.7130 133.8507 43.2268 -7.9858 3.6039 41.2658
# 3 39.4789 43.2268 135.8544 -20.7091 17.6464 11.9056
# 4 -11.4071 -7.9858 -20.7091 48.3190 4.3983 0.9264
# 5 22.5113 3.6039 17.6464 4.3983 41.9145 8.7336
# 6 23.6284 41.2658 11.9056 0.9264 8.7336 38.3823
#
#
#
# Elastic Compliance Matrix: (Units=1/GPa)
#
#
# Indices 1 2 3 4 5 6 
#
# 1 0.020792 -0.002758 -0.002770 0.004196 -0.008727 -0.007091
# 2 -0.002758 0.012850 -0.002717 0.000174 0.004044 -0.012199
# 3 -0.002770 -0.002717 0.009756 0.003327 -0.003204 0.002248
# 4 0.004196 0.000174 0.003327 0.023702 -0.005506 -0.003121
# 5 -0.008727 0.004044 -0.003204 -0.005506 0.031153 -0.004937
# 6 -0.007091 -0.012199 0.002248 -0.003121 -0.004937 0.044035
#
#
# Mechanical properties :
#
#
# Convention : Reuss Voigt Hill
#
# Bulk Modulus (GPa) = 37.16345 66.12281 51.64313
# Shear Modulus (GPa) = 29.80658 40.71313 35.25986
#
# Velocity S-wave (km/s) = 3.35136 3.91681 3.64507
# Velocity P-wave (km/s) = 5.38325 6.73583 6.09716
#
# Compressibility (1/GPa) = 0.02690816
#
# Stress axis : x y z
#
# Youngs Moduli (GPa) = 48.09453 77.82284 102.49598
#
# Poissons Ratio (x) = 0.21467 0.28391
# Poissons Ratio (y) = 0.13267 0.27845
# Poissons Ratio (z) = 0.13322 0.21142
#
# Static dielectric constant tensor:
#      x y z
#    x 2.187410 -0.060610 -0.017990 
#    y -0.060610 2.156500 0.053050 
#    z -0.017990 0.053050 2.124150 
# 
# From -- ./inp_files/269139.got.cif
#   From: 2010.05.17/outbox.cif.g08.bks.cpg/sg2_135_cif.got.tgz:269139.got - 2010.06.03 11:33:40.
