data_PCOD9090805
_publ_section_title
;
Structure prediction by ZEFSAII (Michael W. Deem and Ramdas Pophale) SiO2 
 PCOD9090805
Probable space group: P -1
;
_chemical_formula_sum "Si O2"
_cell_formula_units_Z 14
_cell_length_a 11.805903
_cell_length_b 16.222478
_cell_length_c 10.717301
_cell_angle_alpha 155.509697
_cell_angle_beta 65.338756
_cell_angle_gamma 125.935499
_cell_volume 645.861876
_symmetry_space_group_name_H-M "P -1"
_symmetry_group_IT_number 2
_symmetry_cell_setting 'triclinic'
loop_
_space_group_symop_operation_xyz
x,y,z
-x,-y,-z
loop_
_atom_site_type_symbol
_atom_site_label
_atom_site_fract_x
_atom_site_fract_y
_atom_site_fract_z
Si Si1 0.352215 0.486270 0.094988
Si Si2 0.520223 0.201079 0.098138
Si Si3 0.858493 0.998136 0.342512
Si Si4 0.800369 0.724569 0.461013
Si Si5 0.728387 0.757462 0.815274
Si Si6 0.668248 0.231527 0.733603
Si Si7 0.417467 0.140582 0.331269
O O1 0.313638 0.627397 0.209936
O O2 0.419876 0.637499 0.399029
O O3 0.500000 0.500000 0.000000
O O4 0.223088 0.219699 0.822626
O O5 0.633127 0.472482 0.458161
O O6 0.398717 0.181745 0.033084
O O7 0.420816 0.080863 0.103243
O O8 0.603229 0.066450 0.854730
O O9 0.779890 0.144657 0.578030
O O10 0.831383 0.877296 0.051578
O O11 0.034552 0.167619 0.516016
O O12 0.806578 0.818205 0.727513
O O13 0.707280 0.799671 0.524419
O O14 0.706824 0.436979 0.100589
O O15 0.500000 0.000000 0.500000
#
# Coordination Sequence:
#
# PCOD9090805 Si02
#       7
#     2   2   2   2   2   2   2
#     4  12  23  41  69  94 125 172 227 271 321 385
#     4   9  19  33  68  91 125 164 221 274 313 378
#     4  12  25  46  66  97 142 173 216 276 336 396
#     4  11  25  43  65  98 138 176 212 270 342 399
#     4  10  21  40  67  98 128 173 220 267 333 389
#     4  12  26  45  71  97 129 177 229 274 325 389
#     4  10  19  39  59  97 124 164 220 272 319 381
#
# _framework density 21.676461
#
# number of rings (size 3 to 8) (size 9 to 14) (size 15 to 20)
#    0.000    1.143    4.286    1.714    6.000    0.571 
#    2.571    0.714    0.000    0.000    0.000    0.000 
#    0.000    0.000    0.000    0.000    0.000    0.000 
#
# Total GULP energy -78169.808937 kJ/mol
# GULP energy per Si atom -5583.557781 kJ/mol
# Density = 2.162712 g / cm^3
# Si number density = 21.676461 Si / 1000 Ang^3
#
#
#
# Elastic Constant Matrix: (Units=GPa)
#
#
# Indices 1 2 3 4 5 6 
#
# 1 123.3130 46.1067 53.0257 28.2608 -28.5938 14.3723
# 2 46.1067 86.6875 30.5541 11.4113 -10.1160 1.0511
# 3 53.0257 30.5541 91.9816 14.8871 -18.9072 7.3218
# 4 28.2608 11.4113 14.8871 39.7316 -12.3094 5.8824
# 5 -28.5938 -10.1160 -18.9072 -12.3094 43.8353 -4.9306
# 6 14.3723 1.0511 7.3218 5.8824 -4.9306 34.7747
#
#
#
# Elastic Compliance Matrix: (Units=1/GPa)
#
#
# Indices 1 2 3 4 5 6 
#
# 1 0.014622 -0.004828 -0.004772 -0.005339 0.004489 -0.003353
# 2 -0.004828 0.014905 -0.002388 -0.000451 -0.000637 0.002033
# 3 -0.004772 -0.002388 0.015111 -0.000683 0.002588 -0.000655
# 4 -0.005339 -0.000451 -0.000683 0.031110 0.004602 -0.002246
# 5 0.004489 -0.000637 0.002588 0.004602 0.028095 0.000824
# 6 -0.003353 0.002033 -0.000655 -0.002246 0.000824 0.030715
#
#
# Mechanical properties :
#
#
# Convention : Reuss Voigt Hill
#
# Bulk Modulus (GPa) = 48.39667 62.37279 55.38473
# Shear Modulus (GPa) = 30.22591 35.15469 32.69030
#
# Velocity S-wave (km/s) = 3.73823 4.03152 3.88764
# Velocity P-wave (km/s) = 6.40374 7.10688 6.76445
#
# Compressibility (1/GPa) = 0.02066258
#
# Stress axis : x y z
#
# Youngs Moduli (GPa) = 68.39170 67.08967 66.17906
#
# Poissons Ratio (x) = 0.32389 0.31579
# Poissons Ratio (y) = 0.33018 0.15804
# Poissons Ratio (z) = 0.32635 0.16021
#
# Static dielectric constant tensor:
#      x y z
#    x 1.782880 -0.042010 -0.032250 
#    y -0.042010 1.877770 -0.054020 
#    z -0.032250 -0.054020 1.846770 
# 
# From -- ./inp_files/255982.got.cif
#   From: 2010.05.17/outbox.cif.g08.bks.cpg/sg2_128_cif.got.tgz:255982.got - 2010.06.03 11:33:40.
