data_PCOD9090528
_publ_section_title
;
Structure prediction by ZEFSAII (Michael W. Deem and Ramdas Pophale) SiO2 
 PCOD9090528
Probable space group: P -1
;
_chemical_formula_sum "Si O2"
_cell_formula_units_Z 16
_cell_length_a 12.171322
_cell_length_b 10.901016
_cell_length_c 11.413862
_cell_angle_alpha 39.390672
_cell_angle_beta 65.033970
_cell_angle_gamma 45.330560
_cell_volume 658.344530
_symmetry_space_group_name_H-M "P -1"
_symmetry_group_IT_number 2
_symmetry_cell_setting 'triclinic'
loop_
_space_group_symop_operation_xyz
x,y,z
-x,-y,-z
loop_
_atom_site_type_symbol
_atom_site_label
_atom_site_fract_x
_atom_site_fract_y
_atom_site_fract_z
Si Si1 0.199216 0.628513 0.943411
Si Si2 0.463677 0.881749 0.204693
Si Si3 0.234338 0.949269 0.421526
Si Si4 0.525856 0.553102 0.214108
Si Si5 0.950621 0.148127 0.565136
Si Si6 0.324103 0.858184 0.862058
Si Si7 0.380390 0.293579 0.300278
Si Si8 0.746181 0.630957 0.453424
O O1 0.330453 0.478070 0.891649
O O2 0.228121 0.792536 0.887632
O O3 0.241064 0.416559 0.173691
O O4 0.032549 0.863720 0.786370
O O5 0.295446 0.041381 0.232475
O O6 0.474043 0.677331 0.273094
O O7 0.599196 0.768696 0.325595
O O8 0.500000 0.000000 0.000000
O O9 0.386424 0.744162 0.588397
O O10 0.194354 0.788146 0.492394
O O11 0.078692 0.127229 0.441600
O O12 0.379060 0.736916 0.056179
O O13 0.888815 0.362944 0.529008
O O14 0.489511 0.711415 0.822585
O O15 0.236533 0.157018 0.688085
O O16 0.293184 0.426757 0.362565
O O17 0.500000 0.000000 0.500000
#
# Coordination Sequence:
#
# PCOD9090528 Si02
#       8
#     2   2   2   2   2   2   2   2
#     4  10  22  38  65  93 139 175 215 267 326 414
#     4  12  24  40  68 103 128 163 228 297 329 377
#     4  10  23  41  68  96 132 178 220 273 338 400
#     4  10  19  38  66  98 124 162 224 286 328 372
#     4  10  23  42  64  97 141 184 216 259 341 415
#     4  10  21  38  63  98 133 168 222 284 324 382
#     4   9  20  37  62  97 126 168 223 278 326 374
#     4  11  23  39  65  95 138 171 223 278 329 402
#
# _framework density 24.303383
#
# number of rings (size 3 to 8) (size 9 to 14) (size 15 to 20)
#    0.000    1.750    2.500    1.875    5.250    1.000 
#    0.000    0.625    5.500    0.000    0.000    0.000 
#    0.000    0.000    0.000    0.000    0.000    0.000 
#
# Total GULP energy -89297.885520 kJ/mol
# GULP energy per Si atom -5581.117845 kJ/mol
# Density = 2.424807 g / cm^3
# Si number density = 24.303383 Si / 1000 Ang^3
#
#
#
# Elastic Constant Matrix: (Units=GPa)
#
#
# Indices 1 2 3 4 5 6 
#
# 1 55.1406 18.8874 18.4729 10.0195 6.3542 6.2518
# 2 18.8874 171.4379 45.1851 17.6269 -9.8047 9.4604
# 3 18.4729 45.1851 147.0669 27.4577 6.3128 -13.9811
# 4 10.0195 17.6269 27.4577 40.6551 5.9094 1.0906
# 5 6.3542 -9.8047 6.3128 5.9094 38.8716 3.6076
# 6 6.2518 9.4604 -13.9811 1.0906 3.6076 34.5260
#
#
#
# Elastic Compliance Matrix: (Units=1/GPa)
#
#
# Indices 1 2 3 4 5 6 
#
# 1 0.020465 -0.001434 -0.001869 -0.002674 -0.002653 -0.003708
# 2 -0.001434 0.007014 -0.002050 -0.001642 0.002840 -0.002737
# 3 -0.001869 -0.002050 0.009065 -0.004697 -0.001422 0.004868
# 4 -0.002674 -0.001642 -0.004697 0.029703 -0.003588 -0.001531
# 5 -0.002653 0.002840 -0.001422 -0.003588 0.027994 -0.003685
# 6 -0.003708 -0.002737 0.004868 -0.001531 -0.003685 0.032790
#
#
# Mechanical properties :
#
#
# Convention : Reuss Voigt Hill
#
# Bulk Modulus (GPa) = 38.70524 59.85959 49.28242
# Shear Modulus (GPa) = 34.16466 42.21720 38.19093
#
# Velocity S-wave (km/s) = 3.75341 4.17236 3.96842
# Velocity P-wave (km/s) = 5.89445 6.92063 6.42805
#
# Compressibility (1/GPa) = 0.02583629
#
# Stress axis : x y z
#
# Youngs Moduli (GPa) = 48.86403 142.57741 110.31366
#
# Poissons Ratio (x) = 0.20447 0.20621
# Poissons Ratio (y) = 0.07007 0.22618
# Poissons Ratio (z) = 0.09134 0.29233
#
# Static dielectric constant tensor:
#      x y z
#    x 2.002700 0.046650 -0.044500 
#    y 0.046650 1.916200 -0.035830 
#    z -0.044500 -0.035830 2.073020 
# 
# From -- ./inp_files/452139.got.cif
#   From: 2010.05.17/outbox.cif.g08.bks.cpg/sg2_227_cif.got.tgz:452139.got - 2010.06.03 11:33:40.
