data_PCOD9090996
_publ_section_title
;
Structure prediction by ZEFSAII (Michael W. Deem and Ramdas Pophale) SiO2 
 PCOD9090996
Probable space group: P -1
;
_chemical_formula_sum "Si O2"
_cell_formula_units_Z 16
_cell_length_a 14.037785
_cell_length_b 7.085891
_cell_length_c 7.855822
_cell_angle_alpha 86.122805
_cell_angle_beta 58.903550
_cell_angle_gamma 86.150809
_cell_volume 667.123483
_symmetry_space_group_name_H-M "P -1"
_symmetry_group_IT_number 2
_symmetry_cell_setting 'triclinic'
loop_
_space_group_symop_operation_xyz
x,y,z
-x,-y,-z
loop_
_atom_site_type_symbol
_atom_site_label
_atom_site_fract_x
_atom_site_fract_y
_atom_site_fract_z
Si Si1 0.094248 0.927166 0.785602
Si Si2 0.082427 0.280431 0.565931
Si Si3 0.761664 0.848999 0.131983
Si Si4 0.596564 0.158683 0.682786
Si Si5 0.323601 0.428272 0.338950
Si Si6 0.039742 0.382552 0.204906
Si Si7 0.464756 0.290650 0.500421
Si Si8 0.643815 0.858105 0.916623
O O1 0.081729 0.062233 0.626100
O O2 0.203437 0.989483 0.779339
O O3 0.068440 0.718233 0.764257
O O4 0.000000 0.000000 0.000000
O O5 0.201088 0.363680 0.508008
O O6 0.062864 0.313578 0.381915
O O7 0.988773 0.396315 0.755657
O O8 0.654004 0.747505 0.304760
O O9 0.860137 0.695521 0.002697
O O10 0.723162 0.936601 0.982526
O O11 0.656318 0.353593 0.655166
O O12 0.557206 0.157987 0.521013
O O13 0.661624 0.985738 0.725141
O O14 0.479532 0.150541 0.893025
O O15 0.429921 0.311141 0.333985
O O16 0.326600 0.359717 0.145403
O O17 0.500000 0.500000 0.500000
#
# Coordination Sequence:
#
# PCOD9090996 Si02
#       8
#     2   2   2   2   2   2   2   2
#     4  10  22  40  62  86 124 162 203 252 307 354
#     4  11  22  41  63  93 122 159 209 251 304 367
#     4  10  19  39  62  90 125 166 200 249 307 356
#     4   9  21  38  60  89 118 159 205 246 305 369
#     4  11  20  37  62  89 121 161 197 253 309 354
#     4  10  23  41  64  90 123 162 204 257 301 362
#     4   9  19  37  63  88 124 157 201 249 303 366
#     4  10  20  38  62  87 126 156 202 255 295 365
#
# _framework density 23.983567000000001
#
# number of rings (size 3 to 8) (size 9 to 14) (size 15 to 20)
#    0.000    2.000    2.500    0.750    0.000    3.500 
#    9.000    1.250   11.000    0.000    0.000    0.000 
#    0.000    0.000    0.000    0.000    0.000    0.000 
#
# Total GULP energy -89275.524237 kJ/mol
# GULP energy per Si atom -5579.720265 kJ/mol
# Density = 2.392898 g / cm^3
# Si number density = 23.983567 Si / 1000 Ang^3
#
#
#
# Elastic Constant Matrix: (Units=GPa)
#
#
# Indices 1 2 3 4 5 6 
#
# 1 90.0710 22.1410 28.0652 1.4916 6.0661 27.5922
# 2 22.1410 62.6965 15.4811 4.7038 7.7338 23.8585
# 3 28.0652 15.4811 38.1862 1.8749 -0.4313 -0.0825
# 4 1.4916 4.7038 1.8749 28.2488 -0.6336 -0.2347
# 5 6.0661 7.7338 -0.4313 -0.6336 47.2134 16.1125
# 6 27.5922 23.8585 -0.0825 -0.2347 16.1125 23.7551
#
#
#
# Elastic Compliance Matrix: (Units=1/GPa)
#
#
# Indices 1 2 3 4 5 6 
#
# 1 0.050565 0.033667 -0.050509 -0.005277 0.024875 -0.109646
# 2 0.033667 0.055855 -0.046947 -0.008350 0.024148 -0.111827
# 3 -0.050509 -0.046947 0.082032 0.005458 -0.027619 0.124891
# 4 -0.005277 -0.008350 0.005458 0.036776 -0.003247 0.017100
# 5 0.024875 0.024148 -0.027619 -0.003247 0.041526 -0.081440
# 6 -0.109646 -0.111827 0.124891 0.017100 -0.081440 0.337608
#
#
# Mechanical properties :
#
#
# Convention : Reuss Voigt Hill
#
# Bulk Modulus (GPa) = 16.42719 35.81428 26.12073
# Shear Modulus (GPa) = 6.64689 28.19456 17.42073
#
# Velocity S-wave (km/s) = 1.66657 3.43239 2.69803
# Velocity P-wave (km/s) = 3.25077 5.53838 4.54099
#
# Compressibility (1/GPa) = 0.06087468
#
# Stress axis : x y z
#
# Youngs Moduli (GPa) = 19.77640 17.90342 12.19039
#
# Poissons Ratio (x) = -0.60275 0.61572
# Poissons Ratio (y) = -0.66581 0.57230
# Poissons Ratio (z) = 0.99889 0.84051
#
# Static dielectric constant tensor:
#      x y z
#    x 2.190630 0.492220 0.120150 
#    y 0.492220 3.663380 0.218710 
#    z 0.120150 0.218710 1.957610 
# 
# From -- ./inp_files/288801.got.cif
#   From: 2010.05.17/outbox.cif.g08.bks.cpg/sg2_145_cif.got.tgz:288801.got - 2010.06.03 11:33:40.
