data_PCOD9090621
_publ_section_title
;
Structure prediction by ZEFSAII (Michael W. Deem and Ramdas Pophale) SiO2 
 PCOD9090621
Probable space group: P -1
;
_chemical_formula_sum "Si O2"
_cell_formula_units_Z 14
_cell_length_a 9.512953
_cell_length_b 9.721824
_cell_length_c 22.093797
_cell_angle_alpha 133.706246
_cell_angle_beta 20.232073
_cell_angle_gamma 132.067721
_cell_volume 508.887758
_symmetry_space_group_name_H-M "P -1"
_symmetry_group_IT_number 2
_symmetry_cell_setting 'triclinic'
loop_
_space_group_symop_operation_xyz
x,y,z
-x,-y,-z
loop_
_atom_site_type_symbol
_atom_site_label
_atom_site_fract_x
_atom_site_fract_y
_atom_site_fract_z
Si Si1 0.229134 0.295936 0.535038
Si Si2 0.440109 0.697650 0.897788
Si Si3 0.391407 0.443976 0.094304
Si Si4 0.469726 0.102187 0.259620
Si Si5 0.414120 0.824914 0.527148
Si Si6 0.827166 0.972813 0.969075
Si Si7 0.493707 0.496111 0.306268
O O1 0.500000 0.500000 0.500000
O O2 0.215245 0.190667 0.443814
O O3 0.363148 0.158053 0.492506
O O4 0.798022 0.376922 0.745469
O O5 0.318932 0.629068 0.993039
O O6 0.387508 0.526619 0.818701
O O7 0.929308 0.768642 0.717566
O O8 0.215092 0.879893 0.022742
O O9 0.500000 0.500000 0.000000
O O10 0.113895 0.244312 0.137822
O O11 0.622939 0.302041 0.225605
O O12 0.428887 0.981089 0.176169
O O13 0.777483 0.981893 0.136031
O O14 0.589321 0.654135 0.366692
O O15 0.500000 0.000000 0.500000
O O16 0.000000 0.500000 0.500000
#
# Coordination Sequence:
#
# PCOD9090621 Si02
#       7
#     2   2   2   2   2   2   2
#     4  12  20  41  66  86 124 175 210 253 328 384
#     4  10  21  40  65  88 128 172 209 258 326 381
#     4  12  25  41  63  93 129 168 216 267 318 379
#     4  10  19  38  68  92 121 170 210 258 321 385
#     4  11  22  36  63  98 126 159 215 269 315 381
#     4  10  21  38  65  95 126 161 213 262 321 381
#     4   9  17  35  63  92 124 164 210 260 319 378
#
# _framework density 27.510978000000001
#
# number of rings (size 3 to 8) (size 9 to 14) (size 15 to 20)
#    0.000    1.429    4.286    1.286    2.000    0.000 
#    2.571    0.714    0.000    3.429    0.000    0.000 
#    0.000    0.000    0.000    0.000    0.000    0.000 
#
# Total GULP energy -78178.379960 kJ/mol
# GULP energy per Si atom -5584.169997 kJ/mol
# Density = 2.744836 g / cm^3
# Si number density = 27.510978 Si / 1000 Ang^3
#
#
#
# Elastic Constant Matrix: (Units=GPa)
#
#
# Indices 1 2 3 4 5 6 
#
# 1 154.8282 34.2990 35.0520 2.7109 22.9943 -49.2393
# 2 34.2990 87.2460 22.3685 5.6484 1.2161 -25.2501
# 3 35.0520 22.3685 143.2968 23.6438 33.8644 -20.7719
# 4 2.7109 5.6484 23.6438 31.9271 -10.4663 -3.6314
# 5 22.9943 1.2161 33.8644 -10.4663 65.4283 5.3832
# 6 -49.2393 -25.2501 -20.7719 -3.6314 5.3832 63.5620
#
#
#
# Elastic Compliance Matrix: (Units=1/GPa)
#
#
# Indices 1 2 3 4 5 6 
#
# 1 0.009743 -0.001632 0.000119 -0.001195 -0.004241 0.007229
# 2 -0.001632 0.013498 -0.001166 -0.000810 0.000498 0.003628
# 3 0.000119 -0.001166 0.011101 -0.010159 -0.007664 0.003325
# 4 -0.001195 -0.000810 -0.010159 0.042929 0.012824 -0.003201
# 5 -0.004241 0.000498 -0.007664 0.012824 0.023346 -0.006837
# 6 0.007229 0.003628 0.003325 -0.003201 -0.006837 0.024257
#
#
# Mechanical properties :
#
#
# Convention : Reuss Voigt Hill
#
# Bulk Modulus (GPa) = 34.50198 63.20110 48.85154
# Shear Modulus (GPa) = 35.74121 51.76023 43.75072
#
# Velocity S-wave (km/s) = 3.60830 4.34226 3.99218
# Velocity P-wave (km/s) = 5.47066 6.93997 6.24866
#
# Compressibility (1/GPa) = 0.02898384
#
# Stress axis : x y z
#
# Youngs Moduli (GPa) = 102.63424 74.08519 90.08180
#
# Poissons Ratio (x) = 0.12092 -0.01070
# Poissons Ratio (y) = 0.16752 0.10503
# Poissons Ratio (z) = -0.01219 0.08637
#
# Static dielectric constant tensor:
#      x y z
#    x 2.352450 0.319410 -0.171420 
#    y 0.319410 2.463380 -0.301160 
#    z -0.171420 -0.301160 2.385380 
# 
# From -- ./inp_files/588097.got.cif
#   From: 2010.05.17/outbox.cif.g08.bks.cpg/sg2_295_cif.got.tgz:588097.got - 2010.06.03 11:33:40.
