data_PCOD9090297
_publ_section_title
;
Structure prediction by ZEFSAII (Michael W. Deem and Ramdas Pophale) SiO2 
 PCOD9090297
Probable space group: P -1
;
_chemical_formula_sum "Si O2"
_cell_formula_units_Z 16
_cell_length_a 8.997267
_cell_length_b 18.419872
_cell_length_c 15.913082
_cell_angle_alpha 22.888816
_cell_angle_beta 63.955881
_cell_angle_gamma 50.856965
_cell_volume 701.189933
_symmetry_space_group_name_H-M "P -1"
_symmetry_group_IT_number 2
_symmetry_cell_setting 'triclinic'
loop_
_space_group_symop_operation_xyz
x,y,z
-x,-y,-z
loop_
_atom_site_type_symbol
_atom_site_label
_atom_site_fract_x
_atom_site_fract_y
_atom_site_fract_z
Si Si1 0.234650 0.796356 0.589370
Si Si2 0.820102 0.921944 0.534493
Si Si3 0.806332 0.889165 0.297604
Si Si4 0.329565 0.381472 0.128661
Si Si5 0.305359 0.404982 0.300481
Si Si6 0.734197 0.554911 0.425133
Si Si7 0.683390 0.016832 0.008779
Si Si8 0.135533 0.746254 0.119640
O O1 0.468507 0.692674 0.609160
O O2 0.033529 0.875989 0.496456
O O3 0.179074 0.003618 0.448177
O O4 0.280127 0.577891 0.865660
O O5 0.807805 0.706789 0.760350
O O6 0.588012 0.151560 0.309350
O O7 0.714260 0.804141 0.474193
O O8 0.668020 0.983291 0.146055
O O9 0.051423 0.655155 0.457092
O O10 0.784711 0.118833 0.083291
O O11 0.285588 0.483550 0.125924
O O12 0.126118 0.610673 0.189520
O O13 0.725608 0.782136 0.208279
O O14 0.737838 0.438613 0.636022
O O15 0.513054 0.710714 0.261955
O O16 0.903097 0.960467 0.989704
#
# Coordination Sequence:
#
# PCOD9090297 Si02
#       8
#     2   2   2   2   2   2   2   2
#     4  10  21  39  64  86 119 155 199 245 294 352
#     4   9  19  38  63  90 108 150 202 243 290 353
#     4  11  22  38  59  85 121 159 196 247 295 350
#     4  10  21  39  65  85 119 155 200 244 293 355
#     4  11  22  39  56  88 126 156 197 247 301 353
#     4  10  19  38  65  86 110 157 206 239 300 353
#     4  10  19  38  66  83 115 155 198 254 290 353
#     4  11  22  38  60  84 122 159 195 245 298 352
#
# _framework density 22.818353999999999
#
# number of rings (size 3 to 8) (size 9 to 14) (size 15 to 20)
#    0.000    1.750    2.500    4.125    0.000    6.000 
#    0.000   12.500    0.000    0.000    0.000    0.000 
#    0.000    0.000    0.000    0.000    0.000    0.000 
#
# Total GULP energy -89293.744667 kJ/mol
# GULP energy per Si atom -5580.859042 kJ/mol
# Density = 2.276642 g / cm^3
# Si number density = 22.818354 Si / 1000 Ang^3
#
#
#
# Elastic Constant Matrix: (Units=GPa)
#
#
# Indices 1 2 3 4 5 6 
#
# 1 86.2651 27.4952 40.3236 -25.3625 9.2033 -32.7795
# 2 27.4952 25.8208 21.2885 23.5646 -15.8196 19.6643
# 3 40.3236 21.2885 116.2961 -0.9991 1.4845 -13.1078
# 4 -25.3625 23.5646 -0.9991 1.3328 15.2887 -29.7448
# 5 9.2033 -15.8196 1.4845 15.2887 28.0135 23.8978
# 6 -32.7795 19.6643 -13.1078 -29.7448 23.8978 -1.8736
#
#
#
# Elastic Compliance Matrix: (Units=1/GPa)
#
#
# Indices 1 2 3 4 5 6 
#
# 1 0.009724 0.002387 -0.004379 -0.003663 0.004073 -0.004324
# 2 0.002387 0.019847 -0.002981 0.007829 -0.003999 0.012083
# 3 -0.004379 -0.002981 0.010734 -0.002156 -0.000290 0.000766
# 4 -0.003663 0.007829 -0.002156 0.019638 0.010381 -0.018005
# 5 0.004073 -0.003999 -0.000290 0.010381 0.022045 0.005164
# 6 -0.004324 0.012083 0.000766 -0.018005 0.005164 0.015081
#
#
# Mechanical properties :
#
#
# Convention : Reuss Voigt Hill
#
# Bulk Modulus (GPa) = 32.93845 45.17740 39.05793
# Shear Modulus (GPa) = 42.68640 14.77951 28.73296
#
# Velocity S-wave (km/s) = 4.32986 2.54776 3.55238
# Velocity P-wave (km/s) = 6.28198 5.33821 5.82923
#
# Compressibility (1/GPa) = 0.03035965
#
# Stress axis : x y z
#
# Youngs Moduli (GPa) = 102.83869 50.38634 93.15852
#
# Poissons Ratio (x) = -0.12029 0.40798
# Poissons Ratio (y) = -0.24551 0.27767
# Poissons Ratio (z) = 0.45037 0.15018
#
# Static dielectric constant tensor:
#      x y z
#    x 1.995350 -0.056340 -0.020790 
#    y -0.056340 1.934640 -0.020770 
#    z -0.020790 -0.020770 1.860870 
# 
# From -- ./inp_files/562533.got.cif
#   From: 2010.05.17/outbox.cif.g08.bks.cpg/sg2_282_cif.got.tgz:562533.got - 2010.06.03 11:33:40.
