data_PCOD9090544
_publ_section_title
;
Structure prediction by ZEFSAII (Michael W. Deem and Ramdas Pophale) SiO2 
 PCOD9090544
Probable space group: P -1
;
_chemical_formula_sum "Si O2"
_cell_formula_units_Z 15
_cell_length_a 9.077984
_cell_length_b 10.328043
_cell_length_c 10.929260
_cell_angle_alpha 58.287597
_cell_angle_beta 127.818635
_cell_angle_gamma 132.504561
_cell_volume 585.746517
_symmetry_space_group_name_H-M "P -1"
_symmetry_group_IT_number 2
_symmetry_cell_setting 'triclinic'
loop_
_space_group_symop_operation_xyz
x,y,z
-x,-y,-z
loop_
_atom_site_type_symbol
_atom_site_label
_atom_site_fract_x
_atom_site_fract_y
_atom_site_fract_z
Si Si1 0.730243 0.266903 0.266013
Si Si2 0.082276 0.310382 0.839022
Si Si3 0.850115 0.018838 0.516433
Si Si4 0.598766 0.605809 0.247324
Si Si5 0.640226 0.227254 0.714236
Si Si6 0.500000 0.500000 0.500000
Si Si7 0.692403 0.795294 0.786570
Si Si8 0.227689 0.688442 0.998593
O O1 0.823299 0.478135 0.202317
O O2 0.482526 0.181148 0.234856
O O3 0.867123 0.208348 0.446123
O O4 0.770461 0.220091 0.171915
O O5 0.202450 0.298328 0.788674
O O6 0.826233 0.222644 0.734856
O O7 0.158611 0.238451 0.027307
O O8 0.598842 0.900702 0.396732
O O9 0.836643 0.931404 0.685111
O O10 0.000000 0.000000 0.500000
O O11 0.643430 0.640494 0.394732
O O12 0.468526 0.390211 0.276623
O O13 0.420164 0.650393 0.093965
O O14 0.668058 0.422719 0.630823
O O15 0.697454 0.197628 0.895959
O O16 0.000000 0.500000 0.000000
#
# Coordination Sequence:
#
# PCOD9090544 Si02
#       8
#     2   2   2   2   2   1   2   2
#     4  11  23  43  72 100 136 188 229 284 349 413
#     4  11  22  42  79 102 128 180 246 287 337 416
#     4  12  30  46  65  99 149 185 227 290 365 411
#     4  10  19  38  67 104 132 171 229 291 340 402
#     4  11  25  42  68 103 139 180 234 289 344 420
#     4  10  22  38  64  98 146 166 228 286 344 390
#     4  11  21  47  68 100 136 188 229 287 341 427
#     4  11  20  38  71 106 134 174 232 288 340 403
#
# _framework density 25.608346000000001
#
# number of rings (size 3 to 8) (size 9 to 14) (size 15 to 20)
#    0.000    1.067    5.333    1.200    5.600    1.067 
#    0.000    3.333    0.000    0.000    0.000    0.000 
#    0.000    0.000    0.000    0.000    0.000    0.000 
#
# Total GULP energy -83660.765210 kJ/mol
# GULP energy per Si atom -5577.384347 kJ/mol
# Density = 2.555006 g / cm^3
# Si number density = 25.608346 Si / 1000 Ang^3
#
#
#
# Elastic Constant Matrix: (Units=GPa)
#
#
# Indices 1 2 3 4 5 6 
#
# 1 208.0428 26.4225 79.7329 -8.3896 15.7252 45.2284
# 2 26.4225 71.4949 37.8051 4.7922 3.6834 15.7217
# 3 79.7329 37.8051 154.5880 -28.4549 -5.1160 27.8277
# 4 -8.3896 4.7922 -28.4549 38.6922 9.7151 3.2532
# 5 15.7252 3.6834 -5.1160 9.7151 55.3019 4.0666
# 6 45.2284 15.7217 27.8277 3.2532 4.0666 29.7171
#
#
#
# Elastic Compliance Matrix: (Units=1/GPa)
#
#
# Indices 1 2 3 4 5 6 
#
# 1 0.008045 0.000470 -0.002214 0.001431 -0.002018 -0.010301
# 2 0.000470 0.017720 -0.004548 -0.004874 -0.000494 -0.005231
# 3 -0.002214 -0.004548 0.011458 0.008794 0.000892 -0.006039
# 4 0.001431 -0.004874 0.008794 0.035326 -0.004661 -0.011063
# 5 -0.002018 -0.000494 0.000892 -0.004661 0.019566 0.000330
# 6 -0.010301 -0.005231 -0.006039 -0.011063 0.000330 0.058916
#
#
# Mechanical properties :
#
#
# Convention : Reuss Voigt Hill
#
# Bulk Modulus (GPa) = 40.58275 80.22740 60.40508
# Shear Modulus (GPa) = 29.09879 44.08657 36.59268
#
# Velocity S-wave (km/s) = 3.37456 4.15368 3.78423
# Velocity P-wave (km/s) = 5.57364 7.37569 6.53706
#
# Compressibility (1/GPa) = 0.02464101
#
# Stress axis : x y z
#
# Youngs Moduli (GPa) = 124.30291 56.43190 87.27515
#
# Poissons Ratio (x) = -0.02655 0.19319
# Poissons Ratio (y) = -0.05848 0.39693
# Poissons Ratio (z) = 0.27515 0.25666
#
# Static dielectric constant tensor:
#      x y z
#    x 2.117510 -0.221750 0.017530 
#    y -0.221750 2.467990 -0.133630 
#    z 0.017530 -0.133630 2.057500 
# 
# From -- ./inp_files/389222.got.cif
#   From: 2010.05.17/outbox.cif.g08.bks.cpg/sg2_195_cif.got.tgz:389222.got - 2010.06.03 11:33:40.
