data_PCOD9090840
_publ_section_title
;
Structure prediction by ZEFSAII (Michael W. Deem and Ramdas Pophale) SiO2 
 PCOD9090840
Probable space group: P -1
;
_chemical_formula_sum "Si O2"
_cell_formula_units_Z 16
_cell_length_a 5.194426
_cell_length_b 13.628788
_cell_length_c 12.027101
_cell_angle_alpha 66.119814
_cell_angle_beta 75.950525
_cell_angle_gamma 56.486621
_cell_volume 648.918561
_symmetry_space_group_name_H-M "P -1"
_symmetry_group_IT_number 2
_symmetry_cell_setting 'triclinic'
loop_
_space_group_symop_operation_xyz
x,y,z
-x,-y,-z
loop_
_atom_site_type_symbol
_atom_site_label
_atom_site_fract_x
_atom_site_fract_y
_atom_site_fract_z
Si Si1 0.396599 0.231259 0.785338
Si Si2 0.750748 0.655376 0.859341
Si Si3 0.318601 0.017737 0.360652
Si Si4 0.812736 0.078006 0.206416
Si Si5 0.613474 0.745338 0.487754
Si Si6 0.087672 0.829866 0.069988
Si Si7 0.923169 0.388157 0.925424
Si Si8 0.092837 0.708698 0.620555
O O1 0.391700 0.250329 0.646657
O O2 0.719134 0.184449 0.833940
O O3 0.251144 0.145501 0.875208
O O4 0.152038 0.361476 0.810248
O O5 0.438212 0.778842 0.800211
O O6 0.726342 0.533105 0.906441
O O7 0.022409 0.639665 0.756685
O O8 0.859178 0.672925 0.961338
O O9 0.633075 0.007561 0.289481
O O10 0.116387 0.144556 0.391556
O O11 0.115912 0.028935 0.269781
O O12 0.408386 0.892475 0.474527
O O13 0.882773 0.086162 0.066035
O O14 0.946606 0.692476 0.530495
O O15 0.438407 0.677628 0.582722
O O16 0.228804 0.692717 0.057617
#
# Coordination Sequence:
#
# PCOD9090840 Si02
#       8
#     2   2   2   2   2   2   2   2
#     4  10  22  41  61  88 124 169 204 243 296 372
#     4  10  20  41  65 101 121 158 198 258 316 360
#     4  11  23  39  64  92 121 160 206 258 309 357
#     4  11  20  38  61  97 127 148 198 265 308 358
#     4  12  24  44  63  86 123 175 206 244 306 360
#     4  10  19  39  60  87 127 162 192 252 302 359
#     4   9  21  40  67  94 126 157 200 247 318 371
#     4  11  23  40  64  91 124 156 209 260 295 358
#
# _framework density 24.656407000000002
#
# number of rings (size 3 to 8) (size 9 to 14) (size 15 to 20)
#    0.750    0.750    1.250    6.000    0.000    0.500 
#    6.750    5.000    0.000    0.000    0.000    0.000 
#    0.000    0.000    0.000    0.000    0.000    0.000 
#
# Total GULP energy -89600.527194 kJ/mol
# GULP energy per Si atom -5600.032950 kJ/mol
# Density = 2.460029 g / cm^3
# Si number density = 24.656407 Si / 1000 Ang^3
#
#
#
# Elastic Constant Matrix: (Units=GPa)
#
#
# Indices 1 2 3 4 5 6 
#
# 1 156.6412 6.5035 48.4451 7.2032 1.3119 24.9406
# 2 6.5035 52.7445 5.5035 9.6245 2.6246 6.2590
# 3 48.4451 5.5035 91.0403 24.0521 -2.0298 19.6199
# 4 7.2032 9.6245 24.0521 24.8072 10.7855 3.7447
# 5 1.3119 2.6246 -2.0298 10.7855 51.5757 2.6544
# 6 24.9406 6.2590 19.6199 3.7447 2.6544 23.7223
#
#
#
# Elastic Compliance Matrix: (Units=1/GPa)
#
#
# Indices 1 2 3 4 5 6 
#
# 1 0.008427 -0.000385 -0.003903 0.002634 -0.000597 -0.005879
# 2 -0.000385 0.021366 0.003260 -0.011119 0.001703 -0.006364
# 3 -0.003903 0.003260 0.021134 -0.021423 0.005837 -0.011507
# 4 0.002634 -0.011119 -0.021423 0.070050 -0.015433 0.008552
# 5 -0.000597 0.001703 0.005837 -0.015433 0.023021 -0.004790
# 6 -0.005879 -0.006364 -0.011507 0.008552 -0.004790 0.058718
#
#
# Mechanical properties :
#
#
# Convention : Reuss Voigt Hill
#
# Bulk Modulus (GPa) = 20.46197 46.81447 33.63822
# Shear Modulus (GPa) = 22.61816 36.01930 29.31873
#
# Velocity S-wave (km/s) = 3.03204 3.82625 3.45206
# Velocity P-wave (km/s) = 4.53592 6.20872 5.43704
#
# Compressibility (1/GPa) = 0.04887116
#
# Stress axis : x y z
#
# Youngs Moduli (GPa) = 118.66470 46.80348 47.31761
#
# Poissons Ratio (x) = 0.01802 0.18468
# Poissons Ratio (y) = 0.04569 -0.15427
# Poissons Ratio (z) = 0.46316 -0.15259
#
# Static dielectric constant tensor:
#      x y z
#    x 1.955320 -0.005600 -0.037630 
#    y -0.005600 2.019580 0.052930 
#    z -0.037630 0.052930 1.917300 
# 
# From -- ./inp_files/367671.got.cif
#   From: 2010.05.17/outbox.cif.g08.bks.cpg/sg2_184_cif.got.tgz:367671.got - 2010.06.03 11:33:40.
