data_PCOD9090156
_publ_section_title
;
Structure prediction by ZEFSAII (Michael W. Deem and Ramdas Pophale) SiO2 
 PCOD9090156
Probable space group: P -1
;
_chemical_formula_sum "Si O2"
_cell_formula_units_Z 14
_cell_length_a 12.406448
_cell_length_b 15.792052
_cell_length_c 17.055519
_cell_angle_alpha 22.904493
_cell_angle_beta 51.396493
_cell_angle_gamma 37.709327
_cell_volume 714.209721
_symmetry_space_group_name_H-M "P -1"
_symmetry_group_IT_number 2
_symmetry_cell_setting 'triclinic'
loop_
_space_group_symop_operation_xyz
x,y,z
-x,-y,-z
loop_
_atom_site_type_symbol
_atom_site_label
_atom_site_fract_x
_atom_site_fract_y
_atom_site_fract_z
Si Si1 0.618519 0.148522 0.760213
Si Si2 0.964858 0.579525 0.619144
Si Si3 0.026410 0.807032 0.933313
Si Si4 0.402527 0.013371 0.924004
Si Si5 0.962450 0.264796 0.690093
Si Si6 0.639292 0.306011 0.177292
Si Si7 0.678658 0.304613 0.880767
O O1 0.500000 0.500000 0.500000
O O2 0.558814 0.029317 0.826788
O O3 0.849997 0.920635 0.862639
O O4 0.547616 0.150336 0.876377
O O5 0.189223 0.368960 0.724680
O O6 0.990118 0.565136 0.524952
O O7 0.784542 0.938137 0.415929
O O8 0.924126 0.403806 0.835334
O O9 0.214240 0.652767 0.927558
O O10 0.954747 0.106547 0.753810
O O11 0.375787 0.842336 0.022971
O O12 0.768121 0.410101 0.702300
O O13 0.147842 0.975754 0.902388
O O14 0.505617 0.432032 0.206400
O O15 0.500000 0.500000 0.000000
#
# Coordination Sequence:
#
# PCOD9090156 Si02
#       7
#     2   2   2   2   2   2   2
#     4  10  19  38  64  87 114 153 203 253 300 343
#     4  10  20  39  60  86 120 162 197 238 300 355
#     4  10  20  40  61  87 116 158 204 240 297 367
#     4  10  22  36  61  94 113 149 213 249 286 356
#     4  10  20  38  59  83 127 153 196 251 293 342
#     4  11  22  40  56  85 130 165 188 238 302 365
#     4  11  21  40  56  91 127 152 202 249 290 353
#
# _framework density 19.602087000000001
#
# number of rings (size 3 to 8) (size 9 to 14) (size 15 to 20)
#    0.000    1.714    5.714    1.714    0.000    1.143 
#    2.571    0.714    0.000   12.000    0.000    0.000 
#    0.000    0.000    0.000    0.000    0.000    0.000 
#
# Total GULP energy -77973.288628 kJ/mol
# GULP energy per Si atom -5569.520616 kJ/mol
# Density = 1.955747 g / cm^3
# Si number density = 19.602087 Si / 1000 Ang^3
#
#
#
# Elastic Constant Matrix: (Units=GPa)
#
#
# Indices 1 2 3 4 5 6 
#
# 1 79.7460 26.9785 10.4953 -1.5370 8.6279 -13.0682
# 2 26.9785 154.4863 41.5282 4.7787 -4.9875 -17.7319
# 3 10.4953 41.5282 128.9045 5.4954 -3.5945 -0.6574
# 4 -1.5370 4.7787 5.4954 26.5142 -2.1839 -4.1549
# 5 8.6279 -4.9875 -3.5945 -2.1839 15.8969 4.0816
# 6 -13.0682 -17.7319 -0.6574 -4.1549 4.0816 27.0524
#
#
#
# Elastic Compliance Matrix: (Units=1/GPa)
#
#
# Indices 1 2 3 4 5 6 
#
# 1 0.015997 -0.001980 -0.001020 0.001873 -0.011439 0.008418
# 2 -0.001980 0.007957 -0.002314 -0.000300 0.002018 0.003853
# 3 -0.001020 -0.002314 0.008705 -0.001639 0.002182 -0.002379
# 4 0.001873 -0.000300 -0.001639 0.039406 0.002296 0.006374
# 5 -0.011439 0.002018 0.002182 0.002296 0.074413 -0.015025
# 6 0.008418 0.003853 -0.002379 0.006374 -0.015025 0.046745
#
#
# Mechanical properties :
#
#
# Convention : Reuss Voigt Hill
#
# Bulk Modulus (GPa) = 45.39114 57.90452 51.64783
# Shear Modulus (GPa) = 23.67468 32.83502 28.25485
#
# Velocity S-wave (km/s) = 3.47906 4.09721 3.80072
# Velocity P-wave (km/s) = 6.27256 7.21020 6.75766
#
# Compressibility (1/GPa) = 0.02203073
#
# Stress axis : x y z
#
# Youngs Moduli (GPa) = 62.51073 125.66840 114.88000
#
# Poissons Ratio (x) = 0.24886 0.11722
# Poissons Ratio (y) = 0.12379 0.26579
# Poissons Ratio (z) = 0.06378 0.29076
#
# Static dielectric constant tensor:
#      x y z
#    x 1.813770 -0.016870 -0.065920 
#    y -0.016870 1.693710 0.041750 
#    z -0.065920 0.041750 1.716720 
# 
# From -- ./inp_files/299730.got.cif
#   From: 2010.05.17/outbox.cif.g08.bks.cpg/sg2_150_cif.got.tgz:299730.got - 2010.06.03 11:33:40.
