data_PCOD9090150
_publ_section_title
;
Structure prediction by ZEFSAII (Michael W. Deem and Ramdas Pophale) SiO2 
 PCOD9090150
Probable space group: P -1
;
_chemical_formula_sum "Si O2"
_cell_formula_units_Z 14
_cell_length_a 7.863289
_cell_length_b 15.022212
_cell_length_c 9.331596
_cell_angle_alpha 94.783731
_cell_angle_beta 51.386472
_cell_angle_gamma 111.669963
_cell_volume 783.841910
_symmetry_space_group_name_H-M "P -1"
_symmetry_group_IT_number 2
_symmetry_cell_setting 'triclinic'
loop_
_space_group_symop_operation_xyz
x,y,z
-x,-y,-z
loop_
_atom_site_type_symbol
_atom_site_label
_atom_site_fract_x
_atom_site_fract_y
_atom_site_fract_z
Si Si1 0.896635 0.391183 0.599424
Si Si2 0.315362 0.393307 0.541110
Si Si3 0.409541 0.886840 0.985417
Si Si4 0.799565 0.894442 0.557968
Si Si5 0.828303 0.715303 0.669074
Si Si6 0.840776 0.806355 0.240628
Si Si7 0.410035 0.242520 0.927088
O O1 0.622083 0.340794 0.772492
O O2 0.000000 0.500000 0.500000
O O3 0.053242 0.392241 0.656876
O O4 0.959890 0.320932 0.447702
O O5 0.500000 0.500000 0.500000
O O6 0.361530 0.362453 0.351440
O O7 0.287767 0.305896 0.650864
O O8 0.558964 0.881193 0.765865
O O9 0.476578 0.825105 0.063568
O O10 0.126353 0.841730 0.103134
O O11 0.500000 0.000000 0.000000
O O12 0.892842 0.816712 0.565758
O O13 0.772757 0.871053 0.400623
O O14 0.000000 0.000000 0.500000
O O15 0.733470 0.727016 0.873435
O O16 0.752814 0.811528 0.128272
#
# Coordination Sequence:
#
# PCOD9090150 Si02
#       7
#     2   2   2   2   2   2   2
#     4  10  20  37  62  85 124 160 195 251 305 344
#     4   9  18  39  61  84 121 159 197 247 301 352
#     4  11  22  40  63  87 126 161 200 254 303 354
#     4  10  19  38  64  86 119 166 197 249 312 348
#     4   8  21  37  59  86 126 150 203 250 295 357
#     4  11  22  39  62  91 122 157 206 250 298 370
#     4  11  22  40  63  89 122 158 204 251 300 361
#
# _framework density 17.860745999999999
#
# number of rings (size 3 to 8) (size 9 to 14) (size 15 to 20)
#    0.857    1.143    2.857    0.857    0.000    2.286 
#    0.000    2.857    0.000    0.000    0.000    0.000 
#    0.000    0.000    0.000    0.000    0.000    0.000 
#
# Total GULP energy -77983.817071 kJ/mol
# GULP energy per Si atom -5570.272648 kJ/mol
# Density = 1.782009 g / cm^3
# Si number density = 17.860746 Si / 1000 Ang^3
#
#
#
# Elastic Constant Matrix: (Units=GPa)
#
#
# Indices 1 2 3 4 5 6 
#
# 1 71.6222 12.9424 39.2139 8.7407 15.3616 25.1513
# 2 12.9424 106.3261 35.9145 1.8213 11.5818 20.0390
# 3 39.2139 35.9145 108.0873 14.3253 12.7406 17.3520
# 4 8.7407 1.8213 14.3253 24.7322 6.5431 -2.3857
# 5 15.3616 11.5818 12.7406 6.5431 19.6045 2.9445
# 6 25.1513 20.0390 17.3520 -2.3857 2.9445 28.2227
#
#
#
# Elastic Compliance Matrix: (Units=1/GPa)
#
#
# Indices 1 2 3 4 5 6 
#
# 1 0.028916 0.004855 -0.005503 -0.005407 -0.016455 -0.024574
# 2 0.004855 0.012784 -0.003482 0.000378 -0.007653 -0.010432
# 3 -0.005503 -0.003482 0.013389 -0.005610 -0.000264 -0.001302
# 4 -0.005407 0.000378 -0.005610 0.049750 -0.010950 0.013347
# 5 -0.016455 -0.007653 -0.000264 -0.010950 0.070450 0.011985
# 6 -0.024574 -0.010432 -0.001302 0.013347 0.011985 0.065417
#
#
# Mechanical properties :
#
#
# Convention : Reuss Voigt Hill
#
# Bulk Modulus (GPa) = 21.35439 51.35301 36.35370
# Shear Modulus (GPa) = 18.89824 27.70954 23.30389
#
# Velocity S-wave (km/s) = 3.25635 3.94308 3.61606
# Velocity P-wave (km/s) = 5.11082 7.03881 6.15082
#
# Compressibility (1/GPa) = 0.04682877
#
# Stress axis : x y z
#
# Youngs Moduli (GPa) = 34.58261 78.22535 74.68852
#
# Poissons Ratio (x) = -0.37981 0.41100
# Poissons Ratio (y) = -0.16791 0.26010
# Poissons Ratio (z) = 0.19030 0.27241
#
# Static dielectric constant tensor:
#      x y z
#    x 1.624400 -0.013430 0.007860 
#    y -0.013430 1.608940 0.012350 
#    z 0.007860 0.012350 1.626510 
# 
# From -- ./inp_files/197098.got.cif
#   From: 2010.05.17/outbox.cif.g08.bks.cpg/sg2_99_cif.got.tgz:197098.got - 2010.06.03 11:33:40.
