data_PCOD9090600
_publ_section_title
;
Structure prediction by ZEFSAII (Michael W. Deem and Ramdas Pophale) SiO2 
 PCOD9090600
Probable space group: P -1
;
_chemical_formula_sum "Si O2"
_cell_formula_units_Z 16
_cell_length_a 5.596863
_cell_length_b 14.593814
_cell_length_c 8.150454
_cell_angle_alpha 69.366344
_cell_angle_beta 98.715053
_cell_angle_gamma 81.789870
_cell_volume 601.817065
_symmetry_space_group_name_H-M "P -1"
_symmetry_group_IT_number 2
_symmetry_cell_setting 'triclinic'
loop_
_space_group_symop_operation_xyz
x,y,z
-x,-y,-z
loop_
_atom_site_type_symbol
_atom_site_label
_atom_site_fract_x
_atom_site_fract_y
_atom_site_fract_z
Si Si1 0.933579 0.878421 0.520146
Si Si2 0.315511 0.865067 0.093953
Si Si3 0.141962 0.027163 0.223292
Si Si4 0.455634 0.642644 0.399355
Si Si5 0.418475 0.782959 0.833645
Si Si6 0.283035 0.581481 0.099175
Si Si7 0.019140 0.339696 0.443069
Si Si8 0.184157 0.380421 0.107309
O O1 0.890551 0.780662 0.485917
O O2 0.969348 0.958437 0.336433
O O3 0.200232 0.839586 0.662012
O O4 0.768740 0.924558 0.632409
O O5 0.327619 0.951388 0.172601
O O6 0.373117 0.758902 0.257227
O O7 0.475913 0.847598 0.953466
O O8 0.039878 0.894904 0.963531
O O9 0.423356 0.572114 0.289974
O O10 0.742593 0.623933 0.487595
O O11 0.242718 0.636031 0.511608
O O12 0.650795 0.728607 0.789345
O O13 0.350119 0.681369 0.965893
O O14 0.314769 0.472029 0.090174
O O15 0.983621 0.611267 0.076115
O O16 0.986717 0.385763 0.228996
#
# Coordination Sequence:
#
# PCOD9090600 Si02
#       8
#     2   2   2   2   2   2   2   2
#     4  10  19  38  67  99 138 179 231 277 348 405
#     4   9  19  38  67  98 136 178 224 279 348 403
#     4   9  18  36  69  98 139 174 230 285 338 413
#     4  11  26  45  71 101 143 185 228 284 351 414
#     4  10  20  40  67  99 132 179 226 282 341 411
#     4  10  24  44  66 103 131 184 227 286 343 410
#     4  12  25  45  70 101 139 187 230 283 347 416
#     4  11  24  42  72  96 139 175 236 284 340 414
#
# _framework density 26.586151999999998
#
# number of rings (size 3 to 8) (size 9 to 14) (size 15 to 20)
#    0.000    1.750    2.500    1.125    3.500    1.000 
#    0.000    1.250    0.000    0.000    0.000    0.000 
#    0.000    0.000    0.000    0.000    0.000    0.000 
#
# Total GULP energy -89448.805549 kJ/mol
# GULP energy per Si atom -5590.550347 kJ/mol
# Density = 2.652564 g / cm^3
# Si number density = 26.586152 Si / 1000 Ang^3
#
#
#
# Elastic Constant Matrix: (Units=GPa)
#
#
# Indices 1 2 3 4 5 6 
#
# 1 75.2530 21.0646 36.8819 7.3188 4.3966 5.5749
# 2 21.0646 132.6343 17.0723 -2.7724 17.4610 9.8407
# 3 36.8819 17.0723 81.2069 2.8983 6.9165 -3.4348
# 4 7.3188 -2.7724 2.8983 40.4868 11.7893 9.9067
# 5 4.3966 17.4610 6.9165 11.7893 29.7817 -2.1155
# 6 5.5749 9.8407 -3.4348 9.9067 -2.1155 47.3858
#
#
#
# Elastic Compliance Matrix: (Units=1/GPa)
#
#
# Indices 1 2 3 4 5 6 
#
# 1 0.017998 -0.001959 -0.007843 -0.002807 0.001308 -0.001634
# 2 -0.001959 0.009074 -0.000710 0.003584 -0.006480 -0.002744
# 3 -0.007843 -0.000710 0.016289 0.000331 -0.002192 0.002084
# 4 -0.002807 0.003584 0.000331 0.031621 -0.014826 -0.007663
# 5 0.001308 -0.006480 -0.002192 -0.014826 0.043994 0.006097
# 6 -0.001634 -0.002744 0.002084 -0.007663 0.006097 0.023891
#
#
# Mechanical properties :
#
#
# Convention : Reuss Voigt Hill
#
# Bulk Modulus (GPa) = 44.76847 48.79244 46.78045
# Shear Modulus (GPa) = 29.18262 37.80256 33.49259
#
# Velocity S-wave (km/s) = 3.31669 3.77489 3.55318
# Velocity P-wave (km/s) = 5.61630 6.11491 5.87090
#
# Compressibility (1/GPa) = 0.02233715
#
# Stress axis : x y z
#
# Youngs Moduli (GPa) = 55.56103 110.21082 61.39299
#
# Poissons Ratio (x) = 0.21585 0.48150
# Poissons Ratio (y) = 0.10882 0.04360
# Poissons Ratio (z) = 0.43576 0.07827
#
# Static dielectric constant tensor:
#      x y z
#    x 2.179110 -0.039120 -0.042320 
#    y -0.039120 2.106300 0.045120 
#    z -0.042320 0.045120 2.064580 
# 
# From -- ./inp_files/135182.got.cif
#   From: 2010.05.17/outbox.cif.g08.bks.cpg/sg2_68_cif.got.tgz:135182.got - 2010.06.03 11:33:40.
