data_PCOD9090668
_publ_section_title
;
Structure prediction by ZEFSAII (Michael W. Deem and Ramdas Pophale) SiO2 
 PCOD9090668
Probable space group: P -1
;
_chemical_formula_sum "Si O2"
_cell_formula_units_Z 16
_cell_length_a 9.136109
_cell_length_b 13.948189
_cell_length_c 9.263444
_cell_angle_alpha 82.625021
_cell_angle_beta 48.137904
_cell_angle_gamma 67.849146
_cell_volume 801.160784
_symmetry_space_group_name_H-M "P -1"
_symmetry_group_IT_number 2
_symmetry_cell_setting 'triclinic'
loop_
_space_group_symop_operation_xyz
x,y,z
-x,-y,-z
loop_
_atom_site_type_symbol
_atom_site_label
_atom_site_fract_x
_atom_site_fract_y
_atom_site_fract_z
Si Si1 0.301040 0.665954 0.525919
Si Si2 0.345170 0.304877 0.132503
Si Si3 0.808026 0.258441 0.860550
Si Si4 0.987408 0.762277 0.970241
Si Si5 0.818657 0.117144 0.605451
Si Si6 0.776736 0.599776 0.111092
Si Si7 0.404592 0.102809 0.947718
Si Si8 0.059330 0.600434 0.460714
O O1 0.201275 0.784258 0.501239
O O2 0.558496 0.614536 0.338869
O O3 0.206784 0.596857 0.503228
O O4 0.190785 0.689553 0.751791
O O5 0.171624 0.314987 0.362829
O O6 0.559463 0.304956 0.056511
O O7 0.276675 0.387570 0.028130
O O8 0.376287 0.197926 0.054404
O O9 0.833880 0.168065 0.742143
O O10 0.854201 0.353107 0.737194
O O11 0.941875 0.217847 0.923743
O O12 0.838654 0.696517 0.095543
O O13 0.825143 0.868950 0.979439
O O14 0.598422 0.102387 0.721545
O O15 0.000000 0.000000 0.500000
O O16 0.000000 0.500000 0.000000
O O17 0.500000 0.000000 0.000000
O O18 0.000000 0.500000 0.500000
#
# Coordination Sequence:
#
# PCOD9090668 Si02
#       8
#     2   2   2   2   2   2   2   2
#     4  11  21  44  64  92 133 169 221 268 318 403
#     4  10  21  44  60  94 129 168 217 265 323 397
#     4  10  24  42  63  95 139 159 216 283 316 381
#     4  11  23  41  65  97 131 167 216 277 324 382
#     4  10  20  40  69  93 122 176 215 260 335 398
#     4  11  23  40  67  91 130 174 222 268 322 386
#     4  10  19  38  69  93 125 170 212 263 331 393
#     4  11  23  39  67  91 125 178 220 259 329 386
#
# _framework density 19.971022000000001
#
# number of rings (size 3 to 8) (size 9 to 14) (size 15 to 20)
#    0.000    1.500    7.500    0.750    3.500    3.000 
#    0.000    6.250    0.000    0.000    0.000    0.000 
#    0.000    0.000    0.000    0.000    0.000    0.000 
#
# Total GULP energy -89104.622208 kJ/mol
# GULP energy per Si atom -5569.038888 kJ/mol
# Density = 1.992557 g / cm^3
# Si number density = 19.971022 Si / 1000 Ang^3
#
#
#
# Elastic Constant Matrix: (Units=GPa)
#
#
# Indices 1 2 3 4 5 6 
#
# 1 114.6874 28.9613 39.5932 -3.3782 -8.3871 -10.8594
# 2 28.9613 73.7825 -1.6672 6.7970 -6.4144 -11.0905
# 3 39.5932 -1.6672 71.9043 1.5682 -21.8822 7.2632
# 4 -3.3782 6.7970 1.5682 21.3453 -4.8978 -8.7875
# 5 -8.3871 -6.4144 -21.8822 -4.8978 34.2910 -0.1620
# 6 -10.8594 -11.0905 7.2632 -8.7875 -0.1620 20.7666
#
#
#
# Elastic Compliance Matrix: (Units=1/GPa)
#
#
# Indices 1 2 3 4 5 6 
#
# 1 0.015080 -0.005356 -0.010770 0.009517 -0.002766 0.012798
# 2 -0.005356 0.016946 0.004376 -0.004463 0.004029 0.002862
# 3 -0.010770 0.004376 0.025781 -0.008419 0.013359 -0.015770
# 4 0.009517 -0.004463 -0.008419 0.065368 0.005614 0.033243
# 5 -0.002766 0.004029 0.013359 0.005614 0.038560 -0.001291
# 6 0.012798 0.002862 -0.015770 0.033243 -0.001291 0.075947
#
#
# Mechanical properties :
#
#
# Convention : Reuss Voigt Hill
#
# Bulk Modulus (GPa) = 29.14737 43.79431 36.47084
# Shear Modulus (GPa) = 18.34072 28.17970 23.26021
#
# Velocity S-wave (km/s) = 3.03374 3.76044 3.41647
# Velocity P-wave (km/s) = 5.18633 6.38992 5.81933
#
# Compressibility (1/GPa) = 0.03430841
#
# Stress axis : x y z
#
# Youngs Moduli (GPa) = 66.31427 59.01053 38.78780
#
# Poissons Ratio (x) = 0.31606 0.41774
# Poissons Ratio (y) = 0.35518 -0.16975
# Poissons Ratio (z) = 0.71419 -0.25826
#
# Static dielectric constant tensor:
#      x y z
#    x 1.738870 0.040070 0.083320 
#    y 0.040070 2.100390 0.440130 
#    z 0.083320 0.440130 2.347690 
# 
# From -- ./inp_files/206669.got.cif
#   From: 2010.05.17/outbox.cif.g08.bks.cpg/sg2_104_cif.got.tgz:206669.got - 2010.06.03 11:33:40.
