data_PCOD9090691
_publ_section_title
;
Structure prediction by ZEFSAII (Michael W. Deem and Ramdas Pophale) SiO2 
 PCOD9090691
Probable space group: P -1
;
_chemical_formula_sum "Si O2"
_cell_formula_units_Z 16
_cell_length_a 12.246622
_cell_length_b 13.166094
_cell_length_c 9.091430
_cell_angle_alpha 130.187745
_cell_angle_beta 77.025456
_cell_angle_gamma 137.559254
_cell_volume 659.518345
_symmetry_space_group_name_H-M "P -1"
_symmetry_group_IT_number 2
_symmetry_cell_setting 'triclinic'
loop_
_space_group_symop_operation_xyz
x,y,z
-x,-y,-z
loop_
_atom_site_type_symbol
_atom_site_label
_atom_site_fract_x
_atom_site_fract_y
_atom_site_fract_z
Si Si1 0.615107 0.472713 0.459465
Si Si2 0.680727 0.684474 0.907033
Si Si3 0.725862 0.985422 0.015063
Si Si4 0.319327 0.460704 0.948779
Si Si5 0.653607 0.096046 0.921195
Si Si6 0.874441 0.572517 0.263051
Si Si7 0.137608 0.679178 0.497347
Si Si8 0.454191 0.822549 0.436954
O O1 0.500000 0.500000 0.500000
O O2 0.673559 0.546617 0.679320
O O3 0.795230 0.601635 0.434917
O O4 0.465141 0.229592 0.212426
O O5 0.752803 0.712805 0.071952
O O6 0.785039 0.900811 0.988810
O O7 0.468640 0.534395 0.861771
O O8 0.724722 0.086323 0.244632
O O9 0.806963 0.150837 0.011930
O O10 0.447432 0.687670 0.210604
O O11 0.154543 0.376407 0.831992
O O12 0.576232 0.944537 0.661893
O O13 0.746472 0.320580 0.050544
O O14 0.500000 0.000000 0.000000
O O15 0.055116 0.680759 0.384935
O O16 0.245318 0.651880 0.390743
O O17 0.000000 0.500000 0.500000
O O18 0.500000 0.000000 0.500000
#
# Coordination Sequence:
#
# PCOD9090691 Si02
#       8
#     2   2   2   2   2   2   2   2
#     4  10  19  38  70  93 125 174 234 272 319 388
#     4  10  22  39  67  97 126 176 234 283 313 390
#     4  11  20  39  64  97 127 169 230 275 320 396
#     4  11  22  39  63  95 136 170 223 274 340 393
#     4  12  19  37  68  95 127 170 227 279 321 400
#     4  12  22  40  62  99 135 171 217 283 340 395
#     4  12  26  41  67 102 142 176 216 285 349 401
#     4  12  24  42  70 102 134 179 227 280 345 406
#
# _framework density 24.26013
#
# number of rings (size 3 to 8) (size 9 to 14) (size 15 to 20)
#    0.000    0.750    7.500    1.500    1.750    0.500 
#    0.000    3.125    0.000    0.000    0.000    0.000 
#    0.000    0.000    0.000    0.000    0.000    0.000 
#
# Total GULP energy -89212.030378 kJ/mol
# GULP energy per Si atom -5575.751899 kJ/mol
# Density = 2.420491 g / cm^3
# Si number density = 24.260130 Si / 1000 Ang^3
#
#
#
# Elastic Constant Matrix: (Units=GPa)
#
#
# Indices 1 2 3 4 5 6 
#
# 1 132.0846 29.1851 44.9801 -12.6621 14.8507 -41.7062
# 2 29.1851 51.3049 9.4418 -19.3711 4.9546 -20.8975
# 3 44.9801 9.4418 147.4279 -20.3130 0.1694 -2.1842
# 4 -12.6621 -19.3711 -20.3130 26.9954 -11.6673 9.7200
# 5 14.8507 4.9546 0.1694 -11.6673 56.0560 -15.4553
# 6 -41.7062 -20.8975 -2.1842 9.7200 -15.4553 40.5729
#
#
#
# Elastic Compliance Matrix: (Units=1/GPa)
#
#
# Indices 1 2 3 4 5 6 
#
# 1 0.013385 -0.003122 -0.004242 -0.003965 -0.000596 0.012645
# 2 -0.003122 0.033192 0.002070 0.022432 0.005513 0.010723
# 3 -0.004242 0.002070 0.009050 0.008492 0.001504 -0.004269
# 4 -0.003965 0.022432 0.008492 0.063697 0.011487 -0.002949
# 5 -0.000596 0.005513 0.001504 0.011487 0.022094 0.007972
# 6 0.012645 0.010723 -0.004269 -0.002949 0.007972 0.046682
#
#
# Mechanical properties :
#
#
# Convention : Reuss Voigt Hill
#
# Bulk Modulus (GPa) = 22.20342 55.33683 38.77012
# Shear Modulus (GPa) = 23.39721 41.20557 32.30139
#
# Velocity S-wave (km/s) = 3.10890 4.12574 3.65288
# Velocity P-wave (km/s) = 4.69671 6.74944 5.81438
#
# Compressibility (1/GPa) = 0.04503811
#
# Stress axis : x y z
#
# Youngs Moduli (GPa) = 74.70980 30.12804 110.49969
#
# Poissons Ratio (x) = 0.09407 0.46875
# Poissons Ratio (y) = 0.23327 -0.22876
# Poissons Ratio (z) = 0.31693 -0.06237
#
# Static dielectric constant tensor:
#      x y z
#    x 2.045240 -0.044310 -0.054780 
#    y -0.044310 2.071980 -0.011760 
#    z -0.054780 -0.011760 2.059530 
# 
# From -- ./inp_files/274381.got.cif
#   From: 2010.05.17/outbox.cif.g08.bks.cpg/sg2_138_cif.got.tgz:274381.got - 2010.06.03 11:33:40.
