data_PCOD9090688
_publ_section_title
;
Structure prediction by ZEFSAII (Michael W. Deem and Ramdas Pophale) SiO2 
 PCOD9090688
Probable space group: P -1
;
_chemical_formula_sum "Si O2"
_cell_formula_units_Z 14
_cell_length_a 10.090416
_cell_length_b 9.186529
_cell_length_c 10.317279
_cell_angle_alpha 95.592063
_cell_angle_beta 137.972612
_cell_angle_gamma 59.546673
_cell_volume 483.138770
_symmetry_space_group_name_H-M "P -1"
_symmetry_group_IT_number 2
_symmetry_cell_setting 'triclinic'
loop_
_space_group_symop_operation_xyz
x,y,z
-x,-y,-z
loop_
_atom_site_type_symbol
_atom_site_label
_atom_site_fract_x
_atom_site_fract_y
_atom_site_fract_z
Si Si1 0.345690 0.240073 0.129003
Si Si2 0.821551 0.342157 0.728001
Si Si3 0.226565 0.545845 0.793810
Si Si4 0.814065 0.216543 0.431367
Si Si5 0.938291 0.167955 0.086107
Si Si6 0.545707 0.808327 0.219043
Si Si7 0.520702 0.818610 0.487889
O O1 0.483301 0.012321 0.187472
O O2 0.360055 0.276552 0.295341
O O3 0.049582 0.357143 0.880563
O O4 0.876277 0.327803 0.400994
O O5 0.500000 0.500000 0.500000
O O6 0.866539 0.230002 0.618656
O O7 0.882344 0.265761 0.914083
O O8 0.281477 0.351332 0.779828
O O9 0.500000 0.500000 0.000000
O O10 0.524224 0.284860 0.206380
O O11 0.061686 0.695259 0.803536
O O12 0.000000 0.000000 0.500000
O O13 0.722153 0.156570 0.975199
O O14 0.207521 0.948382 0.262532
O O15 0.637958 0.721312 0.425370
O O16 0.500000 0.000000 0.500000
#
# Coordination Sequence:
#
# PCOD9090688 Si02
#       7
#     2   2   2   2   2   2   2
#     4  11  26  46  82 119 156 207 268 323 396 475
#     4  12  27  50  80 113 163 212 259 325 399 468
#     4  10  24  46  76 109 154 205 258 319 388 464
#     4  12  29  53  80 114 164 209 258 329 405 471
#     4  11  21  43  78 109 152 205 260 317 389 467
#     4  10  21  41  76 115 148 202 258 327 385 460
#     4  10  19  38  70 114 150 192 264 319 377 468
#
# _framework density 28.977181999999999
#
# number of rings (size 3 to 8) (size 9 to 14) (size 15 to 20)
#    0.000    1.143    2.857    3.857    6.000    1.143 
#    0.000    6.429    6.286    0.857    0.000    0.000 
#    0.000    0.000    0.000    0.000    0.000    0.000 
#
# Total GULP energy -78329.716466 kJ/mol
# GULP energy per Si atom -5594.979748 kJ/mol
# Density = 2.891123 g / cm^3
# Si number density = 28.977182 Si / 1000 Ang^3
#
#
#
# Elastic Constant Matrix: (Units=GPa)
#
#
# Indices 1 2 3 4 5 6 
#
# 1 110.9144 49.6550 53.4277 29.7334 -19.3050 -6.6465
# 2 49.6550 226.5127 67.9867 28.2034 -22.9888 -35.6380
# 3 53.4277 67.9867 192.9745 32.4971 11.5794 -11.0508
# 4 29.7334 28.2034 32.4971 40.8936 4.3889 -5.0461
# 5 -19.3050 -22.9888 11.5794 4.3889 70.5354 17.7562
# 6 -6.6465 -35.6380 -11.0508 -5.0461 17.7562 46.4329
#
#
#
# Elastic Compliance Matrix: (Units=1/GPa)
#
#
# Indices 1 2 3 4 5 6 
#
# 1 0.013500 -0.001104 -0.002428 -0.007905 0.004774 -0.002178
# 2 -0.001104 0.005955 -0.001335 -0.001935 0.001107 0.003462
# 3 -0.002428 -0.001335 0.006929 -0.002462 -0.002309 0.000892
# 4 -0.007905 -0.001935 -0.002462 0.034355 -0.005158 0.002503
# 5 0.004774 0.001107 -0.002309 -0.005158 0.018189 -0.006533
# 6 -0.002178 0.003462 0.000892 0.002503 -0.006533 0.026864
#
#
# Mechanical properties :
#
#
# Convention : Reuss Voigt Hill
#
# Bulk Modulus (GPa) = 60.06355 96.94893 78.50624
# Shear Modulus (GPa) = 41.29620 55.52787 48.41203
#
# Velocity S-wave (km/s) = 3.77918 4.38226 4.09185
# Velocity P-wave (km/s) = 6.30998 7.68994 7.03389
#
# Compressibility (1/GPa) = 0.01664903
#
# Stress axis : x y z
#
# Youngs Moduli (GPa) = 74.07606 167.91587 144.32449
#
# Poissons Ratio (x) = 0.18543 0.35048
# Poissons Ratio (y) = 0.08180 0.19262
# Poissons Ratio (z) = 0.17989 0.22411
#
# Static dielectric constant tensor:
#      x y z
#    x 2.459530 0.141240 0.177020 
#    y 0.141240 2.309330 -0.099260 
#    z 0.177020 -0.099260 2.914290 
# 
# From -- ./inp_files/455844.got.cif
#   From: 2010.05.17/outbox.cif.g08.bks.cpg/sg2_228_cif.got.tgz:455844.got - 2010.06.03 11:33:40.
