data_PCOD9090035
_publ_section_title
;
Structure prediction by ZEFSAII (Michael W. Deem and Ramdas Pophale) SiO2 
 PCOD9090035
Probable space group: P -1
;
_chemical_formula_sum "Si O2"
_cell_formula_units_Z 14
_cell_length_a 8.475289
_cell_length_b 11.825443
_cell_length_c 21.050442
_cell_angle_alpha 27.294267
_cell_angle_beta 37.866196
_cell_angle_gamma 51.723788
_cell_volume 568.019935
_symmetry_space_group_name_H-M "P -1"
_symmetry_group_IT_number 2
_symmetry_cell_setting 'triclinic'
loop_
_space_group_symop_operation_xyz
x,y,z
-x,-y,-z
loop_
_atom_site_type_symbol
_atom_site_label
_atom_site_fract_x
_atom_site_fract_y
_atom_site_fract_z
Si Si1 0.889597 0.437952 0.866509
Si Si2 0.547160 0.290768 0.315275
Si Si3 0.376011 0.572711 0.913824
Si Si4 0.261925 0.217970 0.910091
Si Si5 0.019520 0.705756 0.487169
Si Si6 0.167510 0.844917 0.242926
Si Si7 0.764932 0.114636 0.543987
O O1 0.614925 0.436768 0.917684
O O2 0.995453 0.190129 0.967808
O O3 0.141154 0.620769 0.656396
O O4 0.830380 0.528681 0.911648
O O5 0.707272 0.415298 0.138826
O O6 0.636116 0.486197 0.247326
O O7 0.251144 0.306656 0.383898
O O8 0.500000 0.000000 0.500000
O O9 0.502165 0.880701 0.732226
O O10 0.531217 0.157331 0.831339
O O11 0.187113 0.056360 0.078792
O O12 0.034350 0.882610 0.332361
O O13 0.238319 0.816328 0.415346
O O14 0.987883 0.425491 0.606986
O O15 0.000000 0.000000 0.500000
#
# Coordination Sequence:
#
# PCOD9090035 Si02
#       7
#     2   2   2   2   2   2   2
#     4  10  21  38  59  88 127 164 197 255 305 387
#     4  11  22  36  63  99 124 160 202 264 319 380
#     4  10  22  38  59  93 132 159 197 244 335 379
#     4  10  22  40  63  88 126 159 218 258 302 368
#     4  10  20  41  65  85 125 164 208 260 306 369
#     4   9  22  42  62  88 119 172 215 256 301 357
#     4  10  19  38  63  88 125 162 196 254 320 376
#
# _framework density 24.647022
#
# number of rings (size 3 to 8) (size 9 to 14) (size 15 to 20)
#    0.000    2.000    2.857    0.857    4.000    4.000 
#    5.143    1.429    0.000    0.000    0.000    0.000 
#    0.000    0.000    0.000    0.000    0.000    0.000 
#
# Total GULP energy -78061.296719 kJ/mol
# GULP energy per Si atom -5575.806909 kJ/mol
# Density = 2.459092 g / cm^3
# Si number density = 24.647022 Si / 1000 Ang^3
#
#
#
# Elastic Constant Matrix: (Units=GPa)
#
#
# Indices 1 2 3 4 5 6 
#
# 1 62.5953 35.3268 2.0127 5.5472 19.1561 -6.3001
# 2 35.3268 54.3923 19.6327 4.2992 8.9159 8.1679
# 3 2.0127 19.6327 64.2014 13.4966 13.5829 -0.1909
# 4 5.5472 4.2992 13.4966 27.7771 2.8606 5.5805
# 5 19.1561 8.9159 13.5829 2.8606 35.0154 4.3529
# 6 -6.3001 8.1679 -0.1909 5.5805 4.3529 42.5343
#
#
#
# Elastic Compliance Matrix: (Units=1/GPa)
#
#
# Indices 1 2 3 4 5 6 
#
# 1 0.042582 -0.031055 0.015518 -0.012189 -0.022430 0.016235
# 2 -0.031055 0.044254 -0.017533 0.009643 0.013704 -0.015844
# 3 0.015518 -0.017533 0.026338 -0.013526 -0.014258 0.009017
# 4 -0.012189 0.009643 -0.013526 0.044860 0.007079 -0.010328
# 5 -0.022430 0.013704 -0.014258 0.007079 0.043712 -0.011420
# 6 0.016235 -0.015844 0.009017 -0.010328 -0.011420 0.031522
#
#
# Mechanical properties :
#
#
# Convention : Reuss Voigt Hill
#
# Bulk Modulus (GPa) = 21.26171 32.79259 27.02715
# Shear Modulus (GPa) = 15.86869 29.34647 22.60758
#
# Velocity S-wave (km/s) = 2.54015 3.45435 3.03191
# Velocity P-wave (km/s) = 4.15311 5.40776 4.82142
#
# Compressibility (1/GPa) = 0.04703291
#
# Stress axis : x y z
#
# Youngs Moduli (GPa) = 23.48433 22.59697 37.96825
#
# Poissons Ratio (x) = 0.70175 -0.58918
# Poissons Ratio (y) = 0.72930 0.66569
# Poissons Ratio (z) = -0.36442 0.39619
#
# Static dielectric constant tensor:
#      x y z
#    x 1.946040 -0.035960 -0.064520 
#    y -0.035960 1.961960 -0.003350 
#    z -0.064520 -0.003350 2.076800 
# 
# From -- ./inp_files/205626.got.cif
#   From: 2010.05.17/outbox.cif.g08.bks.cpg/sg2_103_cif.got.tgz:205626.got - 2010.06.03 11:33:40.
