data_PCOD9090396
_publ_section_title
;
Structure prediction by ZEFSAII (Michael W. Deem and Ramdas Pophale) SiO2 
 PCOD9090396
Probable space group: P -1
;
_chemical_formula_sum "Si O2"
_cell_formula_units_Z 16
_cell_length_a 21.657639
_cell_length_b 13.181048
_cell_length_c 9.868495
_cell_angle_alpha 34.863235
_cell_angle_beta 136.687709
_cell_angle_gamma 156.356895
_cell_volume 642.255255
_symmetry_space_group_name_H-M "P -1"
_symmetry_group_IT_number 2
_symmetry_cell_setting 'triclinic'
loop_
_space_group_symop_operation_xyz
x,y,z
-x,-y,-z
loop_
_atom_site_type_symbol
_atom_site_label
_atom_site_fract_x
_atom_site_fract_y
_atom_site_fract_z
Si Si1 0.192409 0.469195 0.790554
Si Si2 0.196607 0.325404 0.680756
Si Si3 0.447866 0.152801 0.340819
Si Si4 0.545816 0.295002 0.890271
Si Si5 0.571574 0.740275 0.515311
Si Si6 0.217462 0.669372 0.130359
Si Si7 0.190635 0.913794 0.030411
Si Si8 0.897973 0.426493 0.239266
O O1 0.122124 0.247712 0.794407
O O2 0.090648 0.432210 0.765096
O O3 0.325670 0.805571 0.567017
O O4 0.290736 0.507645 0.011022
O O5 0.381687 0.624553 0.676509
O O6 0.161640 0.425751 0.408453
O O7 0.166290 0.084201 0.829813
O O8 0.468782 0.288516 0.364991
O O9 0.357987 0.126312 0.118190
O O10 0.525943 0.468402 0.707075
O O11 0.515786 0.257161 0.722684
O O12 0.403817 0.961841 0.095814
O O13 0.755474 0.064426 0.432500
O O14 0.175286 0.794439 0.991199
O O15 0.153593 0.555226 0.001620
O O16 0.063791 0.618863 0.250307
#
# Coordination Sequence:
#
# PCOD9090396 Si02
#       8
#     2   2   2   2   2   2   2   2
#     4  11  22  40  65  98 130 169 210 272 327 382
#     4  12  24  41  71 100 128 166 220 273 329 373
#     4  11  21  39  66  96 126 166 214 275 326 370
#     4  10  19  38  65  97 131 160 219 274 325 375
#     4   9  21  37  63  98 125 175 212 266 329 379
#     4  11  23  45  69  97 129 168 220 276 318 380
#     4  12  25  44  66  94 135 176 217 262 320 391
#     4  10  26  44  64  92 134 180 213 258 323 393
#
# _framework density 24.912213999999999
#
# number of rings (size 3 to 8) (size 9 to 14) (size 15 to 20)
#    0.000    1.250    2.500    3.375    1.750    4.500 
#    2.250    0.000    0.000    0.000    0.000    0.000 
#    0.000    0.000    0.000    0.000    0.000    0.000 
#
# Total GULP energy -89551.355129 kJ/mol
# GULP energy per Si atom -5596.959696 kJ/mol
# Density = 2.485551 g / cm^3
# Si number density = 24.912214 Si / 1000 Ang^3
#
#
#
# Elastic Constant Matrix: (Units=GPa)
#
#
# Indices 1 2 3 4 5 6 
#
# 1 83.6740 21.6338 10.5300 -9.5941 -10.4298 -4.9040
# 2 21.6338 53.6439 31.1839 5.1469 -8.7632 -8.8087
# 3 10.5300 31.1839 79.0989 -1.3678 -2.6013 -12.3569
# 4 -9.5941 5.1469 -1.3678 25.4067 -2.2631 3.6730
# 5 -10.4298 -8.7632 -2.6013 -2.2631 31.3490 -5.5860
# 6 -4.9040 -8.8087 -12.3569 3.6730 -5.5860 30.9236
#
#
#
# Elastic Compliance Matrix: (Units=1/GPa)
#
#
# Indices 1 2 3 4 5 6 
#
# 1 0.014860 -0.006483 0.000943 0.007214 0.003860 0.000727
# 2 -0.006483 0.029802 -0.009986 -0.009328 0.005670 0.005603
# 3 0.000943 -0.009986 0.017084 0.002736 -0.000190 0.003772
# 4 0.007214 -0.009328 0.002736 0.045102 0.002321 -0.005357
# 5 0.003860 0.005670 -0.000190 0.002321 0.036427 0.008456
# 6 0.000727 0.005603 0.003772 -0.005357 0.008456 0.037720
#
#
# Mechanical properties :
#
#
# Convention : Reuss Voigt Hill
#
# Bulk Modulus (GPa) = 32.57935 38.12358 35.35146
# Shear Modulus (GPa) = 22.49441 27.74047 25.11744
#
# Velocity S-wave (km/s) = 3.00817 3.34058 3.17872
# Velocity P-wave (km/s) = 5.01712 5.49688 5.26247
#
# Compressibility (1/GPa) = 0.03069429
#
# Stress axis : x y z
#
# Youngs Moduli (GPa) = 67.29664 33.55476 58.53441
#
# Poissons Ratio (x) = 0.21754 -0.05519
# Poissons Ratio (y) = 0.43628 0.58450
# Poissons Ratio (z) = -0.06346 0.33506
#
# Static dielectric constant tensor:
#      x y z
#    x 1.962210 -0.016040 0.018000 
#    y -0.016040 1.996890 -0.005250 
#    z 0.018000 -0.005250 1.976350 
# 
# From -- ./inp_files/345884.got.cif
#   From: 2010.05.17/outbox.cif.g08.bks.cpg/sg2_173_cif.got.tgz:345884.got - 2010.06.03 11:33:40.
