data_PCOD9090562
_publ_section_title
;
Structure prediction by ZEFSAII (Michael W. Deem and Ramdas Pophale) SiO2 
 PCOD9090562
Probable space group: P -1
;
_chemical_formula_sum "Si O2"
_cell_formula_units_Z 16
_cell_length_a 14.179834
_cell_length_b 6.209179
_cell_length_c 14.421760
_cell_angle_alpha 87.954056
_cell_angle_beta 49.867896
_cell_angle_gamma 61.593291
_cell_volume 781.556631
_symmetry_space_group_name_H-M "P -1"
_symmetry_group_IT_number 2
_symmetry_cell_setting 'triclinic'
loop_
_space_group_symop_operation_xyz
x,y,z
-x,-y,-z
loop_
_atom_site_type_symbol
_atom_site_label
_atom_site_fract_x
_atom_site_fract_y
_atom_site_fract_z
Si Si1 0.679266 0.383813 0.382968
Si Si2 0.374353 0.529069 0.859207
Si Si3 0.890608 0.805966 0.602621
Si Si4 0.852656 0.002370 0.102955
Si Si5 0.146426 0.784085 0.533827
Si Si6 0.303833 0.245125 0.756822
Si Si7 0.559324 0.720293 0.692747
Si Si8 0.450506 0.972748 0.131190
O O1 0.500000 0.500000 0.500000
O O2 0.759435 0.180177 0.249539
O O3 0.781049 0.234504 0.412001
O O4 0.693332 0.621112 0.340894
O O5 0.242419 0.845246 0.933356
O O6 0.314743 0.405150 0.830931
O O7 0.512972 0.517858 0.725986
O O8 0.443314 0.342976 0.906774
O O9 0.728168 0.897378 0.744577
O O10 0.000000 0.500000 0.500000
O O11 0.980443 0.848039 0.624725
O O12 0.856972 0.007321 0.536167
O O13 0.840896 0.759457 0.132156
O O14 0.000000 0.000000 0.000000
O O15 0.261272 0.475096 0.432237
O O16 0.458567 0.944745 0.676198
O O17 0.520563 0.874333 0.811595
O O18 0.500000 0.000000 0.000000
#
# Coordination Sequence:
#
# PCOD9090562 Si02
#       8
#     2   2   2   2   2   2   2   2
#     4  11  24  39  65 100 131 166 222 268 313 403
#     4   9  19  39  61  89 125 167 209 259 320 391
#     4  11  24  44  65  89 133 173 211 274 336 375
#     4  10  22  42  62  94 130 171 207 266 334 384
#     4  11  23  41  64  93 131 170 217 266 328 384
#     4   9  20  38  65  94 127 167 210 259 329 388
#     4  10  19  38  67  90 124 168 208 268 322 388
#     4  11  23  41  64  95 120 168 222 268 324 395
#
# _framework density 20.471964
#
# number of rings (size 3 to 8) (size 9 to 14) (size 15 to 20)
#    0.000    1.750    2.500    2.250    1.750    5.500 
#   11.250    0.000    0.000    0.000    0.000    0.000 
#    0.000    0.000    0.000    0.000    0.000    0.000 
#
# Total GULP energy -89109.867130 kJ/mol
# GULP energy per Si atom -5569.366696 kJ/mol
# Density = 2.042537 g / cm^3
# Si number density = 20.471964 Si / 1000 Ang^3
#
#
#
# Elastic Constant Matrix: (Units=GPa)
#
#
# Indices 1 2 3 4 5 6 
#
# 1 122.2470 31.8373 64.0702 -13.2301 -23.0459 -14.7585
# 2 31.8373 87.5310 35.9728 -22.3974 -2.2997 -18.1441
# 3 64.0702 35.9728 113.3909 -14.9771 -23.3948 -7.2522
# 4 -13.2301 -22.3974 -14.9771 29.5644 4.6226 0.7916
# 5 -23.0459 -2.2997 -23.3948 4.6226 41.9579 -7.0840
# 6 -14.7585 -18.1441 -7.2522 0.7916 -7.0840 40.4577
#
#
#
# Elastic Compliance Matrix: (Units=1/GPa)
#
#
# Indices 1 2 3 4 5 6 
#
# 1 0.012833 -0.001124 -0.005566 0.001278 0.004406 0.003926
# 2 -0.001124 0.017261 -0.003343 0.010979 -0.001694 0.006221
# 3 -0.005566 -0.003343 0.014112 0.001441 0.004427 -0.000253
# 4 0.001278 0.010979 0.001441 0.043629 -0.001948 0.004453
# 5 0.004406 -0.001694 0.004427 -0.001948 0.030014 0.006934
# 6 0.003926 0.006221 -0.000253 0.004453 0.006934 0.030021
#
#
# Mechanical properties :
#
#
# Convention : Reuss Voigt Hill
#
# Bulk Modulus (GPa) = 41.42228 65.21437 53.31833
# Shear Modulus (GPa) = 28.41228 35.14857 31.78043
#
# Velocity S-wave (km/s) = 3.72945 4.14806 3.94431
# Velocity P-wave (km/s) = 6.23078 7.40719 6.84431
#
# Compressibility (1/GPa) = 0.02414160
#
# Stress axis : x y z
#
# Youngs Moduli (GPa) = 77.92674 57.93337 70.86325
#
# Poissons Ratio (x) = 0.06510 0.39439
# Poissons Ratio (y) = 0.08757 0.23687
# Poissons Ratio (z) = 0.43370 0.19365
#
# Static dielectric constant tensor:
#      x y z
#    x 1.793220 0.012460 -0.032020 
#    y 0.012460 1.824600 0.018650 
#    z -0.032020 0.018650 1.736090 
# 
# From -- ./inp_files/127493.got.cif
#   From: 2010.05.17/outbox.cif.g08.bks.cpg/sg2_64_cif.got.tgz:127493.got - 2010.06.03 11:33:40.
