data_PCOD9090044
_publ_section_title
;
Structure prediction by ZEFSAII (Michael W. Deem and Ramdas Pophale) SiO2 
 PCOD9090044
Probable space group: P -1
;
_chemical_formula_sum "Si O2"
_cell_formula_units_Z 16
_cell_length_a 9.339161
_cell_length_b 8.593330
_cell_length_c 19.648303
_cell_angle_alpha 58.613033
_cell_angle_beta 90.994579
_cell_angle_gamma 43.713421
_cell_volume 692.625701
_symmetry_space_group_name_H-M "P -1"
_symmetry_group_IT_number 2
_symmetry_cell_setting 'triclinic'
loop_
_space_group_symop_operation_xyz
x,y,z
-x,-y,-z
loop_
_atom_site_type_symbol
_atom_site_label
_atom_site_fract_x
_atom_site_fract_y
_atom_site_fract_z
Si Si1 0.664014 0.398742 0.317774
Si Si2 0.339139 0.452843 0.228341
Si Si3 0.331099 0.430664 0.951300
Si Si4 0.686988 0.398848 0.949978
Si Si5 0.702218 0.343981 0.479159
Si Si6 0.670763 0.713786 0.156770
Si Si7 0.190823 0.343417 0.600549
Si Si8 0.091060 0.262128 0.754668
O O1 0.566090 0.355616 0.273274
O O2 0.581003 0.423133 0.386498
O O3 0.559059 0.704040 0.217442
O O4 0.994626 0.063202 0.406181
O O5 0.194319 0.674827 0.106144
O O6 0.130862 0.643170 0.245045
O O7 0.513589 0.079401 0.304080
O O8 0.583527 0.302369 0.974830
O O9 0.220457 0.523543 0.852326
O O10 0.174907 0.679212 0.960624
O O11 0.431752 0.116809 0.041415
O O12 0.390483 0.835670 0.848402
O O13 0.500000 0.500000 0.500000
O O14 0.754763 0.502122 0.436054
O O15 0.896788 0.601032 0.216713
O O16 0.043374 0.424311 0.648186
O O17 0.000000 0.500000 0.500000
#
# Coordination Sequence:
#
# PCOD9090044 Si02
#       8
#     2   2   2   2   2   2   2   2
#     4  11  23  42  61  91 128 161 203 252 304 363
#     4  11  23  38  64  87 123 165 201 249 305 361
#     4   9  18  36  67  84 122 170 194 255 310 349
#     4   9  19  39  61  90 120 158 208 246 301 363
#     4  11  26  42  64  92 123 161 204 255 304 362
#     4  10  19  38  63  89 121 164 203 249 311 353
#     4  11  23  41  59  89 123 157 206 248 303 367
#     4  10  23  39  61  89 121 162 204 252 300 363
#
# _framework density 23.100498999999999
#
# number of rings (size 3 to 8) (size 9 to 14) (size 15 to 20)
#    0.000    1.750    3.750    0.000    3.500    0.500 
#    0.000    6.250    0.000    0.000    0.000    0.000 
#    0.000    0.000    0.000    0.000    0.000    0.000 
#
# Total GULP energy -89349.130876 kJ/mol
# GULP energy per Si atom -5584.320680 kJ/mol
# Density = 2.304792 g / cm^3
# Si number density = 23.100499 Si / 1000 Ang^3
#
#
#
# Elastic Constant Matrix: (Units=GPa)
#
#
# Indices 1 2 3 4 5 6 
#
# 1 65.0248 25.5156 27.7135 9.3726 -12.4981 7.3881
# 2 25.5156 70.7436 31.0657 32.7910 -8.0333 -7.9385
# 3 27.7135 31.0657 119.7851 35.8139 -14.5151 -3.6156
# 4 9.3726 32.7910 35.8139 37.7892 8.3732 -7.2710
# 5 -12.4981 -8.0333 -14.5151 8.3732 42.4332 13.1620
# 6 7.3881 -7.9385 -3.6156 -7.2710 13.1620 36.9212
#
#
#
# Elastic Compliance Matrix: (Units=1/GPa)
#
#
# Indices 1 2 3 4 5 6 
#
# 1 0.021392 -0.006654 -0.002590 -0.000210 0.006813 -0.008435
# 2 -0.006654 0.030999 0.004982 -0.033391 0.013053 -0.002745
# 3 -0.002590 0.004982 0.015394 -0.021802 0.011377 -0.005252
# 4 -0.000210 -0.033391 -0.021802 0.088794 -0.038126 0.021806
# 5 0.006813 0.013053 0.011377 -0.038126 0.046092 -0.021382
# 6 -0.008435 -0.002745 -0.005252 0.021806 -0.021382 0.039585
#
#
# Mechanical properties :
#
#
# Convention : Reuss Voigt Hill
#
# Bulk Modulus (GPa) = 16.87428 47.12702 32.00065
# Shear Modulus (GPa) = 18.48211 34.84597 26.66404
#
# Velocity S-wave (km/s) = 2.83163 3.88809 3.40113
# Velocity P-wave (km/s) = 4.24398 6.37193 5.41354
#
# Compressibility (1/GPa) = 0.05926178
#
# Stress axis : x y z
#
# Youngs Moduli (GPa) = 46.74752 32.25892 64.96118
#
# Poissons Ratio (x) = 0.21464 0.16824
# Poissons Ratio (y) = 0.31105 -0.32365
# Poissons Ratio (z) = 0.12107 -0.16072
#
# Static dielectric constant tensor:
#      x y z
#    x 1.862790 0.008450 0.028160 
#    y 0.008450 1.974800 0.011090 
#    z 0.028160 0.011090 1.935170 
# 
# From -- ./inp_files/46331.got.cif
#   From: 2010.05.17/outbox.cif.g08.bks.cpg/sg2_24_cif.got.tgz:46331.got - 2010.06.03 11:33:40.
