data_PCOD9090194
_publ_section_title
;
Structure prediction by ZEFSAII (Michael W. Deem and Ramdas Pophale) SiO2 
 PCOD9090194
Probable space group: P -1
;
_chemical_formula_sum "Si O2"
_cell_formula_units_Z 16
_cell_length_a 7.799144
_cell_length_b 13.469300
_cell_length_c 11.685342
_cell_angle_alpha 61.087014
_cell_angle_beta 140.452772
_cell_angle_gamma 121.224826
_cell_volume 660.413956
_symmetry_space_group_name_H-M "P -1"
_symmetry_group_IT_number 2
_symmetry_cell_setting 'triclinic'
loop_
_space_group_symop_operation_xyz
x,y,z
-x,-y,-z
loop_
_atom_site_type_symbol
_atom_site_label
_atom_site_fract_x
_atom_site_fract_y
_atom_site_fract_z
Si Si1 0.687728 0.778956 0.416500
Si Si2 0.845683 0.589130 0.226586
Si Si3 0.747220 0.096024 0.439168
Si Si4 0.132193 0.005464 0.209867
Si Si5 0.893801 0.181802 0.867917
Si Si6 0.795482 0.626242 0.755922
Si Si7 0.293833 0.655760 0.624938
Si Si8 0.604058 0.358212 0.871546
O O1 0.430464 0.823445 0.305826
O O2 0.723772 0.672474 0.571837
O O3 0.588871 0.732973 0.264039
O O4 0.982890 0.875122 0.517644
O O5 0.777888 0.448679 0.259763
O O6 0.578425 0.618282 0.129718
O O7 0.951117 0.679679 0.127836
O O8 0.088699 0.619194 0.431039
O O9 0.802200 0.012739 0.615522
O O10 0.747389 0.224040 0.417217
O O11 0.424582 0.048807 0.266682
O O12 0.005035 0.878269 0.158075
O O13 0.960556 0.100610 0.047748
O O14 0.598821 0.666332 0.725181
O O15 0.711519 0.484766 0.794105
O O16 0.119489 0.674797 0.926337
#
# Coordination Sequence:
#
# PCOD9090194 Si02
#       8
#     2   2   2   2   2   2   2   2
#     4  12  23  38  64  94 122 160 211 264 308 366
#     4  10  19  38  64  90 127 165 198 247 315 376
#     4  11  23  42  64  92 119 165 209 257 312 368
#     4  10  24  44  64  82 124 164 210 260 306 372
#     4  11  23  42  64  92 119 165 209 257 312 368
#     4  10  22  38  59  92 132 168 202 250 310 374
#     4  10  19  38  64  90 127 165 198 247 315 376
#     4  10  22  38  59  92 132 168 202 250 310 374
#
# _framework density 24.227229000000001
#
# number of rings (size 3 to 8) (size 9 to 14) (size 15 to 20)
#    0.000    1.500    3.750    0.375    3.500    2.000 
#    0.000    0.625    0.000    0.000    0.000    0.000 
#    0.000    0.000    0.000    0.000    0.000    0.000 
#
# Total GULP energy -89540.919546 kJ/mol
# GULP energy per Si atom -5596.307472 kJ/mol
# Density = 2.417209 g / cm^3
# Si number density = 24.227229 Si / 1000 Ang^3
#
#
#
# Elastic Constant Matrix: (Units=GPa)
#
#
# Indices 1 2 3 4 5 6 
#
# 1 35.5683 11.7063 33.9730 -6.1923 16.1019 11.3565
# 2 11.7063 69.8820 27.3339 -11.3765 4.4390 7.6601
# 3 33.9730 27.3339 145.3645 -18.8422 27.3556 5.5469
# 4 -6.1923 -11.3765 -18.8422 35.1390 1.6013 0.5832
# 5 16.1019 4.4390 27.3556 1.6013 30.9353 10.8678
# 6 11.3565 7.6601 5.5469 0.5832 10.8678 33.3414
#
#
#
# Elastic Compliance Matrix: (Units=1/GPa)
#
#
# Indices 1 2 3 4 5 6 
#
# 1 0.045415 -0.002399 -0.006476 0.004570 -0.014584 -0.009166
# 2 -0.002399 0.016436 -0.002284 0.003643 0.001864 -0.003250
# 3 -0.006476 -0.002284 0.010528 0.004028 -0.006933 0.003168
# 4 0.004570 0.003643 0.004028 0.032976 -0.007783 -0.001104
# 5 -0.014584 0.001864 -0.006933 -0.007783 0.049842 -0.010418
# 6 -0.009166 -0.003250 0.003168 -0.001104 -0.010418 0.036749
#
#
# Mechanical properties :
#
#
# Convention : Reuss Voigt Hill
#
# Bulk Modulus (GPa) = 19.97624 44.09347 32.03485
# Shear Modulus (GPa) = 21.64945 31.73659 26.69302
#
# Velocity S-wave (km/s) = 2.99256 3.62326 3.32290
# Velocity P-wave (km/s) = 4.49486 5.97858 5.28901
#
# Compressibility (1/GPa) = 0.05005948
#
# Stress axis : x y z
#
# Youngs Moduli (GPa) = 22.01932 60.84138 94.98314
#
# Poissons Ratio (x) = 0.14598 0.61511
# Poissons Ratio (y) = 0.05283 0.21698
# Poissons Ratio (z) = 0.14260 0.13899
#
# Static dielectric constant tensor:
#      x y z
#    x 1.942760 0.004680 -0.007320 
#    y 0.004680 1.962050 0.041920 
#    z -0.007320 0.041920 1.898390 
# 
# From -- ./inp_files/200385.got.cif
#   From: 2010.05.17/outbox.cif.g08.bks.cpg/sg2_101_cif.got.tgz:200385.got - 2010.06.03 11:33:40.
