data_PCOD9090368
_publ_section_title
;
Structure prediction by ZEFSAII (Michael W. Deem and Ramdas Pophale) SiO2 
 PCOD9090368
Probable space group: P -1
;
_chemical_formula_sum "Si O2"
_cell_formula_units_Z 16
_cell_length_a 10.177127
_cell_length_b 12.276310
_cell_length_c 9.256900
_cell_angle_alpha 81.315296
_cell_angle_beta 43.767733
_cell_angle_gamma 77.870069
_cell_volume 782.155289
_symmetry_space_group_name_H-M "P -1"
_symmetry_group_IT_number 2
_symmetry_cell_setting 'triclinic'
loop_
_space_group_symop_operation_xyz
x,y,z
-x,-y,-z
loop_
_atom_site_type_symbol
_atom_site_label
_atom_site_fract_x
_atom_site_fract_y
_atom_site_fract_z
Si Si1 0.638478 0.376163 0.815251
Si Si2 0.964756 0.704119 0.789119
Si Si3 0.585480 0.006249 0.772694
Si Si4 0.664518 0.799465 0.250664
Si Si5 0.780111 0.811006 0.482562
Si Si6 0.752890 0.596856 0.726844
Si Si7 0.409750 0.610698 0.471016
Si Si8 0.897327 0.147017 0.586602
O O1 0.787762 0.463801 0.701664
O O2 0.544130 0.411185 0.729717
O O3 0.735777 0.251349 0.733889
O O4 0.476669 0.381493 0.063590
O O5 0.179814 0.643603 0.664838
O O6 0.988383 0.810544 0.648259
O O7 0.859127 0.628875 0.780044
O O8 0.834740 0.741819 0.022680
O O9 0.617590 0.888504 0.688745
O O10 0.451390 0.095494 0.763007
O O11 0.787920 0.049534 0.637311
O O12 0.500000 0.000000 0.000000
O O13 0.744010 0.825191 0.339152
O O14 0.513640 0.713849 0.413356
O O15 0.792776 0.682999 0.552751
O O16 0.970302 0.858290 0.376304
O O17 0.500000 0.500000 0.500000
#
# Coordination Sequence:
#
# PCOD9090368 Si02
#       8
#     2   2   2   2   2   2   2   2
#     4  10  19  38  65  93 131 171 225 270 320 397
#     4  10  21  42  68  89 134 178 219 267 326 404
#     4  12  23  45  73  93 132 179 221 274 330 394
#     4  12  24  46  62 100 137 170 219 275 336 390
#     4  11  25  39  65  99 133 167 225 276 334 380
#     4  10  20  39  65  95 127 176 224 269 324 394
#     4  11  23  40  65  95 136 177 214 274 335 390
#     4  10  21  43  66  96 125 174 227 266 328 397
#
# _framework density 20.456298
#
# number of rings (size 3 to 8) (size 9 to 14) (size 15 to 20)
#    0.000    1.250    3.750    3.750    0.000    6.000 
#    9.000    1.250    0.000    0.000    0.000    0.000 
#    0.000    0.000    0.000    0.000    0.000    0.000 
#
# Total GULP energy -89363.427434 kJ/mol
# GULP energy per Si atom -5585.214215 kJ/mol
# Density = 2.040974 g / cm^3
# Si number density = 20.456298 Si / 1000 Ang^3
#
#
#
# Elastic Constant Matrix: (Units=GPa)
#
#
# Indices 1 2 3 4 5 6 
#
# 1 151.9057 35.2846 43.6424 -11.0890 16.9388 -4.9313
# 2 35.2846 72.6245 5.8494 -10.2915 1.4460 1.3765
# 3 43.6424 5.8494 57.7837 3.9843 2.6329 1.0332
# 4 -11.0890 -10.2915 3.9843 21.7923 6.5477 -2.5060
# 5 16.9388 1.4460 2.6329 6.5477 34.1632 -1.5234
# 6 -4.9313 1.3765 1.0332 -2.5060 -1.5234 39.3620
#
#
#
# Elastic Compliance Matrix: (Units=1/GPa)
#
#
# Indices 1 2 3 4 5 6 
#
# 1 0.011080 -0.003568 -0.008285 0.007514 -0.006056 0.001974
# 2 -0.003568 0.016271 0.000671 0.005696 -0.000093 -0.000675
# 3 -0.008285 0.000671 0.024023 -0.009740 0.003998 -0.002157
# 4 0.007514 0.005696 -0.009740 0.058971 -0.014331 0.004198
# 5 -0.006056 -0.000093 0.003998 -0.014331 0.034697 -0.000430
# 6 0.001974 -0.000675 -0.002157 0.004198 -0.000430 0.025983
#
#
# Mechanical properties :
#
#
# Convention : Reuss Voigt Hill
#
# Bulk Modulus (GPa) = 34.46961 50.20741 42.33851
# Shear Modulus (GPa) = 24.62342 32.23267 28.42804
#
# Velocity S-wave (km/s) = 3.47321 3.97380 3.73191
# Velocity P-wave (km/s) = 5.74206 6.75661 6.26989
#
# Compressibility (1/GPa) = 0.02901107
#
# Stress axis : x y z
#
# Youngs Moduli (GPa) = 90.25324 61.46022 41.62655
#
# Poissons Ratio (x) = 0.21928 0.34486
# Poissons Ratio (y) = 0.32201 -0.02794
# Poissons Ratio (z) = 0.74772 -0.04125
#
# Static dielectric constant tensor:
#      x y z
#    x 1.743140 0.011660 -0.057530 
#    y 0.011660 1.773460 0.005860 
#    z -0.057530 0.005860 1.753340 
# 
# From -- ./inp_files/186372.got.cif
#   From: 2010.05.17/outbox.cif.g08.bks.cpg/sg2_94_cif.got.tgz:186372.got - 2010.06.03 11:33:40.
