data_PCOD9090887
_publ_section_title
;
Structure prediction by ZEFSAII (Michael W. Deem and Ramdas Pophale) SiO2 
 PCOD9090887
Probable space group: P -1
;
_chemical_formula_sum "Si O2"
_cell_formula_units_Z 16
_cell_length_a 25.078097
_cell_length_b 8.338951
_cell_length_c 5.903463
_cell_angle_alpha 88.264655
_cell_angle_beta 82.217054
_cell_angle_gamma 31.181717
_cell_volume 624.437368
_symmetry_space_group_name_H-M "P -1"
_symmetry_group_IT_number 2
_symmetry_cell_setting 'triclinic'
loop_
_space_group_symop_operation_xyz
x,y,z
-x,-y,-z
loop_
_atom_site_type_symbol
_atom_site_label
_atom_site_fract_x
_atom_site_fract_y
_atom_site_fract_z
Si Si1 0.046927 0.249972 0.154107
Si Si2 0.741970 0.840260 0.891182
Si Si3 0.623217 0.708180 0.916474
Si Si4 0.049635 0.825982 0.723435
Si Si5 0.421403 0.870653 0.313082
Si Si6 0.221573 0.939089 0.361660
Si Si7 0.790806 0.409900 0.115060
Si Si8 0.342586 0.778590 0.670309
O O1 0.959902 0.341052 0.260251
O O2 0.110206 0.148981 0.344953
O O3 0.000000 0.500000 0.000000
O O4 0.135109 0.926988 0.975627
O O5 0.800540 0.525417 0.913002
O O6 0.738914 0.951846 0.111439
O O7 0.620507 0.110685 0.890548
O O8 0.788357 0.845456 0.689225
O O9 0.691324 0.378328 0.826328
O O10 0.630783 0.821210 0.704528
O O11 0.672546 0.655539 0.121717
O O12 0.500000 0.000000 0.000000
O O13 0.163230 0.622278 0.688160
O O14 0.000000 0.000000 0.500000
O O15 0.000000 0.000000 0.000000
O O16 0.377301 0.856689 0.521442
O O17 0.545534 0.570523 0.286442
O O18 0.282031 0.794056 0.570386
#
# Coordination Sequence:
#
# PCOD9090887 Si02
#       8
#     2   2   2   2   2   2   2   2
#     4  10  21  44  72  97 136 170 224 297 359 408
#     4  10  19  39  61  85 126 167 221 260 335 395
#     4  10  20  38  62  91 132 175 214 276 340 395
#     4  10  22  47  72 102 135 187 238 290 352 427
#     4   9  20  36  57  82 122 168 225 262 313 403
#     4  10  22  39  60  97 131 162 221 276 338 410
#     4   9  21  41  65  97 125 176 226 276 339 424
#     4  10  20  36  57  89 119 172 215 267 329 391
#
# _framework density 25.623066000000001
#
# number of rings (size 3 to 8) (size 9 to 14) (size 15 to 20)
#    0.000    2.250    0.000    1.875    0.000    5.500 
#   29.250    3.750    0.000    0.000    0.000    0.000 
#    0.000    0.000    0.000    0.000    0.000    0.000 
#
# Total GULP energy -89245.203845 kJ/mol
# GULP energy per Si atom -5577.825240 kJ/mol
# Density = 2.556475 g / cm^3
# Si number density = 25.623066 Si / 1000 Ang^3
#
#
#
# Elastic Constant Matrix: (Units=GPa)
#
#
# Indices 1 2 3 4 5 6 
#
# 1 158.6468 78.4078 53.0892 -24.9764 36.7086 -25.8671
# 2 78.4078 151.1207 50.8281 -33.4720 5.0866 -12.0023
# 3 53.0892 50.8281 88.3095 -22.0873 16.2496 -17.0983
# 4 -24.9764 -33.4720 -22.0873 40.8072 -8.3102 -1.8318
# 5 36.7086 5.0866 16.2496 -8.3102 44.3228 -29.7059
# 6 -25.8671 -12.0023 -17.0983 -1.8318 -29.7059 63.9131
#
#
#
# Elastic Compliance Matrix: (Units=1/GPa)
#
#
# Indices 1 2 3 4 5 6 
#
# 1 0.011401 -0.004848 -0.002752 -0.000295 -0.008641 -0.001057
# 2 -0.004848 0.011498 -0.002798 0.006461 0.006809 0.002798
# 3 -0.002752 -0.002798 0.016445 0.004865 -0.000833 0.002513
# 4 -0.000295 0.006461 0.004865 0.034516 0.009382 0.007745
# 5 -0.008641 0.006809 -0.000833 0.009382 0.042913 0.017773
# 6 -0.001057 0.002798 0.002513 0.007745 0.017773 0.024899
#
#
# Mechanical properties :
#
#
# Convention : Reuss Voigt Hill
#
# Bulk Modulus (GPa) = 53.91633 84.74749 69.33191
# Shear Modulus (GPa) = 29.64700 44.19208 36.91954
#
# Velocity S-wave (km/s) = 3.40522 4.15746 3.80000
# Velocity P-wave (km/s) = 6.04554 7.49616 6.80959
#
# Compressibility (1/GPa) = 0.01854726
#
# Stress axis : x y z
#
# Youngs Moduli (GPa) = 87.71274 86.97114 60.80773
#
# Poissons Ratio (x) = 0.42165 0.16734
# Poissons Ratio (y) = 0.42525 0.17016
# Poissons Ratio (z) = 0.24139 0.24337
#
# Static dielectric constant tensor:
#      x y z
#    x 2.045360 -0.026330 -0.039680 
#    y -0.026330 2.014630 -0.044400 
#    z -0.039680 -0.044400 2.125180 
# 
# From -- ./inp_files/126448.got.cif
#   From: 2010.05.17/outbox.cif.g08.bks.cpg/sg2_64_cif.got.tgz:126448.got - 2010.06.03 11:33:40.
