data_PCOD9090234
_publ_section_title
;
Structure prediction by ZEFSAII (Michael W. Deem and Ramdas Pophale) SiO2 
 PCOD9090234
Probable space group: P -1
;
_chemical_formula_sum "Si O2"
_cell_formula_units_Z 14
_cell_length_a 16.900138
_cell_length_b 8.498157
_cell_length_c 5.243946
_cell_angle_alpha 84.363378
_cell_angle_beta 76.324681
_cell_angle_gamma 131.307325
_cell_volume 515.264622
_symmetry_space_group_name_H-M "P -1"
_symmetry_group_IT_number 2
_symmetry_cell_setting 'triclinic'
loop_
_space_group_symop_operation_xyz
x,y,z
-x,-y,-z
loop_
_atom_site_type_symbol
_atom_site_label
_atom_site_fract_x
_atom_site_fract_y
_atom_site_fract_z
Si Si1 0.882996 0.271370 0.752096
Si Si2 0.363416 0.189368 0.015721
Si Si3 0.117992 0.436450 0.950429
Si Si4 0.472132 0.207171 0.412263
Si Si5 0.662561 0.299455 0.523417
Si Si6 0.079745 0.976544 0.556584
Si Si7 0.721069 0.584137 0.852947
O O1 0.877697 0.376261 0.988626
O O2 0.907886 0.126076 0.672287
O O3 0.000000 0.500000 0.500000
O O4 0.747177 0.078464 0.813729
O O5 0.442269 0.279981 0.190085
O O6 0.321487 0.312222 0.002704
O O7 0.423420 0.215436 0.707209
O O8 0.189890 0.411161 0.073703
O O9 0.986802 0.197707 0.129318
O O10 0.199485 0.541252 0.624718
O O11 0.602753 0.331192 0.352094
O O12 0.402493 0.952289 0.437778
O O13 0.637376 0.351463 0.799451
O O14 0.202940 0.225007 0.468281
O O15 0.000000 0.000000 0.500000
#
# Coordination Sequence:
#
# PCOD9090234 Si02
#       7
#     2   2   2   2   2   2   2
#     4   9  17  36  68  94 132 173 221 266 329 398
#     4  11  24  46  67  98 138 173 224 279 336 390
#     4  10  19  38  64  93 132 170 224 271 333 398
#     4  11  27  45  69  95 134 181 227 279 328 393
#     4  11  25  40  66  96 127 179 228 275 332 394
#     4   8  17  35  62  95 131 173 212 276 334 402
#     4  10  23  39  66  94 135 172 220 279 338 398
#
# _framework density 27.170507000000001
#
# number of rings (size 3 to 8) (size 9 to 14) (size 15 to 20)
#    0.000    2.000    1.429    0.857    4.000    2.857 
#    0.000    0.714   15.714    0.000    0.000    0.000 
#    0.000    0.000    0.000    0.000    0.000    0.000 
#
# Total GULP energy -78119.752013 kJ/mol
# GULP energy per Si atom -5579.982287 kJ/mol
# Density = 2.710867 g / cm^3
# Si number density = 27.170507 Si / 1000 Ang^3
#
#
#
# Elastic Constant Matrix: (Units=GPa)
#
#
# Indices 1 2 3 4 5 6 
#
# 1 94.1765 37.0039 59.5093 11.5075 -11.2677 -14.0752
# 2 37.0039 82.0348 43.3404 14.4321 -19.0380 -17.2249
# 3 59.5093 43.3404 111.7476 18.8241 -25.2846 -2.0901
# 4 11.5075 14.4321 18.8241 51.1940 -1.6815 -13.6023
# 5 -11.2677 -19.0380 -25.2846 -1.6815 51.9632 2.2372
# 6 -14.0752 -17.2249 -2.0901 -13.6023 2.2372 44.8980
#
#
#
# Elastic Compliance Matrix: (Units=1/GPa)
#
#
# Indices 1 2 3 4 5 6 
#
# 1 0.017622 -0.003022 -0.008713 0.001211 -0.001676 0.004410
# 2 -0.003022 0.017929 -0.004207 -0.001342 0.003601 0.005149
# 3 -0.008713 -0.004207 0.016956 -0.004284 0.004900 -0.005098
# 4 0.001211 -0.001342 -0.004284 0.022936 -0.001860 0.006707
# 5 -0.001676 0.003601 0.004900 -0.001860 0.022550 -0.000603
# 6 0.004410 0.005149 -0.005098 0.006707 -0.000603 0.027455
#
#
# Mechanical properties :
#
#
# Convention : Reuss Voigt Hill
#
# Bulk Modulus (GPa) = 48.49199 63.07401 55.78300
# Shear Modulus (GPa) = 30.44964 39.48474 34.96719
#
# Velocity S-wave (km/s) = 3.35130 3.81625 3.59131
# Velocity P-wave (km/s) = 5.73245 6.53321 6.14589
#
# Compressibility (1/GPa) = 0.02062196
#
# Stress axis : x y z
#
# Youngs Moduli (GPa) = 56.74738 55.77679 58.97770
#
# Poissons Ratio (x) = 0.16854 0.51388
# Poissons Ratio (y) = 0.17147 0.24813
# Poissons Ratio (z) = 0.49445 0.23467
#
# Static dielectric constant tensor:
#      x y z
#    x 2.157130 -0.009450 0.061840 
#    y -0.009450 2.160140 -0.217190 
#    z 0.061840 -0.217190 2.336500 
# 
# From -- ./inp_files/49004.got.cif
#   From: 2010.05.17/outbox.cif.g08.bks.cpg/sg2_25_cif.got.tgz:49004.got - 2010.06.03 11:33:40.
