data_PCOD9090371
_publ_section_title
;
Structure prediction by ZEFSAII (Michael W. Deem and Ramdas Pophale) SiO2 
 PCOD9090371
Probable space group: P -1
;
_chemical_formula_sum "Si O2"
_cell_formula_units_Z 16
_cell_length_a 6.164367
_cell_length_b 16.415731
_cell_length_c 8.042987
_cell_angle_alpha 76.517845
_cell_angle_beta 83.694802
_cell_angle_gamma 71.286342
_cell_volume 749.078229
_symmetry_space_group_name_H-M "P -1"
_symmetry_group_IT_number 2
_symmetry_cell_setting 'triclinic'
loop_
_space_group_symop_operation_xyz
x,y,z
-x,-y,-z
loop_
_atom_site_type_symbol
_atom_site_label
_atom_site_fract_x
_atom_site_fract_y
_atom_site_fract_z
Si Si1 0.121625 0.790795 0.960111
Si Si2 0.622950 0.345145 0.261168
Si Si3 0.108311 0.575503 0.564364
Si Si4 0.648673 0.698484 0.396187
Si Si5 0.175486 0.491180 0.141760
Si Si6 0.661018 0.876492 0.153173
Si Si7 0.759229 0.041409 0.089219
Si Si8 0.629597 0.375087 0.774495
O O1 0.231936 0.725280 0.136631
O O2 0.861507 0.835682 0.019332
O O3 0.194891 0.726182 0.829480
O O4 0.224411 0.870127 0.869799
O O5 0.755483 0.409334 0.291635
O O6 0.540457 0.302437 0.449619
O O7 0.383444 0.399141 0.166524
O O8 0.295133 0.574561 0.409069
O O9 0.894886 0.655745 0.479336
O O10 0.973536 0.510294 0.676807
O O11 0.633786 0.795537 0.296405
O O12 0.602567 0.640843 0.270224
O O13 0.302294 0.566212 0.113922
O O14 0.000000 0.500000 0.000000
O O15 0.712523 0.955837 0.213954
O O16 0.431080 0.921914 0.051718
O O17 0.000000 0.000000 0.000000
#
# Coordination Sequence:
#
# PCOD9090371 Si02
#       8
#     2   2   2   2   2   2   2   2
#     4  11  21  38  62  94 124 162 205 256 311 369
#     4  10  25  41  60  91 131 162 208 261 313 366
#     4  10  22  41  59  88 122 167 210 260 308 365
#     4  10  21  40  64  91 122 168 207 258 305 371
#     4  11  25  42  61  88 126 168 209 263 317 362
#     4  10  19  38  65  94 122 161 206 249 312 371
#     4   9  20  35  63  97 126 152 205 260 300 367
#     4  11  22  37  64  90 118 165 218 256 301 371
#
# _framework density 21.359584000000002
#
# number of rings (size 3 to 8) (size 9 to 14) (size 15 to 20)
#    0.000    1.750    2.500    1.125    0.000   11.500 
#    0.000    0.625    0.000    7.500    0.000    0.000 
#    0.000    0.000    0.000    0.000    0.000    0.000 
#
# Total GULP energy -89074.254187 kJ/mol
# GULP energy per Si atom -5567.140887 kJ/mol
# Density = 2.131097 g / cm^3
# Si number density = 21.359584 Si / 1000 Ang^3
#
#
#
# Elastic Constant Matrix: (Units=GPa)
#
#
# Indices 1 2 3 4 5 6 
#
# 1 97.0162 38.5214 35.2986 -23.4497 11.1025 -0.1327
# 2 38.5214 107.1163 35.0500 -23.7158 -3.2617 12.6088
# 3 35.2986 35.0500 67.8558 -14.6795 1.2996 7.6258
# 4 -23.4497 -23.7158 -14.6795 31.4642 5.9150 -5.4491
# 5 11.1025 -3.2617 1.2996 5.9150 42.3207 -12.7006
# 6 -0.1327 12.6088 7.6258 -5.4491 -12.7006 47.7470
#
#
#
# Elastic Compliance Matrix: (Units=1/GPa)
#
#
# Indices 1 2 3 4 5 6 
#
# 1 0.015810 -0.002351 -0.005147 0.008757 -0.005052 0.001142
# 2 -0.002351 0.013031 -0.004034 0.005771 0.000320 -0.002060
# 3 -0.005147 -0.004034 0.020239 0.002307 -0.000522 -0.002057
# 4 0.008757 0.005771 0.002307 0.045432 -0.007909 0.001213
# 5 -0.005052 0.000320 -0.000522 -0.007909 0.028066 0.006547
# 6 0.001142 -0.002060 -0.002057 0.001213 0.006547 0.023699
#
#
# Mechanical properties :
#
#
# Convention : Reuss Voigt Hill
#
# Bulk Modulus (GPa) = 38.43918 54.41426 46.42672
# Shear Modulus (GPa) = 28.08777 35.18093 31.63435
#
# Velocity S-wave (km/s) = 3.63022 4.06283 3.85260
# Velocity P-wave (km/s) = 5.96713 6.89488 6.44771
#
# Compressibility (1/GPa) = 0.02601513
#
# Stress axis : x y z
#
# Youngs Moduli (GPa) = 63.25035 76.74000 49.40970
#
# Poissons Ratio (x) = 0.18041 0.25433
# Poissons Ratio (y) = 0.14869 0.19933
# Poissons Ratio (z) = 0.32557 0.30959
#
# Static dielectric constant tensor:
#      x y z
#    x 1.802900 0.059910 -0.003830 
#    y 0.059910 1.847980 0.041720 
#    z -0.003830 0.041720 1.841140 
# 
# From -- ./inp_files/47420.got.cif
#   From: 2010.05.17/outbox.cif.g08.bks.cpg/sg2_24_cif.got.tgz:47420.got - 2010.06.03 11:33:40.
