data_PCOD9090254
_publ_section_title
;
Structure prediction by ZEFSAII (Michael W. Deem and Ramdas Pophale) SiO2 
 PCOD9090254
Probable space group: P -1
;
_chemical_formula_sum "Si O2"
_cell_formula_units_Z 16
_cell_length_a 15.244887
_cell_length_b 12.089530
_cell_length_c 16.031023
_cell_angle_alpha 64.629709
_cell_angle_beta 141.321434
_cell_angle_gamma 146.794475
_cell_volume 762.683287
_symmetry_space_group_name_H-M "P -1"
_symmetry_group_IT_number 2
_symmetry_cell_setting 'triclinic'
loop_
_space_group_symop_operation_xyz
x,y,z
-x,-y,-z
loop_
_atom_site_type_symbol
_atom_site_label
_atom_site_fract_x
_atom_site_fract_y
_atom_site_fract_z
Si Si1 0.754910 0.530914 0.638571
Si Si2 0.576997 0.616149 0.244912
Si Si3 0.800200 0.230384 0.409551
Si Si4 0.760702 0.819465 0.503102
Si Si5 0.721100 0.370082 0.029622
Si Si6 0.408435 0.957161 0.059292
Si Si7 0.422699 0.961166 0.359883
Si Si8 0.633497 0.393437 0.398982
O O1 0.801809 0.712472 0.600180
O O2 0.475293 0.300673 0.570202
O O3 0.683682 0.426907 0.525800
O O4 0.067618 0.725654 0.850095
O O5 0.628064 0.707095 0.347265
O O6 0.469672 0.393210 0.250948
O O7 0.384543 0.571501 0.070133
O O8 0.902514 0.863869 0.358951
O O9 0.000000 0.500000 0.500000
O O10 0.030137 0.342559 0.480447
O O11 0.494423 0.027798 0.196473
O O12 0.665514 0.077319 0.445355
O O13 0.081179 0.651921 0.188899
O O14 0.637246 0.231549 0.096372
O O15 0.547410 0.148003 0.905969
O O16 0.500000 0.000000 0.500000
O O17 0.463159 0.139628 0.322399
#
# Coordination Sequence:
#
# PCOD9090254 Si02
#       8
#     2   2   2   2   2   2   2   2
#     4  10  19  38  64  95 124 165 210 258 304 369
#     4  10  21  38  60  93 132 167 206 257 308 374
#     4  10  23  42  65  91 123 164 206 257 315 376
#     4   9  20  35  59  92 131 164 204 255 313 364
#     4  11  23  39  63  95 129 160 211 262 307 367
#     4  11  22  38  64  94 124 162 207 263 315 360
#     4  11  24  44  65  90 124 167 209 263 314 375
#     4  10  22  41  65  88 128 174 206 251 319 372
#
# _framework density 20.978563999999999
#
# number of rings (size 3 to 8) (size 9 to 14) (size 15 to 20)
#    0.000    1.750    1.250    3.750    5.250    3.000 
#    0.000    0.000    0.000    4.500    0.000    0.000 
#    0.000    0.000    0.000    0.000    0.000    0.000 
#
# Total GULP energy -89267.090810 kJ/mol
# GULP energy per Si atom -5579.193176 kJ/mol
# Density = 2.093082 g / cm^3
# Si number density = 20.978564 Si / 1000 Ang^3
#
#
#
# Elastic Constant Matrix: (Units=GPa)
#
#
# Indices 1 2 3 4 5 6 
#
# 1 94.7165 40.8377 20.5796 0.3988 2.8931 27.2545
# 2 40.8377 104.5796 25.8989 -2.8838 11.2621 1.0093
# 3 20.5796 25.8989 31.9331 -2.9216 -0.3685 -0.3772
# 4 0.3988 -2.8838 -2.9216 24.3082 1.3327 8.2178
# 5 2.8931 11.2621 -0.3685 1.3327 28.0174 -2.4439
# 6 27.2545 1.0093 -0.3772 8.2178 -2.4439 52.2533
#
#
#
# Elastic Compliance Matrix: (Units=1/GPa)
#
#
# Indices 1 2 3 4 5 6 
#
# 1 0.016615 -0.004538 -0.007014 0.001396 -0.000825 -0.008887
# 2 -0.004538 0.013960 -0.008398 0.000417 -0.005122 0.001732
# 3 -0.007014 -0.008398 0.042996 0.002688 0.004881 0.003937
# 4 0.001396 0.000417 0.002688 0.044302 -0.003066 -0.007827
# 5 -0.000825 -0.005122 0.004881 -0.003066 0.038294 0.002838
# 6 -0.008887 0.001732 0.003937 -0.007827 0.002838 0.025132
#
#
# Mechanical properties :
#
#
# Convention : Reuss Voigt Hill
#
# Bulk Modulus (GPa) = 29.69960 45.09573 37.39766
# Shear Modulus (GPa) = 21.51247 30.50999 26.01123
#
# Velocity S-wave (km/s) = 3.20574 3.81772 3.52504
# Velocity P-wave (km/s) = 5.28112 6.40126 5.86798
#
# Compressibility (1/GPa) = 0.03367049
#
# Stress axis : x y z
#
# Youngs Moduli (GPa) = 60.18677 71.63150 23.25803
#
# Poissons Ratio (x) = 0.32505 0.16313
# Poissons Ratio (y) = 0.27312 0.19533
# Poissons Ratio (z) = 0.42216 0.60159
#
# Static dielectric constant tensor:
#      x y z
#    x 1.794060 -0.001550 0.045570 
#    y -0.001550 1.782240 -0.030110 
#    z 0.045570 -0.030110 1.740790 
# 
# From -- ./inp_files/532485.got.cif
#   From: 2010.05.17/outbox.cif.g08.bks.cpg/sg2_267_cif.got.tgz:532485.got - 2010.06.03 11:33:40.
