data_PCOD9090993
_publ_section_title
;
Structure prediction by ZEFSAII (Michael W. Deem and Ramdas Pophale) SiO2 
 PCOD9090993
Probable space group: P -1
;
_chemical_formula_sum "Si O2"
_cell_formula_units_Z 16
_cell_length_a 9.168306
_cell_length_b 15.689200
_cell_length_c 13.035104
_cell_angle_alpha 142.636744
_cell_angle_beta 54.395921
_cell_angle_gamma 143.045221
_cell_volume 676.832998
_symmetry_space_group_name_H-M "P -1"
_symmetry_group_IT_number 2
_symmetry_cell_setting 'triclinic'
loop_
_space_group_symop_operation_xyz
x,y,z
-x,-y,-z
loop_
_atom_site_type_symbol
_atom_site_label
_atom_site_fract_x
_atom_site_fract_y
_atom_site_fract_z
Si Si1 0.612893 0.868244 0.923597
Si Si2 0.718890 0.391716 0.367217
Si Si3 0.439866 0.351686 0.074323
Si Si4 0.967870 0.713142 0.915579
Si Si5 0.396270 0.169229 0.701028
Si Si6 0.444463 0.044574 0.280338
Si Si7 0.200460 0.798058 0.527356
Si Si8 0.884073 0.739237 0.206567
O O1 0.458207 0.694972 0.740837
O O2 0.649757 0.795039 0.938910
O O3 0.138862 0.941992 0.047048
O O4 0.468604 0.934483 0.078765
O O5 0.883808 0.341537 0.233084
O O6 0.548589 0.249416 0.394155
O O7 0.922818 0.621226 0.507320
O O8 0.714996 0.553705 0.170414
O O9 0.262068 0.387319 0.160480
O O10 0.427804 0.266001 0.888201
O O11 0.900710 0.674466 0.025340
O O12 0.661212 0.257171 0.638658
O O13 0.259440 0.194914 0.700392
O O14 0.231113 0.945678 0.580814
O O15 0.622471 0.087083 0.337677
O O16 0.159944 0.904309 0.289813
#
# Coordination Sequence:
#
# PCOD9090993 Si02
#       8
#     2   2   2   2   2   2   2   2
#     4  11  21  38  63  94 121 154 202 253 295 349
#     4  11  21  40  64  89 120 161 200 242 306 356
#     4  11  22  36  64  96 119 154 203 250 301 353
#     4  10  19  39  62  90 123 155 195 255 302 345
#     4  10  23  40  59  86 124 162 193 248 305 352
#     4  11  22  40  61  91 121 159 201 250 294 356
#     4  11  23  41  61  85 123 163 201 242 296 366
#     4  11  21  39  63  89 123 156 199 253 300 350
#
# _framework density 23.639507999999999
#
# number of rings (size 3 to 8) (size 9 to 14) (size 15 to 20)
#    0.000    1.250    3.750    4.500    0.000    3.000 
#    0.000    1.875    0.000    0.000    0.000    0.000 
#    0.000    0.000    0.000    0.000    0.000    0.000 
#
# Total GULP energy -89533.403323 kJ/mol
# GULP energy per Si atom -5595.837708 kJ/mol
# Density = 2.358570 g / cm^3
# Si number density = 23.639508 Si / 1000 Ang^3
#
#
#
# Elastic Constant Matrix: (Units=GPa)
#
#
# Indices 1 2 3 4 5 6 
#
# 1 36.8743 8.8740 12.3698 11.0885 17.5088 5.1760
# 2 8.8740 63.3822 2.9614 29.9775 15.4817 6.6932
# 3 12.3698 2.9614 39.3065 9.1903 6.2360 5.0061
# 4 11.0885 29.9775 9.1903 37.7455 5.0416 8.4506
# 5 17.5088 15.4817 6.2360 5.0416 21.4301 5.8868
# 6 5.1760 6.6932 5.0061 8.4506 5.8868 36.5725
#
#
#
# Elastic Compliance Matrix: (Units=1/GPa)
#
#
# Indices 1 2 3 4 5 6 
#
# 1 0.054451 0.013298 -0.006325 -0.019198 -0.048555 0.002977
# 2 0.013298 0.034831 0.004606 -0.029157 -0.031302 0.002889
# 3 -0.006325 0.004606 0.029894 -0.008152 -0.004550 -0.001424
# 4 -0.019198 -0.029157 -0.008152 0.055318 0.028354 -0.008177
# 5 -0.048555 -0.031302 -0.004550 0.028354 0.106476 -0.010467
# 6 0.002977 0.002889 -0.001424 -0.008177 -0.010467 0.030162
#
#
# Mechanical properties :
#
#
# Convention : Reuss Voigt Hill
#
# Bulk Modulus (GPa) = 7.02569 20.88591 13.95580
# Shear Modulus (GPa) = 14.90677 26.84014 20.87345
#
# Velocity S-wave (km/s) = 2.51387 3.37322 2.97474
# Velocity P-wave (km/s) = 3.37706 4.90161 4.20894
#
# Compressibility (1/GPa) = 0.14233469
#
# Stress axis : x y z
#
# Youngs Moduli (GPa) = 18.36516 28.70987 33.45173
#
# Poissons Ratio (x) = -0.38177 0.21157
# Poissons Ratio (y) = -0.24421 -0.15409
# Poissons Ratio (z) = 0.11615 -0.13225
#
# Static dielectric constant tensor:
#      x y z
#    x 1.848800 0.016710 -0.001010 
#    y 0.016710 1.905880 -0.004640 
#    z -0.001010 -0.004640 1.945950 
# 
# From -- ./inp_files/504382.got.cif
#   From: 2010.05.17/outbox.cif.g08.bks.cpg/sg2_253_cif.got.tgz:504382.got - 2010.06.03 11:33:40.
