data_PCOD9090521
_publ_section_title
;
Structure prediction by ZEFSAII (Michael W. Deem and Ramdas Pophale) SiO2 
 PCOD9090521
Probable space group: P -1
;
_chemical_formula_sum "Si O2"
_cell_formula_units_Z 16
_cell_length_a 9.132845
_cell_length_b 11.593796
_cell_length_c 22.319624
_cell_angle_alpha 28.232920
_cell_angle_beta 60.112953
_cell_angle_gamma 78.508118
_cell_volume 786.391158
_symmetry_space_group_name_H-M "P -1"
_symmetry_group_IT_number 2
_symmetry_cell_setting 'triclinic'
loop_
_space_group_symop_operation_xyz
x,y,z
-x,-y,-z
loop_
_atom_site_type_symbol
_atom_site_label
_atom_site_fract_x
_atom_site_fract_y
_atom_site_fract_z
Si Si1 0.348083 0.431010 0.116824
Si Si2 0.366938 0.263087 0.979219
Si Si3 0.233744 0.703855 0.836132
Si Si4 0.637306 0.546483 0.677090
Si Si5 0.047239 0.586320 0.380468
Si Si6 0.897868 0.216316 0.294950
Si Si7 0.663627 0.122053 0.591006
Si Si8 0.358557 0.708557 0.616939
O O1 0.139167 0.377442 0.162090
O O2 0.289470 0.125478 0.299648
O O3 0.500000 0.500000 0.000000
O O4 0.480267 0.688377 0.020488
O O5 0.158001 0.933440 0.182057
O O6 0.307371 0.498131 0.892834
O O7 0.504122 0.349748 0.851696
O O8 0.217279 0.865714 0.707928
O O9 0.414703 0.939562 0.737041
O O10 0.000000 0.500000 0.000000
O O11 0.782055 0.467532 0.652851
O O12 0.461078 0.530456 0.679943
O O13 0.800238 0.905181 0.493461
O O14 0.000000 0.500000 0.500000
O O15 0.830505 0.382925 0.481436
O O16 0.858308 0.432922 0.239558
O O17 0.675522 0.221789 0.474475
O O18 0.500000 0.000000 0.500000
#
# Coordination Sequence:
#
# PCOD9090521 Si02
#       8
#     2   2   2   2   2   2   2   2
#     4  11  22  37  64 100 134 167 226 279 329 391
#     4  11  25  44  65 101 132 178 226 271 330 393
#     4  11  22  39  71 100 135 167 221 280 330 389
#     4  11  22  44  68  90 134 175 222 275 333 394
#     4  12  28  46  67  92 138 184 222 272 333 401
#     4  11  19  37  69 100 130 167 214 284 340 380
#     4  11  22  41  65  98 127 174 221 262 336 396
#     4  10  19  38  66  97 125 161 214 274 328 392
#
# _framework density 20.346108999999998
#
# number of rings (size 3 to 8) (size 9 to 14) (size 15 to 20)
#    0.000    1.000    5.000    4.875    3.500    1.000 
#    0.000    4.375    0.000    0.000    0.000    0.000 
#    0.000    0.000    0.000    0.000    0.000    0.000 
#
# Total GULP energy -89170.815016 kJ/mol
# GULP energy per Si atom -5573.175939 kJ/mol
# Density = 2.029980 g / cm^3
# Si number density = 20.346109 Si / 1000 Ang^3
#
#
#
# Elastic Constant Matrix: (Units=GPa)
#
#
# Indices 1 2 3 4 5 6 
#
# 1 149.0650 52.5171 46.9325 7.0460 -22.1782 13.6389
# 2 52.5171 77.1656 53.3309 21.2818 -8.2120 17.6693
# 3 46.9325 53.3309 116.6251 13.3991 -20.9734 14.9832
# 4 7.0460 21.2818 13.3991 40.2483 3.4172 -6.9628
# 5 -22.1782 -8.2120 -20.9734 3.4172 35.1791 3.3588
# 6 13.6389 17.6693 14.9832 -6.9628 3.3588 39.1611
#
#
#
# Elastic Compliance Matrix: (Units=1/GPa)
#
#
# Indices 1 2 3 4 5 6 
#
# 1 0.009585 -0.005927 -0.000395 0.001095 0.004383 -0.000694
# 2 -0.005927 0.028295 -0.007627 -0.013195 0.000575 -0.010180
# 3 -0.000395 -0.007627 0.013935 -0.001554 0.006678 -0.002602
# 4 0.001095 -0.013195 -0.001554 0.035090 -0.007975 0.013089
# 5 0.004383 0.000575 0.006678 -0.007975 0.036932 -0.008927
# 6 -0.000694 -0.010180 -0.002602 0.013089 -0.008927 0.034459
#
#
# Mechanical properties :
#
#
# Convention : Reuss Voigt Hill
#
# Bulk Modulus (GPa) = 41.81076 72.04632 56.92854
# Shear Modulus (GPa) = 25.75142 35.58938 30.67040
#
# Velocity S-wave (km/s) = 3.56148 4.18688 3.88678
# Velocity P-wave (km/s) = 6.12426 7.67206 6.94144
#
# Compressibility (1/GPa) = 0.02391729
#
# Stress axis : x y z
#
# Youngs Moduli (GPa) = 104.33091 35.34234 71.76274
#
# Poissons Ratio (x) = 0.20946 0.02837
# Poissons Ratio (y) = 0.61833 0.54730
# Poissons Ratio (z) = 0.04125 0.26954
#
# Static dielectric constant tensor:
#      x y z
#    x 1.821780 -0.006720 -0.067120 
#    y -0.006720 1.763910 0.003560 
#    z -0.067120 0.003560 1.850550 
# 
# From -- ./inp_files/588851.got.cif
#   From: 2010.05.17/outbox.cif.g08.bks.cpg/sg2_295_cif.got.tgz:588851.got - 2010.06.03 11:33:40.
