data_PCOD9090680
_publ_section_title
;
Structure prediction by ZEFSAII (Michael W. Deem and Ramdas Pophale) SiO2 
 PCOD9090680
Probable space group: P -1
;
_chemical_formula_sum "Si O2"
_cell_formula_units_Z 14
_cell_length_a 16.652623
_cell_length_b 16.380887
_cell_length_c 9.555660
_cell_angle_alpha 142.689369
_cell_angle_beta 154.472636
_cell_angle_gamma 34.492369
_cell_volume 621.734068
_symmetry_space_group_name_H-M "P -1"
_symmetry_group_IT_number 2
_symmetry_cell_setting 'triclinic'
loop_
_space_group_symop_operation_xyz
x,y,z
-x,-y,-z
loop_
_atom_site_type_symbol
_atom_site_label
_atom_site_fract_x
_atom_site_fract_y
_atom_site_fract_z
Si Si1 0.263130 0.067437 0.703495
Si Si2 0.743391 0.651812 0.769987
Si Si3 0.117985 0.592488 0.129859
Si Si4 0.624094 0.406767 0.933236
Si Si5 0.923433 0.111161 0.658725
Si Si6 0.908333 0.822576 0.704712
Si Si7 0.235532 0.413728 0.803872
O O1 0.178555 0.072610 0.421567
O O2 0.210395 0.956509 0.563663
O O3 0.198718 0.233910 0.890862
O O4 0.500000 0.000000 0.000000
O O5 0.815923 0.487813 0.727278
O O6 0.503680 0.691597 0.435591
O O7 0.872163 0.638652 0.811937
O O8 0.159608 0.729895 0.329985
O O9 0.235012 0.466357 0.032194
O O10 0.500000 0.500000 0.000000
O O11 0.622755 0.531214 0.989724
O O12 0.866024 0.295915 0.156543
O O13 0.000000 0.000000 0.500000
O O14 0.063772 0.119517 0.020293
O O15 0.745614 0.750940 0.380852
O O16 0.000000 0.500000 0.500000
#
# Coordination Sequence:
#
# PCOD9090680 Si02
#       7
#     2   2   2   2   2   2   2
#     4  12  27  46  70 103 141 191 238 293 360 425
#     4  11  24  41  69 102 141 181 241 293 350 422
#     4  11  22  42  70  99 141 184 236 291 355 409
#     4  11  24  37  69 108 137 175 235 301 357 414
#     4  12  25  44  73 103 145 194 235 287 360 432
#     4  11  24  48  69 100 147 189 235 297 357 422
#     4  10  19  38  69  99 136 175 228 292 354 412
#
# _framework density 22.517664
#
# number of rings (size 3 to 8) (size 9 to 14) (size 15 to 20)
#    0.000    0.857    5.714    3.000    2.000    1.714 
#    0.000    0.714    0.000    0.000    0.000    0.000 
#    0.000    0.000    0.000    0.000    0.000    0.000 
#
# Total GULP energy -77999.321868 kJ/mol
# GULP energy per Si atom -5571.380133 kJ/mol
# Density = 2.246641 g / cm^3
# Si number density = 22.517664 Si / 1000 Ang^3
#
#
#
# Elastic Constant Matrix: (Units=GPa)
#
#
# Indices 1 2 3 4 5 6 
#
# 1 157.0060 46.3033 46.0295 18.3633 6.7061 17.2085
# 2 46.3033 74.7369 48.5255 7.4608 9.7845 16.7639
# 3 46.0295 48.5255 81.9600 36.6073 4.2259 3.6273
# 4 18.3633 7.4608 36.6073 37.2452 7.7094 2.5555
# 5 6.7061 9.7845 4.2259 7.7094 40.5346 24.1294
# 6 17.2085 16.7639 3.6273 2.5555 24.1294 36.9947
#
#
#
# Elastic Compliance Matrix: (Units=1/GPa)
#
#
# Indices 1 2 3 4 5 6 
#
# 1 0.008394 -0.003232 -0.001988 -0.001706 0.001944 -0.003395
# 2 -0.003232 0.034657 -0.029012 0.024512 -0.002779 -0.011237
# 3 -0.001988 -0.029012 0.049108 -0.043146 0.005123 0.008895
# 4 -0.001706 0.024512 -0.043146 0.067954 -0.012498 -0.002626
# 5 0.001944 -0.002779 0.005123 -0.012498 0.043215 -0.027471
# 6 -0.003395 -0.011237 0.008895 -0.002626 -0.027471 0.050929
#
#
# Mechanical properties :
#
#
# Convention : Reuss Voigt Hill
#
# Bulk Modulus (GPa) = 42.20465 66.15773 54.18119
# Shear Modulus (GPa) = 15.12313 34.47787 24.80050
#
# Velocity S-wave (km/s) = 2.59436 3.91723 3.32230
# Velocity P-wave (km/s) = 5.26857 7.06426 6.23144
#
# Compressibility (1/GPa) = 0.02369407
#
# Stress axis : x y z
#
# Youngs Moduli (GPa) = 119.13310 28.85415 20.36337
#
# Poissons Ratio (x) = 0.09326 0.04049
# Poissons Ratio (y) = 0.38505 0.59078
# Poissons Ratio (z) = 0.23689 0.83711
#
# Static dielectric constant tensor:
#      x y z
#    x 1.889470 -0.049920 -0.103720 
#    y -0.049920 1.943390 0.022600 
#    z -0.103720 0.022600 2.001460 
# 
# From -- ./inp_files/316151.got.cif
#   From: 2010.05.17/outbox.cif.g08.bks.cpg/sg2_159_cif.got.tgz:316151.got - 2010.06.03 11:33:40.
