data_PCOD9090856
_publ_section_title
;
Structure prediction by ZEFSAII (Michael W. Deem and Ramdas Pophale) SiO2 
 PCOD9090856
Probable space group: P -1
;
_chemical_formula_sum "Si O2"
_cell_formula_units_Z 16
_cell_length_a 13.403057
_cell_length_b 14.906570
_cell_length_c 7.187929
_cell_angle_alpha 70.902194
_cell_angle_beta 111.696633
_cell_angle_gamma 150.697693
_cell_volume 653.023254
_symmetry_space_group_name_H-M "P -1"
_symmetry_group_IT_number 2
_symmetry_cell_setting 'triclinic'
loop_
_space_group_symop_operation_xyz
x,y,z
-x,-y,-z
loop_
_atom_site_type_symbol
_atom_site_label
_atom_site_fract_x
_atom_site_fract_y
_atom_site_fract_z
Si Si1 0.338824 0.530710 0.478610
Si Si2 0.164198 0.196020 0.901027
Si Si3 0.939470 0.495616 0.666612
Si Si4 0.931592 0.837304 0.544043
Si Si5 0.656280 0.293220 0.125344
Si Si6 0.469664 0.879887 0.459394
Si Si7 0.613616 0.466194 0.050481
Si Si8 0.655514 0.920133 0.256192
O O1 0.146214 0.461568 0.404845
O O2 0.401836 0.555020 0.719044
O O3 0.525769 0.730652 0.374615
O O4 0.273347 0.384522 0.425129
O O5 0.242575 0.333525 0.007241
O O6 0.057230 0.163976 0.672151
O O7 0.380651 0.306801 0.923192
O O8 0.000000 0.000000 0.000000
O O9 0.730739 0.277552 0.705299
O O10 0.000000 0.500000 0.500000
O O11 0.146553 0.624314 0.830311
O O12 0.110279 0.925538 0.728723
O O13 0.000000 0.000000 0.500000
O O14 0.573621 0.221803 0.328072
O O15 0.712181 0.446560 0.045849
O O16 0.469364 0.133733 0.965909
O O17 0.655961 0.991524 0.382581
O O18 0.500000 0.000000 0.500000
#
# Coordination Sequence:
#
# PCOD9090856 Si02
#       8
#     2   2   2   2   2   2   2   2
#     4  10  21  41  65  89 129 171 208 263 324 378
#     4  10  22  36  63  88 119 163 213 260 322 371
#     4   9  18  38  63  89 125 164 207 253 317 374
#     4  11  25  42  62  92 131 166 216 270 320 381
#     4  11  22  40  65  92 131 167 215 255 318 386
#     4  10  23  40  63  97 130 168 214 261 319 381
#     4  10  19  39  60  90 122 160 211 265 307 385
#     4  11  24  42  66  93 131 170 210 267 322 373
#
# _framework density 24.501424
#
# number of rings (size 3 to 8) (size 9 to 14) (size 15 to 20)
#    0.000    1.750    3.750    1.500    3.500    4.000 
#    2.250    0.000    0.000    0.000    0.000    0.000 
#    0.000    0.000    0.000    0.000    0.000    0.000 
#
# Total GULP energy -89270.626732 kJ/mol
# GULP energy per Si atom -5579.414171 kJ/mol
# Density = 2.444566 g / cm^3
# Si number density = 24.501424 Si / 1000 Ang^3
#
#
#
# Elastic Constant Matrix: (Units=GPa)
#
#
# Indices 1 2 3 4 5 6 
#
# 1 82.0935 26.3714 21.2943 10.2816 12.3123 -9.3258
# 2 26.3714 106.9362 9.0119 13.6332 9.3921 -19.5960
# 3 21.2943 9.0119 103.9370 35.6183 10.9077 12.5256
# 4 10.2816 13.6332 35.6183 29.7451 5.2173 4.4152
# 5 12.3123 9.3921 10.9077 5.2173 40.0524 6.5113
# 6 -9.3258 -19.5960 12.5256 4.4152 6.5113 43.4343
#
#
#
# Elastic Compliance Matrix: (Units=1/GPa)
#
#
# Indices 1 2 3 4 5 6 
#
# 1 0.014644 -0.002332 -0.002551 -0.000800 -0.003719 0.003467
# 2 -0.002332 0.011885 0.001295 -0.006580 -0.002464 0.005526
# 3 -0.002551 0.001295 0.017262 -0.019763 -0.001198 -0.002753
# 4 -0.000800 -0.006580 -0.019763 0.061151 -0.000205 -0.003627
# 5 -0.003719 -0.002464 -0.001198 -0.000205 0.027974 -0.005737
# 6 0.003467 0.005526 -0.002753 -0.003627 -0.005737 0.028283
#
#
# Mechanical properties :
#
#
# Convention : Reuss Voigt Hill
#
# Bulk Modulus (GPa) = 27.31252 45.14687 36.22970
# Shear Modulus (GPa) = 27.68827 38.39897 33.04362
#
# Velocity S-wave (km/s) = 3.36529 3.96310 3.67637
# Velocity P-wave (km/s) = 5.12560 6.27756 5.73060
#
# Compressibility (1/GPa) = 0.03661324
#
# Stress axis : x y z
#
# Youngs Moduli (GPa) = 68.28696 84.13669 57.93158
#
# Poissons Ratio (x) = 0.19625 0.14780
# Poissons Ratio (y) = 0.15928 -0.07501
# Poissons Ratio (z) = 0.17422 -0.10894
#
# Static dielectric constant tensor:
#      x y z
#    x 2.198890 0.108160 0.040400 
#    y 0.108160 2.144240 -0.036520 
#    z 0.040400 -0.036520 1.999700 
# 
# From -- ./inp_files/313033.got.cif
#   From: 2010.05.17/outbox.cif.g08.bks.cpg/sg2_157_cif.got.tgz:313033.got - 2010.06.03 11:33:40.
