data_PCOD9090431
_publ_section_title
;
Structure prediction by ZEFSAII (Michael W. Deem and Ramdas Pophale) SiO2 
 PCOD9090431
Probable space group: P -1
;
_chemical_formula_sum "Si O2"
_cell_formula_units_Z 16
_cell_length_a 9.571858
_cell_length_b 20.823874
_cell_length_c 26.544309
_cell_angle_alpha 160.791693
_cell_angle_beta 151.145701
_cell_angle_gamma 28.293471
_cell_volume 791.029014
_symmetry_space_group_name_H-M "P -1"
_symmetry_group_IT_number 2
_symmetry_cell_setting 'triclinic'
loop_
_space_group_symop_operation_xyz
x,y,z
-x,-y,-z
loop_
_atom_site_type_symbol
_atom_site_label
_atom_site_fract_x
_atom_site_fract_y
_atom_site_fract_z
Si Si1 0.277942 0.608892 0.056257
Si Si2 0.025246 0.959113 0.918790
Si Si3 0.381889 0.376671 0.124657
Si Si4 0.204261 0.038444 0.399830
Si Si5 0.542748 0.791003 0.474005
Si Si6 0.542128 0.704076 0.030714
Si Si7 0.109817 0.970235 0.604853
Si Si8 0.720475 0.713618 0.576907
O O1 0.384907 0.495302 0.059397
O O2 0.946089 0.586922 0.927859
O O3 0.500000 0.500000 0.000000
O O4 0.243084 0.846582 0.232402
O O5 0.377016 0.824366 0.921615
O O6 0.832229 0.815336 0.734485
O O7 0.823767 0.174376 0.989864
O O8 0.000000 0.000000 0.000000
O O9 0.494085 0.573847 0.309268
O O10 0.374783 0.340493 0.035019
O O11 0.946759 0.055144 0.372469
O O12 0.500000 0.000000 0.500000
O O13 0.213334 0.224875 0.505043
O O14 0.682073 0.841448 0.607174
O O15 0.211765 0.951496 0.469911
O O16 0.739559 0.847592 0.217520
O O17 0.360188 0.755536 0.505975
O O18 0.000000 0.500000 0.500000
#
# Coordination Sequence:
#
# PCOD9090431 Si02
#       8
#     2   2   2   2   2   2   2   2
#     4  12  25  38  63  98 127 156 209 267 310 357
#     4   9  21  38  64  90 119 164 215 251 296 379
#     4  11  20  40  66  92 120 170 214 247 303 385
#     4  10  23  41  60  94 132 161 204 261 314 372
#     4  11  22  37  66  95 127 160 207 265 317 357
#     4  10  19  38  66  88 120 165 214 248 303 374
#     4  10  20  38  65  90 120 168 210 249 310 374
#     4  11  22  38  62  94 126 161 213 257 308 373
#
# _framework density 20.226817
#
# number of rings (size 3 to 8) (size 9 to 14) (size 15 to 20)
#    0.000    1.500    3.750    2.250    3.500    2.000 
#    0.000    1.250    0.000    0.000    0.000    0.000 
#    0.000    0.000    0.000    0.000    0.000    0.000 
#
# Total GULP energy -89107.224241 kJ/mol
# GULP energy per Si atom -5569.201515 kJ/mol
# Density = 2.018078 g / cm^3
# Si number density = 20.226817 Si / 1000 Ang^3
#
#
#
# Elastic Constant Matrix: (Units=GPa)
#
#
# Indices 1 2 3 4 5 6 
#
# 1 100.3780 36.9403 18.4071 -0.7392 -1.2912 -11.8600
# 2 36.9403 119.8686 1.4849 -3.4719 -0.9473 -12.0600
# 3 18.4071 1.4849 59.1611 1.5188 -4.4453 5.1868
# 4 -0.7392 -3.4719 1.5188 16.0929 -0.7553 -15.8826
# 5 -1.2912 -0.9473 -4.4453 -0.7553 24.8167 -1.9452
# 6 -11.8600 -12.0600 5.1868 -15.8826 -1.9452 23.1869
#
#
#
# Elastic Compliance Matrix: (Units=1/GPa)
#
#
# Indices 1 2 3 4 5 6 
#
# 1 0.016210 -0.000179 -0.008895 0.037081 0.003182 0.035855
# 2 -0.000179 0.012339 -0.003410 0.032032 0.003122 0.029293
# 3 -0.008895 -0.003410 0.024782 -0.047332 -0.001073 -0.044379
# 4 0.037081 0.032032 -0.047332 0.385349 0.030917 0.312766
# 5 0.003182 0.003122 -0.001073 0.030917 0.043549 0.028322
# 6 0.035855 0.029293 -0.044379 0.312766 0.028322 0.303246
#
#
# Mechanical properties :
#
#
# Convention : Reuss Voigt Hill
#
# Bulk Modulus (GPa) = 35.25776 43.67471 39.46623
# Shear Modulus (GPa) = 6.09833 27.65767 16.87800
#
# Velocity S-wave (km/s) = 1.73825 3.70182 2.89180
# Velocity P-wave (km/s) = 4.63656 6.31748 5.54113
#
# Compressibility (1/GPa) = 0.02836255
#
# Stress axis : x y z
#
# Youngs Moduli (GPa) = 61.69149 81.04169 40.35259
#
# Poissons Ratio (x) = 0.01448 0.35895
# Poissons Ratio (y) = 0.01102 0.13760
# Poissons Ratio (z) = 0.54877 0.27636
#
# Static dielectric constant tensor:
#      x y z
#    x 1.733430 -0.024350 -0.060180 
#    y -0.024350 1.807800 -0.004840 
#    z -0.060180 -0.004840 1.739490 
# 
# From -- ./inp_files/617531.got.cif
#   From: 2010.05.17/outbox.cif.g08.bks.cpg/sg2_309_cif.got.tgz:617531.got - 2010.06.03 11:33:40.
