data_PCOD9090972
_publ_section_title
;
Structure prediction by ZEFSAII (Michael W. Deem and Ramdas Pophale) SiO2 
 PCOD9090972
Probable space group: P -1
;
_chemical_formula_sum "Si O2"
_cell_formula_units_Z 16
_cell_length_a 12.188642
_cell_length_b 11.448507
_cell_length_c 14.929100
_cell_angle_alpha 29.215029
_cell_angle_beta 114.861755
_cell_angle_gamma 92.609041
_cell_volume 634.631683
_symmetry_space_group_name_H-M "P -1"
_symmetry_group_IT_number 2
_symmetry_cell_setting 'triclinic'
loop_
_space_group_symop_operation_xyz
x,y,z
-x,-y,-z
loop_
_atom_site_type_symbol
_atom_site_label
_atom_site_fract_x
_atom_site_fract_y
_atom_site_fract_z
Si Si1 0.214140 0.248246 0.697531
Si Si2 0.206985 0.481364 0.885556
Si Si3 0.577670 0.599242 0.320847
Si Si4 0.699154 0.137800 0.332085
Si Si5 0.935979 0.501911 0.713386
Si Si6 0.710962 0.713257 0.755433
Si Si7 0.513583 0.206669 0.634698
Si Si8 0.848704 0.191732 0.992237
O O1 0.275001 0.419973 0.644333
O O2 0.124015 0.453692 0.437171
O O3 0.414351 0.847824 0.029498
O O4 0.112693 0.148278 0.761240
O O5 0.182578 0.797458 0.662474
O O6 0.084198 0.491166 0.777366
O O7 0.203620 0.414126 0.032974
O O8 0.402633 0.150042 0.137177
O O9 0.625189 0.258978 0.589403
O O10 0.493301 0.786661 0.264916
O O11 0.771764 0.864521 0.462292
O O12 0.731481 0.937595 0.565256
O O13 0.500000 0.500000 0.000000
O O14 0.977318 0.199248 0.984217
O O15 0.789673 0.391255 0.933836
O O16 0.500000 0.000000 0.500000
O O17 0.319223 0.540507 0.310148
#
# Coordination Sequence:
#
# PCOD9090972 Si02
#       8
#     2   2   2   2   2   2   2   2
#     4  10  20  37  65  85 113 154 196 247 300 339
#     4  12  24  39  60  87 125 161 187 243 300 345
#     4   9  20  36  65  91 107 146 209 259 281 342
#     4  11  23  38  63  91 118 159 200 238 277 352
#     4  11  24  39  57  90 127 154 191 239 301 352
#     4  11  21  36  59  91 117 152 200 236 279 352
#     4  10  19  39  62  88 114 149 201 250 294 340
#     4  10  20  36  63  84 117 154 195 241 285 353
#
# _framework density 25.211475
#
# number of rings (size 3 to 8) (size 9 to 14) (size 15 to 20)
#    0.000    1.500    3.750    1.875    0.000    3.000 
#    2.250    1.250    0.000    0.000    0.000    0.000 
#    0.000    0.000    0.000    0.000    0.000    0.000 
#
# Total GULP energy -89415.835030 kJ/mol
# GULP energy per Si atom -5588.489689 kJ/mol
# Density = 2.515409 g / cm^3
# Si number density = 25.211475 Si / 1000 Ang^3
#
#
#
# Elastic Constant Matrix: (Units=GPa)
#
#
# Indices 1 2 3 4 5 6 
#
# 1 110.6991 11.8865 -1.1839 -17.1428 -16.5995 38.3067
# 2 11.8865 71.4165 27.7003 0.8465 -16.6135 13.5725
# 3 -1.1839 27.7003 53.8541 -18.2880 -16.5536 -0.3844
# 4 -17.1428 0.8465 -18.2880 38.6865 11.1858 -4.5227
# 5 -16.5995 -16.6135 -16.5536 11.1858 27.3345 -1.8663
# 6 38.3067 13.5725 -0.3844 -4.5227 -1.8663 44.7786
#
#
#
# Elastic Compliance Matrix: (Units=1/GPa)
#
#
# Indices 1 2 3 4 5 6 
#
# 1 0.015571 0.000036 0.004861 0.004993 0.009532 -0.012388
# 2 0.000036 0.022487 -0.011895 -0.009874 0.010012 -0.007528
# 3 0.004861 -0.011895 0.032968 0.015456 0.009478 0.001686
# 4 0.004993 -0.009874 0.015456 0.038524 -0.009213 0.002362
# 5 0.009532 0.010012 0.009478 -0.009213 0.057309 -0.009650
# 6 -0.012388 -0.007528 0.001686 0.002362 -0.009650 0.035062
#
#
# Mechanical properties :
#
#
# Convention : Reuss Voigt Hill
#
# Bulk Modulus (GPa) = 17.53500 34.75284 26.14392
# Shear Modulus (GPa) = 21.28320 35.33102 28.30711
#
# Velocity S-wave (km/s) = 2.90864 3.74757 3.35444
# Velocity P-wave (km/s) = 4.27206 5.70440 5.03938
#
# Compressibility (1/GPa) = 0.05702881
#
# Stress axis : x y z
#
# Youngs Moduli (GPa) = 64.22204 44.46988 30.33274
#
# Poissons Ratio (x) = -0.00158 -0.14745
# Poissons Ratio (y) = -0.00228 0.36081
# Poissons Ratio (z) = -0.31219 0.52897
#
# Static dielectric constant tensor:
#      x y z
#    x 2.216320 0.064360 0.054370 
#    y 0.064360 2.067160 0.024600 
#    z 0.054370 0.024600 1.957880 
# 
# From -- ./inp_files/345665.got.cif
#   From: 2010.05.17/outbox.cif.g08.bks.cpg/sg2_173_cif.got.tgz:345665.got - 2010.06.03 11:33:40.
