data_PCOD9090561
_publ_section_title
;
Structure prediction by ZEFSAII (Michael W. Deem and Ramdas Pophale) SiO2 
 PCOD9090561
Probable space group: P -1
;
_chemical_formula_sum "Si O2"
_cell_formula_units_Z 12
_cell_length_a 19.030169
_cell_length_b 7.128891
_cell_length_c 16.757727
_cell_angle_alpha 49.872641
_cell_angle_beta 20.727393
_cell_angle_gamma 42.141395
_cell_volume 528.242931
_symmetry_space_group_name_H-M "P -1"
_symmetry_group_IT_number 2
_symmetry_cell_setting 'triclinic'
loop_
_space_group_symop_operation_xyz
x,y,z
-x,-y,-z
loop_
_atom_site_type_symbol
_atom_site_label
_atom_site_fract_x
_atom_site_fract_y
_atom_site_fract_z
Si Si1 0.054541 0.909314 0.249676
Si Si2 0.369241 0.597952 0.507598
Si Si3 0.385364 0.090333 0.898814
Si Si4 0.726968 0.502566 0.730684
Si Si5 0.039558 0.459432 0.675093
Si Si6 0.775036 0.066851 0.271121
O O1 0.083022 0.732898 0.348565
O O2 0.043670 0.712734 0.246049
O O3 0.277206 0.946978 0.997274
O O4 0.833423 0.228354 0.388667
O O5 0.533104 0.258518 0.429168
O O6 0.250628 0.727730 0.683214
O O7 0.547985 0.708381 0.273249
O O8 0.184628 0.270378 0.125320
O O9 0.620896 0.843507 0.756419
O O10 0.817924 0.447493 0.558639
O O11 0.500000 0.500000 0.000000
O O12 0.184895 0.225854 0.652571
O O13 0.000000 0.000000 0.000000
#
# Coordination Sequence:
#
# PCOD9090561 Si02
#       6
#     2   2   2   2   2   2
#     4  10  23  42  63  95 126 161 217 250 312 378
#     4  10  21  40  64  89 130 165 200 266 308 359
#     4  11  22  41  65  92 128 166 204 259 312 366
#     4  10  22  42  64  92 130 163 206 266 307 366
#     4  11  22  41  66  92 127 164 211 257 311 373
#     4  10  19  38  67  90 124 167 205 254 314 365
#
# _framework density 22.716819000000001
#
# number of rings (size 3 to 8) (size 9 to 14) (size 15 to 20)
#    0.000    1.667    5.000    0.500    0.000    3.333 
#    6.000    8.333    0.000    0.000    0.000    0.000 
#    0.000    0.000    0.000    0.000    0.000    0.000 
#
# Total GULP energy -66923.361118 kJ/mol
# GULP energy per Si atom -5576.946760 kJ/mol
# Density = 2.266511 g / cm^3
# Si number density = 22.716819 Si / 1000 Ang^3
#
#
#
# Elastic Constant Matrix: (Units=GPa)
#
#
# Indices 1 2 3 4 5 6 
#
# 1 53.3283 53.5926 52.1949 2.8633 1.6199 -26.6367
# 2 53.5926 108.6814 35.0230 22.6482 6.7554 -43.1423
# 3 52.1949 35.0230 149.5566 16.7450 23.4175 -17.6780
# 4 2.8633 22.6482 16.7450 53.3563 0.3284 -9.4766
# 5 1.6199 6.7554 23.4175 0.3284 42.1997 1.3599
# 6 -26.6367 -43.1423 -17.6780 -9.4766 1.3599 53.9523
#
#
#
# Elastic Compliance Matrix: (Units=1/GPa)
#
#
# Indices 1 2 3 4 5 6 
#
# 1 0.072304 -0.030333 -0.021301 0.016855 0.013541 0.007081
# 2 -0.030333 0.027619 0.007457 -0.011002 -0.007561 0.007811
# 3 -0.021301 0.007457 0.014307 -0.006607 -0.008238 -0.000818
# 4 0.016855 -0.011002 -0.006607 0.024839 0.004536 0.001607
# 5 0.013541 -0.007561 -0.008238 0.004536 0.028988 -0.001994
# 6 0.007081 0.007811 -0.000818 0.001607 -0.001994 0.028342
#
#
# Mechanical properties :
#
#
# Convention : Reuss Voigt Hill
#
# Bulk Modulus (GPa) = 38.64414 65.90970 52.27692
# Shear Modulus (GPa) = 17.04294 41.28539 29.16416
#
# Velocity S-wave (km/s) = 2.74201 4.26771 3.58692
# Velocity P-wave (km/s) = 5.20317 7.30487 6.34169
#
# Compressibility (1/GPa) = 0.02587715
#
# Stress axis : x y z
#
# Youngs Moduli (GPa) = 13.83050 36.20658 69.89652
#
# Poissons Ratio (x) = 1.09825 1.48886
# Poissons Ratio (y) = 0.41952 -0.52125
# Poissons Ratio (z) = 0.29460 -0.27001
#
# Static dielectric constant tensor:
#      x y z
#    x 1.919070 -0.039530 -0.047300 
#    y -0.039530 1.928030 -0.021370 
#    z -0.047300 -0.021370 1.866300 
# 
# From -- ./inp_files/577221.got.cif
#   From: 2010.05.17/outbox.cif.g08.bks.cpg/sg2_289_cif.got.tgz:577221.got - 2010.06.03 11:33:40.
