data_PCOD9090057
_publ_section_title
;
Structure prediction by ZEFSAII (Michael W. Deem and Ramdas Pophale) SiO2 
 PCOD9090057
Probable space group: P -1
;
_chemical_formula_sum "Si O2"
_cell_formula_units_Z 12
_cell_length_a 31.285561
_cell_length_b 24.757887
_cell_length_c 14.833913
_cell_angle_alpha 18.725451
_cell_angle_beta 19.326124
_cell_angle_gamma 9.218480
_cell_volume 582.172459
_symmetry_space_group_name_H-M "P -1"
_symmetry_group_IT_number 2
_symmetry_cell_setting 'triclinic'
loop_
_space_group_symop_operation_xyz
x,y,z
-x,-y,-z
loop_
_atom_site_type_symbol
_atom_site_label
_atom_site_fract_x
_atom_site_fract_y
_atom_site_fract_z
Si Si1 0.442460 0.767808 0.187223
Si Si2 0.987452 0.334695 0.736969
Si Si3 0.535382 0.066248 0.935677
Si Si4 0.054609 0.152896 0.201091
Si Si5 0.719916 0.228378 0.817907
Si Si6 0.679312 0.024920 0.528197
O O1 0.500000 0.500000 0.500000
O O2 0.393242 0.903954 0.168135
O O3 0.195293 0.086748 0.107471
O O4 0.704100 0.566821 0.947833
O O5 0.000000 0.500000 0.500000
O O6 0.069235 0.255587 0.595188
O O7 0.202929 0.974317 0.931648
O O8 0.713350 0.913980 0.736326
O O9 0.220943 0.466940 0.899044
O O10 0.527864 0.873364 0.266435
O O11 0.960126 0.085752 0.541287
O O12 0.278330 0.874394 0.117381
O O13 0.461325 0.635231 0.713584
#
# Coordination Sequence:
#
# PCOD9090057 Si02
#       6
#     2   2   2   2   2   2
#     4  12  21  38  69  91 120 164 213 247 299 371
#     4  12  22  39  64  92 126 162 206 254 307 362
#     4  10  21  42  64  89 126 164 204 251 308 366
#     4  10  19  38  66  92 114 169 210 242 299 376
#     4  10  19  38  63  90 126 161 203 251 311 360
#     4  10  21  38  64  88 126 167 197 254 314 360
#
# _framework density 20.612448000000001
#
# number of rings (size 3 to 8) (size 9 to 14) (size 15 to 20)
#    0.000    1.333    5.000    2.500    0.000    0.000 
#    0.000   14.167    0.000    0.000    0.000    0.000 
#    0.000    0.000    0.000    0.000    0.000    0.000 
#
# Total GULP energy -66968.062733 kJ/mol
# GULP energy per Si atom -5580.671894 kJ/mol
# Density = 2.056553 g / cm^3
# Si number density = 20.612448 Si / 1000 Ang^3
#
#
#
# Elastic Constant Matrix: (Units=GPa)
#
#
# Indices 1 2 3 4 5 6 
#
# 1 166.3937 40.1477 19.0250 12.8799 -16.3497 18.1728
# 2 40.1477 54.2867 19.5371 -2.0309 -1.8083 11.2314
# 3 19.0250 19.5371 64.7769 8.5849 3.2987 7.2970
# 4 12.8799 -2.0309 8.5849 35.1483 8.1359 8.1711
# 5 -16.3497 -1.8083 3.2987 8.1359 27.4916 8.7766
# 6 18.1728 11.2314 7.2970 8.1711 8.7766 45.6219
#
#
#
# Elastic Compliance Matrix: (Units=1/GPa)
#
#
# Indices 1 2 3 4 5 6 
#
# 1 0.008753 -0.005768 -0.000304 -0.004494 0.007010 -0.002562
# 2 -0.005768 0.026023 -0.006491 0.006487 -0.001607 -0.003923
# 3 -0.000304 -0.006491 0.018147 -0.004328 -0.001464 -0.000127
# 4 -0.004494 0.006487 -0.004328 0.034828 -0.011000 -0.003236
# 5 0.007010 -0.001607 -0.001464 -0.011000 0.046805 -0.009197
# 6 -0.002562 -0.003923 -0.000127 -0.003236 -0.009197 0.026275
#
#
# Mechanical properties :
#
#
# Convention : Reuss Voigt Hill
#
# Bulk Modulus (GPa) = 35.97444 49.20855 42.59150
# Shear Modulus (GPa) = 25.61183 35.43553 30.52368
#
# Velocity S-wave (km/s) = 3.52880 4.15074 3.85234
# Velocity P-wave (km/s) = 5.83899 6.84811 6.36359
#
# Compressibility (1/GPa) = 0.02779751
#
# Stress axis : x y z
#
# Youngs Moduli (GPa) = 114.24908 38.42688 55.10617
#
# Poissons Ratio (x) = 0.22166 0.01674
# Poissons Ratio (y) = 0.65904 0.35767
# Poissons Ratio (z) = 0.03471 0.24941
#
# Static dielectric constant tensor:
#      x y z
#    x 1.756620 0.022750 -0.009130 
#    y 0.022750 1.782280 -0.043990 
#    z -0.009130 -0.043990 1.762210 
# 
# From -- ./inp_files/158247.got.cif
#   From: 2010.05.17/outbox.cif.g08.bks.cpg/sg2_80_cif.got.tgz:158247.got - 2010.06.03 11:33:40.
