data_PCOD9090683
_publ_section_title
;
Structure prediction by ZEFSAII (Michael W. Deem and Ramdas Pophale) SiO2 
 PCOD9090683
Probable space group: P -1
;
_chemical_formula_sum "Si O2"
_cell_formula_units_Z 15
_cell_length_a 9.185302
_cell_length_b 11.605443
_cell_length_c 12.355837
_cell_angle_alpha 146.346194
_cell_angle_beta 116.613398
_cell_angle_gamma 84.694930
_cell_volume 537.990572
_symmetry_space_group_name_H-M "P -1"
_symmetry_group_IT_number 2
_symmetry_cell_setting 'triclinic'
loop_
_space_group_symop_operation_xyz
x,y,z
-x,-y,-z
loop_
_atom_site_type_symbol
_atom_site_label
_atom_site_fract_x
_atom_site_fract_y
_atom_site_fract_z
Si Si1 0.391311 0.806494 0.964953
Si Si2 0.322266 0.243420 0.687090
Si Si3 0.699788 0.096080 0.762866
Si Si4 0.796282 0.473909 0.909647
Si Si5 0.013649 0.282708 0.493312
Si Si6 0.683035 0.836330 0.917162
Si Si7 0.000000 0.000000 0.500000
Si Si8 0.165119 0.467160 0.270143
O O1 0.415952 0.893114 0.165407
O O2 0.540713 0.765842 0.918235
O O3 0.185668 0.529683 0.683086
O O4 0.370037 0.011736 0.059051
O O5 0.344164 0.155467 0.507615
O O6 0.117359 0.244132 0.601975
O O7 0.202221 0.003367 0.535916
O O8 0.500000 0.500000 0.000000
O O9 0.930161 0.257489 0.004588
O O10 0.323897 0.742803 0.210537
O O11 0.731167 0.435308 0.734530
O O12 0.850013 0.744965 0.174155
O O13 0.000000 0.500000 0.000000
O O14 0.903736 0.040023 0.193900
O O15 0.848478 0.329392 0.510127
O O16 0.714518 0.634100 0.715004
#
# Coordination Sequence:
#
# PCOD9090683 Si02
#       8
#     2   2   2   2   2   2   1   2
#     4  10  25  47  76 112 140 188 256 308 371 454
#     4  12  26  44  72 108 152 205 254 304 368 445
#     4  10  21  46  70 109 156 194 252 309 366 448
#     4  10  19  38  69  99 142 192 238 290 362 441
#     4  11  24  47  71 110 146 190 249 305 371 446
#     4  11  23  50  78 104 148 191 242 317 380 435
#     4  12  20  40  70  96 140 198 238 292 356 430
#     4  10  21  42  75 105 143 198 242 297 381 448
#
# _framework density 27.881529
#
# number of rings (size 3 to 8) (size 9 to 14) (size 15 to 20)
#    0.000    1.333    4.000    2.800    0.000    4.267 
#    7.200    6.667    2.933    0.000    0.000    0.000 
#    0.000    0.000    0.000    0.000    0.000    0.000 
#
# Total GULP energy -83813.510788 kJ/mol
# GULP energy per Si atom -5587.567386 kJ/mol
# Density = 2.781807 g / cm^3
# Si number density = 27.881529 Si / 1000 Ang^3
#
#
#
# Elastic Constant Matrix: (Units=GPa)
#
#
# Indices 1 2 3 4 5 6 
#
# 1 132.2272 40.3257 19.0494 9.6214 0.3416 5.5834
# 2 40.3257 92.0205 0.1339 10.2882 7.8012 -13.1158
# 3 19.0494 0.1339 96.5622 12.8497 16.4629 11.7974
# 4 9.6214 10.2882 12.8497 28.7008 -10.9266 4.7668
# 5 0.3416 7.8012 16.4629 -10.9266 45.6288 7.0280
# 6 5.5834 -13.1158 11.7974 4.7668 7.0280 61.1408
#
#
#
# Elastic Compliance Matrix: (Units=1/GPa)
#
#
# Indices 1 2 3 4 5 6 
#
# 1 0.009249 -0.004465 -0.001952 0.000304 0.001725 -0.001648
# 2 -0.004465 0.014835 0.002379 -0.007879 -0.005930 0.004427
# 3 -0.001952 0.002379 0.013175 -0.008779 -0.007195 -0.000342
# 4 0.000304 -0.007879 -0.008779 0.048985 0.017138 -0.005813
# 5 0.001725 -0.005930 -0.007195 0.017138 0.030367 -0.004868
# 6 -0.001648 0.004427 -0.000342 -0.005813 -0.004868 0.018535
#
#
# Mechanical properties :
#
#
# Convention : Reuss Voigt Hill
#
# Bulk Modulus (GPa) = 34.26759 48.86977 41.56868
# Shear Modulus (GPa) = 32.69077 44.51413 38.60245
#
# Velocity S-wave (km/s) = 3.42788 4.00001 3.72495
# Velocity P-wave (km/s) = 5.29001 6.23692 5.78288
#
# Compressibility (1/GPa) = 0.02918210
#
# Stress axis : x y z
#
# Youngs Moduli (GPa) = 108.12347 67.40775 75.90420
#
# Poissons Ratio (x) = 0.30100 0.14814
# Poissons Ratio (y) = 0.48281 -0.18057
# Poissons Ratio (z) = 0.21102 -0.16036
#
# Static dielectric constant tensor:
#      x y z
#    x 1.847500 -0.621040 -0.215120 
#    y -0.621040 1.378770 -0.278310 
#    z -0.215120 -0.278310 2.061140 
# 
# From -- ./inp_files/504773.got.cif
#   From: 2010.05.17/outbox.cif.g08.bks.cpg/sg2_253_cif.got.tgz:504773.got - 2010.06.03 11:33:40.
