data_PCOD9090802
_publ_section_title
;
Structure prediction by ZEFSAII (Michael W. Deem and Ramdas Pophale) SiO2 
 PCOD9090802
Probable space group: P -1
;
_chemical_formula_sum "Si O2"
_cell_formula_units_Z 16
_cell_length_a 11.220493
_cell_length_b 13.639209
_cell_length_c 8.022236
_cell_angle_alpha 77.636916
_cell_angle_beta 109.963230
_cell_angle_gamma 146.469838
_cell_volume 631.505859
_symmetry_space_group_name_H-M "P -1"
_symmetry_group_IT_number 2
_symmetry_cell_setting 'triclinic'
loop_
_space_group_symop_operation_xyz
x,y,z
-x,-y,-z
loop_
_atom_site_type_symbol
_atom_site_label
_atom_site_fract_x
_atom_site_fract_y
_atom_site_fract_z
Si Si1 0.037785 0.389625 0.447375
Si Si2 0.483249 0.550702 0.644006
Si Si3 0.300274 0.959273 0.453719
Si Si4 0.200043 0.001206 0.084562
Si Si5 0.250041 0.231832 0.842452
Si Si6 0.708541 0.853899 0.442949
Si Si7 0.711286 0.282306 0.717545
Si Si8 0.226836 0.828126 0.940864
O O1 0.258708 0.469120 0.558808
O O2 0.121044 0.555233 0.389344
O O3 0.874005 0.243943 0.566278
O O4 0.900458 0.271027 0.256819
O O5 0.500000 0.500000 0.500000
O O6 0.438720 0.439614 0.808632
O O7 0.679299 0.761859 0.624549
O O8 0.359172 0.052216 0.276979
O O9 0.474602 0.913052 0.382404
O O10 0.183511 0.971777 0.505581
O O11 0.962959 0.863733 0.120131
O O12 0.164414 0.895788 0.961487
O O13 0.311358 0.175510 0.005039
O O14 0.194608 0.142384 0.669132
O O15 0.459029 0.735126 0.308502
O O16 0.831454 0.300941 0.914217
O O17 0.500000 0.000000 0.000000
#
# Coordination Sequence:
#
# PCOD9090802 Si02
#       8
#     2   2   2   2   2   2   2   2
#     4  11  20  40  69  91 127 165 222 265 313 390
#     4   9  18  37  66  90 128 163 219 263 302 387
#     4  10  20  40  64  96 125 172 208 265 317 388
#     4  11  24  36  61  96 135 162 217 266 329 380
#     4  10  19  39  59  93 132 170 210 267 318 384
#     4   8  18  38  66  92 120 167 218 251 310 391
#     4   9  21  40  68  94 123 161 224 258 321 381
#     4  12  23  43  66  94 124 175 218 269 322 385
#
# _framework density 25.336265000000001
#
# number of rings (size 3 to 8) (size 9 to 14) (size 15 to 20)
#    0.750    1.250    2.500    1.875    0.000    1.000 
#    9.000    1.250   22.000    0.000    0.000    0.000 
#    0.000    0.000    0.000    0.000    0.000    0.000 
#
# Total GULP energy -89320.723082 kJ/mol
# GULP energy per Si atom -5582.545193 kJ/mol
# Density = 2.527860 g / cm^3
# Si number density = 25.336265 Si / 1000 Ang^3
#
#
#
# Elastic Constant Matrix: (Units=GPa)
#
#
# Indices 1 2 3 4 5 6 
#
# 1 113.9986 34.5944 12.6516 -21.6411 -15.0255 -9.9742
# 2 34.5944 147.3364 33.2722 -53.1379 6.9205 -18.8031
# 3 12.6516 33.2722 105.8745 -43.9128 17.7429 -6.3941
# 4 -21.6411 -53.1379 -43.9128 62.5859 -10.8256 3.8916
# 5 -15.0255 6.9205 17.7429 -10.8256 33.1627 -14.8663
# 6 -9.9742 -18.8031 -6.3941 3.8916 -14.8663 35.3046
#
#
#
# Elastic Compliance Matrix: (Units=1/GPa)
#
#
# Indices 1 2 3 4 5 6 
#
# 1 0.011838 -0.000655 -0.000704 0.004412 0.010336 0.006734
# 2 -0.000655 0.010858 0.000451 0.009447 0.002908 0.005863
# 3 -0.000704 0.000451 0.013996 0.009097 -0.005210 -0.000620
# 4 0.004412 0.009447 0.009097 0.033066 0.009705 0.008367
# 5 0.010336 0.002908 -0.005210 0.009705 0.050894 0.023886
# 6 0.006734 0.005863 -0.000620 0.008367 0.023886 0.042373
#
#
# Mechanical properties :
#
#
# Convention : Reuss Voigt Hill
#
# Bulk Modulus (GPa) = 28.67332 58.69399 43.68366
# Shear Modulus (GPa) = 28.33366 45.32338 36.82852
#
# Velocity S-wave (km/s) = 3.34773 4.23410 3.81673
# Velocity P-wave (km/s) = 5.12687 6.86438 6.05824
#
# Compressibility (1/GPa) = 0.03487563
#
# Stress axis : x y z
#
# Youngs Moduli (GPa) = 84.47236 92.09796 71.44677
#
# Poissons Ratio (x) = 0.06037 0.05031
# Poissons Ratio (y) = 0.05537 -0.03224
# Poissons Ratio (z) = 0.05949 -0.04155
#
# Static dielectric constant tensor:
#      x y z
#    x 1.837030 0.021310 -0.024670 
#    y 0.021310 1.995650 -0.004540 
#    z -0.024670 -0.004540 2.034140 
# 
# From -- ./inp_files/258131.got.cif
#   From: 2010.05.17/outbox.cif.g08.bks.cpg/sg2_130_cif.got.tgz:258131.got - 2010.06.03 11:33:40.
