data_PCOD9090302
_publ_section_title
;
Structure prediction by ZEFSAII (Michael W. Deem and Ramdas Pophale) SiO2 
 PCOD9090302
Probable space group: P -1
;
_chemical_formula_sum "Si O2"
_cell_formula_units_Z 16
_cell_length_a 7.327698
_cell_length_b 11.725502
_cell_length_c 22.653876
_cell_angle_alpha 148.852358
_cell_angle_beta 133.540158
_cell_angle_gamma 54.349727
_cell_volume 729.694996
_symmetry_space_group_name_H-M "P -1"
_symmetry_group_IT_number 2
_symmetry_cell_setting 'triclinic'
loop_
_space_group_symop_operation_xyz
x,y,z
-x,-y,-z
loop_
_atom_site_type_symbol
_atom_site_label
_atom_site_fract_x
_atom_site_fract_y
_atom_site_fract_z
Si Si1 0.769197 0.602424 0.530397
Si Si2 0.395929 0.696937 0.024557
Si Si3 0.660027 0.486732 0.242515
Si Si4 0.786772 0.632120 0.978050
Si Si5 0.051244 0.460923 0.219612
Si Si6 0.149033 0.876432 0.803645
Si Si7 0.526326 0.813577 0.747835
Si Si8 0.516818 0.774010 0.438847
O O1 0.587208 0.389541 0.405994
O O2 0.631262 0.767941 0.527444
O O3 0.000000 0.500000 0.500000
O O4 0.893029 0.738912 0.671777
O O5 0.432567 0.947226 0.166311
O O6 0.500000 0.500000 0.000000
O O7 0.568175 0.687701 0.000487
O O8 0.114542 0.637940 0.914327
O O9 0.371504 0.505064 0.166116
O O10 0.712985 0.234288 0.159607
O O11 0.691482 0.622156 0.369444
O O12 0.855576 0.552524 0.264781
O O13 0.000000 0.500000 0.000000
O O14 0.892026 0.866171 0.083023
O O15 0.218111 0.272761 0.203916
O O16 0.247114 0.651550 0.329370
O O17 0.329947 0.844219 0.772384
O O18 0.500000 0.000000 0.500000
#
# Coordination Sequence:
#
# PCOD9090302 Si02
#       8
#     2   2   2   2   2   2   2   2
#     4   9  17  36  62  89 113 156 217 240 294 375
#     4  10  22  36  58  88 125 161 199 259 312 351
#     4  11  22  41  62  92 122 161 209 250 308 359
#     4  10  24  37  58  92 127 159 207 256 305 371
#     4  10  22  40  60  91 121 156 214 248 295 376
#     4  10  19  38  65  86 123 165 204 255 301 364
#     4   9  18  37  60  86 117 161 205 247 296 368
#     4  11  24  40  67  88 123 170 198 250 316 358
#
# _framework density 21.926969
#
# number of rings (size 3 to 8) (size 9 to 14) (size 15 to 20)
#    0.000    2.000    3.750    0.750    3.500    3.500 
#    0.000    2.500    0.000    0.000    0.000    0.000 
#    0.000    0.000    0.000    0.000    0.000    0.000 
#
# Total GULP energy -89364.205736 kJ/mol
# GULP energy per Si atom -5585.262859 kJ/mol
# Density = 2.187706 g / cm^3
# Si number density = 21.926969 Si / 1000 Ang^3
#
#
#
# Elastic Constant Matrix: (Units=GPa)
#
#
# Indices 1 2 3 4 5 6 
#
# 1 78.2344 6.0049 28.5235 2.5294 14.5853 1.6167
# 2 6.0049 137.7403 54.8079 10.8002 30.2696 -3.2416
# 3 28.5235 54.8079 61.0785 -5.8147 19.6035 -2.2150
# 4 2.5294 10.8002 -5.8147 40.4044 3.6266 10.1979
# 5 14.5853 30.2696 19.6035 3.6266 28.0001 -0.7564
# 6 1.6167 -3.2416 -2.2150 10.1979 -0.7564 28.7823
#
#
#
# Elastic Compliance Matrix: (Units=1/GPa)
#
#
# Indices 1 2 3 4 5 6 
#
# 1 0.017973 0.005612 -0.011582 -0.003636 -0.006854 -0.000160
# 2 0.005612 0.014895 -0.013742 -0.006109 -0.008553 0.002244
# 3 -0.011582 -0.013742 0.037195 0.010864 -0.006615 -0.002058
# 4 -0.003636 -0.006109 0.010864 0.031207 -0.003441 -0.010795
# 5 -0.006854 -0.008553 -0.006615 -0.003441 0.053649 0.001542
# 6 -0.000160 0.002244 -0.002058 -0.010795 0.001542 0.038712
#
#
# Mechanical properties :
#
#
# Convention : Reuss Voigt Hill
#
# Bulk Modulus (GPa) = 32.63668 50.63619 41.63643
# Shear Modulus (GPa) = 20.55367 31.95184 26.25276
#
# Velocity S-wave (km/s) = 3.06497 3.82146 3.46393
# Velocity P-wave (km/s) = 5.23851 6.52799 5.91847
#
# Compressibility (1/GPa) = 0.03064037
#
# Stress axis : x y z
#
# Youngs Moduli (GPa) = 55.64043 67.13823 26.88562
#
# Poissons Ratio (x) = -0.37681 0.31138
# Poissons Ratio (y) = -0.31228 0.36945
# Poissons Ratio (z) = 0.64440 0.92259
#
# Static dielectric constant tensor:
#      x y z
#    x 1.905260 0.068150 -0.052190 
#    y 0.068150 1.852190 -0.042960 
#    z -0.052190 -0.042960 1.850580 
# 
# From -- ./inp_files/325033.got.cif
#   From: 2010.05.17/outbox.cif.g08.bks.cpg/sg2_163_cif.got.tgz:325033.got - 2010.06.03 11:33:40.
