data_PCOD9090340
_publ_section_title
;
Structure prediction by ZEFSAII (Michael W. Deem and Ramdas Pophale) SiO2 
 PCOD9090340
Probable space group: P -1
;
_chemical_formula_sum "Si O2"
_cell_formula_units_Z 14
_cell_length_a 9.324088
_cell_length_b 14.295147
_cell_length_c 8.668005
_cell_angle_alpha 55.478875
_cell_angle_beta 102.065403
_cell_angle_gamma 141.761949
_cell_volume 522.222411
_symmetry_space_group_name_H-M "P -1"
_symmetry_group_IT_number 2
_symmetry_cell_setting 'triclinic'
loop_
_space_group_symop_operation_xyz
x,y,z
-x,-y,-z
loop_
_atom_site_type_symbol
_atom_site_label
_atom_site_fract_x
_atom_site_fract_y
_atom_site_fract_z
Si Si1 0.732663 0.903756 0.348702
Si Si2 0.112409 0.452630 0.882785
Si Si3 0.769338 0.690011 0.113970
Si Si4 0.651766 0.218940 0.821688
Si Si5 0.775510 0.128463 0.375106
Si Si6 0.913686 0.782009 0.413045
Si Si7 0.506489 0.749005 0.942262
O O1 0.461575 0.784596 0.343564
O O2 0.755653 0.782471 0.461066
O O3 0.779690 0.001035 0.427413
O O4 0.952758 0.085480 0.102982
O O5 0.276629 0.451920 0.859820
O O6 0.307698 0.646307 0.854230
O O7 0.957720 0.396055 0.751161
O O8 0.882646 0.263759 0.123718
O O9 0.796845 0.688838 0.304186
O O10 0.554408 0.646424 0.071878
O O11 0.581312 0.251108 0.920614
O O12 0.500000 0.000000 0.000000
O O13 0.008234 0.278592 0.413783
O O14 0.500000 0.000000 0.500000
O O15 0.206432 0.016870 0.235517
#
# Coordination Sequence:
#
# PCOD9090340 Si02
#       7
#     2   2   2   2   2   2   2
#     4  10  20  37  61  91 115 160 212 250 286 358
#     4  11  24  38  62  94 128 157 194 261 311 355
#     4  10  19  38  65  91 116 161 206 245 293 377
#     4  12  19  36  63  88 117 159 215 243 289 357
#     4  11  24  37  60  91 127 159 205 248 307 363
#     4  11  20  39  67  93 117 161 208 249 295 372
#     4  11  21  38  63  96 122 152 207 257 306 352
#
# _framework density 26.808501
#
# number of rings (size 3 to 8) (size 9 to 14) (size 15 to 20)
#    0.000    1.143    5.714    3.000    2.000    0.000 
#    0.000    0.714    3.143    1.714    0.000    0.000 
#    0.000    0.000    0.000    0.000    0.000    0.000 
#
# Total GULP energy -78417.311813 kJ/mol
# GULP energy per Si atom -5601.236558 kJ/mol
# Density = 2.674748 g / cm^3
# Si number density = 26.808501 Si / 1000 Ang^3
#
#
#
# Elastic Constant Matrix: (Units=GPa)
#
#
# Indices 1 2 3 4 5 6 
#
# 1 157.8435 31.7283 26.9619 -2.2730 -13.2634 -16.1152
# 2 31.7283 142.8821 19.9966 13.4022 0.1920 -0.4043
# 3 26.9619 19.9966 77.1145 -1.4880 -22.8974 9.4858
# 4 -2.2730 13.4022 -1.4880 41.9581 19.1767 -1.2199
# 5 -13.2634 0.1920 -22.8974 19.1767 36.9444 12.3097
# 6 -16.1152 -0.4043 9.4858 -1.2199 12.3097 49.5777
#
#
#
# Elastic Compliance Matrix: (Units=1/GPa)
#
#
# Indices 1 2 3 4 5 6 
#
# 1 0.007358 -0.001340 -0.002804 0.001151 -0.000728 0.003126
# 2 -0.001340 0.007763 -0.001650 -0.002513 -0.000218 -0.000064
# 3 -0.002804 -0.001650 0.021390 -0.008278 0.019946 -0.010174
# 4 0.001151 -0.002513 -0.008278 0.037095 -0.027156 0.009593
# 5 -0.000728 -0.000218 0.019946 -0.027156 0.059785 -0.019567
# 6 0.003126 -0.000064 -0.010174 0.009593 -0.019567 0.028227
#
#
# Mechanical properties :
#
#
# Convention : Reuss Voigt Hill
#
# Bulk Modulus (GPa) = 40.12186 59.46820 49.79503
# Shear Modulus (GPa) = 27.54619 45.63959 36.59289
#
# Velocity S-wave (km/s) = 3.20897 4.13053 3.69856
# Velocity P-wave (km/s) = 5.35990 6.70665 6.07073
#
# Compressibility (1/GPa) = 0.02492407
#
# Stress axis : x y z
#
# Youngs Moduli (GPa) = 135.90278 128.81607 46.75044
#
# Poissons Ratio (x) = 0.17257 0.13108
# Poissons Ratio (y) = 0.18206 0.07714
# Poissons Ratio (z) = 0.38106 0.21255
#
# Static dielectric constant tensor:
#      x y z
#    x 2.067410 0.028030 0.103190 
#    y 0.028030 2.031410 -0.050200 
#    z 0.103190 -0.050200 2.236090 
# 
# From -- ./inp_files/158775.got.cif
#   From: 2010.05.17/outbox.cif.g08.bks.cpg/sg2_80_cif.got.tgz:158775.got - 2010.06.03 11:33:40.
