data_PCOD9090192
_publ_section_title
;
Structure prediction by ZEFSAII (Michael W. Deem and Ramdas Pophale) SiO2 
 PCOD9090192
Probable space group: P -1
;
_chemical_formula_sum "Si O2"
_cell_formula_units_Z 14
_cell_length_a 12.031849
_cell_length_b 22.159073
_cell_length_c 14.627712
_cell_angle_alpha 159.861747
_cell_angle_beta 29.923795
_cell_angle_gamma 151.672956
_cell_volume 617.477239
_symmetry_space_group_name_H-M "P -1"
_symmetry_group_IT_number 2
_symmetry_cell_setting 'triclinic'
loop_
_space_group_symop_operation_xyz
x,y,z
-x,-y,-z
loop_
_atom_site_type_symbol
_atom_site_label
_atom_site_fract_x
_atom_site_fract_y
_atom_site_fract_z
Si Si1 0.295349 0.456295 0.246723
Si Si2 0.736356 0.378217 0.224487
Si Si3 0.247182 0.832431 0.439164
Si Si4 0.213208 0.456111 0.887426
Si Si5 0.108675 0.745602 0.872211
Si Si6 0.215441 0.156747 0.309964
Si Si7 0.936496 0.770794 0.726874
O O1 0.578739 0.518576 0.149935
O O2 0.236043 0.643016 0.568828
O O3 0.148639 0.307101 0.220978
O O4 0.174175 0.356010 0.096880
O O5 0.817064 0.298411 0.144257
O O6 0.467741 0.237723 0.191441
O O7 0.748483 0.589346 0.543824
O O8 0.940542 0.390204 0.023812
O O9 0.025020 0.879839 0.628326
O O10 0.175652 0.762343 0.495411
O O11 0.500000 0.000000 0.500000
O O12 0.270265 0.673415 0.130258
O O13 0.236255 0.319645 0.599608
O O14 0.192991 0.966311 0.106382
O O15 0.000000 0.000000 0.000000
#
# Coordination Sequence:
#
# PCOD9090192 Si02
#       7
#     2   2   2   2   2   2   2
#     4  10  21  42  67  94 128 169 215 266 311 380
#     4  10  24  40  64  98 128 170 217 256 323 379
#     4  11  25  42  65  94 128 167 218 263 320 387
#     4  11  23  42  64  95 131 164 216 266 314 381
#     4  10  21  41  68  91 127 177 210 257 325 372
#     4  12  23  44  65  91 137 167 205 274 321 376
#     4  10  19  38  64  90 125 167 207 258 314 371
#
# _framework density 22.672899999999998
#
# number of rings (size 3 to 8) (size 9 to 14) (size 15 to 20)
#    0.000    1.429    2.857    3.429    0.000    3.429 
#    7.714    1.429    0.000    0.000    0.000    0.000 
#    0.000    0.000    0.000    0.000    0.000    0.000 
#
# Total GULP energy -78093.783283 kJ/mol
# GULP energy per Si atom -5578.127377 kJ/mol
# Density = 2.262130 g / cm^3
# Si number density = 22.672900 Si / 1000 Ang^3
#
#
#
# Elastic Constant Matrix: (Units=GPa)
#
#
# Indices 1 2 3 4 5 6 
#
# 1 92.2171 52.9761 17.8690 -8.9108 -27.3139 22.0386
# 2 52.9761 121.9725 56.3090 11.2247 -1.4374 33.2799
# 3 17.8690 56.3090 131.7581 17.0344 0.0401 3.0515
# 4 -8.9108 11.2247 17.0344 31.2226 0.7071 -9.6619
# 5 -27.3139 -1.4374 0.0401 0.7071 27.0902 -2.6502
# 6 22.0386 33.2799 3.0515 -9.6619 -2.6502 32.9402
#
#
#
# Elastic Compliance Matrix: (Units=1/GPa)
#
#
# Indices 1 2 3 4 5 6 
#
# 1 0.026794 -0.012551 0.000230 0.011507 0.026068 0.000205
# 2 -0.012551 0.022690 -0.005698 -0.014289 -0.012951 -0.019232
# 3 0.000230 -0.005698 0.010184 -0.002199 0.000367 0.004044
# 4 0.011507 -0.014289 -0.002199 0.048198 0.011743 0.022023
# 5 0.026068 -0.012951 0.000367 0.011743 0.062603 0.004091
# 6 0.000205 -0.019232 0.004044 0.022023 0.004091 0.056065
#
#
# Mechanical properties :
#
#
# Convention : Reuss Voigt Hill
#
# Bulk Modulus (GPa) = 42.32065 66.69510 54.50787
# Shear Modulus (GPa) = 18.48771 32.83684 25.66228
#
# Velocity S-wave (km/s) = 2.85864 3.80976 3.36794
# Velocity P-wave (km/s) = 5.44077 6.98802 6.26237
#
# Compressibility (1/GPa) = 0.02362913
#
# Stress axis : x y z
#
# Youngs Moduli (GPa) = 37.32216 44.07184 98.19092
#
# Poissons Ratio (x) = 0.55315 -0.02257
# Poissons Ratio (y) = 0.46844 0.55951
# Poissons Ratio (z) = -0.00858 0.25113
#
# Static dielectric constant tensor:
#      x y z
#    x 1.942470 -0.012350 0.002630 
#    y -0.012350 1.859840 0.013750 
#    z 0.002630 0.013750 1.864830 
# 
# From -- ./inp_files/524129.got.cif
#   From: 2010.05.17/outbox.cif.g08.bks.cpg/sg2_263_cif.got.tgz:524129.got - 2010.06.03 11:33:40.
