data_PCOD9090658
_publ_section_title
;
Structure prediction by ZEFSAII (Michael W. Deem and Ramdas Pophale) SiO2 
 PCOD9090658
Probable space group: P -1
;
_chemical_formula_sum "Si O2"
_cell_formula_units_Z 16
_cell_length_a 8.053454
_cell_length_b 21.146214
_cell_length_c 17.637038
_cell_angle_alpha 27.346399
_cell_angle_beta 150.767975
_cell_angle_gamma 144.319059
_cell_volume 664.496283
_symmetry_space_group_name_H-M "P -1"
_symmetry_group_IT_number 2
_symmetry_cell_setting 'triclinic'
loop_
_space_group_symop_operation_xyz
x,y,z
-x,-y,-z
loop_
_atom_site_type_symbol
_atom_site_label
_atom_site_fract_x
_atom_site_fract_y
_atom_site_fract_z
Si Si1 0.652508 0.943099 0.345019
Si Si2 0.802296 0.633669 0.457434
Si Si3 0.167796 0.414066 0.781317
Si Si4 0.766180 0.823278 0.831583
Si Si5 0.537708 0.938079 0.467959
Si Si6 0.371816 0.773005 0.028875
Si Si7 0.596108 0.725578 0.425006
Si Si8 0.204511 0.517999 0.140591
O O1 0.494063 0.876769 0.431147
O O2 0.562246 0.852951 0.330248
O O3 0.071517 0.972371 0.479542
O O4 0.537489 0.094365 0.130047
O O5 0.500000 0.500000 0.500000
O O6 0.681241 0.707143 0.257226
O O7 0.805394 0.741472 0.412633
O O8 0.125318 0.558663 0.650536
O O9 0.402942 0.438359 0.776293
O O10 0.791156 0.341375 0.681527
O O11 0.325208 0.316059 0.007594
O O12 0.563154 0.838756 0.655920
O O13 0.707908 0.953216 0.721649
O O14 0.155517 0.823371 0.958417
O O15 0.127594 0.646540 0.023579
O O16 0.793381 0.620522 0.662995
O O17 0.000000 0.500000 0.000000
#
# Coordination Sequence:
#
# PCOD9090658 Si02
#       8
#     2   2   2   2   2   2   2   2
#     4  10  23  40  68  96 137 175 216 274 335 395
#     4  10  19  42  67  93 133 178 215 272 327 391
#     4  11  22  44  71  93 137 177 219 278 331 386
#     4  10  19  38  69  88 127 183 218 260 335 393
#     4   9  21  40  61  96 140 176 213 272 336 389
#     4  11  21  43  69  93 136 179 214 275 335 384
#     4  11  23  43  67  99 134 174 222 272 328 401
#     4  12  27  42  69  99 131 177 228 273 333 397
#
# _framework density 24.078388
#
# number of rings (size 3 to 8) (size 9 to 14) (size 15 to 20)
#    0.000    1.500    5.000    1.125    7.000    0.500 
#    2.250    5.000    0.000    0.000    0.000    0.000 
#    0.000    0.000    0.000    0.000    0.000    0.000 
#
# Total GULP energy -89474.408396 kJ/mol
# GULP energy per Si atom -5592.150525 kJ/mol
# Density = 2.402358 g / cm^3
# Si number density = 24.078388 Si / 1000 Ang^3
#
#
#
# Elastic Constant Matrix: (Units=GPa)
#
#
# Indices 1 2 3 4 5 6 
#
# 1 81.4027 6.9019 22.9790 1.1095 -0.7348 -25.0756
# 2 6.9019 63.0032 30.3987 0.7075 -1.6771 -14.6072
# 3 22.9790 30.3987 134.0361 -21.0094 -10.4344 -18.1435
# 4 1.1095 0.7075 -21.0094 30.1215 -1.5280 0.1963
# 5 -0.7348 -1.6771 -10.4344 -1.5280 42.0624 2.9476
# 6 -25.0756 -14.6072 -18.1435 0.1963 2.9476 26.3807
#
#
#
# Elastic Compliance Matrix: (Units=1/GPa)
#
#
# Indices 1 2 3 4 5 6 
#
# 1 0.018013 0.002996 -0.001819 -0.002186 -0.001336 0.017695
# 2 0.002996 0.020213 -0.004232 -0.003667 -0.001115 0.011281
# 3 -0.001819 -0.004232 0.010497 0.007595 0.002482 0.002813
# 4 -0.002186 -0.003667 0.007595 0.038816 0.003076 0.000483
# 5 -0.001336 -0.001115 0.002482 0.003076 0.024641 -0.002957
# 6 0.017695 0.011281 0.002813 0.000483 -0.002957 0.063234
#
#
# Mechanical properties :
#
#
# Convention : Reuss Voigt Hill
#
# Bulk Modulus (GPa) = 23.46782 44.33346 33.90064
# Shear Modulus (GPa) = 25.54563 34.25710 29.90136
#
# Velocity S-wave (km/s) = 3.26073 3.77600 3.52779
# Velocity P-wave (km/s) = 4.89327 6.12071 5.54108
#
# Compressibility (1/GPa) = 0.04261153
#
# Stress axis : x y z
#
# Youngs Moduli (GPa) = 55.51685 49.47298 95.26554
#
# Poissons Ratio (x) = -0.14821 0.17328
# Poissons Ratio (y) = -0.16632 0.40321
# Poissons Ratio (z) = 0.10098 0.20939
#
# Static dielectric constant tensor:
#      x y z
#    x 1.937280 0.024620 0.011790 
#    y 0.024620 1.990400 0.000740 
#    z 0.011790 0.000740 1.925110 
# 
# From -- ./inp_files/562654.got.cif
#   From: 2010.05.17/outbox.cif.g08.bks.cpg/sg2_282_cif.got.tgz:562654.got - 2010.06.03 11:33:40.
