data_PCOD9090281
_publ_section_title
;
Structure prediction by ZEFSAII (Michael W. Deem and Ramdas Pophale) SiO2 
 PCOD9090281
Probable space group: P -1
;
_chemical_formula_sum "Si O2"
_cell_formula_units_Z 16
_cell_length_a 12.261267
_cell_length_b 11.132751
_cell_length_c 5.270982
_cell_angle_alpha 100.818478
_cell_angle_beta 119.230766
_cell_angle_gamma 74.383636
_cell_volume 603.343665
_symmetry_space_group_name_H-M "P -1"
_symmetry_group_IT_number 2
_symmetry_cell_setting 'triclinic'
loop_
_space_group_symop_operation_xyz
x,y,z
-x,-y,-z
loop_
_atom_site_type_symbol
_atom_site_label
_atom_site_fract_x
_atom_site_fract_y
_atom_site_fract_z
Si Si1 0.087929 0.859493 0.866337
Si Si2 0.894702 0.350046 0.793478
Si Si3 0.809383 0.944337 0.626543
Si Si4 0.330855 0.240713 0.319502
Si Si5 0.348805 0.706616 0.008539
Si Si6 0.304232 0.476122 0.653507
Si Si7 0.412180 0.835264 0.646390
Si Si8 0.118261 0.409605 0.797661
O O1 0.198864 0.770277 0.800780
O O2 0.943410 0.896741 0.615801
O O3 0.083503 0.780646 0.090694
O O4 0.142600 0.980666 0.054738
O O5 0.753099 0.418469 0.574601
O O6 0.995774 0.351328 0.684400
O O7 0.919240 0.451789 0.070137
O O8 0.744909 0.835319 0.615480
O O9 0.696639 0.040296 0.396571
O O10 0.383011 0.351341 0.569190
O O11 0.447379 0.149826 0.275491
O O12 0.231262 0.319719 0.042580
O O13 0.362861 0.556773 0.956578
O O14 0.423765 0.756582 0.885579
O O15 0.367668 0.763671 0.325948
O O16 0.182475 0.429355 0.612906
#
# Coordination Sequence:
#
# PCOD9090281 Si02
#       8
#     2   2   2   2   2   2   2   2
#     4  10  20  42  75 102 140 179 232 298 356 419
#     4  10  19  38  65 100 143 175 220 287 358 422
#     4  10  22  45  70 102 138 187 238 291 351 413
#     4  11  25  44  66 101 141 192 236 283 348 424
#     4  11  25  47  74 106 138 184 236 296 360 414
#     4  11  23  38  68 104 139 182 230 293 360 424
#     4  11  27  49  73  98 144 192 242 291 339 416
#     4  10  21  37  64 100 142 177 224 281 355 423
#
# _framework density 26.518885000000001
#
# number of rings (size 3 to 8) (size 9 to 14) (size 15 to 20)
#    0.000    1.500    2.500    2.250    3.500    2.500 
#    4.500    4.375    0.000    0.000    0.000    0.000 
#    0.000    0.000    0.000    0.000    0.000    0.000 
#
# Total GULP energy -89576.487800 kJ/mol
# GULP energy per Si atom -5598.530487 kJ/mol
# Density = 2.645853 g / cm^3
# Si number density = 26.518885 Si / 1000 Ang^3
#
#
#
# Elastic Constant Matrix: (Units=GPa)
#
#
# Indices 1 2 3 4 5 6 
#
# 1 81.0812 25.0495 -1.2725 -0.4418 3.1808 -14.6952
# 2 25.0495 136.0801 33.9702 -4.1741 7.1518 -4.3236
# 3 -1.2725 33.9702 71.6584 -19.4134 2.3838 4.2166
# 4 -0.4418 -4.1741 -19.4134 38.6203 -5.7528 6.1819
# 5 3.1808 7.1518 2.3838 -5.7528 33.8210 -3.1836
# 6 -14.6952 -4.3236 4.2166 6.1819 -3.1836 48.1355
#
#
#
# Elastic Compliance Matrix: (Units=1/GPa)
#
#
# Indices 1 2 3 4 5 6 
#
# 1 0.013922 -0.002740 0.001283 -0.000186 -0.000486 0.003883
# 2 -0.002740 0.009103 -0.004829 -0.001796 -0.001582 0.000530
# 3 0.001283 -0.004829 0.019022 0.009655 0.000930 -0.002887
# 4 -0.000186 -0.001796 0.009655 0.032030 0.004707 -0.004866
# 5 -0.000486 -0.001582 0.000930 0.004707 0.030783 0.001059
# 6 0.003883 0.000530 -0.002887 -0.004866 0.001059 0.022956
#
#
# Mechanical properties :
#
#
# Convention : Reuss Voigt Hill
#
# Bulk Modulus (GPa) = 33.92608 44.92378 39.42493
# Shear Modulus (GPa) = 33.28624 39.52020 36.40322
#
# Velocity S-wave (km/s) = 3.54671 3.86458 3.70905
# Velocity P-wave (km/s) = 5.43996 6.07375 5.76557
#
# Compressibility (1/GPa) = 0.02947585
#
# Stress axis : x y z
#
# Youngs Moduli (GPa) = 71.82977 109.84877 52.57111
#
# Poissons Ratio (x) = 0.30097 -0.06747
# Poissons Ratio (y) = 0.19680 0.25388
# Poissons Ratio (z) = -0.09219 0.53048
#
# Static dielectric constant tensor:
#      x y z
#    x 2.076840 -0.038660 0.083940 
#    y -0.038660 2.040350 0.011150 
#    z 0.083940 0.011150 2.102720 
# 
# From -- ./inp_files/71413.got.cif
#   From: 2010.05.17/outbox.cif.g08.bks.cpg/sg2_36_cif.got.tgz:71413.got - 2010.06.03 11:33:40.
