data_PCOD9090575
_publ_section_title
;
Structure prediction by ZEFSAII (Michael W. Deem and Ramdas Pophale) SiO2 
 PCOD9090575
Probable space group: P -1
;
_chemical_formula_sum "Si O2"
_cell_formula_units_Z 16
_cell_length_a 12.358497
_cell_length_b 18.081495
_cell_length_c 9.387455
_cell_angle_alpha 28.089120
_cell_angle_beta 120.551437
_cell_angle_gamma 130.581110
_cell_volume 737.417936
_symmetry_space_group_name_H-M "P -1"
_symmetry_group_IT_number 2
_symmetry_cell_setting 'triclinic'
loop_
_space_group_symop_operation_xyz
x,y,z
-x,-y,-z
loop_
_atom_site_type_symbol
_atom_site_label
_atom_site_fract_x
_atom_site_fract_y
_atom_site_fract_z
Si Si1 0.211313 0.097053 0.468336
Si Si2 0.175868 0.076841 0.805307
Si Si3 0.169020 0.448296 0.836189
Si Si4 0.517857 0.560318 0.570547
Si Si5 0.784450 0.457400 0.602885
Si Si6 0.894634 0.252266 0.176035
Si Si7 0.474330 0.648806 0.811218
Si Si8 0.012193 0.768796 0.432856
O O1 0.158476 0.025402 0.714440
O O2 0.382343 0.167930 0.444076
O O3 0.133428 0.943474 0.559548
O O4 0.187354 0.269162 0.139386
O O5 0.338626 0.246379 0.639170
O O6 0.068341 0.146457 0.671398
O O7 0.132850 0.909940 0.165730
O O8 0.141225 0.498572 0.576347
O O9 0.319159 0.610967 0.721219
O O10 0.042214 0.396906 0.950843
O O11 0.500000 0.500000 0.500000
O O12 0.370267 0.561196 0.503060
O O13 0.529702 0.410891 0.927508
O O14 0.884408 0.616818 0.509256
O O15 0.772563 0.282633 0.968501
O O16 0.911413 0.282790 0.303708
O O17 0.500000 0.500000 0.000000
#
# Coordination Sequence:
#
# PCOD9090575 Si02
#       8
#     2   2   2   2   2   2   2   2
#     4  11  21  40  67  95 123 160 216 261 304 365
#     4  11  22  39  67  98 117 160 218 265 304 358
#     4  11  21  41  68  94 124 165 214 256 310 369
#     4  12  22  39  67  95 123 162 211 257 314 369
#     4  12  25  43  63  94 131 167 206 257 319 381
#     4  12  26  41  62  94 133 170 203 256 321 372
#     4  10  19  38  67  94 118 155 215 266 296 361
#     4  11  25  40  61  92 131 164 208 262 309 373
#
# _framework density 21.697329
#
# number of rings (size 3 to 8) (size 9 to 14) (size 15 to 20)
#    0.000    0.750    7.500    1.875    5.250    0.000 
#    0.000    4.375    0.000    0.000    0.000    0.000 
#    0.000    0.000    0.000    0.000    0.000    0.000 
#
# Total GULP energy -89409.490745 kJ/mol
# GULP energy per Si atom -5588.093172 kJ/mol
# Density = 2.164795 g / cm^3
# Si number density = 21.697329 Si / 1000 Ang^3
#
#
#
# Elastic Constant Matrix: (Units=GPa)
#
#
# Indices 1 2 3 4 5 6 
#
# 1 56.2144 31.8460 23.1881 -2.1728 -20.0849 12.8442
# 2 31.8460 114.6261 40.0112 21.4196 -18.3375 -3.4219
# 3 23.1881 40.0112 92.6624 26.0354 -20.9663 -4.6435
# 4 -2.1728 21.4196 26.0354 38.7583 1.4558 -10.3226
# 5 -20.0849 -18.3375 -20.9663 1.4558 31.5183 1.8579
# 6 12.8442 -3.4219 -4.6435 -10.3226 1.8579 28.6226
#
#
#
# Elastic Compliance Matrix: (Units=1/GPa)
#
#
# Indices 1 2 3 4 5 6 
#
# 1 0.031783 -0.006199 -0.003407 0.002789 0.015167 -0.015535
# 2 -0.006199 0.012533 -0.001575 -0.005840 0.002460 0.001759
# 3 -0.003407 -0.001575 0.017674 -0.011704 0.009247 -0.000613
# 4 0.002789 -0.005840 -0.011704 0.040575 -0.011962 0.011561
# 5 0.015167 0.002460 0.009247 -0.011962 0.050270 -0.012589
# 6 -0.015535 0.001759 -0.000613 0.011561 -0.012589 0.047006
#
#
# Mechanical properties :
#
#
# Convention : Reuss Voigt Hill
#
# Bulk Modulus (GPa) = 25.23462 50.39927 37.81695
# Shear Modulus (GPa) = 21.23932 31.01036 26.12484
#
# Velocity S-wave (km/s) = 3.13212 3.78461 3.47372
# Velocity P-wave (km/s) = 4.97351 6.50972 5.79276
#
# Compressibility (1/GPa) = 0.03962809
#
# Stress axis : x y z
#
# Youngs Moduli (GPa) = 31.46368 79.78661 56.57924
#
# Poissons Ratio (x) = 0.49463 0.19276
# Poissons Ratio (y) = 0.19506 0.08911
# Poissons Ratio (z) = 0.10719 0.12566
#
# Static dielectric constant tensor:
#      x y z
#    x 1.815630 0.030240 0.062550 
#    y 0.030240 1.777430 0.010990 
#    z 0.062550 0.010990 1.765600 
# 
# From -- ./inp_files/278696.got.cif
#   From: 2010.05.17/outbox.cif.g08.bks.cpg/sg2_140_cif.got.tgz:278696.got - 2010.06.03 11:33:40.
