data_PCOD9090429
_publ_section_title
;
Structure prediction by ZEFSAII (Michael W. Deem and Ramdas Pophale) SiO2 
 PCOD9090429
Probable space group: P -1
;
_chemical_formula_sum "Si O2"
_cell_formula_units_Z 14
_cell_length_a 9.702680
_cell_length_b 12.150300
_cell_length_c 11.715065
_cell_angle_alpha 36.236425
_cell_angle_beta 140.063747
_cell_angle_gamma 126.694691
_cell_volume 523.273723
_symmetry_space_group_name_H-M "P -1"
_symmetry_group_IT_number 2
_symmetry_cell_setting 'triclinic'
loop_
_space_group_symop_operation_xyz
x,y,z
-x,-y,-z
loop_
_atom_site_type_symbol
_atom_site_label
_atom_site_fract_x
_atom_site_fract_y
_atom_site_fract_z
Si Si1 0.736197 0.622238 0.710198
Si Si2 0.185734 0.402065 0.961193
Si Si3 0.602479 0.259218 0.214755
Si Si4 0.454152 0.738876 0.087303
Si Si5 0.996216 0.977581 0.859265
Si Si6 0.377360 0.908128 0.316611
Si Si7 0.812122 0.879675 0.350785
O O1 0.841925 0.604397 0.915894
O O2 0.683725 0.416529 0.809823
O O3 0.501938 0.728317 0.494573
O O4 0.866045 0.751229 0.600977
O O5 0.425557 0.327219 0.138567
O O6 0.042388 0.240180 0.958854
O O7 0.189655 0.615882 0.742889
O O8 0.563037 0.039632 0.366626
O O9 0.529208 0.316539 0.989322
O O10 0.669250 0.754290 0.283676
O O11 0.333558 0.942352 0.846294
O O12 0.799511 0.100156 0.688362
O O13 0.016793 0.028132 0.698283
O O14 0.224402 0.006144 0.040307
#
# Coordination Sequence:
#
# PCOD9090429 Si02
#       7
#     2   2   2   2   2   2   2
#     4  11  22  38  65  92 116 162 211 241 287 381
#     4   9  21  35  62  90 125 151 205 250 302 352
#     4   9  16  37  61  85 111 165 200 238 286 364
#     4  10  20  37  64  89 117 162 213 241 283 371
#     4  10  21  36  61  92 125 158 192 258 311 344
#     4  10  19  38  66  87 118 162 208 245 297 351
#     4  11  20  37  62  88 124 163 194 250 304 352
#
# _framework density 26.754639999999998
#
# number of rings (size 3 to 8) (size 9 to 14) (size 15 to 20)
#    0.000    2.000    2.857    1.286    0.000    2.857 
#    0.000    3.571   22.000    0.000    0.000    0.000 
#    0.000    0.000    0.000    0.000    0.000    0.000 
#
# Total GULP energy -78331.013698 kJ/mol
# GULP energy per Si atom -5595.072407 kJ/mol
# Density = 2.669375 g / cm^3
# Si number density = 26.754640 Si / 1000 Ang^3
#
#
#
# Elastic Constant Matrix: (Units=GPa)
#
#
# Indices 1 2 3 4 5 6 
#
# 1 148.5332 33.8587 40.4459 5.8639 -19.0363 11.1152
# 2 33.8587 126.9307 26.6077 -20.9951 -1.6270 15.3789
# 3 40.4459 26.6077 97.4979 -16.7318 -11.9706 9.0732
# 4 5.8639 -20.9951 -16.7318 37.9134 9.2716 -6.3764
# 5 -19.0363 -1.6270 -11.9706 9.2716 52.2992 2.6476
# 6 11.1152 15.3789 9.0732 -6.3764 2.6476 38.8187
#
#
#
# Elastic Compliance Matrix: (Units=1/GPa)
#
#
# Indices 1 2 3 4 5 6 
#
# 1 0.008984 -0.002280 -0.003411 -0.005339 0.003466 -0.001986
# 2 -0.002280 0.009782 -0.000790 0.005463 -0.001572 -0.002033
# 3 -0.003411 -0.000790 0.013009 0.005488 0.000784 -0.000903
# 4 -0.005339 0.005463 0.005488 0.035075 -0.006954 0.004318
# 5 0.003466 -0.001572 0.000784 -0.006954 0.021907 -0.003189
# 6 -0.001986 -0.002033 -0.000903 0.004318 -0.003189 0.028273
#
#
# Mechanical properties :
#
#
# Convention : Reuss Voigt Hill
#
# Bulk Modulus (GPa) = 53.15072 63.86517 58.50795
# Shear Modulus (GPa) = 36.69362 43.94288 40.31825
#
# Velocity S-wave (km/s) = 3.70738 4.05710 3.88617
# Velocity P-wave (km/s) = 6.18347 6.77268 6.48477
#
# Compressibility (1/GPa) = 0.01881442
#
# Stress axis : x y z
#
# Youngs Moduli (GPa) = 111.30341 102.22974 76.86816
#
# Poissons Ratio (x) = 0.23305 0.26219
# Poissons Ratio (y) = 0.25373 0.06073
# Poissons Ratio (z) = 0.37964 0.08077
#
# Static dielectric constant tensor:
#      x y z
#    x 2.123380 -0.001870 0.001710 
#    y -0.001870 2.065210 -0.008070 
#    z 0.001710 -0.008070 2.149160 
# 
# From -- ./inp_files/388936.got.cif
#   From: 2010.05.17/outbox.cif.g08.bks.cpg/sg2_195_cif.got.tgz:388936.got - 2010.06.03 11:33:40.
