data_PCOD9090659
_publ_section_title
;
Structure prediction by ZEFSAII (Michael W. Deem and Ramdas Pophale) SiO2 
 PCOD9090659
Probable space group: P -1
;
_chemical_formula_sum "Si O2"
_cell_formula_units_Z 16
_cell_length_a 7.926075
_cell_length_b 8.113752
_cell_length_c 12.150800
_cell_angle_alpha 111.121760
_cell_angle_beta 78.502350
_cell_angle_gamma 105.698496
_cell_volume 697.206764
_symmetry_space_group_name_H-M "P -1"
_symmetry_group_IT_number 2
_symmetry_cell_setting 'triclinic'
loop_
_space_group_symop_operation_xyz
x,y,z
-x,-y,-z
loop_
_atom_site_type_symbol
_atom_site_label
_atom_site_fract_x
_atom_site_fract_y
_atom_site_fract_z
Si Si1 0.050262 0.556559 0.822647
Si Si2 0.151254 0.675687 0.486898
Si Si3 0.642064 0.785930 0.064657
Si Si4 0.635810 0.595625 0.597819
Si Si5 0.251864 0.606390 0.022168
Si Si6 0.805846 0.812871 0.818958
Si Si7 0.844828 0.006875 0.284412
Si Si8 0.129304 0.263949 0.596689
O O1 0.931863 0.674564 0.804483
O O2 0.181803 0.653163 0.923628
O O3 0.155480 0.458038 0.700171
O O4 0.907928 0.409359 0.874704
O O5 0.304661 0.582473 0.406802
O O6 0.000000 0.500000 0.500000
O O7 0.074622 0.777101 0.423577
O O8 0.191077 0.807801 0.616565
O O9 0.705784 0.596937 0.036447
O O10 0.717075 0.926272 0.183326
O O11 0.431696 0.735702 0.068522
O O12 0.725827 0.859335 0.954684
O O13 0.500000 0.500000 0.500000
O O14 0.647988 0.718417 0.734807
O O15 0.773110 0.724249 0.529246
O O16 0.952669 0.964297 0.776659
O O17 0.818749 0.869574 0.355979
#
# Coordination Sequence:
#
# PCOD9090659 Si02
#       8
#     2   2   2   2   2   2   2   2
#     4  10  19  38  69  89 122 170 214 253 305 392
#     4  10  20  42  64  89 120 167 213 256 310 382
#     4  10  22  38  63  96 129 162 205 271 315 369
#     4  11  24  41  66  96 124 167 214 259 316 375
#     4   9  20  39  62  96 122 166 214 253 319 371
#     4  11  22  40  63  90 132 169 211 252 314 384
#     4  12  22  40  66  94 129 166 215 261 318 370
#     4  11  21  38  67  95 122 166 212 263 307 376
#
# _framework density 22.948716999999998
#
# number of rings (size 3 to 8) (size 9 to 14) (size 15 to 20)
#    0.000    1.500    5.000    1.500    1.750    1.000 
#    0.000    2.500    0.000    0.000    0.000    0.000 
#    0.000    0.000    0.000    0.000    0.000    0.000 
#
# Total GULP energy -89296.480748 kJ/mol
# GULP energy per Si atom -5581.030047 kJ/mol
# Density = 2.289648 g / cm^3
# Si number density = 22.948717 Si / 1000 Ang^3
#
#
#
# Elastic Constant Matrix: (Units=GPa)
#
#
# Indices 1 2 3 4 5 6 
#
# 1 42.0342 4.1576 18.0490 9.5989 32.1843 10.4971
# 2 4.1576 53.6159 37.7962 7.0832 5.1451 0.8662
# 3 18.0490 37.7962 160.1929 11.4179 37.2888 2.3401
# 4 9.5989 7.0832 11.4179 34.3784 8.0661 11.4633
# 5 32.1843 5.1451 37.2888 8.0661 37.4169 6.1553
# 6 10.4971 0.8662 2.3401 11.4633 6.1553 16.1255
#
#
#
# Elastic Compliance Matrix: (Units=1/GPa)
#
#
# Indices 1 2 3 4 5 6 
#
# 1 0.090892 -0.006628 0.011152 0.001887 -0.083897 -0.029747
# 2 -0.006628 0.023517 -0.006787 -0.004081 0.009570 0.003284
# 3 0.011152 -0.006787 0.011201 -0.000645 -0.019587 -0.000586
# 4 0.001887 -0.004081 -0.000645 0.039848 -0.004480 -0.027533
# 5 -0.083897 0.009570 -0.019587 -0.004480 0.115416 0.016072
# 6 -0.029747 0.003284 -0.000586 -0.027533 0.016072 0.094724
#
#
# Mechanical properties :
#
#
# Convention : Reuss Voigt Hill
#
# Bulk Modulus (GPa) = 8.25859 41.76097 25.00978
# Shear Modulus (GPa) = 11.89103 30.64015 21.26559
#
# Velocity S-wave (km/s) = 2.27877 3.65795 3.04741
# Velocity P-wave (km/s) = 3.24504 6.00648 4.82742
#
# Compressibility (1/GPa) = 0.12108607
#
# Stress axis : x y z
#
# Youngs Moduli (GPa) = 11.00203 42.52226 89.27785
#
# Poissons Ratio (x) = 0.28182 -0.99563
# Poissons Ratio (y) = 0.07292 0.60590
# Poissons Ratio (z) = -0.12269 0.28858
#
# Static dielectric constant tensor:
#      x y z
#    x 1.960030 0.035160 0.013640 
#    y 0.035160 1.919430 0.017790 
#    z 0.013640 0.017790 1.856000 
# 
# From -- ./inp_files/351702.got.cif
#   From: 2010.05.17/outbox.cif.g08.bks.cpg/sg2_176_cif.got.tgz:351702.got - 2010.06.03 11:33:40.
