data_PCOD9090897
_publ_section_title
;
Structure prediction by ZEFSAII (Michael W. Deem and Ramdas Pophale) SiO2 
 PCOD9090897
Probable space group: P -1
;
_chemical_formula_sum "Si O2"
_cell_formula_units_Z 14
_cell_length_a 8.698362
_cell_length_b 19.377667
_cell_length_c 21.855134
_cell_angle_alpha 158.349446
_cell_angle_beta 30.772528
_cell_angle_gamma 150.123275
_cell_volume 647.946781
_symmetry_space_group_name_H-M "P -1"
_symmetry_group_IT_number 2
_symmetry_cell_setting 'triclinic'
loop_
_space_group_symop_operation_xyz
x,y,z
-x,-y,-z
loop_
_atom_site_type_symbol
_atom_site_label
_atom_site_fract_x
_atom_site_fract_y
_atom_site_fract_z
Si Si1 0.256577 0.697095 0.044509
Si Si2 0.001824 0.965287 0.544383
Si Si3 0.218131 0.570071 0.677150
Si Si4 0.309105 0.758730 0.465339
Si Si5 0.018547 0.128328 0.039455
Si Si6 0.740891 0.772390 0.752591
Si Si7 0.454689 0.458106 0.683171
O O1 0.147699 0.887957 0.248377
O O2 0.603434 0.760788 0.011410
O O3 0.308231 0.616041 0.893118
O O4 0.000000 0.500000 0.000000
O O5 0.379750 0.051250 0.502733
O O6 0.000000 0.000000 0.500000
O O7 0.790584 0.728904 0.425504
O O8 0.500000 0.500000 0.500000
O O9 0.382902 0.695610 0.783521
O O10 0.876239 0.387981 0.647273
O O11 0.154275 0.713037 0.765913
O O12 0.428839 0.637370 0.376650
O O13 0.023172 0.807845 0.636052
O O14 0.000000 0.000000 0.000000
O O15 0.836313 0.975609 0.924009
O O16 0.731101 0.595583 0.657183
#
# Coordination Sequence:
#
# PCOD9090897 Si02
#       7
#     2   2   2   2   2   2   2
#     4  12  21  36  62  92 123 159 210 265 310 368
#     4  10  20  35  60  92 121 161 210 262 315 363
#     4  10  22  39  61  88 130 168 197 256 321 374
#     4  10  19  39  61  87 119 169 209 252 313 371
#     4  12  22  40  64  94 120 159 217 258 306 369
#     4  11  23  37  60  90 126 159 207 258 313 372
#     4  11  21  38  59  93 126 157 212 263 311 365
#
# _framework density 21.606712999999999
#
# number of rings (size 3 to 8) (size 9 to 14) (size 15 to 20)
#    0.000    1.143    5.714    2.571    0.000    3.429 
#    0.000    0.714    0.000    6.857    0.000    0.000 
#    0.000    0.000    0.000    0.000    0.000    0.000 
#
# Total GULP energy -78074.163175 kJ/mol
# GULP energy per Si atom -5576.725941 kJ/mol
# Density = 2.155753 g / cm^3
# Si number density = 21.606713 Si / 1000 Ang^3
#
#
#
# Elastic Constant Matrix: (Units=GPa)
#
#
# Indices 1 2 3 4 5 6 
#
# 1 73.4142 30.6140 26.6843 8.9040 12.1077 37.4789
# 2 30.6140 108.9179 45.3837 18.7598 7.0042 49.7726
# 3 26.6843 45.3837 115.6955 14.5704 18.9528 18.5450
# 4 8.9040 18.7598 14.5704 28.9434 9.6300 11.9613
# 5 12.1077 7.0042 18.9528 9.6300 31.4665 13.2768
# 6 37.4789 49.7726 18.5450 11.9613 13.2768 43.9501
#
#
#
# Elastic Compliance Matrix: (Units=1/GPa)
#
#
# Indices 1 2 3 4 5 6 
#
# 1 0.028287 0.009655 -0.005651 0.000471 0.004659 -0.034207
# 2 0.009655 0.027562 -0.008361 -0.005042 0.012957 -0.038461
# 3 -0.005651 -0.008361 0.012875 -0.001433 -0.008231 0.011732
# 4 0.000471 -0.005042 -0.001433 0.042894 -0.010191 -0.002682
# 5 0.004659 0.012957 -0.008231 -0.010191 0.046315 -0.026392
# 6 -0.034207 -0.038461 0.011732 -0.002682 -0.026392 0.099232
#
#
# Mechanical properties :
#
#
# Convention : Reuss Voigt Hill
#
# Bulk Modulus (GPa) = 16.66402 55.93241 36.29821
# Shear Modulus (GPa) = 17.48965 33.89505 25.69235
#
# Velocity S-wave (km/s) = 2.84818 3.96501 3.45206
# Velocity P-wave (km/s) = 4.30643 6.84869 5.72057
#
# Compressibility (1/GPa) = 0.06000955
#
# Stress axis : x y z
#
# Youngs Moduli (GPa) = 35.35202 36.28142 77.67018
#
# Poissons Ratio (x) = -0.35030 0.43892
# Poissons Ratio (y) = -0.34133 0.64943
# Poissons Ratio (z) = 0.19978 0.30336
#
# Static dielectric constant tensor:
#      x y z
#    x 1.841870 0.071330 0.034750 
#    y 0.071330 1.967650 0.062400 
#    z 0.034750 0.062400 1.867570 
# 
# From -- ./inp_files/237591.got.cif
#   From: 2010.05.17/outbox.cif.g08.bks.cpg/sg2_119_cif.got.tgz:237591.got - 2010.06.03 11:33:40.
