data_PCOD9090687
_publ_section_title
;
Structure prediction by ZEFSAII (Michael W. Deem and Ramdas Pophale) SiO2 
 PCOD9090687
Probable space group: P -1
;
_chemical_formula_sum "Si O2"
_cell_formula_units_Z 14
_cell_length_a 10.663546
_cell_length_b 7.327024
_cell_length_c 8.137618
_cell_angle_alpha 94.850918
_cell_angle_beta 61.515994
_cell_angle_gamma 73.786255
_cell_volume 518.453793
_symmetry_space_group_name_H-M "P -1"
_symmetry_group_IT_number 2
_symmetry_cell_setting 'triclinic'
loop_
_space_group_symop_operation_xyz
x,y,z
-x,-y,-z
loop_
_atom_site_type_symbol
_atom_site_label
_atom_site_fract_x
_atom_site_fract_y
_atom_site_fract_z
Si Si1 0.444215 0.412913 0.870922
Si Si2 0.158609 0.038883 0.120406
Si Si3 0.679688 0.404222 0.510525
Si Si4 0.611590 0.962263 0.775400
Si Si5 0.940826 0.461006 0.209550
Si Si6 0.149960 0.636327 0.242084
Si Si7 0.583154 0.112359 0.337084
O O1 0.500028 0.501257 0.686056
O O2 0.546890 0.185921 0.770259
O O3 0.500000 0.500000 0.000000
O O4 0.270678 0.467681 0.036707
O O5 0.985842 0.773592 0.824265
O O6 0.283486 0.997015 0.890986
O O7 0.223520 0.097606 0.253287
O O8 0.133418 0.839701 0.174768
O O9 0.761144 0.508953 0.345344
O O10 0.780800 0.367136 0.616912
O O11 0.673344 0.214030 0.402066
O O12 0.567836 0.811072 0.682661
O O13 0.500000 0.000000 0.000000
O O14 0.999389 0.583838 0.313753
O O15 0.000000 0.500000 0.000000
O O16 0.500000 0.000000 0.500000
#
# Coordination Sequence:
#
# PCOD9090687 Si02
#       7
#     2   2   2   2   2   2   2
#     4  10  19  41  74 106 144 181 238 301 365 428
#     4  11  24  46  76 104 148 198 246 301 367 439
#     4  11  24  45  74 111 150 193 244 301 371 440
#     4  10  19  38  70 107 144 191 235 297 369 431
#     4  12  29  51  73 104 150 200 250 302 372 442
#     4  11  23  48  80 107 147 196 243 305 374 437
#     4  11  21  39  69 111 153 179 243 300 365 438
#
# _framework density 27.003371999999999
#
# number of rings (size 3 to 8) (size 9 to 14) (size 15 to 20)
#    0.000    1.143    4.286    3.000    0.000    2.857 
#    2.571    4.286    0.000    0.000    0.000    0.000 
#    0.000    0.000    0.000    0.000    0.000    0.000 
#
# Total GULP energy -78095.436071 kJ/mol
# GULP energy per Si atom -5578.245434 kJ/mol
# Density = 2.694191 g / cm^3
# Si number density = 27.003372 Si / 1000 Ang^3
#
#
#
# Elastic Constant Matrix: (Units=GPa)
#
#
# Indices 1 2 3 4 5 6 
#
# 1 131.1550 52.4254 47.3644 6.4039 6.7206 44.9731
# 2 52.4254 108.4585 52.4905 -14.9280 3.9058 11.9767
# 3 47.3644 52.4905 168.2519 -1.1329 4.9228 25.2312
# 4 6.4039 -14.9280 -1.1329 49.1697 4.3987 -3.6556
# 5 6.7206 3.9058 4.9228 4.3987 42.6005 -4.1296
# 6 44.9731 11.9767 25.2312 -3.6556 -4.1296 62.4941
#
#
#
# Elastic Compliance Matrix: (Units=1/GPa)
#
#
# Indices 1 2 3 4 5 6 
#
# 1 0.013385 -0.005662 -0.000677 -0.003946 -0.001944 -0.008633
# 2 -0.005662 0.013859 -0.003133 0.005116 -0.000256 0.002966
# 3 -0.000677 -0.003133 0.007422 -0.000789 -0.000575 -0.001993
# 4 -0.003946 0.005116 -0.000789 0.022798 -0.001781 0.003393
# 5 -0.001944 -0.000256 -0.000575 -0.001781 0.024363 0.003186
# 6 -0.008633 0.002966 -0.001993 0.003393 0.003186 0.022860
#
#
# Mechanical properties :
#
#
# Convention : Reuss Voigt Hill
#
# Bulk Modulus (GPa) = 63.60111 79.15844 71.37977
# Shear Modulus (GPa) = 38.79884 47.89188 43.34536
#
# Velocity S-wave (km/s) = 3.79465 4.21592 4.01082
# Velocity P-wave (km/s) = 6.54242 7.28537 6.92387
#
# Compressibility (1/GPa) = 0.01572300
#
# Stress axis : x y z
#
# Youngs Moduli (GPa) = 74.71215 72.15556 134.74097
#
# Poissons Ratio (x) = 0.40855 0.09116
# Poissons Ratio (y) = 0.42303 0.42208
# Poissons Ratio (z) = 0.05055 0.22603
#
# Static dielectric constant tensor:
#      x y z
#    x 2.296720 -0.362440 0.090170 
#    y -0.362440 3.030290 -0.190260 
#    z 0.090170 -0.190260 2.172670 
# 
# From -- ./inp_files/235029.got.cif
#   From: 2010.05.17/outbox.cif.g08.bks.cpg/sg2_118_cif.got.tgz:235029.got - 2010.06.03 11:33:40.
