data_PCOD9090462
_publ_section_title
;
Structure prediction by ZEFSAII (Michael W. Deem and Ramdas Pophale) SiO2 
 PCOD9090462
Probable space group: P -1
;
_chemical_formula_sum "Si O2"
_cell_formula_units_Z 16
_cell_length_a 15.131414
_cell_length_b 24.349890
_cell_length_c 5.434358
_cell_angle_alpha 56.800840
_cell_angle_beta 58.756364
_cell_angle_gamma 21.654292
_cell_volume 617.941459
_symmetry_space_group_name_H-M "P -1"
_symmetry_group_IT_number 2
_symmetry_cell_setting 'triclinic'
loop_
_space_group_symop_operation_xyz
x,y,z
-x,-y,-z
loop_
_atom_site_type_symbol
_atom_site_label
_atom_site_fract_x
_atom_site_fract_y
_atom_site_fract_z
Si Si1 0.938388 0.335915 0.428250
Si Si2 0.389766 0.093159 0.170718
Si Si3 0.236981 0.821462 0.102863
Si Si4 0.465394 0.614775 0.649142
Si Si5 0.094446 0.386017 0.318094
Si Si6 0.478097 0.839826 0.049092
Si Si7 0.056518 0.809458 0.053519
Si Si8 0.659358 0.615073 0.661457
O O1 0.652374 0.493361 0.460466
O O2 0.106361 0.241008 0.183568
O O3 0.018167 0.359545 0.374956
O O4 0.019171 0.221070 0.709822
O O5 0.500000 0.000000 0.500000
O O6 0.433096 0.145794 0.977347
O O7 0.500000 0.000000 0.000000
O O8 0.290297 0.772844 0.424159
O O9 0.184893 0.781812 0.140205
O O10 0.474666 0.720185 0.898447
O O11 0.000000 0.000000 0.000000
O O12 0.271539 0.675273 0.875124
O O13 0.626123 0.559107 0.754896
O O14 0.943775 0.468266 0.590500
O O15 0.381255 0.231000 0.244589
O O16 0.000000 0.500000 0.000000
O O17 0.560458 0.726846 0.342857
O O18 0.191548 0.009338 0.065097
#
# Coordination Sequence:
#
# PCOD9090462 Si02
#       8
#     2   2   2   2   2   2   2   2
#     4  10  21  41  63  94 127 171 219 270 341 401
#     4  11  24  46  67 101 138 177 224 277 343 409
#     4  11  23  38  59  90 125 167 225 271 338 393
#     4  10  22  41  60  89 129 168 220 275 331 403
#     4   8  17  35  64  85 117 157 210 266 329 402
#     4  10  19  38  66  91 127 166 217 274 333 401
#     4  11  22  38  61  92 125 171 217 269 337 400
#     4   9  19  39  62  89 120 167 212 275 331 399
#
# _framework density 25.892422
#
# number of rings (size 3 to 8) (size 9 to 14) (size 15 to 20)
#    0.000    2.000    1.250    1.875    0.000    4.500 
#   11.250    0.000    0.000    6.750    0.000    0.000 
#    0.000    0.000    0.000    0.000    0.000    0.000 
#
# Total GULP energy -89141.309461 kJ/mol
# GULP energy per Si atom -5571.331841 kJ/mol
# Density = 2.583349 g / cm^3
# Si number density = 25.892422 Si / 1000 Ang^3
#
#
#
# Elastic Constant Matrix: (Units=GPa)
#
#
# Indices 1 2 3 4 5 6 
#
# 1 85.5404 24.9961 40.2881 18.6423 -31.3341 2.6779
# 2 24.9961 152.3054 22.0116 37.0771 -5.0661 -19.5189
# 3 40.2881 22.0116 83.6058 13.1171 -26.1069 -6.3859
# 4 18.6423 37.0771 13.1171 61.2515 -7.5528 -17.8120
# 5 -31.3341 -5.0661 -26.1069 -7.5528 34.5261 -4.0485
# 6 2.6779 -19.5189 -6.3859 -17.8120 -4.0485 27.3307
#
#
#
# Elastic Compliance Matrix: (Units=1/GPa)
#
#
# Indices 1 2 3 4 5 6 
#
# 1 0.020371 -0.001899 -0.005065 -0.003866 0.012931 -0.005140
# 2 -0.001899 0.008226 -0.000953 -0.003410 -0.001586 0.003381
# 3 -0.005065 -0.000953 0.018033 0.001335 0.009939 0.006371
# 4 -0.003866 -0.003410 0.001335 0.023973 0.003940 0.014463
# 5 0.012931 -0.001586 0.009939 0.003940 0.050004 0.009897
# 6 -0.005140 0.003381 0.006371 0.014463 0.009897 0.051887
#
#
# Mechanical properties :
#
#
# Convention : Reuss Voigt Hill
#
# Bulk Modulus (GPa) = 32.47048 55.11591 43.79319
# Shear Modulus (GPa) = 25.17745 40.23205 32.70475
#
# Velocity S-wave (km/s) = 3.12169 3.94612 3.55787
# Velocity P-wave (km/s) = 5.05579 6.48808 5.81620
#
# Compressibility (1/GPa) = 0.03079721
#
# Stress axis : x y z
#
# Youngs Moduli (GPa) = 49.09037 121.57121 55.45410
#
# Poissons Ratio (x) = 0.23082 0.28085
# Poissons Ratio (y) = 0.09320 0.05284
# Poissons Ratio (z) = 0.24862 0.11583
#
# Static dielectric constant tensor:
#      x y z
#    x 2.150580 -0.062640 0.123890 
#    y -0.062640 2.551490 -0.066150 
#    z 0.123890 -0.066150 2.147870 
# 
# From -- ./inp_files/82548.got.cif
#   From: 2010.05.17/outbox.cif.g08.bks.cpg/sg2_42_cif.got.tgz:82548.got - 2010.06.03 11:33:40.
