data_PCOD9090321
_publ_section_title
;
Structure prediction by ZEFSAII (Michael W. Deem and Ramdas Pophale) SiO2 
 PCOD9090321
Probable space group: P -1
;
_chemical_formula_sum "Si O2"
_cell_formula_units_Z 12
_cell_length_a 12.043176
_cell_length_b 9.336386
_cell_length_c 14.294494
_cell_angle_alpha 74.661284
_cell_angle_beta 148.891726
_cell_angle_gamma 83.769592
_cell_volume 592.783272
_symmetry_space_group_name_H-M "P -1"
_symmetry_group_IT_number 2
_symmetry_cell_setting 'triclinic'
loop_
_space_group_symop_operation_xyz
x,y,z
-x,-y,-z
loop_
_atom_site_type_symbol
_atom_site_label
_atom_site_fract_x
_atom_site_fract_y
_atom_site_fract_z
Si Si1 0.153874 0.188952 0.713406
Si Si2 0.091313 0.783771 0.162898
Si Si3 0.306119 0.365774 0.422595
Si Si4 0.825885 0.629900 0.468300
Si Si5 0.166627 0.928600 0.902448
Si Si6 0.157380 0.186598 0.222912
O O1 0.076015 0.270366 0.536510
O O2 0.045608 0.089972 0.704159
O O3 0.041843 0.389956 0.650864
O O4 0.500000 0.000000 0.000000
O O5 0.217121 0.577323 0.336082
O O6 0.354426 0.775983 0.334325
O O7 0.879043 0.955338 0.055109
O O8 0.970854 0.784824 0.976619
O O9 0.234154 0.317203 0.475400
O O10 0.133534 0.362934 0.216793
O O11 0.510163 0.735680 0.177734
O O12 0.993345 0.858515 0.807124
O O13 0.500000 0.000000 0.500000
#
# Coordination Sequence:
#
# PCOD9090321 Si02
#       6
#     2   2   2   2   2   2
#     4   9  20  37  65  91 113 160 211 255 308 363
#     4  11  22  39  60  90 127 169 205 245 307 366
#     4  11  22  38  62  90 126 165 206 252 305 368
#     4  10  19  38  65  89 118 161 209 253 306 361
#     4  11  20  38  62  91 127 161 205 251 303 365
#     4  12  23  36  57  94 132 164 202 247 305 368
#
# _framework density 20.243486999999998
#
# number of rings (size 3 to 8) (size 9 to 14) (size 15 to 20)
#    0.000    1.333    5.000    2.000    0.000    0.000 
#    3.000    0.833    0.000    9.000    0.000    0.000 
#    0.000    0.000    0.000    0.000    0.000    0.000 
#
# Total GULP energy -66890.002942 kJ/mol
# GULP energy per Si atom -5574.166912 kJ/mol
# Density = 2.019741 g / cm^3
# Si number density = 20.243487 Si / 1000 Ang^3
#
#
#
# Elastic Constant Matrix: (Units=GPa)
#
#
# Indices 1 2 3 4 5 6 
#
# 1 125.2071 21.3256 25.7643 5.4040 -11.0689 9.7839
# 2 21.3256 70.4739 27.0119 -0.0934 5.2357 -3.6121
# 3 25.7643 27.0119 62.8240 -7.5117 4.3748 -0.1980
# 4 5.4040 -0.0934 -7.5117 41.3406 -5.6153 2.1057
# 5 -11.0689 5.2357 4.3748 -5.6153 29.8474 -7.2471
# 6 9.7839 -3.6121 -0.1980 2.1057 -7.2471 22.5229
#
#
#
# Elastic Compliance Matrix: (Units=1/GPa)
#
#
# Indices 1 2 3 4 5 6 
#
# 1 0.009665 -0.002009 -0.003499 -0.001272 0.003400 -0.003339
# 2 -0.002009 0.017732 -0.006793 -0.001410 -0.002392 0.003019
# 3 -0.003499 -0.006793 0.020920 0.003923 -0.002575 -0.000581
# 4 -0.001272 -0.001410 0.003923 0.025626 0.003827 -0.000804
# 5 0.003400 -0.002392 -0.002575 0.003827 0.038766 0.010233
# 6 -0.003339 0.003019 -0.000581 -0.000804 0.010233 0.049696
#
#
# Mechanical properties :
#
#
# Convention : Reuss Voigt Hill
#
# Bulk Modulus (GPa) = 42.16746 45.18984 43.67865
# Shear Modulus (GPa) = 25.65262 31.03571 28.34416
#
# Velocity S-wave (km/s) = 3.56364 3.91976 3.74593
# Velocity P-wave (km/s) = 6.14883 6.54657 6.35081
#
# Compressibility (1/GPa) = 0.02371497
#
# Stress axis : x y z
#
# Youngs Moduli (GPa) = 103.46227 56.39636 47.80174
#
# Poissons Ratio (x) = 0.11329 0.16728
# Poissons Ratio (y) = 0.20784 0.32470
# Poissons Ratio (z) = 0.36206 0.38308
#
# Static dielectric constant tensor:
#      x y z
#    x 1.781230 0.010560 -0.007730 
#    y 0.010560 1.704860 -0.037810 
#    z -0.007730 -0.037810 1.733630 
# 
# From -- ./inp_files/35298.got.cif
#   From: 2010.05.17/outbox.cif.g08.bks.cpg/sg2_18_cif.got.tgz:35298.got - 2010.06.03 11:33:40.
