data_PCOD9090722
_publ_section_title
;
Structure prediction by ZEFSAII (Michael W. Deem and Ramdas Pophale) SiO2 
 PCOD9090722
Probable space group: P -1
;
_chemical_formula_sum "Si O2"
_cell_formula_units_Z 16
_cell_length_a 24.354589
_cell_length_b 18.245586
_cell_length_c 5.832678
_cell_angle_alpha 53.645604
_cell_angle_beta 126.709409
_cell_angle_gamma 159.547826
_cell_volume 721.076293
_symmetry_space_group_name_H-M "P -1"
_symmetry_group_IT_number 2
_symmetry_cell_setting 'triclinic'
loop_
_space_group_symop_operation_xyz
x,y,z
-x,-y,-z
loop_
_atom_site_type_symbol
_atom_site_label
_atom_site_fract_x
_atom_site_fract_y
_atom_site_fract_z
Si Si1 0.224773 0.485636 0.088798
Si Si2 0.060186 0.656012 0.072035
Si Si3 0.457136 0.405410 0.818933
Si Si4 0.750012 0.039200 0.402399
Si Si5 0.872932 0.071530 0.032551
Si Si6 0.486176 0.121331 0.587518
Si Si7 0.538281 0.324517 0.971135
Si Si8 0.222484 0.681308 0.681319
O O1 0.306911 0.505814 0.108840
O O2 0.201716 0.554448 0.770478
O O3 0.050725 0.248569 0.175516
O O4 0.350264 0.666493 0.262353
O O5 0.126359 0.828572 0.030519
O O6 0.146679 0.670288 0.358497
O O7 0.879371 0.438498 0.113731
O O8 0.114717 0.738640 0.795907
O O9 0.500000 0.500000 0.500000
O O10 0.500000 0.500000 0.000000
O O11 0.541820 0.407882 0.012360
O O12 0.267766 0.160693 0.802864
O O13 0.649166 0.983452 0.421548
O O14 0.829469 0.049111 0.706991
O O15 0.612678 0.838619 0.263772
O O16 0.506367 0.190977 0.262506
O O17 0.406090 0.927423 0.715328
#
# Coordination Sequence:
#
# PCOD9090722 Si02
#       8
#     2   2   2   2   2   2   2   2
#     4  10  26  39  65  90 144 184 217 281 339 416
#     4  10  20  35  63  89 136 172 230 297 321 390
#     4  12  26  46  83 111 130 170 234 295 346 435
#     4  11  18  37  69  85 129 188 224 282 334 403
#     4  11  22  45  64 103 130 176 229 273 355 405
#     4  11  21  40  61  91 136 183 226 277 332 407
#     4  11  23  45  64  99 132 179 216 277 362 408
#     4  10  19  39  54 100 128 178 245 277 326 387
#
# _framework density 22.189055
#
# number of rings (size 3 to 8) (size 9 to 14) (size 15 to 20)
#    0.000    1.250    5.000    1.125    1.750    3.000 
#    2.250    1.250    0.000    0.000    0.000    0.000 
#    0.000    0.000    0.000    0.000    0.000    0.000 
#
# Total GULP energy -89317.241130 kJ/mol
# GULP energy per Si atom -5582.327571 kJ/mol
# Density = 2.213855 g / cm^3
# Si number density = 22.189055 Si / 1000 Ang^3
#
#
#
# Elastic Constant Matrix: (Units=GPa)
#
#
# Indices 1 2 3 4 5 6 
#
# 1 87.3980 46.3576 -4.5425 10.1106 -9.4203 -2.9147
# 2 46.3576 170.1767 50.0497 -7.7213 -9.5713 16.0493
# 3 -4.5425 50.0497 70.0252 -13.5732 -13.6827 15.7623
# 4 10.1106 -7.7213 -13.5732 34.4654 2.9590 -1.9905
# 5 -9.4203 -9.5713 -13.6827 2.9590 20.2063 2.5052
# 6 -2.9147 16.0493 15.7623 -1.9905 2.5052 39.9605
#
#
#
# Elastic Compliance Matrix: (Units=1/GPa)
#
#
# Indices 1 2 3 4 5 6 
#
# 1 0.016593 -0.006083 0.006397 -0.004537 0.009815 0.000289
# 2 -0.006083 0.009712 -0.007504 0.001229 -0.003358 -0.001113
# 3 0.006397 -0.007504 0.026103 0.004790 0.017353 -0.007665
# 4 -0.004537 0.001229 0.004790 0.032710 -0.002968 -0.000898
# 5 0.009815 -0.003358 0.017353 -0.002968 0.065782 -0.009052
# 6 0.000289 -0.001113 -0.007665 -0.000898 -0.009052 0.029039
#
#
# Mechanical properties :
#
#
# Convention : Reuss Voigt Hill
#
# Bulk Modulus (GPa) = 26.29463 56.81440 41.55452
# Shear Modulus (GPa) = 24.15532 34.64211 29.39871
#
# Velocity S-wave (km/s) = 3.30299 3.95552 3.64389
# Velocity P-wave (km/s) = 5.14027 6.82069 6.03921
#
# Compressibility (1/GPa) = 0.03803058
#
# Stress axis : x y z
#
# Youngs Moduli (GPa) = 60.26574 102.96706 38.30954
#
# Poissons Ratio (x) = 0.62631 -0.24508
# Poissons Ratio (y) = 0.36657 0.28746
# Poissons Ratio (z) = -0.38554 0.77262
#
# Static dielectric constant tensor:
#      x y z
#    x 1.893350 -0.042450 -0.037720 
#    y -0.042450 1.860080 0.009980 
#    z -0.037720 0.009980 1.907440 
# 
# From -- ./inp_files/124655.got.cif
#   From: 2010.05.17/outbox.cif.g08.bks.cpg/sg2_63_cif.got.tgz:124655.got - 2010.06.03 11:33:40.
