data_PCOD9090137
_publ_section_title
;
Structure prediction by ZEFSAII (Michael W. Deem and Ramdas Pophale) SiO2 
 PCOD9090137
Probable space group: P -1
;
_chemical_formula_sum "Si O2"
_cell_formula_units_Z 16
_cell_length_a 5.208861
_cell_length_b 13.917321
_cell_length_c 15.212961
_cell_angle_alpha 134.173799
_cell_angle_beta 119.934761
_cell_angle_gamma 72.018966
_cell_volume 684.113346
_symmetry_space_group_name_H-M "P -1"
_symmetry_group_IT_number 2
_symmetry_cell_setting 'triclinic'
loop_
_space_group_symop_operation_xyz
x,y,z
-x,-y,-z
loop_
_atom_site_type_symbol
_atom_site_label
_atom_site_fract_x
_atom_site_fract_y
_atom_site_fract_z
Si Si1 0.218656 0.826639 0.393130
Si Si2 0.024400 0.158942 0.094549
Si Si3 0.296099 0.459171 0.643751
Si Si4 0.261666 0.377184 0.402533
Si Si5 0.620067 0.715534 0.919671
Si Si6 0.451680 0.078318 0.667017
Si Si7 0.867669 0.574135 0.207119
Si Si8 0.539041 0.311291 0.938885
O O1 0.361686 0.867857 0.350798
O O2 0.885062 0.876285 0.370226
O O3 0.163209 0.667308 0.294826
O O4 0.412322 0.917303 0.553428
O O5 0.240453 0.242690 0.254709
O O6 0.166675 0.193347 0.046208
O O7 0.698196 0.216039 0.084770
O O8 0.000000 0.000000 0.000000
O O9 0.306491 0.354390 0.499527
O O10 0.567092 0.570150 0.771976
O O11 0.201915 0.404517 0.688586
O O12 0.041282 0.554487 0.628262
O O13 0.500000 0.500000 0.500000
O O14 0.684938 0.691243 0.018200
O O15 0.588139 0.158287 0.824344
O O16 0.615105 0.629553 0.135589
O O17 0.812650 0.414956 0.077689
#
# Coordination Sequence:
#
# PCOD9090137 Si02
#       8
#     2   2   2   2   2   2   2   2
#     4   9  18  34  53  75 108 149 190 239 273 329
#     4  11  23  41  64  91 120 153 202 257 299 354
#     4   9  19  37  61  90 118 158 198 248 306 354
#     4  10  19  38  64  84 118 157 198 250 311 361
#     4  10  21  39  63  89 124 160 195 243 309 359
#     4   9  18  34  54  73 107 155 191 223 287 331
#     4   9  18  36  57  89 120 152 203 245 281 352
#     4   9  19  36  60  86 121 161 194 238 291 357
#
# _framework density 23.387936
#
# number of rings (size 3 to 8) (size 9 to 14) (size 15 to 20)
#    0.000    2.500    1.250    0.375    0.000    2.500 
#    6.750    3.750    2.750    0.000    0.000    0.000 
#    0.000    0.000    0.000    0.000    0.000    0.000 
#
# Total GULP energy -89313.139887 kJ/mol
# GULP energy per Si atom -5582.071243 kJ/mol
# Density = 2.333470 g / cm^3
# Si number density = 23.387936 Si / 1000 Ang^3
#
#
#
# Elastic Constant Matrix: (Units=GPa)
#
#
# Indices 1 2 3 4 5 6 
#
# 1 106.9941 42.1779 43.9630 3.8205 0.4961 25.3983
# 2 42.1779 126.5598 71.5675 7.0030 5.6739 25.0523
# 3 43.9630 71.5675 213.3603 13.4880 0.0032 27.6495
# 4 3.8205 7.0030 13.4880 61.9279 9.4077 0.4692
# 5 0.4961 5.6739 0.0032 9.4077 32.0525 5.9188
# 6 25.3983 25.0523 27.6495 0.4692 5.9188 40.8319
#
#
#
# Elastic Compliance Matrix: (Units=1/GPa)
#
#
# Indices 1 2 3 4 5 6 
#
# 1 0.012006 -0.002423 -0.000913 -0.000438 0.001399 -0.005561
# 2 -0.002423 0.010963 -0.002749 -0.000280 -0.001234 -0.003176
# 3 -0.000913 -0.002749 0.006136 -0.001138 0.001215 -0.002064
# 4 -0.000438 -0.000280 -0.001138 0.017252 -0.005338 0.001791
# 5 0.001399 -0.001234 0.001215 -0.005338 0.034035 -0.005808
# 6 -0.005561 -0.003176 -0.002064 0.001791 -0.005808 0.032117
#
#
# Mechanical properties :
#
#
# Convention : Reuss Voigt Hill
#
# Bulk Modulus (GPa) = 59.04440 84.70345 71.87392
# Shear Modulus (GPa) = 38.36652 46.24285 42.30468
#
# Velocity S-wave (km/s) = 4.05463 4.45141 4.25764
# Velocity P-wave (km/s) = 6.87172 7.91930 7.41404
#
# Compressibility (1/GPa) = 0.01693641
#
# Stress axis : x y z
#
# Youngs Moduli (GPa) = 83.29454 91.21946 162.96067
#
# Poissons Ratio (x) = 0.22098 0.14876
# Poissons Ratio (y) = 0.20178 0.44794
# Poissons Ratio (z) = 0.07604 0.25074
#
# Static dielectric constant tensor:
#      x y z
#    x 1.953410 -0.053120 0.008950 
#    y -0.053120 1.900130 0.016330 
#    z 0.008950 0.016330 1.968380 
# 
# From -- ./inp_files/483663.got.cif
#   From: 2010.05.17/outbox.cif.g08.bks.cpg/sg2_242_cif.got.tgz:483663.got - 2010.06.03 11:33:40.
