data_PCOD9090832
_publ_section_title
;
Structure prediction by ZEFSAII (Michael W. Deem and Ramdas Pophale) SiO2 
 PCOD9090832
Probable space group: P -1
;
_chemical_formula_sum "Si O2"
_cell_formula_units_Z 14
_cell_length_a 7.614732
_cell_length_b 20.779734
_cell_length_c 6.861089
_cell_angle_alpha 40.042189
_cell_angle_beta 94.776220
_cell_angle_gamma 88.218821
_cell_volume 688.370071
_symmetry_space_group_name_H-M "P -1"
_symmetry_group_IT_number 2
_symmetry_cell_setting 'triclinic'
loop_
_space_group_symop_operation_xyz
x,y,z
-x,-y,-z
loop_
_atom_site_type_symbol
_atom_site_label
_atom_site_fract_x
_atom_site_fract_y
_atom_site_fract_z
Si Si1 0.848033 0.743157 0.748607
Si Si2 0.250455 0.456368 0.947858
Si Si3 0.416557 0.108750 0.822678
Si Si4 0.340905 0.585750 0.999370
Si Si5 0.968384 0.896079 0.142107
Si Si6 0.861573 0.358359 0.748998
Si Si7 0.712087 0.225796 0.741355
O O1 0.661227 0.817619 0.535977
O O2 0.983694 0.811285 0.509546
O O3 0.828640 0.647124 0.834299
O O4 0.939527 0.698389 0.057403
O O5 0.280908 0.494830 0.078098
O O6 0.133871 0.546489 0.611794
O O7 0.445221 0.439038 0.902669
O O8 0.237608 0.096855 0.953082
O O9 0.548598 0.164832 0.831508
O O10 0.500000 0.000000 0.000000
O O11 0.306539 0.685144 0.628872
O O12 0.233177 0.603799 0.146075
O O13 0.111601 0.854678 0.092507
O O14 0.000000 0.000000 0.000000
O O15 0.740899 0.283640 0.808661
#
# Coordination Sequence:
#
# PCOD9090832 Si02
#       7
#     2   2   2   2   2   2   2
#     4  10  21  39  59  90 126 159 202 258 304 362
#     4  10  21  36  61  90 125 162 206 247 303 369
#     4  10  20  38  68  91 115 166 210 250 310 368
#     4  10  19  39  60  86 124 166 203 250 300 366
#     4  10  20  38  67  89 115 161 208 254 305 360
#     4  11  23  37  60  95 124 163 201 252 307 370
#     4  11  20  41  64  88 129 161 202 255 309 360
#
# _framework density 20.337900000000001
#
# number of rings (size 3 to 8) (size 9 to 14) (size 15 to 20)
#    0.857    0.857    4.286    0.857    0.000    0.571 
#    5.143    2.857    0.000    2.571    0.000    0.000 
#    0.000    0.000    0.000    0.000    0.000    0.000 
#
# Total GULP energy -78063.222270 kJ/mol
# GULP energy per Si atom -5575.944448 kJ/mol
# Density = 2.029161 g / cm^3
# Si number density = 20.337900 Si / 1000 Ang^3
#
#
#
# Elastic Constant Matrix: (Units=GPa)
#
#
# Indices 1 2 3 4 5 6 
#
# 1 86.4139 27.4795 29.9722 -14.8180 21.4833 4.7805
# 2 27.4795 83.0412 48.3325 -32.6807 7.5667 15.4436
# 3 29.9722 48.3325 61.1113 -21.6641 16.6510 11.3144
# 4 -14.8180 -32.6807 -21.6641 30.8226 1.5962 -9.4871
# 5 21.4833 7.5667 16.6510 1.5962 31.4181 -8.0015
# 6 4.7805 15.4436 11.3144 -9.4871 -8.0015 31.4617
#
#
#
# Elastic Compliance Matrix: (Units=1/GPa)
#
#
# Indices 1 2 3 4 5 6 
#
# 1 0.016253 -0.000425 -0.002291 0.005541 -0.010713 -0.002491
# 2 -0.000425 0.029352 -0.015646 0.018993 -0.000227 -0.003047
# 3 -0.002291 -0.015646 0.039183 0.008277 -0.017921 -0.008125
# 4 0.005541 0.018993 0.008277 0.062400 -0.015478 0.001738
# 5 -0.010713 -0.000227 -0.017921 -0.015478 0.053879 0.017220
# 6 -0.002491 -0.003047 -0.008125 0.001738 0.017220 0.041484
#
#
# Mechanical properties :
#
#
# Convention : Reuss Voigt Hill
#
# Bulk Modulus (GPa) = 20.80561 49.12609 34.96585
# Shear Modulus (GPa) = 16.93208 27.05930 21.99569
#
# Velocity S-wave (km/s) = 2.88850 3.65154 3.29220
# Velocity P-wave (km/s) = 4.62350 6.47964 5.62861
#
# Compressibility (1/GPa) = 0.04806396
#
# Stress axis : x y z
#
# Youngs Moduli (GPa) = 61.52591 34.06961 25.52111
#
# Poissons Ratio (x) = 0.01448 0.05846
# Poissons Ratio (y) = 0.02615 0.39931
# Poissons Ratio (z) = 0.14094 0.53307
#
# Static dielectric constant tensor:
#      x y z
#    x 1.774400 0.002840 0.033440 
#    y 0.002840 1.692650 -0.003570 
#    z 0.033440 -0.003570 1.737560 
# 
# From -- ./inp_files/43089.got.cif
#   From: 2010.05.17/outbox.cif.g08.bks.cpg/sg2_22_cif.got.tgz:43089.got - 2010.06.03 11:33:40.
