data_PCOD9090383
_publ_section_title
;
Structure prediction by ZEFSAII (Michael W. Deem and Ramdas Pophale) SiO2 
 PCOD9090383
Probable space group: P -1
;
_chemical_formula_sum "Si O2"
_cell_formula_units_Z 16
_cell_length_a 7.625406
_cell_length_b 11.404632
_cell_length_c 16.957467
_cell_angle_alpha 133.655325
_cell_angle_beta 48.893928
_cell_angle_gamma 96.775440
_cell_volume 633.237853
_symmetry_space_group_name_H-M "P -1"
_symmetry_group_IT_number 2
_symmetry_cell_setting 'triclinic'
loop_
_space_group_symop_operation_xyz
x,y,z
-x,-y,-z
loop_
_atom_site_type_symbol
_atom_site_label
_atom_site_fract_x
_atom_site_fract_y
_atom_site_fract_z
Si Si1 0.236159 0.635521 0.364828
Si Si2 0.768280 0.712054 0.003027
Si Si3 0.845088 0.531783 0.474690
Si Si4 0.707362 0.270366 0.171970
Si Si5 0.828002 0.927356 0.881290
Si Si6 0.142769 0.955320 0.235051
Si Si7 0.511185 0.819571 0.302890
Si Si8 0.077047 0.255592 0.709494
O O1 0.492642 0.424623 0.234772
O O2 0.362269 0.703991 0.293325
O O3 0.966783 0.625121 0.427927
O O4 0.101087 0.822528 0.552993
O O5 0.466169 0.881704 0.126200
O O6 0.692398 0.761151 0.141513
O O7 0.036363 0.708175 0.895047
O O8 0.864758 0.487413 0.850505
O O9 0.503529 0.658212 0.656408
O O10 0.000000 0.500000 0.500000
O O11 0.963988 0.315333 0.302756
O O12 0.819751 0.044559 0.012485
O O13 0.904789 0.018307 0.830671
O O14 0.500000 0.000000 0.000000
O O15 0.105267 0.798689 0.212930
O O16 0.709700 0.750296 0.291036
O O17 0.270783 0.066323 0.502616
#
# Coordination Sequence:
#
# PCOD9090383 Si02
#       8
#     2   2   2   2   2   2   2   2
#     4  10  19  39  64  90 117 166 205 253 304 368
#     4  12  25  41  60  94 135 166 199 260 325 363
#     4  10  19  38  65  95 118 153 214 263 298 361
#     4  11  22  38  66  90 121 169 208 250 306 374
#     4  12  21  38  68  96 114 161 224 258 297 375
#     4  11  24  40  60  96 131 159 206 265 314 370
#     4  10  22  39  65  94 123 164 218 253 299 377
#     4  10  22  40  63  91 124 169 213 252 302 377
#
# _framework density 25.266967999999999
#
# number of rings (size 3 to 8) (size 9 to 14) (size 15 to 20)
#    0.000    1.250    6.250    1.500    1.750    3.000 
#    2.250    2.500    0.000    1.500    0.000    0.000 
#    0.000    0.000    0.000    0.000    0.000    0.000 
#
# Total GULP energy -89660.732879 kJ/mol
# GULP energy per Si atom -5603.795805 kJ/mol
# Density = 2.520946 g / cm^3
# Si number density = 25.266968 Si / 1000 Ang^3
#
#
#
# Elastic Constant Matrix: (Units=GPa)
#
#
# Indices 1 2 3 4 5 6 
#
# 1 74.1558 45.0000 50.8831 -7.9016 8.1385 18.9440
# 2 45.0000 159.5431 65.7227 -19.3571 16.3683 28.8556
# 3 50.8831 65.7227 155.0599 -16.9155 26.8773 18.0824
# 4 -7.9016 -19.3571 -16.9155 38.0219 17.0093 -7.5653
# 5 8.1385 16.3683 26.8773 17.0093 28.7481 -1.6460
# 6 18.9440 28.8556 18.0824 -7.5653 -1.6460 47.9570
#
#
#
# Elastic Compliance Matrix: (Units=1/GPa)
#
#
# Indices 1 2 3 4 5 6 
#
# 1 0.019522 -0.002938 -0.004985 -0.001010 0.001165 -0.004183
# 2 -0.002938 0.009749 -0.000349 0.007508 -0.009046 -0.003699
# 3 -0.004985 -0.000349 0.012720 0.011989 -0.017452 -0.001325
# 4 -0.001010 0.007508 0.011989 0.056862 -0.048918 -0.001348
# 5 0.001165 -0.009046 -0.017452 -0.048918 0.085253 0.006772
# 6 -0.004183 -0.003699 -0.001325 -0.001348 0.006772 0.025250
#
#
# Mechanical properties :
#
#
# Convention : Reuss Voigt Hill
#
# Bulk Modulus (GPa) = 39.29972 79.10783 59.20377
# Shear Modulus (GPa) = 21.33262 38.08893 29.71078
#
# Velocity S-wave (km/s) = 2.90882 3.88681 3.43282
# Velocity P-wave (km/s) = 5.18355 7.17773 6.26055
#
# Compressibility (1/GPa) = 0.02544547
#
# Stress axis : x y z
#
# Youngs Moduli (GPa) = 51.22462 102.57840 78.61387
#
# Poissons Ratio (x) = 0.30139 0.39190
# Poissons Ratio (y) = 0.15051 0.02747
# Poissons Ratio (z) = 0.25536 0.03584
#
# Static dielectric constant tensor:
#      x y z
#    x 2.019370 -0.023470 -0.039830 
#    y -0.023470 1.991350 -0.019540 
#    z -0.039830 -0.019540 1.953870 
# 
# From -- ./inp_files/589606.got.cif
#   From: 2010.05.17/outbox.cif.g08.bks.cpg/sg2_295_cif.got.tgz:589606.got - 2010.06.03 11:33:40.
