data_PCOD9090708
_publ_section_title
;
Structure prediction by ZEFSAII (Michael W. Deem and Ramdas Pophale) SiO2 
 PCOD9090708
Probable space group: P -1
;
_chemical_formula_sum "Si O2"
_cell_formula_units_Z 16
_cell_length_a 17.773137
_cell_length_b 22.959264
_cell_length_c 5.518903
_cell_angle_alpha 77.795865
_cell_angle_beta 75.996346
_cell_angle_gamma 16.441587
_cell_volume 616.708371
_symmetry_space_group_name_H-M "P -1"
_symmetry_group_IT_number 2
_symmetry_cell_setting 'triclinic'
loop_
_space_group_symop_operation_xyz
x,y,z
-x,-y,-z
loop_
_atom_site_type_symbol
_atom_site_label
_atom_site_fract_x
_atom_site_fract_y
_atom_site_fract_z
Si Si1 0.250850 0.157311 0.401949
Si Si2 0.379717 0.972586 0.080660
Si Si3 0.856333 0.207940 0.924671
Si Si4 0.523428 0.280976 0.083121
Si Si5 0.890728 0.608019 0.738891
Si Si6 0.115465 0.847989 0.541170
Si Si7 0.096052 0.687067 0.174995
Si Si8 0.461042 0.788416 0.373015
O O1 0.076547 0.344637 0.321464
O O2 0.069246 0.238295 0.591682
O O3 0.500000 0.000000 0.500000
O O4 0.381691 0.031554 0.174564
O O5 0.477992 0.845982 0.277531
O O6 0.571620 0.831431 0.822073
O O7 0.078373 0.183646 0.047094
O O8 0.152564 0.959028 0.946154
O O9 0.728086 0.275861 0.722374
O O10 0.889778 0.254128 0.818810
O O11 0.735271 0.281415 0.217124
O O12 0.443672 0.299154 0.358368
O O13 0.379371 0.448253 0.110249
O O14 0.432809 0.322575 0.855850
O O15 0.000000 0.500000 0.500000
O O16 0.000000 0.500000 0.000000
O O17 0.853866 0.998526 0.583561
O O18 0.000000 0.000000 0.500000
#
# Coordination Sequence:
#
# PCOD9090708 Si02
#       8
#     2   2   2   2   2   2   2   2
#     4  12  27  47  65  97 131 176 233 286 348 408
#     4  12  26  46  72  94 137 180 231 291 339 415
#     4  10  22  43  63 102 137 173 227 278 328 403
#     4  10  23  40  66 100 134 174 223 281 336 396
#     4  12  30  47  68  95 136 177 225 286 356 405
#     4  10  19  38  71  99 135 183 221 267 339 403
#     4  12  26  41  74  95 135 180 228 284 342 401
#     4  10  23  43  67  99 139 170 232 277 336 402
#
# _framework density 25.944192000000001
#
# number of rings (size 3 to 8) (size 9 to 14) (size 15 to 20)
#    0.000    1.000    3.750    3.000    7.000    0.000 
#    0.000    0.000    0.000   18.000    0.000    0.000 
#    0.000    0.000    0.000    0.000    0.000    0.000 
#
# Total GULP energy -89582.541897 kJ/mol
# GULP energy per Si atom -5598.908869 kJ/mol
# Density = 2.588514 g / cm^3
# Si number density = 25.944192 Si / 1000 Ang^3
#
#
#
# Elastic Constant Matrix: (Units=GPa)
#
#
# Indices 1 2 3 4 5 6 
#
# 1 134.3496 46.8326 71.2121 11.7293 -9.5669 36.1094
# 2 46.8326 129.3101 43.0062 17.3882 -6.6603 27.6443
# 3 71.2121 43.0062 203.6536 11.0879 -1.4117 34.8674
# 4 11.7293 17.3882 11.0879 32.0550 16.1299 -0.1980
# 5 -9.5669 -6.6603 -1.4117 16.1299 55.3668 1.3309
# 6 36.1094 27.6443 34.8674 -0.1980 1.3309 52.9010
#
#
#
# Elastic Compliance Matrix: (Units=1/GPa)
#
#
# Indices 1 2 3 4 5 6 
#
# 1 0.011271 -0.001396 -0.002475 -0.004071 0.003033 -0.005424
# 2 -0.001396 0.010342 -0.000618 -0.006395 0.002950 -0.004142
# 3 -0.002475 -0.000618 0.006328 -0.000956 -0.000010 -0.002162
# 4 -0.004071 -0.006395 -0.000956 0.043792 -0.014430 0.007278
# 5 0.003033 0.002950 -0.000010 -0.014430 0.023246 -0.004244
# 6 -0.005424 -0.004142 -0.002162 0.007278 -0.004244 0.026329
#
#
# Mechanical properties :
#
#
# Convention : Reuss Voigt Hill
#
# Bulk Modulus (GPa) = 52.73247 87.71280 70.22263
# Shear Modulus (GPa) = 36.60132 48.48206 42.54169
#
# Velocity S-wave (km/s) = 3.76010 4.32754 4.05376
# Velocity P-wave (km/s) = 6.26263 7.67149 7.00259
#
# Compressibility (1/GPa) = 0.01896365
#
# Stress axis : x y z
#
# Youngs Moduli (GPa) = 88.72395 96.69421 158.01688
#
# Poissons Ratio (x) = 0.13495 0.39111
# Poissons Ratio (y) = 0.12383 0.09766
# Poissons Ratio (z) = 0.21960 0.05976
#
# Static dielectric constant tensor:
#      x y z
#    x 2.018900 -0.021060 -0.048940 
#    y -0.021060 2.138180 0.001940 
#    z -0.048940 0.001940 2.119500 
# 
# From -- ./inp_files/112394.got.cif
#   From: 2010.05.17/outbox.cif.g08.bks.cpg/sg2_57_cif.got.tgz:112394.got - 2010.06.03 11:33:40.
