data_PCOD9090515
_publ_section_title
;
Structure prediction by ZEFSAII (Michael W. Deem and Ramdas Pophale) SiO2 
 PCOD9090515
Probable space group: P -1
;
_chemical_formula_sum "Si O2"
_cell_formula_units_Z 16
_cell_length_a 8.922426
_cell_length_b 11.768437
_cell_length_c 12.605817
_cell_angle_alpha 129.805325
_cell_angle_beta 127.817267
_cell_angle_gamma 56.200881
_cell_volume 773.490345
_symmetry_space_group_name_H-M "P -1"
_symmetry_group_IT_number 2
_symmetry_cell_setting 'triclinic'
loop_
_space_group_symop_operation_xyz
x,y,z
-x,-y,-z
loop_
_atom_site_type_symbol
_atom_site_label
_atom_site_fract_x
_atom_site_fract_y
_atom_site_fract_z
Si Si1 0.620510 0.383757 0.161113
Si Si2 0.204317 0.864742 0.485665
Si Si3 0.187935 0.359242 0.683747
Si Si4 0.849889 0.126666 0.943187
Si Si5 0.828487 0.605496 0.060443
Si Si6 0.154831 0.767074 0.625869
Si Si7 0.503770 0.960968 0.355662
Si Si8 0.025493 0.138560 0.812801
O O1 0.712853 0.524502 0.262302
O O2 0.695170 0.315524 0.268230
O O3 0.721593 0.256669 0.041277
O O4 0.385232 0.423146 0.067363
O O5 0.234405 0.752933 0.531293
O O6 0.158628 0.808467 0.316800
O O7 0.389153 0.932417 0.597392
O O8 0.000000 0.000000 0.500000
O O9 0.110666 0.416785 0.802417
O O10 0.359435 0.209560 0.698052
O O11 0.032555 0.303191 0.509395
O O12 0.709583 0.036586 0.773496
O O13 0.958605 0.190094 0.933285
O O14 0.000000 0.000000 0.000000
O O15 0.818851 0.779481 0.120533
O O16 0.000000 0.500000 0.000000
O O17 0.093608 0.951852 0.732216
O O18 0.500000 0.000000 0.500000
#
# Coordination Sequence:
#
# PCOD9090515 Si02
#       8
#     2   2   2   2   2   2   2   2
#     4  12  28  43  68 102 144 184 221 283 358 405
#     4  10  19  38  66  96 126 169 230 278 321 395
#     4  12  23  47  70  98 139 184 234 280 337 422
#     4  12  25  43  66 108 142 170 226 291 347 407
#     4  12  27  45  70  99 138 186 232 280 343 416
#     4  11  22  44  71 101 135 175 228 290 344 398
#     4  12  23  40  74 104 130 182 234 280 341 406
#     4  11  21  42  72  97 136 174 228 285 335 403
#
# _framework density 20.685457
#
# number of rings (size 3 to 8) (size 9 to 14) (size 15 to 20)
#    0.000    0.500    7.500    2.250    1.750    1.500 
#    0.000    0.625    0.000    0.000    0.000    0.000 
#    0.000    0.000    0.000    0.000    0.000    0.000 
#
# Total GULP energy -89412.125248 kJ/mol
# GULP energy per Si atom -5588.257828 kJ/mol
# Density = 2.063838 g / cm^3
# Si number density = 20.685457 Si / 1000 Ang^3
#
#
#
# Elastic Constant Matrix: (Units=GPa)
#
#
# Indices 1 2 3 4 5 6 
#
# 1 74.4268 23.4718 13.0256 10.5894 4.9361 21.1624
# 2 23.4718 38.1143 29.3388 4.3338 2.8308 17.1112
# 3 13.0256 29.3388 85.5112 -4.2389 8.4110 9.2438
# 4 10.5894 4.3338 -4.2389 33.8552 12.4674 -0.5942
# 5 4.9361 2.8308 8.4110 12.4674 48.3943 6.0460
# 6 21.1624 17.1112 9.2438 -0.5942 6.0460 41.1372
#
#
#
# Elastic Compliance Matrix: (Units=1/GPa)
#
#
# Indices 1 2 3 4 5 6 
#
# 1 0.018447 -0.008353 0.000428 -0.004978 0.000598 -0.006272
# 2 -0.008353 0.049656 -0.015063 -0.007412 0.004186 -0.013695
# 3 0.000428 -0.015063 0.017142 0.005425 -0.003895 0.002844
# 4 -0.004978 -0.007412 0.005425 0.036606 -0.010239 0.006458
# 5 0.000598 0.004186 -0.003895 -0.010239 0.024283 -0.004891
# 6 -0.006272 -0.013695 0.002844 0.006458 -0.004891 0.033405
#
#
# Mechanical properties :
#
#
# Convention : Reuss Voigt Hill
#
# Bulk Modulus (GPa) = 25.46513 36.63607 31.05060
# Shear Modulus (GPa) = 20.95516 33.49174 27.22345
#
# Velocity S-wave (km/s) = 3.18628 4.02816 3.63170
# Velocity P-wave (km/s) = 5.08664 6.27569 5.71219
#
# Compressibility (1/GPa) = 0.03926938
#
# Stress axis : x y z
#
# Youngs Moduli (GPa) = 54.20927 20.13857 58.33665
#
# Poissons Ratio (x) = 0.16821 -0.02498
# Poissons Ratio (y) = 0.45279 0.87874
# Poissons Ratio (z) = -0.02321 0.30335
#
# Static dielectric constant tensor:
#      x y z
#    x 1.801690 -0.013600 -0.105600 
#    y -0.013600 1.739800 0.086900 
#    z -0.105600 0.086900 1.935920 
# 
# From -- ./inp_files/393216.got.cif
#   From: 2010.05.17/outbox.cif.g08.bks.cpg/sg2_197_cif.got.tgz:393216.got - 2010.06.03 11:33:40.
