data_PCOD9090054
_publ_section_title
;
Structure prediction by ZEFSAII (Michael W. Deem and Ramdas Pophale) SiO2 
 PCOD9090054
Probable space group: P -1
;
_chemical_formula_sum "Si O2"
_cell_formula_units_Z 16
_cell_length_a 8.426359
_cell_length_b 9.854516
_cell_length_c 13.757370
_cell_angle_alpha 130.699304
_cell_angle_beta 90.318638
_cell_angle_gamma 71.000753
_cell_volume 784.111871
_symmetry_space_group_name_H-M "P -1"
_symmetry_group_IT_number 2
_symmetry_cell_setting 'triclinic'
loop_
_space_group_symop_operation_xyz
x,y,z
-x,-y,-z
loop_
_atom_site_type_symbol
_atom_site_label
_atom_site_fract_x
_atom_site_fract_y
_atom_site_fract_z
Si Si1 0.301767 0.767157 0.553241
Si Si2 0.775097 0.527420 0.088109
Si Si3 0.555715 0.352419 0.291794
Si Si4 0.184505 0.859151 0.984965
Si Si5 0.329007 0.131318 0.620258
Si Si6 0.845800 0.524949 0.876240
Si Si7 0.330715 0.149720 0.125925
Si Si8 0.972209 0.218443 0.576673
O O1 0.463856 0.588759 0.416556
O O2 0.332617 0.738703 0.654146
O O3 0.129831 0.740568 0.505731
O O4 0.291588 0.978465 0.618833
O O5 0.813045 0.307679 0.019213
O O6 0.646500 0.700495 0.238082
O O7 0.956980 0.545826 0.117967
O O8 0.731018 0.560870 0.989507
O O9 0.677971 0.266059 0.157846
O O10 0.400118 0.278679 0.251580
O O11 0.247789 0.012905 0.107593
O O12 0.000000 0.000000 0.000000
O O13 0.158654 0.227485 0.593586
O O14 0.500000 0.000000 0.500000
O O15 0.794941 0.713365 0.894861
O O16 0.846034 0.359303 0.725356
O O17 0.500000 0.000000 0.000000
O O18 0.000000 0.000000 0.500000
#
# Coordination Sequence:
#
# PCOD9090054 Si02
#       8
#     2   2   2   2   2   2   2   2
#     4  10  20  39  63  86 111 164 210 248 291 366
#     4  10  22  36  63  94 120 161 197 253 304 363
#     4  10  22  38  63  86 119 159 211 246 301 362
#     4  11  22  38  60  89 125 157 197 251 311 363
#     4  10  21  37  61  88 129 156 195 252 312 355
#     4  10  19  38  63  90 122 153 210 246 300 367
#     4  10  21  37  61  84 123 161 196 249 301 361
#     4   9  19  36  62  86 115 158 201 251 295 358
#
# _framework density 20.405252000000001
#
# number of rings (size 3 to 8) (size 9 to 14) (size 15 to 20)
#    0.000    2.000    2.500    0.750    3.500    2.000 
#    0.000    6.250    0.000    4.500    0.000    0.000 
#    0.000    0.000    0.000    0.000    0.000    0.000 
#
# Total GULP energy -89184.880649 kJ/mol
# GULP energy per Si atom -5574.055041 kJ/mol
# Density = 2.035881 g / cm^3
# Si number density = 20.405252 Si / 1000 Ang^3
#
#
#
# Elastic Constant Matrix: (Units=GPa)
#
#
# Indices 1 2 3 4 5 6 
#
# 1 33.3888 5.4217 5.2579 -11.0770 9.6343 -4.2723
# 2 5.4217 74.9135 30.2510 0.6109 19.3608 -3.4591
# 3 5.2579 30.2510 78.0642 7.5498 10.4430 5.0366
# 4 -11.0770 0.6109 7.5498 37.6269 -3.0422 9.0335
# 5 9.6343 19.3608 10.4430 -3.0422 31.8513 3.7924
# 6 -4.2723 -3.4591 5.0366 9.0335 3.7924 27.5242
#
#
#
# Elastic Compliance Matrix: (Units=1/GPa)
#
#
# Indices 1 2 3 4 5 6 
#
# 1 0.037023 0.001394 -0.002811 0.009406 -0.010802 0.004837
# 2 0.001394 0.018726 -0.006220 -0.000793 -0.010485 0.005413
# 3 -0.002811 -0.006220 0.015994 -0.003262 -0.000568 -0.002996
# 4 0.009406 -0.000793 -0.003262 0.032427 0.002885 -0.009083
# 5 -0.010802 -0.010485 -0.000568 0.002885 0.042655 -0.009715
# 6 0.004837 0.005413 -0.002996 -0.009083 -0.009715 0.042630
#
#
# Mechanical properties :
#
#
# Convention : Reuss Voigt Hill
#
# Bulk Modulus (GPa) = 17.70883 29.80307 23.75595
# Shear Modulus (GPa) = 22.36611 29.09621 25.73116
#
# Velocity S-wave (km/s) = 3.31433 3.78023 3.55492
# Velocity P-wave (km/s) = 4.83154 5.80438 5.34016
#
# Compressibility (1/GPa) = 0.05646902
#
# Stress axis : x y z
#
# Youngs Moduli (GPa) = 27.01043 53.40212 62.52151
#
# Poissons Ratio (x) = -0.07443 0.17572
# Poissons Ratio (y) = -0.03765 0.38891
# Poissons Ratio (z) = 0.07591 0.33218
#
# Static dielectric constant tensor:
#      x y z
#    x 1.777980 -0.007760 0.002380 
#    y -0.007760 1.721170 0.000330 
#    z 0.002380 0.000330 1.745190 
# 
# From -- ./inp_files/277264.got.cif
#   From: 2010.05.17/outbox.cif.g08.bks.cpg/sg2_139_cif.got.tgz:277264.got - 2010.06.03 11:33:40.
