data_PCOD9090458
_publ_section_title
;
Structure prediction by ZEFSAII (Michael W. Deem and Ramdas Pophale) SiO2 
 PCOD9090458
Probable space group: P -1
;
_chemical_formula_sum "Si O2"
_cell_formula_units_Z 16
_cell_length_a 9.500054
_cell_length_b 20.208050
_cell_length_c 15.940178
_cell_angle_alpha 24.036288
_cell_angle_beta 141.134146
_cell_angle_gamma 142.918462
_cell_volume 735.796483
_symmetry_space_group_name_H-M "P -1"
_symmetry_group_IT_number 2
_symmetry_cell_setting 'triclinic'
loop_
_space_group_symop_operation_xyz
x,y,z
-x,-y,-z
loop_
_atom_site_type_symbol
_atom_site_label
_atom_site_fract_x
_atom_site_fract_y
_atom_site_fract_z
Si Si1 0.017962 0.154474 0.392168
Si Si2 0.031543 0.820069 0.200691
Si Si3 0.336137 0.317759 0.673782
Si Si4 0.993713 0.731521 0.571073
Si Si5 0.691353 0.347551 0.938099
Si Si6 0.468336 0.726879 0.555094
Si Si7 0.301861 0.326319 0.925349
Si Si8 0.512091 0.307604 0.212450
O O1 0.302040 0.247896 0.422914
O O2 0.932868 0.137201 0.468922
O O3 0.000000 0.000000 0.500000
O O4 0.883987 0.265844 0.152628
O O5 0.297190 0.825804 0.330906
O O6 0.854427 0.680084 0.344549
O O7 0.941471 0.770760 0.122255
O O8 0.000000 0.000000 0.000000
O O9 0.500000 0.500000 0.500000
O O10 0.527198 0.258877 0.884057
O O11 0.165677 0.221587 0.629337
O O12 0.226523 0.699811 0.677887
O O13 0.833764 0.544873 0.750477
O O14 0.511431 0.331994 0.950200
O O15 0.320501 0.523128 0.722656
O O16 0.555548 0.783913 0.623941
O O17 0.350433 0.244411 0.128837
O O18 0.500000 0.500000 0.000000
#
# Coordination Sequence:
#
# PCOD9090458 Si02
#       8
#     2   2   2   2   2   2   2   2
#     4  12  26  40  62  95 133 175 216 269 330 397
#     4  11  24  41  66  97 136 173 214 272 340 387
#     4   9  21  39  68  94 121 169 226 269 316 396
#     4  11  19  41  65  92 123 170 219 264 325 386
#     4  10  19  38  66  91 121 165 222 262 321 382
#     4  11  23  42  62  96 132 165 225 271 323 399
#     4  10  20  39  66  94 122 171 216 266 324 389
#     4  10  20  35  64  97 123 155 218 278 320 370
#
# _framework density 21.745144
#
# number of rings (size 3 to 8) (size 9 to 14) (size 15 to 20)
#    0.000    1.500    3.750    2.250    3.500    0.000 
#    2.250    1.875    0.000    0.000    0.000    0.000 
#    0.000    0.000    0.000    0.000    0.000    0.000 
#
# Total GULP energy -89294.090212 kJ/mol
# GULP energy per Si atom -5580.880638 kJ/mol
# Density = 2.169565 g / cm^3
# Si number density = 21.745144 Si / 1000 Ang^3
#
#
#
# Elastic Constant Matrix: (Units=GPa)
#
#
# Indices 1 2 3 4 5 6 
#
# 1 100.7422 20.5725 40.3303 10.5190 6.9986 -5.1843
# 2 20.5725 89.4775 52.1155 18.4885 -0.3550 -29.6489
# 3 40.3303 52.1155 100.2527 29.3455 19.0597 -1.2903
# 4 10.5190 18.4885 29.3455 29.6150 1.5055 1.1679
# 5 6.9986 -0.3550 19.0597 1.5055 29.2543 4.5924
# 6 -5.1843 -29.6489 -1.2903 1.1679 4.5924 34.2172
#
#
#
# Elastic Compliance Matrix: (Units=1/GPa)
#
#
# Indices 1 2 3 4 5 6 
#
# 1 0.011999 0.001399 -0.005715 0.000398 0.000418 0.002745
# 2 0.001399 0.028167 -0.014672 -0.004777 0.006138 0.023404
# 3 -0.005715 -0.014672 0.026451 -0.013918 -0.013716 -0.010266
# 4 0.000398 -0.004777 -0.013918 0.050308 0.007475 -0.007325
# 5 0.000418 0.006138 -0.013716 0.007475 0.042889 -0.001147
# 6 0.002745 0.023404 -0.010266 -0.007325 -0.001147 0.049937
#
#
# Mechanical properties :
#
#
# Convention : Reuss Voigt Hill
#
# Bulk Modulus (GPa) = 34.91686 57.38989 46.15338
# Shear Modulus (GPa) = 19.43453 30.44756 24.94105
#
# Velocity S-wave (km/s) = 2.99279 3.74598 3.39037
# Velocity P-wave (km/s) = 5.29477 6.72006 6.04954
#
# Compressibility (1/GPa) = 0.02863946
#
# Stress axis : x y z
#
# Youngs Moduli (GPa) = 83.33890 35.50297 37.80629
#
# Poissons Ratio (x) = -0.04966 0.21606
# Poissons Ratio (y) = -0.11656 0.55470
# Poissons Ratio (z) = 0.47628 0.52091
#
# Static dielectric constant tensor:
#      x y z
#    x 1.892840 -0.083260 -0.042290 
#    y -0.083260 1.918060 0.014940 
#    z -0.042290 0.014940 1.778030 
# 
# From -- ./inp_files/218257.got.cif
#   From: 2010.05.17/outbox.cif.g08.bks.cpg/sg2_110_cif.got.tgz:218257.got - 2010.06.03 11:33:40.
