data_PCOD9090644
_publ_section_title
;
Structure prediction by ZEFSAII (Michael W. Deem and Ramdas Pophale) SiO2 
 PCOD9090644
Probable space group: P -1
;
_chemical_formula_sum "Si O2"
_cell_formula_units_Z 12
_cell_length_a 9.386074
_cell_length_b 10.286644
_cell_length_c 8.036164
_cell_angle_alpha 124.673456
_cell_angle_beta 109.169884
_cell_angle_gamma 105.617705
_cell_volume 487.933172
_symmetry_space_group_name_H-M "P -1"
_symmetry_group_IT_number 2
_symmetry_cell_setting 'triclinic'
loop_
_space_group_symop_operation_xyz
x,y,z
-x,-y,-z
loop_
_atom_site_type_symbol
_atom_site_label
_atom_site_fract_x
_atom_site_fract_y
_atom_site_fract_z
Si Si1 0.583438 0.883715 0.919898
Si Si2 0.428226 0.602457 0.154775
Si Si3 0.228859 0.127235 0.300078
Si Si4 0.055097 0.493266 0.824567
Si Si5 0.925474 0.056957 0.363975
Si Si6 0.745046 0.534435 0.648824
O O1 0.729907 0.982928 0.895658
O O2 0.416633 0.669423 0.644863
O O3 0.500000 0.000000 0.000000
O O4 0.706291 0.910801 0.143931
O O5 0.614601 0.795671 0.441091
O O6 0.314204 0.481481 0.191328
O O7 0.500000 0.500000 0.000000
O O8 0.279942 0.616091 0.003841
O O9 0.259740 0.307332 0.339245
O O10 0.030651 0.033271 0.236148
O O11 0.983835 0.275999 0.576989
O O12 0.938966 0.556692 0.729403
O O13 0.000000 0.500000 0.000000
O O14 0.000000 0.000000 0.500000
#
# Coordination Sequence:
#
# PCOD9090644 Si02
#       6
#     2   2   2   2   2   2
#     4  11  23  46  66 100 138 169 217 277 338 391
#     4  10  19  38  68  97 124 166 224 264 316 381
#     4  11  25  44  69  99 127 185 221 268 330 397
#     4  10  22  42  67  99 131 171 221 272 325 390
#     4  12  27  45  67  95 138 178 218 274 339 390
#     4  10  23  43  71  94 135 173 225 268 322 401
#
# _framework density 24.593530999999999
#
# number of rings (size 3 to 8) (size 9 to 14) (size 15 to 20)
#    0.000    1.333    3.333    2.500    7.000    0.667 
#    0.000    0.833    3.667    0.000    0.000    0.000 
#    0.000    0.000    0.000    0.000    0.000    0.000 
#
# Total GULP energy -67167.290817 kJ/mol
# GULP energy per Si atom -5597.274235 kJ/mol
# Density = 2.453755 g / cm^3
# Si number density = 24.593531 Si / 1000 Ang^3
#
#
#
# Elastic Constant Matrix: (Units=GPa)
#
#
# Indices 1 2 3 4 5 6 
#
# 1 216.6051 46.8465 71.0686 -13.5615 17.0078 -38.5313
# 2 46.8465 62.6847 29.3965 -6.9782 3.5171 -13.9518
# 3 71.0686 29.3965 141.1353 -18.4371 26.8248 -22.6316
# 4 -13.5615 -6.9782 -18.4371 27.3315 -11.0226 6.0849
# 5 17.0078 3.5171 26.8248 -11.0226 68.5334 -13.9598
# 6 -38.5313 -13.9518 -22.6316 6.0849 -13.9598 36.5391
#
#
#
# Elastic Compliance Matrix: (Units=1/GPa)
#
#
# Indices 1 2 3 4 5 6 
#
# 1 0.006791 -0.003037 -0.002036 0.000267 0.000290 0.004806
# 2 -0.003037 0.020131 -0.002148 0.002064 0.001589 0.003417
# 3 -0.002036 -0.002148 0.009730 0.003739 -0.002272 0.001568
# 4 0.000267 0.002064 0.003739 0.042094 0.004767 -0.001803
# 5 0.000290 0.001589 -0.002272 0.004767 0.017167 0.005270
# 6 0.004806 0.003417 0.001568 -0.001803 0.005270 0.037026
#
#
# Mechanical properties :
#
#
# Convention : Reuss Voigt Hill
#
# Bulk Modulus (GPa) = 45.02731 79.44983 62.23857
# Shear Modulus (GPa) = 32.30306 44.68837 38.49571
#
# Velocity S-wave (km/s) = 3.62813 4.26734 3.96065
# Velocity P-wave (km/s) = 5.99161 7.52699 6.80276
#
# Compressibility (1/GPa) = 0.02220875
#
# Stress axis : x y z
#
# Youngs Moduli (GPa) = 147.26434 49.67488 102.77443
#
# Poissons Ratio (x) = 0.15084 0.20928
# Poissons Ratio (y) = 0.44719 0.22080
# Poissons Ratio (z) = 0.29988 0.10672
#
# Static dielectric constant tensor:
#      x y z
#    x 2.012660 0.111250 -0.033950 
#    y 0.111250 2.023680 -0.056410 
#    z -0.033950 -0.056410 2.001640 
# 
# From -- ./inp_files/183006.got.cif
#   From: 2010.05.17/outbox.cif.g08.bks.cpg/sg2_92_cif.got.tgz:183006.got - 2010.06.03 11:33:40.
