data_PCOD9090189
_publ_section_title
;
Structure prediction by ZEFSAII (Michael W. Deem and Ramdas Pophale) SiO2 
 PCOD9090189
Probable space group: P -1
;
_chemical_formula_sum "Si O2"
_cell_formula_units_Z 16
_cell_length_a 5.310431
_cell_length_b 18.990212
_cell_length_c 7.230443
_cell_angle_alpha 75.673653
_cell_angle_beta 101.917429
_cell_angle_gamma 110.036344
_cell_volume 657.766334
_symmetry_space_group_name_H-M "P -1"
_symmetry_group_IT_number 2
_symmetry_cell_setting 'triclinic'
loop_
_space_group_symop_operation_xyz
x,y,z
-x,-y,-z
loop_
_atom_site_type_symbol
_atom_site_label
_atom_site_fract_x
_atom_site_fract_y
_atom_site_fract_z
Si Si1 0.747059 0.698387 0.437263
Si Si2 0.884964 0.559377 0.551056
Si Si3 0.392234 0.157643 0.752271
Si Si4 0.587893 0.333017 0.226445
Si Si5 0.022397 0.989431 0.289013
Si Si6 0.612107 0.077811 0.158119
Si Si7 0.294613 0.813077 0.581351
Si Si8 0.317589 0.532715 0.082522
O O1 0.776311 0.622824 0.393608
O O2 0.585131 0.752645 0.292996
O O3 0.632402 0.671253 0.643947
O O4 0.037334 0.759091 0.473135
O O5 0.673297 0.504893 0.694227
O O6 0.000000 0.500000 0.500000
O O7 0.136116 0.615346 0.667950
O O8 0.502119 0.145513 0.574231
O O9 0.090038 0.097991 0.740259
O O10 0.552950 0.130205 0.953756
O O11 0.583892 0.246549 0.255584
O O12 0.581285 0.377543 0.007443
O O13 0.801952 0.028621 0.153685
O O14 0.324465 0.029223 0.235600
O O15 0.000000 0.000000 0.500000
O O16 0.765510 0.131701 0.313788
O O17 0.500000 0.500000 0.000000
O O18 0.000000 0.500000 0.000000
#
# Coordination Sequence:
#
# PCOD9090189 Si02
#       8
#     2   2   2   2   2   2   2   2
#     4  10  21  42  69  90 142 184 230 284 364 415
#     4  10  21  39  66  99 134 178 233 296 356 419
#     4  11  25  43  70 100 139 185 230 294 349 417
#     4   9  20  40  61  94 128 181 225 283 348 417
#     4  12  25  46  74 104 141 185 233 291 351 412
#     4  12  27  45  71 107 138 182 242 285 349 420
#     4  10  23  43  67  93 142 184 228 287 350 415
#     4  10  19  38  64  90 124 169 222 273 336 409
#
# _framework density 24.324749000000001
#
# number of rings (size 3 to 8) (size 9 to 14) (size 15 to 20)
#    0.000    1.500    2.500    1.875    5.250    0.500 
#    6.750    0.000    0.000    0.000    0.000    0.000 
#    0.000    0.000    0.000    0.000    0.000    0.000 
#
# Total GULP energy -89461.663580 kJ/mol
# GULP energy per Si atom -5591.353974 kJ/mol
# Density = 2.426938 g / cm^3
# Si number density = 24.324749 Si / 1000 Ang^3
#
#
#
# Elastic Constant Matrix: (Units=GPa)
#
#
# Indices 1 2 3 4 5 6 
#
# 1 90.8416 34.1935 17.6712 -17.1365 -3.0045 -8.7276
# 2 34.1935 123.2806 38.8834 -13.8643 2.3267 -26.2805
# 3 17.6712 38.8834 117.9135 -30.0184 12.0733 -12.2221
# 4 -17.1365 -13.8643 -30.0184 37.9773 0.2504 4.6697
# 5 -3.0045 2.3267 12.0733 0.2504 40.8354 -7.7475
# 6 -8.7276 -26.2805 -12.2221 4.6697 -7.7475 49.4523
#
#
#
# Elastic Compliance Matrix: (Units=1/GPa)
#
#
# Indices 1 2 3 4 5 6 
#
# 1 0.013134 -0.003089 0.000234 0.004921 0.001128 0.000446
# 2 -0.003089 0.010791 -0.002753 -0.000210 0.000858 0.004663
# 3 0.000234 -0.002753 0.011877 0.008488 -0.003354 0.000187
# 4 0.004921 -0.000210 0.008488 0.035309 -0.002518 -0.000874
# 5 0.001128 0.000858 -0.003354 -0.002518 0.026324 0.004188
# 6 0.000446 0.004663 0.000187 -0.000874 0.004188 0.023563
#
#
# Mechanical properties :
#
#
# Convention : Reuss Voigt Hill
#
# Bulk Modulus (GPa) = 40.67553 57.05913 48.86733
# Shear Modulus (GPa) = 35.60969 41.73884 38.67426
#
# Velocity S-wave (km/s) = 3.83028 4.14684 3.99170
# Velocity P-wave (km/s) = 6.02657 6.81443 6.43258
#
# Compressibility (1/GPa) = 0.02458481
#
# Stress axis : x y z
#
# Youngs Moduli (GPa) = 76.13800 92.66780 84.19426
#
# Poissons Ratio (x) = 0.28630 -0.01971
# Poissons Ratio (y) = 0.23523 0.23183
# Poissons Ratio (z) = -0.01782 0.25516
#
# Static dielectric constant tensor:
#      x y z
#    x 2.017450 -0.024740 0.076000 
#    y -0.024740 1.924030 0.002270 
#    z 0.076000 0.002270 1.920610 
# 
# From -- ./inp_files/126381.got.cif
#   From: 2010.05.17/outbox.cif.g08.bks.cpg/sg2_64_cif.got.tgz:126381.got - 2010.06.03 11:33:40.
