data_PCOD9090330
_publ_section_title
;
Structure prediction by ZEFSAII (Michael W. Deem and Ramdas Pophale) SiO2 
 PCOD9090330
Probable space group: P -1
;
_chemical_formula_sum "Si O2"
_cell_formula_units_Z 16
_cell_length_a 11.976069
_cell_length_b 11.410239
_cell_length_c 15.645043
_cell_angle_alpha 109.698142
_cell_angle_beta 27.738561
_cell_angle_gamma 129.588848
_cell_volume 593.767667
_symmetry_space_group_name_H-M "P -1"
_symmetry_group_IT_number 2
_symmetry_cell_setting 'triclinic'
loop_
_space_group_symop_operation_xyz
x,y,z
-x,-y,-z
loop_
_atom_site_type_symbol
_atom_site_label
_atom_site_fract_x
_atom_site_fract_y
_atom_site_fract_z
Si Si1 0.666000 0.446531 0.106111
Si Si2 0.831675 0.664807 0.881286
Si Si3 0.557471 0.555082 0.574448
Si Si4 0.441110 0.712164 0.436553
Si Si5 0.748839 0.077922 0.620914
Si Si6 0.552836 0.273839 0.755967
Si Si7 0.836500 0.915892 0.393874
Si Si8 0.480518 0.861079 0.928422
O O1 0.744920 0.531718 0.167912
O O2 0.205211 0.265250 0.369233
O O3 0.803930 0.363951 0.964558
O O4 0.804527 0.589236 0.972848
O O5 0.191904 0.738789 0.615447
O O6 0.500000 0.500000 0.000000
O O7 0.728121 0.763733 0.000939
O O8 0.500000 0.500000 0.500000
O O9 0.742254 0.500465 0.474017
O O10 0.758678 0.769115 0.475004
O O11 0.597739 0.772600 0.250014
O O12 0.717826 0.834618 0.360016
O O13 0.586809 0.148560 0.735822
O O14 0.609462 0.953669 0.769455
O O15 0.642884 0.956154 0.578567
O O16 0.000000 0.500000 0.500000
O O17 0.275445 0.117449 0.161822
O O18 0.500000 0.000000 0.000000
#
# Coordination Sequence:
#
# PCOD9090330 Si02
#       8
#     2   2   2   2   2   2   2   2
#     4  11  20  39  65  94 126 168 218 265 328 382
#     4  12  25  39  65  99 127 168 228 260 313 394
#     4  10  19  38  65  89 128 170 199 263 332 381
#     4  11  24  43  65  95 135 169 212 271 324 386
#     4  11  21  42  67  86 130 169 213 271 320 387
#     4  12  23  42  67  93 125 176 215 269 324 375
#     4  10  22  43  63  91 130 169 206 264 339 378
#     4  11  24  38  67  97 126 169 218 271 322 395
#
# _framework density 26.946565
#
# number of rings (size 3 to 8) (size 9 to 14) (size 15 to 20)
#    0.000    1.000    6.250    0.750    3.500    0.500 
#    2.250    3.125    0.000    0.000    0.000    0.000 
#    0.000    0.000    0.000    0.000    0.000    0.000 
#
# Total GULP energy -89269.899927 kJ/mol
# GULP energy per Si atom -5579.368745 kJ/mol
# Density = 2.688523 g / cm^3
# Si number density = 26.946565 Si / 1000 Ang^3
#
#
#
# Elastic Constant Matrix: (Units=GPa)
#
#
# Indices 1 2 3 4 5 6 
#
# 1 149.9656 50.5279 27.1104 17.7239 5.2415 22.6221
# 2 50.5279 107.7175 44.3660 53.0760 -7.5375 -11.9644
# 3 27.1104 44.3660 103.3976 48.9471 5.4866 -7.8956
# 4 17.7239 53.0760 48.9471 55.0905 -0.6976 4.4824
# 5 5.2415 -7.5375 5.4866 -0.6976 40.3436 18.2969
# 6 22.6221 -11.9644 -7.8956 4.4824 18.2969 51.0448
#
#
#
# Elastic Compliance Matrix: (Units=1/GPa)
#
#
# Indices 1 2 3 4 5 6 
#
# 1 0.010557 -0.008804 -0.004361 0.009707 0.001785 -0.008909
# 2 -0.008804 0.027110 0.005950 -0.029764 -0.001635 0.014376
# 3 -0.004361 0.005950 0.020622 -0.023622 -0.006485 0.010916
# 4 0.009707 -0.029764 -0.023622 0.066732 0.008328 -0.023777
# 5 0.001785 -0.001635 -0.006485 0.008328 0.031758 -0.014292
# 6 -0.008909 0.014376 0.010916 -0.023777 -0.014292 0.035808
#
#
# Mechanical properties :
#
#
# Convention : Reuss Voigt Hill
#
# Bulk Modulus (GPa) = 22.79990 67.23215 45.01602
# Shear Modulus (GPa) = 22.55953 45.23420 33.89686
#
# Velocity S-wave (km/s) = 2.89657 4.10159 3.55058
# Velocity P-wave (km/s) = 4.43468 6.88731 5.79230
#
# Compressibility (1/GPa) = 0.04385984
#
# Stress axis : x y z
#
# Youngs Moduli (GPa) = 94.72374 36.88615 48.49251
#
# Poissons Ratio (x) = 0.32474 0.21147
# Poissons Ratio (y) = 0.83392 -0.28853
# Poissons Ratio (z) = 0.41308 -0.21947
#
# Static dielectric constant tensor:
#      x y z
#    x 2.008350 0.064130 -0.108790 
#    y 0.064130 2.172170 -0.062420 
#    z -0.108790 -0.062420 2.330870 
# 
# From -- ./inp_files/519030.got.cif
#   From: 2010.05.17/outbox.cif.g08.bks.cpg/sg2_260_cif.got.tgz:519030.got - 2010.06.03 11:33:40.
