data_PCOD9090011
_publ_section_title
;
Structure prediction by ZEFSAII (Michael W. Deem and Ramdas Pophale) SiO2 
 PCOD9090011
Probable space group: P -1
;
_chemical_formula_sum "Si O2"
_cell_formula_units_Z 14
_cell_length_a 25.429163
_cell_length_b 6.943266
_cell_length_c 5.005522
_cell_angle_alpha 111.751843
_cell_angle_beta 69.750300
_cell_angle_gamma 130.892957
_cell_volume 613.731899
_symmetry_space_group_name_H-M "P -1"
_symmetry_group_IT_number 2
_symmetry_cell_setting 'triclinic'
loop_
_space_group_symop_operation_xyz
x,y,z
-x,-y,-z
loop_
_atom_site_type_symbol
_atom_site_label
_atom_site_fract_x
_atom_site_fract_y
_atom_site_fract_z
Si Si1 0.334966 0.786132 0.115075
Si Si2 0.187301 0.134333 0.652247
Si Si3 0.551096 0.600901 0.711631
Si Si4 0.659965 0.485908 0.538648
Si Si5 0.966290 0.352063 0.266057
Si Si6 0.968608 0.846828 0.753275
Si Si7 0.816182 0.599272 0.712961
O O1 0.348906 0.626124 0.208881
O O2 0.256394 0.686898 0.281295
O O3 0.393091 0.088275 0.213283
O O4 0.336082 0.698989 0.768467
O O5 0.263880 0.231592 0.471360
O O6 0.171197 0.288087 0.550576
O O7 0.117867 0.841055 0.636872
O O8 0.197435 0.232304 0.987781
O O9 0.500000 0.500000 0.500000
O O10 0.596795 0.494046 0.579020
O O11 0.500000 0.500000 0.000000
O O12 0.982085 0.615536 0.553598
O O13 0.974983 0.094065 0.054919
O O14 0.000000 0.500000 0.000000
O O15 0.883998 0.653012 0.758199
O O16 0.000000 0.000000 0.500000
#
# Coordination Sequence:
#
# PCOD9090011 Si02
#       7
#     2   2   2   2   2   2   2
#     4  10  23  42  67  97 130 171 226 258 321 402
#     4  10  20  39  61  83 123 165 208 260 317 379
#     4  12  26  43  68 101 135 166 210 270 327 397
#     4  10  23  43  68  95 128 176 213 267 330 380
#     4  12  24  36  54  89 125 158 206 264 322 370
#     4  12  21  37  61  84 116 164 210 255 311 366
#     4  10  19  38  63  87 115 168 216 262 303 377
#
# _framework density 22.811264000000001
#
# number of rings (size 3 to 8) (size 9 to 14) (size 15 to 20)
#    0.000    1.143    2.857    3.429    0.000    4.571 
#    0.000    4.286    0.000    0.000    0.000    0.000 
#    0.000    0.000    0.000    0.000    0.000    0.000 
#
# Total GULP energy -78184.390203 kJ/mol
# GULP energy per Si atom -5584.599300 kJ/mol
# Density = 2.275934 g / cm^3
# Si number density = 22.811264 Si / 1000 Ang^3
#
#
#
# Elastic Constant Matrix: (Units=GPa)
#
#
# Indices 1 2 3 4 5 6 
#
# 1 159.4222 60.1533 35.5886 -3.9470 4.8164 14.6597
# 2 60.1533 178.0414 46.8705 0.1953 5.7222 37.2221
# 3 35.5886 46.8705 127.5182 -5.0533 21.9985 18.7294
# 4 -3.9470 0.1953 -5.0533 41.6316 1.0201 -1.5176
# 5 4.8164 5.7222 21.9985 1.0201 38.3264 6.8156
# 6 14.6597 37.2221 18.7294 -1.5176 6.8156 46.5293
#
#
#
# Elastic Compliance Matrix: (Units=1/GPa)
#
#
# Indices 1 2 3 4 5 6 
#
# 1 0.007382 -0.002147 -0.001254 0.000551 0.000116 -0.000103
# 2 -0.002147 0.007824 -0.001735 -0.000660 0.001014 -0.005054
# 3 -0.001254 -0.001735 0.009964 0.001170 -0.005077 -0.001446
# 4 0.000551 -0.000660 0.001170 0.024285 -0.001447 0.000887
# 5 0.000116 0.001014 -0.005077 -0.001447 0.029441 -0.003164
# 6 -0.000103 -0.005054 -0.001446 0.000887 -0.003164 0.026641
#
#
# Mechanical properties :
#
#
# Convention : Reuss Voigt Hill
#
# Bulk Modulus (GPa) = 67.12626 83.35629 75.24127
# Shear Modulus (GPa) = 41.39878 46.78874 44.09376
#
# Velocity S-wave (km/s) = 4.26471 4.53385 4.40134
# Velocity P-wave (km/s) = 7.33083 8.00180 7.67365
#
# Compressibility (1/GPa) = 0.01489730
#
# Stress axis : x y z
#
# Youngs Moduli (GPa) = 135.45927 127.81969 100.35694
#
# Poissons Ratio (x) = 0.27441 0.12588
# Poissons Ratio (y) = 0.29081 0.17414
# Poissons Ratio (z) = 0.16992 0.22180
#
# Static dielectric constant tensor:
#      x y z
#    x 1.907350 0.003880 -0.124760 
#    y 0.003880 1.967650 0.059620 
#    z -0.124760 0.059620 1.938830 
# 
# From -- ./inp_files/7416.got.cif
#   From: 2010.05.17/outbox.cif.g08.bks.cpg/sg2_4_cif.got.tgz:7416.got - 2010.06.03 11:33:40.
