data_PCOD9090508
_publ_section_title
;
Structure prediction by ZEFSAII (Michael W. Deem and Ramdas Pophale) SiO2 
 PCOD9090508
Probable space group: P -1
;
_chemical_formula_sum "Si O2"
_cell_formula_units_Z 14
_cell_length_a 11.869581
_cell_length_b 20.105252
_cell_length_c 6.191672
_cell_angle_alpha 121.517758
_cell_angle_beta 39.551119
_cell_angle_gamma 140.401860
_cell_volume 590.371611
_symmetry_space_group_name_H-M "P -1"
_symmetry_group_IT_number 2
_symmetry_cell_setting 'triclinic'
loop_
_space_group_symop_operation_xyz
x,y,z
-x,-y,-z
loop_
_atom_site_type_symbol
_atom_site_label
_atom_site_fract_x
_atom_site_fract_y
_atom_site_fract_z
Si Si1 0.912832 0.492829 0.362863
Si Si2 0.095741 0.785546 0.961605
Si Si3 0.332638 0.890826 0.193296
Si Si4 0.045448 0.914900 0.994745
Si Si5 0.405657 0.276250 0.874464
Si Si6 0.550557 0.849127 0.137354
Si Si7 0.762169 0.615889 0.826666
O O1 0.651326 0.373400 0.560176
O O2 0.926460 0.590910 0.497978
O O3 0.000000 0.500000 0.500000
O O4 0.000000 0.500000 0.000000
O O5 0.070640 0.870605 0.097687
O O6 0.337384 0.822146 0.556264
O O7 0.863581 0.677832 0.010794
O O8 0.145805 0.792157 0.147458
O O9 0.196613 0.905039 0.589771
O O10 0.484436 0.867967 0.041027
O O11 0.500000 0.000000 0.000000
O O12 0.185996 0.037308 0.008214
O O13 0.769922 0.831774 0.188392
O O14 0.451266 0.243229 0.971676
O O15 0.264651 0.315705 0.163877
O O16 0.500000 0.500000 0.000000
#
# Coordination Sequence:
#
# PCOD9090508 Si02
#       7
#     2   2   2   2   2   2   2
#     4  11  25  54  82 108 140 188 254 319 373 453
#     4  10  19  38  66  95 133 187 245 285 356 420
#     4  11  19  37  64  98 141 198 248 290 352 432
#     4  10  20  38  62  95 147 188 236 297 356 432
#     4  10  23  45  65 106 144 188 240 298 389 432
#     4  11  20  37  64  96 146 191 239 294 349 450
#     4   9  21  46  73 100 139 180 236 309 373 432
#
# _framework density 23.713875999999999
#
# number of rings (size 3 to 8) (size 9 to 14) (size 15 to 20)
#    0.000    1.714    2.857    2.143    0.000    0.000 
#   28.286    4.286    0.000    0.000    0.000    0.000 
#    0.000    0.000    0.000    0.000    0.000    0.000 
#
# Total GULP energy -78028.515190 kJ/mol
# GULP energy per Si atom -5573.465371 kJ/mol
# Density = 2.365990 g / cm^3
# Si number density = 23.713876 Si / 1000 Ang^3
#
#
#
# Elastic Constant Matrix: (Units=GPa)
#
#
# Indices 1 2 3 4 5 6 
#
# 1 170.3731 75.7856 51.6708 -3.0750 18.6943 -17.1648
# 2 75.7856 144.1767 39.4662 -21.7210 8.8089 -3.9464
# 3 51.6708 39.4662 75.4734 -15.0776 11.7308 2.9551
# 4 -3.0750 -21.7210 -15.0776 39.7034 5.1916 -12.5082
# 5 18.6943 8.8089 11.7308 5.1916 12.2896 -6.4939
# 6 -17.1648 -3.9464 2.9551 -12.5082 -6.4939 58.7156
#
#
#
# Elastic Compliance Matrix: (Units=1/GPa)
#
#
# Indices 1 2 3 4 5 6 
#
# 1 0.009599 -0.003720 -0.003924 -0.001363 -0.006704 0.001722
# 2 -0.003720 0.010220 -0.001430 0.005220 -0.002223 0.000538
# 3 -0.003924 -0.001430 0.021364 0.008638 -0.018374 -0.002510
# 4 -0.001363 0.005220 0.008638 0.035616 -0.022521 0.004614
# 5 -0.006704 -0.002223 -0.018374 -0.022521 0.124316 0.007767
# 6 0.001722 0.000538 -0.002510 0.004614 0.007767 0.019539
#
#
# Mechanical properties :
#
#
# Convention : Reuss Voigt Hill
#
# Bulk Modulus (GPa) = 43.41386 80.42982 61.92184
# Shear Modulus (GPa) = 20.28564 37.01509 28.65037
#
# Velocity S-wave (km/s) = 2.92795 3.95511 3.47964
# Velocity P-wave (km/s) = 5.45689 7.40592 6.50482
#
# Compressibility (1/GPa) = 0.02303412
#
# Stress axis : x y z
#
# Youngs Moduli (GPa) = 104.18084 97.85053 46.80798
#
# Poissons Ratio (x) = 0.36400 0.18368
# Poissons Ratio (y) = 0.38755 0.06694
# Poissons Ratio (z) = 0.40881 0.13993
#
# Static dielectric constant tensor:
#      x y z
#    x 2.004110 0.020130 0.014120 
#    y 0.020130 1.932650 -0.010290 
#    z 0.014120 -0.010290 1.944820 
# 
# From -- ./inp_files/82758.got.cif
#   From: 2010.05.17/outbox.cif.g08.bks.cpg/sg2_42_cif.got.tgz:82758.got - 2010.06.03 11:33:40.
