data_PCOD9090589
_publ_section_title
;
Structure prediction by ZEFSAII (Michael W. Deem and Ramdas Pophale) SiO2 
 PCOD9090589
Probable space group: P -1
;
_chemical_formula_sum "Si O2"
_cell_formula_units_Z 16
_cell_length_a 9.993982
_cell_length_b 10.676594
_cell_length_c 9.111714
_cell_angle_alpha 132.787272
_cell_angle_beta 85.848180
_cell_angle_gamma 98.797350
_cell_volume 704.445770
_symmetry_space_group_name_H-M "P -1"
_symmetry_group_IT_number 2
_symmetry_cell_setting 'triclinic'
loop_
_space_group_symop_operation_xyz
x,y,z
-x,-y,-z
loop_
_atom_site_type_symbol
_atom_site_label
_atom_site_fract_x
_atom_site_fract_y
_atom_site_fract_z
Si Si1 0.124975 0.430153 0.015211
Si Si2 0.392039 0.129318 0.111347
Si Si3 0.562952 0.307387 0.472804
Si Si4 0.146279 0.498481 0.408888
Si Si5 0.820250 0.818884 0.652963
Si Si6 0.642498 0.654687 0.261902
Si Si7 0.365403 0.048200 0.723616
Si Si8 0.071593 0.021516 0.667433
O O1 0.266334 0.459282 0.933286
O O2 0.091022 0.222855 0.863522
O O3 0.133148 0.498763 0.234689
O O4 0.000000 0.500000 0.000000
O O5 0.469181 0.292439 0.323512
O O6 0.269401 0.049804 0.163229
O O7 0.350166 0.138268 0.953897
O O8 0.500000 0.000000 0.000000
O O9 0.719107 0.364476 0.463696
O O10 0.490700 0.413472 0.685779
O O11 0.552906 0.111360 0.383491
O O12 0.187989 0.324667 0.335330
O O13 0.000000 0.500000 0.500000
O O14 0.750388 0.743905 0.447603
O O15 0.972277 0.903923 0.687987
O O16 0.594847 0.797149 0.269899
O O17 0.218166 0.964710 0.611543
O O18 0.000000 0.000000 0.500000
#
# Coordination Sequence:
#
# PCOD9090589 Si02
#       8
#     2   2   2   2   2   2   2   2
#     4  11  25  43  66 101 138 169 226 280 327 399
#     4   9  21  39  61  93 131 166 221 272 318 396
#     4  10  23  41  66  93 133 179 216 272 348 388
#     4  12  27  43  65  94 135 177 218 278 337 402
#     4  11  21  40  65  91 129 169 224 266 325 396
#     4  10  21  40  65  96 128 175 220 276 323 396
#     4  10  19  38  67  97 133 165 231 275 319 398
#     4  11  22  40  72  95 128 177 218 272 340 383
#
# _framework density 22.712893000000001
#
# number of rings (size 3 to 8) (size 9 to 14) (size 15 to 20)
#    0.000    1.500    2.500    3.375    1.750    6.500 
#    0.000    3.750    0.000    0.000    0.000    0.000 
#    0.000    0.000    0.000    0.000    0.000    0.000 
#
# Total GULP energy -89258.268245 kJ/mol
# GULP energy per Si atom -5578.641765 kJ/mol
# Density = 2.266120 g / cm^3
# Si number density = 22.712893 Si / 1000 Ang^3
#
#
#
# Elastic Constant Matrix: (Units=GPa)
#
#
# Indices 1 2 3 4 5 6 
#
# 1 102.5695 13.2488 36.4985 -23.4575 -6.0970 1.0817
# 2 13.2488 66.4333 6.1335 -19.1516 -3.5432 -9.4868
# 3 36.4985 6.1335 101.0107 -41.7521 -8.3877 6.5465
# 4 -23.4575 -19.1516 -41.7521 37.3703 -1.9349 -2.3918
# 5 -6.0970 -3.5432 -8.3877 -1.9349 44.6021 -8.8273
# 6 1.0817 -9.4868 6.5465 -2.3918 -8.8273 37.9760
#
#
#
# Elastic Compliance Matrix: (Units=1/GPa)
#
#
# Indices 1 2 3 4 5 6 
#
# 1 0.011769 -0.000620 -0.002155 0.004772 0.001465 0.000522
# 2 -0.000620 0.021041 0.006513 0.018336 0.004882 0.006441
# 3 -0.002155 0.006513 0.021658 0.026534 0.005632 0.000935
# 4 0.004772 0.018336 0.026534 0.069837 0.011502 0.006943
# 5 0.001465 0.004882 0.005632 0.011502 0.025944 0.006962
# 6 0.000522 0.006441 0.000935 0.006943 0.006962 0.029821
#
#
# Mechanical properties :
#
#
# Convention : Reuss Voigt Hill
#
# Bulk Modulus (GPa) = 16.14317 42.41947 29.28132
# Shear Modulus (GPa) = 25.87438 38.26518 32.06978
#
# Velocity S-wave (km/s) = 3.37886 4.10900 3.76169
# Velocity P-wave (km/s) = 4.72707 6.42097 5.63799
#
# Compressibility (1/GPa) = 0.06194568
#
# Stress axis : x y z
#
# Youngs Moduli (GPa) = 84.96780 47.52592 46.17272
#
# Poissons Ratio (x) = 0.02946 0.09949
# Poissons Ratio (y) = 0.05267 -0.30075
# Poissons Ratio (z) = 0.18309 -0.30956
#
# Static dielectric constant tensor:
#      x y z
#    x 1.992090 0.033690 -0.072630 
#    y 0.033690 1.884140 0.019450 
#    z -0.072630 0.019450 1.930370 
# 
# From -- ./inp_files/190697.got.cif
#   From: 2010.05.17/outbox.cif.g08.bks.cpg/sg2_96_cif.got.tgz:190697.got - 2010.06.03 11:33:40.
