data_PCOD9090151
_publ_section_title
;
Structure prediction by ZEFSAII (Michael W. Deem and Ramdas Pophale) SiO2 
 PCOD9090151
Probable space group: P -1
;
_chemical_formula_sum "Si O2"
_cell_formula_units_Z 16
_cell_length_a 5.376481
_cell_length_b 22.781909
_cell_length_c 10.262484
_cell_angle_alpha 128.634424
_cell_angle_beta 44.318915
_cell_angle_gamma 110.854380
_cell_volume 676.473269
_symmetry_space_group_name_H-M "P -1"
_symmetry_group_IT_number 2
_symmetry_cell_setting 'triclinic'
loop_
_space_group_symop_operation_xyz
x,y,z
-x,-y,-z
loop_
_atom_site_type_symbol
_atom_site_label
_atom_site_fract_x
_atom_site_fract_y
_atom_site_fract_z
Si Si1 0.138264 0.968359 0.045227
Si Si2 0.864336 0.055967 0.509075
Si Si3 0.477024 0.163039 0.417062
Si Si4 0.737840 0.519748 0.747588
Si Si5 0.220136 0.431363 0.670696
Si Si6 0.931299 0.342151 0.134517
Si Si7 0.022399 0.688669 0.221861
Si Si8 0.564962 0.805658 0.225117
O O1 0.239125 0.878776 0.851301
O O2 0.500000 0.000000 0.000000
O O3 0.865144 0.002740 0.308152
O O4 0.000000 0.000000 0.000000
O O5 0.164197 0.110926 0.454266
O O6 0.512262 0.121990 0.741225
O O7 0.000000 0.000000 0.500000
O O8 0.551423 0.161761 0.542109
O O9 0.356821 0.251870 0.556107
O O10 0.942329 0.478747 0.739606
O O11 0.752615 0.609106 0.881384
O O12 0.000000 0.500000 0.500000
O O13 0.390800 0.484071 0.784104
O O14 0.563074 0.383450 0.397145
O O15 0.982703 0.628366 0.263170
O O16 0.903599 0.348462 0.998401
O O17 0.053006 0.251961 0.994096
O O18 0.296606 0.747112 0.215998
#
# Coordination Sequence:
#
# PCOD9090151 Si02
#       8
#     2   2   2   2   2   2   2   2
#     4  10  19  38  64  86 119 168 207 261 329 387
#     4  10  21  39  65  97 129 169 227 283 338 406
#     4   9  20  41  59  90 130 172 216 275 336 394
#     4  10  23  43  69 100 135 175 226 284 330 401
#     4  11  25  44  69 100 133 178 233 273 335 406
#     4  10  23  42  68  93 135 181 216 281 349 390
#     4  10  24  41  65  95 137 175 224 280 330 406
#     4  10  21  41  66  90 139 174 220 281 343 398
#
# _framework density 23.652080000000002
#
# number of rings (size 3 to 8) (size 9 to 14) (size 15 to 20)
#    0.000    2.000    1.250    1.500    8.750    1.500 
#    6.750    0.000    0.000    0.000    0.000    0.000 
#    0.000    0.000    0.000    0.000    0.000    0.000 
#
# Total GULP energy -89334.871159 kJ/mol
# GULP energy per Si atom -5583.429447 kJ/mol
# Density = 2.359825 g / cm^3
# Si number density = 23.652080 Si / 1000 Ang^3
#
#
#
# Elastic Constant Matrix: (Units=GPa)
#
#
# Indices 1 2 3 4 5 6 
#
# 1 108.8782 36.9195 44.3747 1.3696 21.6850 -8.2624
# 2 36.9195 144.3803 52.0199 24.0855 -5.3672 -24.6884
# 3 44.3747 52.0199 166.1562 12.9688 10.8927 -8.7112
# 4 1.3696 24.0855 12.9688 32.1211 -2.4544 -7.2106
# 5 21.6850 -5.3672 10.8927 -2.4544 49.3309 3.5502
# 6 -8.2624 -24.6884 -8.7112 -7.2106 3.5502 50.2559
#
#
#
# Elastic Compliance Matrix: (Units=1/GPa)
#
#
# Indices 1 2 3 4 5 6 
#
# 1 0.012031 -0.002690 -0.002161 0.002204 -0.005063 0.000956
# 2 -0.002690 0.009853 -0.001906 -0.005641 0.002171 0.003105
# 3 -0.002161 -0.001906 0.007367 -0.001565 -0.000950 -0.000172
# 4 0.002204 -0.005641 -0.001565 0.036498 0.000397 0.002528
# 5 -0.005063 0.002171 -0.000950 0.000397 0.023071 -0.001503
# 6 0.000956 0.003105 -0.000172 0.002528 -0.001503 0.022020
#
#
# Mechanical properties :
#
#
# Convention : Reuss Voigt Hill
#
# Bulk Modulus (GPa) = 63.53977 76.22698 69.88338
# Shear Modulus (GPa) = 38.58027 45.41496 41.99762
#
# Velocity S-wave (km/s) = 4.04314 4.38668 4.21841
# Velocity P-wave (km/s) = 6.97987 7.61286 7.30323
#
# Compressibility (1/GPa) = 0.01573818
#
# Stress axis : x y z
#
# Youngs Moduli (GPa) = 83.12062 101.48688 135.73151
#
# Poissons Ratio (x) = 0.27304 0.29328
# Poissons Ratio (y) = 0.22363 0.25865
# Poissons Ratio (z) = 0.17960 0.19340
#
# Static dielectric constant tensor:
#      x y z
#    x 2.015090 -0.032130 -0.118230 
#    y -0.032130 1.891520 0.046190 
#    z -0.118230 0.046190 1.989650 
# 
# From -- ./inp_files/143136.got.cif
#   From: 2010.05.17/outbox.cif.g08.bks.cpg/sg2_72_cif.got.tgz:143136.got - 2010.06.03 11:33:40.
