data_PCOD9090048
_publ_section_title
;
Structure prediction by ZEFSAII (Michael W. Deem and Ramdas Pophale) SiO2 
 PCOD9090048
Probable space group: P -1
;
_chemical_formula_sum "Si O2"
_cell_formula_units_Z 16
_cell_length_a 18.630079
_cell_length_b 9.244833
_cell_length_c 11.195885
_cell_angle_alpha 138.126949
_cell_angle_beta 44.623461
_cell_angle_gamma 149.583059
_cell_volume 637.673571
_symmetry_space_group_name_H-M "P -1"
_symmetry_group_IT_number 2
_symmetry_cell_setting 'triclinic'
loop_
_space_group_symop_operation_xyz
x,y,z
-x,-y,-z
loop_
_atom_site_type_symbol
_atom_site_label
_atom_site_fract_x
_atom_site_fract_y
_atom_site_fract_z
Si Si1 0.400365 0.808869 0.346076
Si Si2 0.549228 0.436371 0.287773
Si Si3 0.701596 0.359017 0.203035
Si Si4 0.744875 0.152883 0.808801
Si Si5 0.597165 0.812224 0.236623
Si Si6 0.100757 0.434288 0.330792
Si Si7 0.883054 0.393121 0.171562
Si Si8 0.955211 0.109570 0.523942
O O1 0.454678 0.651251 0.226674
O O2 0.257171 0.636254 0.333568
O O3 0.541396 0.104609 0.290726
O O4 0.379259 0.927252 0.559103
O O5 0.500000 0.500000 0.500000
O O6 0.693501 0.537323 0.226339
O O7 0.575406 0.604739 0.237911
O O8 0.416445 0.078505 0.194757
O O9 0.809563 0.503101 0.273463
O O10 0.735734 0.200994 0.986205
O O11 0.848975 0.472422 0.808546
O O12 0.797575 0.983206 0.627213
O O13 0.749404 0.023420 0.116762
O O14 0.000000 0.500000 0.500000
O O15 0.007902 0.138287 0.344897
O O16 0.955176 0.551752 0.311720
O O17 0.000000 0.500000 0.000000
O O18 0.000000 0.000000 0.500000
#
# Coordination Sequence:
#
# PCOD9090048 Si02
#       8
#     2   2   2   2   2   2   2   2
#     4  10  19  38  63  89 124 172 212 251 333 377
#     4  12  24  39  65 101 130 163 229 267 312 388
#     4  11  23  42  66  94 132 176 203 272 333 388
#     4  11  24  43  64  97 136 172 208 266 340 383
#     4  10  22  38  67  94 123 171 219 272 309 388
#     4  10  21  39  61  89 128 174 210 258 326 392
#     4  11  23  47  69  91 132 172 218 262 343 386
#     4  11  25  42  70  95 127 171 226 273 309 393
#
# _framework density 25.091206
#
# number of rings (size 3 to 8) (size 9 to 14) (size 15 to 20)
#    0.000    1.250    5.000    0.375    3.500    0.000 
#    2.250    3.125    0.000    0.000    0.000    0.000 
#    0.000    0.000    0.000    0.000    0.000    0.000 
#
# Total GULP energy -89234.777102 kJ/mol
# GULP energy per Si atom -5577.173569 kJ/mol
# Density = 2.503410 g / cm^3
# Si number density = 25.091206 Si / 1000 Ang^3
#
#
#
# Elastic Constant Matrix: (Units=GPa)
#
#
# Indices 1 2 3 4 5 6 
#
# 1 198.9493 43.3996 4.6951 -11.2272 -7.8847 0.6319
# 2 43.3996 92.3198 25.5781 -37.6514 2.8000 -12.1601
# 3 4.6951 25.5781 65.5768 -34.2078 3.9784 2.0399
# 4 -11.2272 -37.6514 -34.2078 35.8392 2.1334 6.3024
# 5 -7.8847 2.8000 3.9784 2.1334 39.0844 -5.4819
# 6 0.6319 -12.1601 2.0399 6.3024 -5.4819 61.5266
#
#
#
# Elastic Compliance Matrix: (Units=1/GPa)
#
#
# Indices 1 2 3 4 5 6 
#
# 1 0.005768 -0.003701 -0.000291 -0.002380 0.001532 -0.000401
# 2 -0.003701 0.023127 0.007241 0.030175 -0.004667 0.000862
# 3 -0.000291 0.007241 0.035040 0.042208 -0.007105 -0.004684
# 4 -0.002380 0.030175 0.042208 0.101170 -0.013438 -0.006972
# 5 0.001532 -0.004667 -0.007105 -0.013438 0.028132 0.003181
# 6 -0.000401 0.000862 -0.004684 -0.006972 0.003181 0.017580
#
#
# Mechanical properties :
#
#
# Convention : Reuss Voigt Hill
#
# Bulk Modulus (GPa) = 14.19789 56.02129 35.10959
# Shear Modulus (GPa) = 21.94942 46.16823 34.05883
#
# Velocity S-wave (km/s) = 2.96089 4.29419 3.68829
# Velocity P-wave (km/s) = 4.16652 6.85291 5.67108
#
# Compressibility (1/GPa) = 0.07043299
#
# Stress axis : x y z
#
# Youngs Moduli (GPa) = 173.36215 43.23996 28.53889
#
# Poissons Ratio (x) = 0.16002 0.00832
# Poissons Ratio (y) = 0.64156 -0.20665
# Poissons Ratio (z) = 0.05051 -0.31310
#
# Static dielectric constant tensor:
#      x y z
#    x 2.055430 -0.009370 -0.050200 
#    y -0.009370 2.107230 0.061580 
#    z -0.050200 0.061580 2.031680 
# 
# From -- ./inp_files/283227.got.cif
#   From: 2010.05.17/outbox.cif.g08.bks.cpg/sg2_142_cif.got.tgz:283227.got - 2010.06.03 11:33:40.
