data_PCOD9090045
_publ_section_title
;
Structure prediction by ZEFSAII (Michael W. Deem and Ramdas Pophale) SiO2 
 PCOD9090045
Probable space group: P -1
;
_chemical_formula_sum "Si O2"
_cell_formula_units_Z 16
_cell_length_a 8.828999
_cell_length_b 8.850781
_cell_length_c 17.998558
_cell_angle_alpha 45.556017
_cell_angle_beta 52.996874
_cell_angle_gamma 87.424463
_cell_volume 602.202299
_symmetry_space_group_name_H-M "P -1"
_symmetry_group_IT_number 2
_symmetry_cell_setting 'triclinic'
loop_
_space_group_symop_operation_xyz
x,y,z
-x,-y,-z
loop_
_atom_site_type_symbol
_atom_site_label
_atom_site_fract_x
_atom_site_fract_y
_atom_site_fract_z
Si Si1 0.866300 0.675578 0.157034
Si Si2 0.148036 0.244752 0.251149
Si Si3 0.593024 0.145289 0.065200
Si Si4 0.139709 0.559186 0.360332
Si Si5 0.111507 0.221347 0.102515
Si Si6 0.544896 0.564638 0.761086
Si Si7 0.767600 0.276901 0.431325
Si Si8 0.321859 0.860461 0.803310
O O1 0.663126 0.492830 0.214944
O O2 0.724133 0.471650 0.339324
O O3 0.000000 0.000000 0.000000
O O4 0.119880 0.722233 0.069147
O O5 0.276466 0.226863 0.292267
O O6 0.905236 0.195781 0.369679
O O7 0.082707 0.112289 0.232644
O O8 0.364567 0.576004 0.051756
O O9 0.383551 0.888219 0.164968
O O10 0.515072 0.999938 0.218931
O O11 0.260855 0.416743 0.356378
O O12 0.000000 0.500000 0.500000
O O13 0.948873 0.453233 0.386163
O O14 0.329709 0.275078 0.971063
O O15 0.192484 0.535290 0.969731
O O16 0.857000 0.070159 0.182638
O O17 0.504999 0.990492 0.635038
#
# Coordination Sequence:
#
# PCOD9090045 Si02
#       8
#     2   2   2   2   2   2   2   2
#     4  11  22  38  62  93 126 166 205 258 308 366
#     4   9  22  38  63  91 121 167 213 248 309 372
#     4  10  19  38  63  89 122 166 206 249 310 384
#     4  11  22  39  64  90 127 163 203 258 318 375
#     4  10  21  40  67  91 123 165 211 261 307 361
#     4  11  22  39  62  91 125 163 209 258 304 368
#     4  10  23  39  63  95 125 166 210 248 317 375
#     4  10  20  39  66  93 123 164 210 256 309 374
#
# _framework density 26.569144000000001
#
# number of rings (size 3 to 8) (size 9 to 14) (size 15 to 20)
#    0.000    1.750    3.750    0.375    3.500    2.000 
#    0.000    6.250    0.000    0.000    0.000    0.000 
#    0.000    0.000    0.000    0.000    0.000    0.000 
#
# Total GULP energy -89162.538269 kJ/mol
# GULP energy per Si atom -5572.658642 kJ/mol
# Density = 2.650867 g / cm^3
# Si number density = 26.569144 Si / 1000 Ang^3
#
#
#
# Elastic Constant Matrix: (Units=GPa)
#
#
# Indices 1 2 3 4 5 6 
#
# 1 97.3177 19.8767 24.4635 -13.6049 6.8892 15.7075
# 2 19.8767 56.8250 10.5400 2.3452 5.9315 21.0839
# 3 24.4635 10.5400 80.0720 22.5247 4.5940 9.9512
# 4 -13.6049 2.3452 22.5247 50.7351 -4.1995 -0.8304
# 5 6.8892 5.9315 4.5940 -4.1995 36.5705 4.7539
# 6 15.7075 21.0839 9.9512 -0.8304 4.7539 33.9668
#
#
#
# Elastic Compliance Matrix: (Units=1/GPa)
#
#
# Indices 1 2 3 4 5 6 
#
# 1 0.013427 -0.002967 -0.005009 0.005885 -0.000392 -0.002701
# 2 -0.002967 0.023813 0.000189 -0.002353 -0.001874 -0.013260
# 3 -0.005009 0.000189 0.017005 -0.009105 -0.001913 -0.002738
# 4 0.005885 -0.002353 -0.009105 0.025727 0.003164 0.001592
# 5 -0.000392 -0.001874 -0.001913 0.003164 0.028588 -0.002019
# 6 -0.002701 -0.013260 -0.002738 0.001592 -0.002019 0.040044
#
#
# Mechanical properties :
#
#
# Convention : Reuss Voigt Hill
#
# Bulk Modulus (GPa) = 25.85866 38.21946 32.03906
# Shear Modulus (GPa) = 28.23738 36.21013 32.22375
#
# Velocity S-wave (km/s) = 3.26358 3.69570 3.48634
# Velocity P-wave (km/s) = 4.89438 5.71201 5.31893
#
# Compressibility (1/GPa) = 0.03867177
#
# Stress axis : x y z
#
# Youngs Moduli (GPa) = 74.47534 41.99349 58.80456
#
# Poissons Ratio (x) = 0.12461 0.29455
# Poissons Ratio (y) = 0.22099 -0.01113
# Poissons Ratio (z) = 0.37304 -0.00795
#
# Static dielectric constant tensor:
#      x y z
#    x 2.222210 -0.050900 0.055810 
#    y -0.050900 2.164790 0.056790 
#    z 0.055810 0.056790 2.235070 
# 
# From -- ./inp_files/461230.got.cif
#   From: 2010.05.17/outbox.cif.g08.bks.cpg/sg2_231_cif.got.tgz:461230.got - 2010.06.03 11:33:40.
