data_PCOD9090815
_publ_section_title
;
Structure prediction by ZEFSAII (Michael W. Deem and Ramdas Pophale) SiO2 
 PCOD9090815
Probable space group: P -1
;
_chemical_formula_sum "Si O2"
_cell_formula_units_Z 16
_cell_length_a 8.700144
_cell_length_b 10.657444
_cell_length_c 11.536090
_cell_angle_alpha 71.052723
_cell_angle_beta 82.438915
_cell_angle_gamma 42.330104
_cell_volume 671.319811
_symmetry_space_group_name_H-M "P -1"
_symmetry_group_IT_number 2
_symmetry_cell_setting 'triclinic'
loop_
_space_group_symop_operation_xyz
x,y,z
-x,-y,-z
loop_
_atom_site_type_symbol
_atom_site_label
_atom_site_fract_x
_atom_site_fract_y
_atom_site_fract_z
Si Si1 0.275196 0.070438 0.622497
Si Si2 0.312041 0.402276 0.321729
Si Si3 0.948616 0.673162 0.665049
Si Si4 0.091714 0.986090 0.819811
Si Si5 0.574765 0.450682 0.140967
Si Si6 0.401728 0.419581 0.562611
Si Si7 0.357514 0.849804 0.064466
Si Si8 0.391060 0.965411 0.251098
O O1 0.199165 0.183729 0.475959
O O2 0.391474 0.100226 0.690071
O O3 0.471152 0.834891 0.649985
O O4 0.071905 0.116604 0.690570
O O5 0.092861 0.458391 0.281450
O O6 0.384880 0.489983 0.222899
O O7 0.292022 0.434935 0.450449
O O8 0.204720 0.550034 0.640192
O O9 0.833031 0.816579 0.743541
O O10 0.199078 0.785937 0.809504
O O11 0.276340 0.921159 0.918508
O O12 0.861365 0.088390 0.876159
O O13 0.567592 0.611332 0.120190
O O14 0.500000 0.500000 0.000000
O O15 0.500000 0.500000 0.500000
O O16 0.596135 0.192374 0.652720
O O17 0.400001 0.944989 0.117873
#
# Coordination Sequence:
#
# PCOD9090815 Si02
#       8
#     2   2   2   2   2   2   2   2
#     4  10  20  39  62  82 118 162 198 238 289 353
#     4  10  19  39  60  83 120 156 201 236 289 359
#     4  11  23  40  60  84 123 165 194 240 295 349
#     4   9  21  38  62  85 109 159 201 233 296 356
#     4   9  19  36  60  87 115 151 198 244 286 344
#     4  12  25  36  56  91 118 156 200 241 296 351
#     4  10  21  38  59  86 118 150 196 248 294 342
#     4  11  23  39  56  88 123 148 197 250 288 348
#
# _framework density 23.833649000000001
#
# number of rings (size 3 to 8) (size 9 to 14) (size 15 to 20)
#    0.000    1.750    2.500    1.875    3.500    4.000 
#    0.000    0.000    0.000    0.000    0.000   19.250 
#    0.000    0.000    0.000    0.000    0.000    0.000 
#
# Total GULP energy -89479.227094 kJ/mol
# GULP energy per Si atom -5592.451693 kJ/mol
# Density = 2.377940 g / cm^3
# Si number density = 23.833649 Si / 1000 Ang^3
#
#
#
# Elastic Constant Matrix: (Units=GPa)
#
#
# Indices 1 2 3 4 5 6 
#
# 1 29.9763 2.5728 0.4258 5.2710 11.9586 8.8885
# 2 2.5728 90.7873 18.4302 25.0861 15.1878 12.3139
# 3 0.4258 18.4302 76.1951 8.6048 5.4811 4.7325
# 4 5.2710 25.0861 8.6048 35.9531 8.9421 -2.3735
# 5 11.9586 15.1878 5.4811 8.9421 42.5431 9.3630
# 6 8.8885 12.3139 4.7325 -2.3735 9.3630 25.7784
#
#
#
# Elastic Compliance Matrix: (Units=1/GPa)
#
#
# Indices 1 2 3 4 5 6 
#
# 1 0.042127 0.004230 0.001183 -0.008220 -0.008609 -0.014393
# 2 0.004230 0.016022 -0.001892 -0.011367 -0.002300 -0.008976
# 3 0.001183 -0.001892 0.013992 -0.002205 -0.000538 -0.002080
# 4 -0.008220 -0.011367 -0.002205 0.039589 -0.004759 0.014042
# 5 -0.008609 -0.002300 -0.000538 -0.004759 0.029341 -0.006929
# 6 -0.014393 -0.008976 -0.002080 0.014042 -0.006929 0.052234
#
#
# Mechanical properties :
#
#
# Convention : Reuss Voigt Hill
#
# Bulk Modulus (GPa) = 12.62914 26.64626 19.63770
# Shear Modulus (GPa) = 23.51174 32.55692 28.03433
#
# Velocity S-wave (km/s) = 3.14426 3.69996 3.43337
# Velocity P-wave (km/s) = 4.30025 5.42746 4.89640
#
# Compressibility (1/GPa) = 0.07918198
#
# Stress axis : x y z
#
# Youngs Moduli (GPa) = 23.73759 62.41344 71.46778
#
# Poissons Ratio (x) = -0.26398 -0.08454
# Poissons Ratio (y) = -0.10040 0.13525
# Poissons Ratio (z) = -0.02808 0.11812
#
# Static dielectric constant tensor:
#      x y z
#    x 1.966930 -0.005680 0.043240 
#    y -0.005680 1.964710 0.036040 
#    z 0.043240 0.036040 1.886870 
# 
# From -- ./inp_files/218705.got.cif
#   From: 2010.05.17/outbox.cif.g08.bks.cpg/sg2_110_cif.got.tgz:218705.got - 2010.06.03 11:33:40.
