data_PCOD9090206
_publ_section_title
;
Structure prediction by ZEFSAII (Michael W. Deem and Ramdas Pophale) SiO2 
 PCOD9090206
Probable space group: P -1
;
_chemical_formula_sum "Si O2"
_cell_formula_units_Z 16
_cell_length_a 12.424044
_cell_length_b 14.360493
_cell_length_c 7.979576
_cell_angle_alpha 75.182992
_cell_angle_beta 66.741967
_cell_angle_gamma 30.654050
_cell_volume 656.080158
_symmetry_space_group_name_H-M "P -1"
_symmetry_group_IT_number 2
_symmetry_cell_setting 'triclinic'
loop_
_space_group_symop_operation_xyz
x,y,z
-x,-y,-z
loop_
_atom_site_type_symbol
_atom_site_label
_atom_site_fract_x
_atom_site_fract_y
_atom_site_fract_z
Si Si1 0.744759 0.281764 0.482230
Si Si2 0.921925 0.833568 0.460895
Si Si3 0.313374 0.713639 0.991320
Si Si4 0.415723 0.773566 0.579158
Si Si5 0.043286 0.768108 0.940322
Si Si6 0.589135 0.658088 0.038228
Si Si7 0.639460 0.997787 0.887888
Si Si8 0.843174 0.518046 0.608750
O O1 0.500000 0.500000 0.500000
O O2 0.689293 0.208310 0.525228
O O3 0.899870 0.207437 0.268393
O O4 0.870871 0.240254 0.581918
O O5 0.012224 0.680778 0.371047
O O6 0.723231 0.032151 0.406700
O O7 0.807985 0.872455 0.683869
O O8 0.371147 0.731616 0.778726
O O9 0.090251 0.809144 0.044961
O O10 0.363910 0.755043 0.085322
O O11 0.500000 0.500000 0.000000
O O12 0.679684 0.612297 0.506575
O O13 0.223129 0.552915 0.925695
O O14 0.793091 0.907589 0.999431
O O15 0.688832 0.632772 0.816084
O O16 0.522641 0.795339 0.128891
O O17 0.500000 0.000000 0.000000
O O18 0.000000 0.500000 0.500000
#
# Coordination Sequence:
#
# PCOD9090206 Si02
#       8
#     2   2   2   2   2   2   2   2
#     4  10  19  38  64  91 128 163 202 258 319 382
#     4  11  24  40  65  95 124 164 214 264 318 370
#     4   8  17  39  62  89 120 159 198 247 310 379
#     4  10  21  38  62  95 127 160 205 265 313 369
#     4   9  21  39  61  89 122 161 202 250 312 368
#     4  10  22  40  64  87 120 162 205 254 310 370
#     4  11  25  41  59  89 125 163 211 256 303 372
#     4  11  24  42  63  89 124 170 216 260 313 372
#
# _framework density 24.387262
#
# number of rings (size 3 to 8) (size 9 to 14) (size 15 to 20)
#    0.000    2.000    1.250    1.125    1.750    4.500 
#    0.000    0.000    0.000    0.000    0.000    0.000 
#    0.000    0.000    0.000    0.000    0.000    0.000 
#
# Total GULP energy -89526.823857 kJ/mol
# GULP energy per Si atom -5595.426491 kJ/mol
# Density = 2.433176 g / cm^3
# Si number density = 24.387262 Si / 1000 Ang^3
#
#
#
# Elastic Constant Matrix: (Units=GPa)
#
#
# Indices 1 2 3 4 5 6 
#
# 1 172.5128 48.4475 41.6551 0.2845 -42.5523 -2.1178
# 2 48.4475 105.1280 6.5192 -1.9913 -13.4907 6.2672
# 3 41.6551 6.5192 75.1446 3.8110 -7.6828 -6.8638
# 4 0.2845 -1.9913 3.8110 36.8774 0.2347 4.8332
# 5 -42.5523 -13.4907 -7.6828 0.2347 40.9422 6.0279
# 6 -2.1178 6.2672 -6.8638 4.8332 6.0279 37.7238
#
#
#
# Elastic Compliance Matrix: (Units=1/GPa)
#
#
# Indices 1 2 3 4 5 6 
#
# 1 0.009819 -0.003083 -0.004424 0.000311 0.008526 -0.001144
# 2 -0.003083 0.011157 0.000592 0.000844 0.000898 -0.002171
# 3 -0.004424 0.000592 0.015901 -0.001971 -0.001864 0.003097
# 4 0.000311 0.000844 -0.001971 0.027905 0.000684 -0.004166
# 5 0.008526 0.000898 -0.001864 0.000684 0.034044 -0.005537
# 6 -0.001144 -0.002171 0.003097 -0.004166 -0.005537 0.028787
#
#
# Mechanical properties :
#
#
# Convention : Reuss Voigt Hill
#
# Bulk Modulus (GPa) = 43.39003 60.66987 52.02995
# Shear Modulus (GPa) = 33.52889 40.18625 36.85757
#
# Velocity S-wave (km/s) = 3.71192 4.06376 3.89182
# Velocity P-wave (km/s) = 6.01680 6.85205 6.44796
#
# Compressibility (1/GPa) = 0.02304677
#
# Stress axis : x y z
#
# Youngs Moduli (GPa) = 101.84233 89.63196 62.88877
#
# Poissons Ratio (x) = 0.27629 0.27823
# Poissons Ratio (y) = 0.31393 -0.03721
# Poissons Ratio (z) = 0.45057 -0.05303
#
# Static dielectric constant tensor:
#      x y z
#    x 1.950420 -0.019380 0.077380 
#    y -0.019380 1.942380 -0.028560 
#    z 0.077380 -0.028560 2.016480 
# 
# From -- ./inp_files/272858.got.cif
#   From: 2010.05.17/outbox.cif.g08.bks.cpg/sg2_137_cif.got.tgz:272858.got - 2010.06.03 11:33:40.
