data_PCOD9090798
_publ_section_title
;
Structure prediction by ZEFSAII (Michael W. Deem and Ramdas Pophale) SiO2 
 PCOD9090798
Probable space group: P -1
;
_chemical_formula_sum "Si O2"
_cell_formula_units_Z 14
_cell_length_a 8.015400
_cell_length_b 12.245551
_cell_length_c 8.643585
_cell_angle_alpha 121.918827
_cell_angle_beta 53.820150
_cell_angle_gamma 107.017693
_cell_volume 581.019480
_symmetry_space_group_name_H-M "P -1"
_symmetry_group_IT_number 2
_symmetry_cell_setting 'triclinic'
loop_
_space_group_symop_operation_xyz
x,y,z
-x,-y,-z
loop_
_atom_site_type_symbol
_atom_site_label
_atom_site_fract_x
_atom_site_fract_y
_atom_site_fract_z
Si Si1 0.778598 0.557429 0.985091
Si Si2 0.770407 0.878511 0.563643
Si Si3 0.384986 0.901514 0.377696
Si Si4 0.563224 0.797982 0.892866
Si Si5 0.431784 0.720620 0.471413
Si Si6 0.884282 0.300986 0.926943
Si Si7 0.760268 0.525874 0.622458
O O1 0.807945 0.421726 0.954139
O O2 0.695109 0.535178 0.843856
O O3 0.618379 0.650094 0.227475
O O4 0.989785 0.635402 0.953638
O O5 0.712325 0.893013 0.787412
O O6 0.549387 0.816681 0.589172
O O7 0.953084 0.783622 0.330385
O O8 0.778123 0.010899 0.563089
O O9 0.303182 0.795851 0.463541
O O10 0.500000 0.000000 0.500000
O O11 0.539898 0.839928 0.117637
O O12 0.681850 0.660258 0.696427
O O13 0.319689 0.775460 0.972297
O O14 0.321907 0.598972 0.510889
O O15 0.000000 0.500000 0.500000
#
# Coordination Sequence:
#
# PCOD9090798 Si02
#       7
#     2   2   2   2   2   2   2
#     4  10  19  39  59  91 128 169 213 254 325 386
#     4  10  24  41  64  98 130 172 222 263 314 391
#     4  10  22  43  68  91 127 177 223 261 315 387
#     4  12  23  41  69  95 134 168 213 273 332 372
#     4  10  20  41  66  89 131 174 211 264 328 377
#     4  10  22  38  65  93 131 172 209 265 324 384
#     4  12  24  36  64 101 134 163 217 269 323 398
#
# _framework density 24.095578
#
# number of rings (size 3 to 8) (size 9 to 14) (size 15 to 20)
#    0.000    1.429    2.857    2.571    2.000    1.143 
#    0.000    1.429    0.000    6.000    0.000    0.000 
#    0.000    0.000    0.000    0.000    0.000    0.000 
#
# Total GULP energy -78123.042715 kJ/mol
# GULP energy per Si atom -5580.217337 kJ/mol
# Density = 2.404073 g / cm^3
# Si number density = 24.095578 Si / 1000 Ang^3
#
#
#
# Elastic Constant Matrix: (Units=GPa)
#
#
# Indices 1 2 3 4 5 6 
#
# 1 61.9625 8.1112 -7.3773 1.4822 0.7337 8.9663
# 2 8.1112 60.6509 15.2095 18.7075 -3.3690 -10.9111
# 3 -7.3773 15.2095 75.9745 -15.9072 -3.1103 -1.5574
# 4 1.4822 18.7075 -15.9072 32.3017 7.3901 -3.4024
# 5 0.7337 -3.3690 -3.1103 7.3901 35.2268 12.2882
# 6 8.9663 -10.9111 -1.5574 -3.4024 12.2882 34.3715
#
#
#
# Elastic Compliance Matrix: (Units=1/GPa)
#
#
# Indices 1 2 3 4 5 6 
#
# 1 0.018047 -0.005236 0.003332 0.002958 0.000987 -0.006279
# 2 -0.005236 0.027523 -0.010118 -0.020984 0.004125 0.006093
# 3 0.003332 -0.010118 0.018602 0.015295 -0.002287 -0.000906
# 4 0.002958 -0.020984 0.015295 0.053869 -0.013170 0.003301
# 5 0.000987 0.004125 -0.002287 -0.013170 0.035927 -0.013200
# 6 -0.006279 0.006093 -0.000906 0.003301 -0.013200 0.037671
#
#
# Mechanical properties :
#
#
# Convention : Reuss Voigt Hill
#
# Bulk Modulus (GPa) = 24.92120 25.60830 25.26475
# Shear Modulus (GPa) = 21.82841 32.55630 27.19235
#
# Velocity S-wave (km/s) = 3.01310 3.67976 3.36299
# Velocity P-wave (km/s) = 4.74026 5.35771 5.05842
#
# Compressibility (1/GPa) = 0.04012648
#
# Stress axis : x y z
#
# Youngs Moduli (GPa) = 55.41056 36.33302 53.75857
#
# Poissons Ratio (x) = 0.19024 -0.17910
# Poissons Ratio (y) = 0.29014 0.54394
# Poissons Ratio (z) = -0.18461 0.36763
#
# Static dielectric constant tensor:
#      x y z
#    x 1.998240 0.009250 0.036910 
#    y 0.009250 1.998890 -0.001880 
#    z 0.036910 -0.001880 1.791370 
# 
# From -- ./inp_files/173253.got.cif
#   From: 2010.05.17/outbox.cif.g08.bks.cpg/sg2_87_cif.got.tgz:173253.got - 2010.06.03 11:33:40.
