data_PCOD9090348
_publ_section_title
;
Structure prediction by ZEFSAII (Michael W. Deem and Ramdas Pophale) SiO2 
 PCOD9090348
Probable space group: P -1
;
_chemical_formula_sum "Si O2"
_cell_formula_units_Z 16
_cell_length_a 9.261902
_cell_length_b 23.873811
_cell_length_c 21.276282
_cell_angle_alpha 18.742162
_cell_angle_beta 31.783350
_cell_angle_gamma 45.201217
_cell_volume 641.105752
_symmetry_space_group_name_H-M "P -1"
_symmetry_group_IT_number 2
_symmetry_cell_setting 'triclinic'
loop_
_space_group_symop_operation_xyz
x,y,z
-x,-y,-z
loop_
_atom_site_type_symbol
_atom_site_label
_atom_site_fract_x
_atom_site_fract_y
_atom_site_fract_z
Si Si1 0.566759 0.687702 0.508317
Si Si2 0.098564 0.471126 0.358961
Si Si3 0.134998 0.170669 0.107536
Si Si4 0.444170 0.481703 0.965048
Si Si5 0.194424 0.760411 0.743450
Si Si6 0.642871 0.888499 0.028510
Si Si7 0.240631 0.345595 0.660450
Si Si8 0.256909 0.918887 0.415309
O O1 0.743882 0.626263 0.556789
O O2 0.756950 0.742899 0.313657
O O3 0.522823 0.870036 0.350463
O O4 0.181734 0.468098 0.878009
O O5 0.703124 0.293289 0.684539
O O6 0.076098 0.643891 0.221515
O O7 0.271333 0.523139 0.171578
O O8 0.812614 0.131656 0.304254
O O9 0.324249 0.131547 0.133937
O O10 0.090691 0.023032 0.221826
O O11 0.384250 0.419646 0.727941
O O12 0.095863 0.273798 0.284312
O O13 0.500000 0.500000 0.000000
O O14 0.442637 0.687269 0.728386
O O15 0.221527 0.890657 0.533397
O O16 0.762727 0.794939 0.134055
O O17 0.500000 0.000000 0.000000
#
# Coordination Sequence:
#
# PCOD9090348 Si02
#       8
#     2   2   2   2   2   2   2   2
#     4  10  19  38  65  92 120 165 205 251 305 363
#     4  11  21  40  63  92 125 156 212 247 310 364
#     4  10  22  37  65  89 119 167 206 249 307 361
#     4  11  24  36  66  94 125 169 202 253 308 366
#     4  10  20  40  61  90 128 165 204 249 311 361
#     4  11  25  44  65  89 120 165 205 259 312 367
#     4  10  23  41  66  87 123 161 204 258 312 361
#     4  11  20  41  62  92 129 164 207 249 305 370
#
# _framework density 24.956880999999999
#
# number of rings (size 3 to 8) (size 9 to 14) (size 15 to 20)
#    0.000    1.500    2.500    3.750    8.750    0.000 
#    0.000   10.000    0.000    0.000    0.000    0.000 
#    0.000    0.000    0.000    0.000    0.000    0.000 
#
# Total GULP energy -89452.628235 kJ/mol
# GULP energy per Si atom -5590.789265 kJ/mol
# Density = 2.490008 g / cm^3
# Si number density = 24.956881 Si / 1000 Ang^3
#
#
#
# Elastic Constant Matrix: (Units=GPa)
#
#
# Indices 1 2 3 4 5 6 
#
# 1 94.1536 17.9417 31.8445 22.7380 31.4337 12.4972
# 2 17.9417 174.6160 11.7104 34.9936 30.6387 15.7798
# 3 31.8445 11.7104 61.0793 9.2381 12.0006 12.6915
# 4 22.7380 34.9936 9.2381 29.5631 3.8034 22.7660
# 5 31.4337 30.6387 12.0006 3.8034 52.4717 7.6592
# 6 12.4972 15.7798 12.6915 22.7660 7.6592 48.5463
#
#
#
# Elastic Compliance Matrix: (Units=1/GPa)
#
#
# Indices 1 2 3 4 5 6 
#
# 1 0.021681 0.004896 -0.007596 -0.025054 -0.013564 0.008702
# 2 0.004896 0.009883 -0.001298 -0.018500 -0.007911 0.005790
# 3 -0.007596 -0.001298 0.020780 0.005058 0.001005 -0.005585
# 4 -0.025054 -0.018500 0.005058 0.101224 0.023153 -0.039982
# 5 -0.013564 -0.007911 0.001005 0.023153 0.031355 -0.010004
# 6 0.008702 0.005790 -0.005585 -0.039982 -0.010004 0.038265
#
#
# Mechanical properties :
#
#
# Convention : Reuss Voigt Hill
#
# Bulk Modulus (GPa) = 22.54940 50.31580 36.43260
# Shear Modulus (GPa) = 20.32799 44.00639 32.16719
#
# Velocity S-wave (km/s) = 2.85708 4.20372 3.59404
# Velocity P-wave (km/s) = 4.46529 6.61563 5.64382
#
# Compressibility (1/GPa) = 0.04434709
#
# Stress axis : x y z
#
# Youngs Moduli (GPa) = 46.12343 101.18209 48.12406
#
# Poissons Ratio (x) = -0.49540 0.36556
# Poissons Ratio (y) = -0.22583 0.06248
# Poissons Ratio (z) = 0.35037 0.13136
#
# Static dielectric constant tensor:
#      x y z
#    x 1.938630 0.099810 -0.021390 
#    y 0.099810 2.045720 0.034790 
#    z -0.021390 0.034790 1.911140 
# 
# From -- ./inp_files/187633.got.cif
#   From: 2010.05.17/outbox.cif.g08.bks.cpg/sg2_94_cif.got.tgz:187633.got - 2010.06.03 11:33:40.
