data_PCOD9090053
_publ_section_title
;
Structure prediction by ZEFSAII (Michael W. Deem and Ramdas Pophale) SiO2 
 PCOD9090053
Probable space group: P -1
;
_chemical_formula_sum "Si O2"
_cell_formula_units_Z 16
_cell_length_a 9.020717
_cell_length_b 6.453959
_cell_length_c 17.397719
_cell_angle_alpha 133.921380
_cell_angle_beta 99.327412
_cell_angle_gamma 96.300348
_cell_volume 683.853153
_symmetry_space_group_name_H-M "P -1"
_symmetry_group_IT_number 2
_symmetry_cell_setting 'triclinic'
loop_
_space_group_symop_operation_xyz
x,y,z
-x,-y,-z
loop_
_atom_site_type_symbol
_atom_site_label
_atom_site_fract_x
_atom_site_fract_y
_atom_site_fract_z
Si Si1 0.132092 0.570892 0.095975
Si Si2 0.514716 0.213979 0.173324
Si Si3 0.346070 0.705264 0.622547
Si Si4 0.516986 0.765193 0.502560
Si Si5 0.751541 0.750351 0.237455
Si Si6 0.695237 0.787865 0.061493
Si Si7 0.020842 0.617466 0.808509
Si Si8 0.248823 0.257693 0.264644
O O1 0.055015 0.379265 0.113839
O O2 0.176125 0.925486 0.207594
O O3 0.284804 0.487342 0.057522
O O4 0.000000 0.500000 0.000000
O O5 0.600515 0.243373 0.271474
O O6 0.604581 0.507997 0.206516
O O7 0.340091 0.207798 0.181444
O O8 0.545145 0.908184 0.066187
O O9 0.476262 0.855500 0.606383
O O10 0.329767 0.350309 0.518229
O O11 0.226786 0.898319 0.651396
O O12 0.373713 0.474656 0.387506
O O13 0.500000 0.000000 0.500000
O O14 0.721066 0.721005 0.135586
O O15 0.899257 0.646271 0.248482
O O16 0.841494 0.074958 0.120780
O O17 0.883485 0.591215 0.729282
#
# Coordination Sequence:
#
# PCOD9090053 Si02
#       8
#     2   2   2   2   2   2   2   2
#     4  12  23  40  63  89 123 166 208 251 300 363
#     4   9  21  37  60  92 126 161 202 253 303 361
#     4   9  18  35  63  85 118 157 203 238 302 357
#     4  10  21  39  62  91 124 161 200 252 308 363
#     4  10  19  38  63  90 121 166 204 249 301 363
#     4  10  21  39  63  87 121 170 208 245 303 361
#     4  11  22  38  64  88 127 161 206 250 304 360
#     4  11  24  38  60  98 123 157 206 253 307 363
#
# _framework density 23.396837000000001
#
# number of rings (size 3 to 8) (size 9 to 14) (size 15 to 20)
#    0.000    1.750    2.500    1.875    0.000    6.500 
#    0.000    1.875    0.000   11.250    0.000    0.000 
#    0.000    0.000    0.000    0.000    0.000    0.000 
#
# Total GULP energy -89331.137186 kJ/mol
# GULP energy per Si atom -5583.196074 kJ/mol
# Density = 2.334358 g / cm^3
# Si number density = 23.396837 Si / 1000 Ang^3
#
#
#
# Elastic Constant Matrix: (Units=GPa)
#
#
# Indices 1 2 3 4 5 6 
#
# 1 88.8243 42.0752 18.6720 12.9059 -20.1538 -17.8184
# 2 42.0752 175.9981 33.9361 -2.7533 -15.7924 -4.3272
# 3 18.6720 33.9361 59.4213 5.6898 -12.8186 -6.6214
# 4 12.9059 -2.7533 5.6898 29.7661 -5.4185 -15.4309
# 5 -20.1538 -15.7924 -12.8186 -5.4185 37.6999 11.8072
# 6 -17.8184 -4.3272 -6.6214 -15.4309 11.8072 51.9135
#
#
#
# Elastic Compliance Matrix: (Units=1/GPa)
#
#
# Indices 1 2 3 4 5 6 
#
# 1 0.015193 -0.002936 -0.001315 -0.004484 0.005075 0.002315
# 2 -0.002936 0.007112 -0.003250 0.002565 0.000747 -0.000237
# 3 -0.001315 -0.003250 0.020326 -0.002792 0.004436 0.000032
# 4 -0.004484 0.002565 -0.002792 0.041925 0.000407 0.010688
# 5 0.005075 0.000747 0.004436 0.000407 0.032665 -0.004938
# 6 0.002315 -0.000237 0.000032 0.010688 -0.004938 0.024342
#
#
# Mechanical properties :
#
#
# Convention : Reuss Voigt Hill
#
# Bulk Modulus (GPa) = 36.19446 57.06780 46.63113
# Shear Modulus (GPa) = 30.16149 39.17993 34.67071
#
# Velocity S-wave (km/s) = 3.59434 4.09661 3.85366
# Velocity P-wave (km/s) = 5.72093 6.84255 6.30672
#
# Compressibility (1/GPa) = 0.02762853
#
# Stress axis : x y z
#
# Youngs Moduli (GPa) = 65.81990 140.61013 49.19828
#
# Poissons Ratio (x) = 0.41289 0.06469
# Poissons Ratio (y) = 0.19327 0.15988
# Poissons Ratio (z) = 0.08655 0.45695
#
# Static dielectric constant tensor:
#      x y z
#    x 1.948550 -0.018300 -0.059710 
#    y -0.018300 1.894210 0.024930 
#    z -0.059710 0.024930 1.913240 
# 
# From -- ./inp_files/323690.got.cif
#   From: 2010.05.17/outbox.cif.g08.bks.cpg/sg2_162_cif.got.tgz:323690.got - 2010.06.03 11:33:40.
