data_PCOD9090099
_publ_section_title
;
Structure prediction by ZEFSAII (Michael W. Deem and Ramdas Pophale) SiO2 
 PCOD9090099
Probable space group: P -1
;
_chemical_formula_sum "Si O2"
_cell_formula_units_Z 15
_cell_length_a 16.752381
_cell_length_b 9.755616
_cell_length_c 8.144244
_cell_angle_alpha 53.816718
_cell_angle_beta 97.646864
_cell_angle_gamma 58.187143
_cell_volume 695.507944
_symmetry_space_group_name_H-M "P -1"
_symmetry_group_IT_number 2
_symmetry_cell_setting 'triclinic'
loop_
_space_group_symop_operation_xyz
x,y,z
-x,-y,-z
loop_
_atom_site_type_symbol
_atom_site_label
_atom_site_fract_x
_atom_site_fract_y
_atom_site_fract_z
Si Si1 0.452166 0.678963 0.202529
Si Si2 0.973780 0.179336 0.510247
Si Si3 0.615222 0.183617 0.378440
Si Si4 0.734369 0.716621 0.924826
Si Si5 0.741288 0.505426 0.746620
Si Si6 0.487668 0.928673 0.825736
Si Si7 0.759690 0.113032 0.174579
Si Si8 0.000000 0.000000 0.000000
O O1 0.500000 0.500000 0.500000
O O2 0.517481 0.469895 0.221323
O O3 0.485702 0.819508 0.068521
O O4 0.305432 0.897973 0.974650
O O5 0.855877 0.482233 0.225093
O O6 0.000000 0.000000 0.500000
O O7 0.093643 0.106374 0.622678
O O8 0.957521 0.101871 0.727017
O O9 0.548472 0.142648 0.283763
O O10 0.709978 0.126844 0.324514
O O11 0.687519 0.981550 0.692669
O O12 0.764506 0.601936 0.830364
O O13 0.618751 0.799963 0.909836
O O14 0.622633 0.758914 0.435864
O O15 0.715393 0.371585 0.929761
O O16 0.861739 0.282690 0.829518
#
# Coordination Sequence:
#
# PCOD9090099 Si02
#       8
#     2   2   2   2   2   2   2   1
#     4  11  23  38  59  90 129 166 205 266 329 377
#     4  11  23  39  64  90 129 171 212 260 316 386
#     4  10  21  37  62  88 122 164 209 264 318 381
#     4  11  20  38  66  95 120 166 221 255 319 389
#     4  10  19  38  63  94 125 162 210 269 317 375
#     4  10  21  37  67  91 123 164 213 266 315 384
#     4  10  20  40  60  86 125 163 209 255 315 383
#     4  10  22  38  60  94 130 160 208 264 318 372
#
# _framework density 21.566970000000001
#
# number of rings (size 3 to 8) (size 9 to 14) (size 15 to 20)
#    0.000    1.600    2.667    5.600    0.000    3.733 
#    0.000    2.000    0.000   29.600    0.000    0.000 
#    0.000    0.000    0.000    0.000    0.000    0.000 
#
# Total GULP energy -83530.944040 kJ/mol
# GULP energy per Si atom -5568.729603 kJ/mol
# Density = 2.151788 g / cm^3
# Si number density = 21.566970 Si / 1000 Ang^3
#
#
#
# Elastic Constant Matrix: (Units=GPa)
#
#
# Indices 1 2 3 4 5 6 
#
# 1 68.2325 33.4005 68.9319 -14.5074 -3.1795 -16.3864
# 2 33.4005 82.4780 45.2274 -0.7357 10.6214 -23.6248
# 3 68.9319 45.2274 221.7870 -7.3342 -0.5701 -19.5975
# 4 -14.5074 -0.7357 -7.3342 46.6033 -6.1940 2.6481
# 5 -3.1795 10.6214 -0.5701 -6.1940 37.9562 -0.1930
# 6 -16.3864 -23.6248 -19.5975 2.6481 -0.1930 17.1904
#
#
#
# Elastic Compliance Matrix: (Units=1/GPa)
#
#
# Indices 1 2 3 4 5 6 
#
# 1 0.028387 -0.005313 -0.006477 0.007772 0.005093 0.011235
# 2 -0.005313 0.023260 -0.000909 -0.003922 -0.007473 0.026385
# 3 -0.006477 -0.000909 0.006705 -0.001044 -0.000356 0.000377
# 4 0.007772 -0.003922 -0.001044 0.024577 0.005729 -0.002894
# 5 0.005093 -0.007473 -0.000356 0.005729 0.029761 -0.006370
# 6 0.011235 0.026385 0.000377 -0.002894 -0.006370 0.105946
#
#
# Mechanical properties :
#
#
# Convention : Reuss Voigt Hill
#
# Bulk Modulus (GPa) = 30.34495 74.17968 52.26231
# Shear Modulus (GPa) = 19.60638 35.34582 27.47610
#
# Velocity S-wave (km/s) = 3.01839 4.05271 3.57317
# Velocity P-wave (km/s) = 5.12330 7.50793 6.42718
#
# Compressibility (1/GPa) = 0.03295442
#
# Stress axis : x y z
#
# Youngs Moduli (GPa) = 35.22701 42.99279 149.13941
#
# Poissons Ratio (x) = 0.22841 0.96592
# Poissons Ratio (y) = 0.18715 0.13563
# Poissons Ratio (z) = 0.22815 0.03910
#
# Static dielectric constant tensor:
#      x y z
#    x 1.846300 0.046210 -0.007950 
#    y 0.046210 1.784440 0.012820 
#    z -0.007950 0.012820 1.815570 
# 
# From -- ./inp_files/254237.got.cif
#   From: 2010.05.17/outbox.cif.g08.bks.cpg/sg2_128_cif.got.tgz:254237.got - 2010.06.03 11:33:40.
