data_PCOD9090974
_publ_section_title
;
Structure prediction by ZEFSAII (Michael W. Deem and Ramdas Pophale) SiO2 
 PCOD9090974
Probable space group: P -1
;
_chemical_formula_sum "Si O2"
_cell_formula_units_Z 16
_cell_length_a 25.330759
_cell_length_b 15.505901
_cell_length_c 9.441678
_cell_angle_alpha 135.659590
_cell_angle_beta 150.815674
_cell_angle_gamma 25.293078
_cell_volume 721.999584
_symmetry_space_group_name_H-M "P -1"
_symmetry_group_IT_number 2
_symmetry_cell_setting 'triclinic'
loop_
_space_group_symop_operation_xyz
x,y,z
-x,-y,-z
loop_
_atom_site_type_symbol
_atom_site_label
_atom_site_fract_x
_atom_site_fract_y
_atom_site_fract_z
Si Si1 0.809835 0.244915 0.390222
Si Si2 0.378454 0.941945 0.959068
Si Si3 0.560799 0.399163 0.250345
Si Si4 0.794401 0.508018 0.810736
Si Si5 0.283488 0.311090 0.714039
Si Si6 0.517776 0.689987 0.603397
Si Si7 0.184008 0.149770 0.449939
Si Si8 0.898841 0.657203 0.080853
O O1 0.725333 0.269810 0.368206
O O2 0.840480 0.361219 0.630158
O O3 0.640599 0.392508 0.054207
O O4 0.000000 0.000000 0.500000
O O5 0.422404 0.756129 0.842932
O O6 0.242845 0.098039 0.690466
O O7 0.266410 0.086846 0.007835
O O8 0.572548 0.831972 0.249348
O O9 0.568965 0.498391 0.503763
O O10 0.597839 0.659575 0.603527
O O11 0.802366 0.634530 0.911727
O O12 0.962353 0.346720 0.131174
O O13 0.258704 0.204610 0.612675
O O14 0.078291 0.541896 0.451325
O O15 0.376444 0.324295 0.050660
O O16 0.298396 0.928840 0.389597
O O17 0.000000 0.500000 0.000000
#
# Coordination Sequence:
#
# PCOD9090974 Si02
#       8
#     2   2   2   2   2   2   2   2
#     4  10  22  42  63  83 124 167 208 244 296 366
#     4  11  23  40  62  90 132 154 203 262 300 357
#     4  10  24  39  60  95 120 163 207 249 302 362
#     4  10  21  38  63  87 116 164 206 247 304 360
#     4  10  22  39  64  92 123 160 203 250 311 365
#     4  10  19  39  62  88 119 155 204 249 306 360
#     4  10  20  38  64  94 120 159 202 251 310 361
#     4  11  25  40  58  92 124 162 206 250 307 367
#
# _framework density 22.160677
#
# number of rings (size 3 to 8) (size 9 to 14) (size 15 to 20)
#    0.000    1.750    0.000    4.500    3.500    4.500 
#    4.500    5.625    0.000    0.000    0.000    0.000 
#    0.000    0.000    0.000    0.000    0.000    0.000 
#
# Total GULP energy -89446.662217 kJ/mol
# GULP energy per Si atom -5590.416389 kJ/mol
# Density = 2.211024 g / cm^3
# Si number density = 22.160677 Si / 1000 Ang^3
#
#
#
# Elastic Constant Matrix: (Units=GPa)
#
#
# Indices 1 2 3 4 5 6 
#
# 1 45.8590 37.0168 -3.3528 -9.3070 6.1264 -13.7606
# 2 37.0168 123.5622 15.0192 2.8050 8.1173 -30.1027
# 3 -3.3528 15.0192 38.2581 2.5637 5.6674 -3.6223
# 4 -9.3070 2.8050 2.5637 29.1998 -8.8125 6.4336
# 5 6.1264 8.1173 5.6674 -8.8125 11.8701 0.3393
# 6 -13.7606 -30.1027 -3.6223 6.4336 0.3393 35.0778
#
#
#
# Elastic Compliance Matrix: (Units=1/GPa)
#
#
# Indices 1 2 3 4 5 6 
#
# 1 0.034425 -0.009626 0.008272 0.007065 -0.010029 0.004899
# 2 -0.009626 0.014954 -0.003350 -0.009993 -0.011383 0.010654
# 3 0.008272 -0.003350 0.032827 -0.008400 -0.024047 0.005534
# 4 0.007065 -0.009993 -0.008400 0.057235 0.050195 -0.017655
# 5 -0.010029 -0.011383 -0.024047 0.050195 0.146718 -0.026811
# 6 0.004899 0.010654 0.005534 -0.017655 -0.026811 0.043642
#
#
# Mechanical properties :
#
#
# Convention : Reuss Voigt Hill
#
# Bulk Modulus (GPa) = 13.73676 33.89398 23.81537
# Shear Modulus (GPa) = 13.75611 25.82930 19.79271
#
# Velocity S-wave (km/s) = 2.49418 3.41771 2.99180
# Velocity P-wave (km/s) = 3.80877 5.55898 4.76492
#
# Compressibility (1/GPa) = 0.07279738
#
# Stress axis : x y z
#
# Youngs Moduli (GPa) = 29.04905 66.87000 30.46259
#
# Poissons Ratio (x) = 0.64372 -0.25198
# Poissons Ratio (y) = 0.27964 0.10204
# Poissons Ratio (z) = -0.24029 0.22400
#
# Static dielectric constant tensor:
#      x y z
#    x 1.847280 -0.037270 -0.036850 
#    y -0.037270 1.855290 0.041320 
#    z -0.036850 0.041320 1.821520 
# 
# From -- ./inp_files/354602.got.cif
#   From: 2010.05.17/outbox.cif.g08.bks.cpg/sg2_178_cif.got.tgz:354602.got - 2010.06.03 11:33:40.
